@<TRIPOS>MOLECULE
NONAME
39 41 1 0 0 
SMALL
USER_CHARGES


@<TRIPOS>ATOM
  1 F        0.3810    -0.8230     1.3390 F     1 <1>  -0.3400 
  2 C        0.5780    -1.3820     0.1540 C.3   1 <1>   0.7800 
  3 F        0.1300    -0.4870    -0.7140 F     1 <1>  -0.3400 
  4 C       -0.2650    -2.6320     0.0530 C.2   1 <1>  -0.3320 
  5 N       -1.5960    -2.5950     0.2190 N.pl3 1 <1>   0.3000 
  6 C        0.0560    -3.9180    -0.1950 C.2   1 <1>  -0.1500 
  7 N       -2.1490    -3.8100     0.0890 N.2   1 <1>  -0.7070 
  8 C       -1.1470    -4.6390    -0.1670 C.2   1 <1>   0.2030 
  9 C       -1.2030    -6.0840    -0.3940 C.2   1 <1>   0.7160 
 10 O       -0.1650    -6.6990    -0.5880 O.2   1 <1>  -0.5700 
 11 N       -2.3760    -6.8200    -0.4050 N.am  1 <1>  -0.6600 
 12 C       -3.7380    -6.2910    -0.1470 C.3   1 <1>   0.1400 
 13 C       -2.4140    -8.2860    -0.6040 C.3   1 <1>   0.1400 
 14 C       -4.6600    -7.5090    -0.2250 C.3   1 <1>   0.2000 
 15 C       -3.7570    -8.7260    -0.0190 C.3   1 <1>  -0.0800 
 16 O       -5.6390    -7.4740     0.7550 O.3   1 <1>  -0.6800 
 17 C       -4.3270    -9.9980    -0.6640 C.3   1 <1>   0.0200 
 18 C       -3.4560   -11.2230    -0.4430 C.2   1 <1>  -0.0400 
 19 O       -3.7250   -12.3120    -1.1140 O.3   1 <1>  -0.0190 
 20 C       -2.3950   -11.4790     0.3400 C.2   1 <1>  -0.1500 
 21 N       -2.9010   -13.2770    -0.8270 N.2   1 <1>  -0.4100 
 22 C       -2.0880   -12.8040     0.0470 C.2   1 <1>   0.1080 
 23 C       -0.9530   -13.5900     0.6650 C.3   1 <1>  -0.0590 
 24 H        1.6340    -1.5210     0.0030 H     1 <1>   0.0800 
 25 H       -2.1460    -1.7480     0.4220 H     1 <1>   0.2700 
 26 H        1.0220    -4.3570    -0.3830 H     1 <1>   0.1500 
 27 H       -3.7680    -5.8420     0.8310 H     1 <1>   0.0800 
 28 H       -4.0020    -5.5630    -0.8950 H     1 <1>   0.0800 
 29 H       -2.3640    -8.4950    -1.6590 H     1 <1>   0.0800 
 30 H       -1.5870    -8.7640    -0.1070 H     1 <1>   0.0800 
 31 H       -5.1440    -7.5360    -1.1870 H     1 <1>   0.0800 
 32 H       -3.6150    -8.8880     1.0350 H     1 <1>   0.0800 
 33 H       -5.2340    -7.4050     1.6410 H     1 <1>   0.4000 
 34 H       -4.4400    -9.8440    -1.7230 H     1 <1>   0.0800 
 35 H       -5.3040   -10.1980    -0.2580 H     1 <1>   0.0800 
 36 H       -1.8750   -10.8510     1.0390 H     1 <1>   0.1500 
 37 H       -1.0530   -13.5950     1.7350 H     1 <1>   0.0800 
 38 H       -0.0130   -13.1460     0.3970 H     1 <1>   0.0800 
 39 H       -0.9730   -14.6050     0.3100 H     1 <1>   0.0800 
@<TRIPOS>BOND
  1   1   2  1   
  2   2   3  1   
  3   2   4  1   
  4   2  24  1   
  5   4   5  1   
  6   4   6  2   
  7   5   7  1   
  8   5  25  1   
  9   6   8  1   
 10   6  26  1   
 11   7   8  2   
 12   8   9  1   
 13   9  10  2   
 14   9  11  am  
 15  11  12  1   
 16  11  13  1   
 17  12  14  1   
 18  12  27  1   
 19  12  28  1   
 20  13  15  1   
 21  13  29  1   
 22  13  30  1   
 23  14  15  1   
 24  14  16  1   
 25  14  31  1   
 26  15  17  1   
 27  15  32  1   
 28  16  33  1   
 29  17  18  1   
 30  17  34  1   
 31  17  35  1   
 32  18  19  1   
 33  18  20  2   
 34  19  21  1   
 35  20  22  1   
 36  20  36  1   
 37  21  22  2   
 38  22  23  1   
 39  23  37  1   
 40  23  38  1   
 41  23  39  1   
@<TRIPOS>SUBSTRUCTURE
  1 ****  11 GROUP 4 **** **** 0

# MOE 2024.06 (io_trps.svl 2023.06)
