@<TRIPOS>MOLECULE
NONAME
41 42 1 0 0 
SMALL
USER_CHARGES


@<TRIPOS>ATOM
  1 CL      -0.6470    -0.0740    -1.4410 Cl    1 <1>  -0.1770 
  2 C       -1.5680     0.9290    -0.3250 C.ar  1 <1>   0.1770 
  3 C       -1.2170     2.2950    -0.1270 C.ar  1 <1>   0.4100 
  4 C       -2.6470     0.4120     0.3240 C.ar  1 <1>   0.2170 
  5 N       -1.9650     3.0820     0.6330 N.ar  1 <1>  -0.6200 
  6 N       -0.1160     2.8740    -0.6810 N.pl3 1 <1>  -0.8380 
  7 N       -3.3470     1.2600     1.1220 N.ar  1 <1>  -0.1790 
  8 C       -3.1430    -1.0260     0.2220 C.3   1 <1>  -0.0970 
  9 C       -2.9990     2.5530     1.2450 C.ar  1 <1>   0.7710 
 10 C       -0.1290     4.2730    -1.1970 C.3   1 <1>   0.2090 
 11 C        1.2480     2.2770    -0.6150 C.3   1 <1>   0.2090 
 12 N       -3.7110     3.3700     2.0150 N.pl3 1 <1>  -0.9000 
 13 C        0.7550     5.1610    -0.3190 C.3   1 <1>  -0.1600 
 14 C        2.1500     3.1520     0.2590 C.3   1 <1>  -0.1600 
 15 C        2.1910     4.6140    -0.2180 C.3   1 <1>  -0.0800 
 16 C        3.0680     5.4490     0.7340 C.3   1 <1>  -0.1600 
 17 C        3.2720     6.8880     0.2580 C.3   1 <1>   0.1200 
 18 O        4.1660     7.4960     1.1280 O.3   1 <1>  -0.5600 
 19 C        4.4450     8.8220     0.8170 C.3   1 <1>   0.0400 
 20 H       -4.1630     0.9540     1.6420 H     1 <1>   0.4570 
 21 H       -2.5120    -1.6220    -0.4140 H     1 <1>   0.0800 
 22 H       -4.1380    -1.0510    -0.1890 H     1 <1>   0.0800 
 23 H       -3.1560    -1.4890     1.1930 H     1 <1>   0.0800 
 24 H       -1.1340     4.6610    -1.2140 H     1 <1>   0.0800 
 25 H        0.2420     4.2760    -2.2080 H     1 <1>   0.0800 
 26 H        1.6540     2.2040    -1.6100 H     1 <1>   0.0800 
 27 H        1.2130     1.2910    -0.1890 H     1 <1>   0.0800 
 28 H       -4.5420     3.1750     2.5750 H     1 <1>   0.4000 
 29 H       -3.3930     4.3440     2.0780 H     1 <1>   0.4000 
 30 H        0.3150     5.2220     0.6600 H     1 <1>   0.0800 
 31 H        0.7610     6.1490    -0.7410 H     1 <1>   0.0800 
 32 H        3.1440     2.7410     0.2510 H     1 <1>   0.0800 
 33 H        1.7880     3.1110     1.2720 H     1 <1>   0.0800 
 34 H        2.6370     4.6330    -1.2000 H     1 <1>   0.0800 
 35 H        4.0360     4.9850     0.8120 H     1 <1>   0.0800 
 36 H        2.6240     5.4660     1.7140 H     1 <1>   0.0800 
 37 H        2.3470     7.4370     0.2800 H     1 <1>   0.0800 
 38 H        3.6910     6.9040    -0.7330 H     1 <1>   0.0800 
 39 H        5.1430     9.1950     1.5450 H     1 <1>   0.0800 
 40 H        3.5350     9.3960     0.8590 H     1 <1>   0.0800 
 41 H        4.8830     8.8720    -0.1640 H     1 <1>   0.0800 
@<TRIPOS>BOND
  1   1   2  1   
  2   2   3  ar  
  3   2   4  ar  
  4   3   5  ar  
  5   3   6  1   
  6   4   7  ar  
  7   4   8  1   
  8   5   9  ar  
  9   6  10  1   
 10   6  11  1   
 11   7   9  ar  
 12   7  20  1   
 13   8  21  1   
 14   8  22  1   
 15   8  23  1   
 16   9  12  1   
 17  10  13  1   
 18  10  24  1   
 19  10  25  1   
 20  11  14  1   
 21  11  26  1   
 22  11  27  1   
 23  12  28  1   
 24  12  29  1   
 25  13  15  1   
 26  13  30  1   
 27  13  31  1   
 28  14  15  1   
 29  14  32  1   
 30  14  33  1   
 31  15  16  1   
 32  15  34  1   
 33  16  17  1   
 34  16  35  1   
 35  16  36  1   
 36  17  18  1   
 37  17  37  1   
 38  17  38  1   
 39  18  19  1   
 40  19  39  1   
 41  19  40  1   
 42  19  41  1   
@<TRIPOS>SUBSTRUCTURE
  1 ****   6 GROUP 4 **** **** 0

# MOE 2024.06 (io_trps.svl 2023.06)
