@<TRIPOS>MOLECULE
NONAME
46 48 1 0 0 
SMALL
USER_CHARGES


@<TRIPOS>ATOM
  1 S       -0.2420     0.1060    -1.5410 S.o2  1 <1>   1.4470 
  2 O       -0.5240    -0.9160    -2.5270 O.2   1 <1>  -0.6500 
  3 O        0.0240     1.4490    -2.0040 O.2   1 <1>  -0.6500 
  4 N       -1.5960     0.1760    -0.5170 N.am  1 <1>  -0.8490 
  5 C        1.0820    -0.5320    -0.4800 C.ar  1 <1>  -0.0090 
  6 C       -2.8750     0.2430    -1.2550 C.3   1 <1>   0.1960 
  7 C       -1.4610     1.1800     0.5520 C.3   1 <1>   0.1960 
  8 C        1.8730     0.3010     0.3020 C.ar  1 <1>   0.1900 
  9 C        1.3350    -1.9020    -0.3990 C.ar  1 <1>  -0.1500 
 10 C       -3.5430     1.6180    -1.1570 C.3   1 <1>  -0.1600 
 11 C       -2.8020     1.3740     1.2550 C.3   1 <1>  -0.1600 
 12 F        1.6700     1.5900     0.2900 F     1 <1>  -0.1900 
 13 C        2.8820    -0.1600     1.1270 C.ar  1 <1>  -0.1500 
 14 C        2.3370    -2.4050     0.4180 C.ar  1 <1>  -0.1500 
 15 C       -3.8170     2.0370     0.3070 C.3   1 <1>   0.2800 
 16 C        3.0940    -1.5220     1.1660 C.ar  1 <1>   0.1900 
 17 O       -3.5510     3.4120     0.3920 O.3   1 <1>  -0.5600 
 18 C       -5.2470     1.7260     0.8030 C.3   1 <1>  -0.1600 
 19 F        4.0370    -1.9920     1.9340 F     1 <1>  -0.1900 
 20 C       -4.5940     4.3560     0.3410 C.3   1 <1>   0.1200 
 21 C       -6.3550     2.5400     0.1060 C.3   1 <1>   0.2800 
 22 C       -5.7890     3.8660    -0.4850 C.3   1 <1>   0.2000 
 23 O       -6.8530     1.7760    -0.9310 O.3   1 <1>  -0.6800 
 24 C       -7.5380     2.7320     1.0690 C.3   1 <1>  -0.2400 
 25 O       -6.7420     4.8870    -0.5470 O.3   1 <1>  -0.6800 
 26 H       -2.7390    -0.0080    -2.2940 H     1 <1>   0.0800 
 27 H       -3.5420    -0.4940    -0.8400 H     1 <1>   0.0800 
 28 H       -0.7290     0.8470     1.2670 H     1 <1>   0.0800 
 29 H       -1.1340     2.1250     0.1460 H     1 <1>   0.0800 
 30 H        0.7380    -2.5850    -0.9840 H     1 <1>   0.1500 
 31 H       -4.4480     1.5910    -1.7310 H     1 <1>   0.0800 
 32 H       -2.8900     2.3330    -1.6290 H     1 <1>   0.0800 
 33 H       -2.6720     1.9840     2.1310 H     1 <1>   0.0800 
 34 H       -3.1510     0.4100     1.5780 H     1 <1>   0.0800 
 35 H        3.4770     0.5130     1.7160 H     1 <1>   0.1500 
 36 H        2.5310    -3.4620     0.4750 H     1 <1>   0.1500 
 37 H       -5.4450     0.6730     0.7150 H     1 <1>   0.0800 
 38 H       -5.2620     1.9550     1.8530 H     1 <1>   0.0800 
 39 H       -4.8970     4.5570     1.3530 H     1 <1>   0.0800 
 40 H       -4.1900     5.2540    -0.0920 H     1 <1>   0.0800 
 41 H       -5.4470     3.7040    -1.4920 H     1 <1>   0.0800 
 42 H       -7.4150     1.0630    -0.5780 H     1 <1>   0.4000 
 43 H       -7.2580     3.3860     1.8750 H     1 <1>   0.0800 
 44 H       -7.8350     1.7900     1.4960 H     1 <1>   0.0800 
 45 H       -8.3830     3.1590     0.5580 H     1 <1>   0.0800 
 46 H       -7.3390     4.8390     0.2220 H     1 <1>   0.4000 
@<TRIPOS>BOND
  1   1   2  2   
  2   1   3  2   
  3   1   4  am  
  4   1   5  1   
  5   4   6  1   
  6   4   7  1   
  7   5   8  ar  
  8   5   9  ar  
  9   6  10  1   
 10   6  26  1   
 11   6  27  1   
 12   7  11  1   
 13   7  28  1   
 14   7  29  1   
 15   8  12  1   
 16   8  13  ar  
 17   9  14  ar  
 18   9  30  1   
 19  10  15  1   
 20  10  31  1   
 21  10  32  1   
 22  11  15  1   
 23  11  33  1   
 24  11  34  1   
 25  13  16  ar  
 26  13  35  1   
 27  14  16  ar  
 28  14  36  1   
 29  15  17  1   
 30  15  18  1   
 31  16  19  1   
 32  17  20  1   
 33  18  21  1   
 34  18  37  1   
 35  18  38  1   
 36  20  22  1   
 37  20  39  1   
 38  20  40  1   
 39  21  22  1   
 40  21  23  1   
 41  21  24  1   
 42  22  25  1   
 43  22  41  1   
 44  23  42  1   
 45  24  43  1   
 46  24  44  1   
 47  24  45  1   
 48  25  46  1   
@<TRIPOS>SUBSTRUCTURE
  1 ****   7 GROUP 4 **** **** 0

# MOE 2024.06 (io_trps.svl 2023.06)
