@<TRIPOS>MOLECULE
NONAME
40 41 1 0 0 
SMALL
USER_CHARGES


@<TRIPOS>ATOM
  1 F        1.0090     1.4170     1.2100 F     1 <1>  -0.3400 
  2 C        0.7910     1.9590     0.0160 C.3   1 <1>   1.1640 
  3 F       -0.2050     1.2560    -0.5200 F     1 <1>  -0.3400 
  4 F        1.8620     1.6790    -0.7230 F     1 <1>  -0.3400 
  5 C        0.4910     3.4880     0.0900 C.ar  1 <1>   0.1660 
  6 N        1.4290     4.3100     0.5810 N.ar  1 <1>  -0.6200 
  7 C       -0.7400     3.9720    -0.3500 C.ar  1 <1>  -0.1500 
  8 C        1.1340     5.5980     0.6320 C.ar  1 <1>   0.1600 
  9 C       -1.0210     5.3210    -0.2970 C.ar  1 <1>  -0.1500 
 10 C       -0.0530     6.1800     0.1990 C.ar  1 <1>   0.0860 
 11 C       -0.2610     7.6090     0.2700 C.2   1 <1>   0.5440 
 12 O       -1.3450     8.0450     0.5980 O.2   1 <1>  -0.5700 
 13 N        0.7730     8.4610    -0.0450 N.am  1 <1>  -0.4940 
 14 C        0.9350     9.8600     0.1080 C.2   1 <1>  -0.0880 
 15 N       -0.0010    10.8440    -0.0190 N.pl3 1 <1>   0.3140 
 16 C        2.1050    10.4830     0.3900 C.2   1 <1>  -0.1810 
 17 N        0.5430    12.0640     0.1750 N.2   1 <1>  -0.7070 
 18 C       -1.4090    10.7410    -0.4210 C.3   1 <1>   0.0160 
 19 C        1.7940    11.8420     0.4230 C.2   1 <1>   0.1080 
 20 C        3.4600     9.8330     0.6260 C.3   1 <1>   0.0210 
 21 C        2.7500    12.9870     0.7120 C.3   1 <1>   0.0210 
 22 C        4.1110     9.4250    -0.6980 C.3   1 <1>  -0.2400 
 23 C        3.4870    13.4380    -0.5530 C.3   1 <1>  -0.2400 
 24 H       -1.4920     3.3050    -0.7360 H     1 <1>   0.1500 
 25 H        1.8900     6.2390     1.0530 H     1 <1>   0.1500 
 26 H       -1.9700     5.7090    -0.6300 H     1 <1>   0.1500 
 27 H        1.6250     8.0040    -0.3680 H     1 <1>   0.3700 
 28 H       -1.5160     9.9630    -1.1520 H     1 <1>   0.0800 
 29 H       -1.7250    11.6770    -0.8420 H     1 <1>   0.0800 
 30 H       -2.0030    10.5170     0.4450 H     1 <1>   0.0800 
 31 H        3.3310     8.9650     1.2480 H     1 <1>   0.0800 
 32 H        4.1090    10.5100     1.1510 H     1 <1>   0.0800 
 33 H        3.4550    12.6930     1.4670 H     1 <1>   0.0800 
 34 H        2.1820    13.8120     1.1040 H     1 <1>   0.0800 
 35 H        3.4940     8.7180    -1.2220 H     1 <1>   0.0800 
 36 H        5.0720     8.9800    -0.5160 H     1 <1>   0.0800 
 37 H        4.2440    10.2880    -1.3250 H     1 <1>   0.0800 
 38 H        4.0860    12.6370    -0.9440 H     1 <1>   0.0800 
 39 H        4.1230    14.2760    -0.3320 H     1 <1>   0.0800 
 40 H        2.7720    13.7330    -1.3010 H     1 <1>   0.0800 
@<TRIPOS>BOND
  1   1   2  1   
  2   2   3  1   
  3   2   4  1   
  4   2   5  1   
  5   5   6  ar  
  6   5   7  ar  
  7   6   8  ar  
  8   7   9  ar  
  9   7  24  1   
 10   8  10  ar  
 11   8  25  1   
 12   9  10  ar  
 13   9  26  1   
 14  10  11  1   
 15  11  12  2   
 16  11  13  am  
 17  13  14  1   
 18  13  27  1   
 19  14  15  1   
 20  14  16  2   
 21  15  17  1   
 22  15  18  1   
 23  16  19  1   
 24  16  20  1   
 25  17  19  2   
 26  18  28  1   
 27  18  29  1   
 28  18  30  1   
 29  19  21  1   
 30  20  22  1   
 31  20  31  1   
 32  20  32  1   
 33  21  23  1   
 34  21  33  1   
 35  21  34  1   
 36  22  35  1   
 37  22  36  1   
 38  22  37  1   
 39  23  38  1   
 40  23  39  1   
 41  23  40  1   
@<TRIPOS>SUBSTRUCTURE
  1 ****  13 GROUP 4 **** **** 0

# MOE 2024.06 (io_trps.svl 2023.06)
