@<TRIPOS>MOLECULE
NONAME
61 63 1 0 0 
SMALL
USER_CHARGES


@<TRIPOS>ATOM
  1 O       -4.9940     1.7280    -1.2050 O.2   1 <1>  -0.5700 
  2 C       -4.0910     1.0990    -0.6860 C.2   1 <1>   0.5440 
  3 N       -4.2430    -0.2640    -0.5160 N.am  1 <1>  -0.6600 
  4 C       -2.8950     1.7990    -0.2630 C.ar  1 <1>   0.0860 
  5 C       -3.1360    -1.1310     0.0370 C.3   1 <1>   0.3640 
  6 C       -5.5850    -0.8790    -0.7410 C.3   1 <1>   0.1400 
  7 C       -2.6000     1.9920     1.0830 C.ar  1 <1>  -0.1500 
  8 C       -1.9790     2.2770    -1.1930 C.ar  1 <1>  -0.1500 
  9 C       -1.8940    -0.9870    -0.8490 C.ar  1 <1>  -0.1430 
 10 C       -3.4660    -2.6500     0.1880 C.3   1 <1>   0.2000 
 11 C       -5.5210    -2.3970    -0.9020 C.3   1 <1>   0.1200 
 12 C       -1.4200     2.5940     1.4790 C.ar  1 <1>  -0.1500 
 13 C       -0.7970     2.8760    -0.7990 C.ar  1 <1>  -0.1500 
 14 C       -0.6640    -0.6820    -0.2790 C.ar  1 <1>  -0.1500 
 15 C       -1.9760    -1.1430    -2.2270 C.ar  1 <1>  -0.1500 
 16 O       -4.8370    -2.9380     0.1800 O.3   1 <1>  -0.5600 
 17 C       -2.9130    -3.2470     1.4930 C.3   1 <1>   0.1200 
 18 C       -0.4850     3.0340     0.5480 C.ar  1 <1>  -0.1430 
 19 C        0.4650    -0.5290    -1.0640 C.ar  1 <1>   0.0830 
 20 C       -0.8550    -0.9800    -3.0220 C.ar  1 <1>  -0.1500 
 21 O       -1.5470    -3.0180     1.6240 O.3   1 <1>  -0.6800 
 22 C        0.8370     3.6640     1.0360 C.3   1 <1>   0.1440 
 23 O        1.6340    -0.2600    -0.4340 O.3   1 <1>  -0.3620 
 24 C        0.3640    -0.6540    -2.4540 C.ar  1 <1>   0.0830 
 25 C        0.5320     4.9560     1.8070 C.3   1 <1>  -0.2400 
 26 C        1.5700     2.6780     1.9590 C.3   1 <1>  -0.2400 
 27 C        1.7980     4.0150    -0.1120 C.3   1 <1>  -0.2400 
 28 C        2.6210    -1.2650    -0.4900 C.3   1 <1>   0.0400 
 29 O        1.4130    -0.4590    -3.2890 O.3   1 <1>  -0.3630 
 30 C        1.9370     0.8500    -3.3340 C.3   1 <1>   0.0400 
 31 H       -2.8970    -0.7550     1.0170 H     1 <1>   0.0800 
 32 H       -6.2200    -0.6410     0.0930 H     1 <1>   0.0800 
 33 H       -6.0330    -0.4560    -1.6240 H     1 <1>   0.0800 
 34 H       -3.3050     1.6590     1.8240 H     1 <1>   0.1500 
 35 H       -2.1960     2.1560    -2.2400 H     1 <1>   0.1500 
 36 H       -3.0360    -3.1910    -0.6370 H     1 <1>   0.0800 
 37 H       -5.0240    -2.6730    -1.8160 H     1 <1>   0.0800 
 38 H       -6.5140    -2.8100    -0.9060 H     1 <1>   0.0800 
 39 H       -1.2340     2.7120     2.5300 H     1 <1>   0.1500 
 40 H       -0.1300     3.2040    -1.5720 H     1 <1>   0.1500 
 41 H       -0.5690    -0.5520     0.7850 H     1 <1>   0.1500 
 42 H       -2.9200    -1.3780    -2.6880 H     1 <1>   0.1500 
 43 H       -3.0780    -4.3100     1.5160 H     1 <1>   0.0800 
 44 H       -3.4000    -2.7930     2.3390 H     1 <1>   0.0800 
 45 H       -0.9220    -1.0920    -4.0890 H     1 <1>   0.1500 
 46 H       -1.0450    -3.4480     0.9020 H     1 <1>   0.4000 
 47 H        1.4410     5.4260     2.1350 H     1 <1>   0.0800 
 48 H       -0.0730     4.7540     2.6720 H     1 <1>   0.0800 
 49 H       -0.0030     5.6420     1.1750 H     1 <1>   0.0800 
 50 H        2.5190     3.0790     2.2680 H     1 <1>   0.0800 
 51 H        1.7430     1.7520     1.4400 H     1 <1>   0.0800 
 52 H        0.9970     2.4660     2.8410 H     1 <1>   0.0800 
 53 H        2.7120     4.4300     0.2730 H     1 <1>   0.0800 
 54 H        1.3550     4.7420    -0.7690 H     1 <1>   0.0800 
 55 H        2.0430     3.1320    -0.6760 H     1 <1>   0.0800 
 56 H        3.4540    -0.9520     0.1120 H     1 <1>   0.0800 
 57 H        2.9340    -1.4000    -1.5100 H     1 <1>   0.0800 
 58 H        2.2070    -2.1780    -0.1020 H     1 <1>   0.0800 
 59 H        2.6670     0.8940    -4.1210 H     1 <1>   0.0800 
 60 H        2.4000     1.0810    -2.3920 H     1 <1>   0.0800 
 61 H        1.1350     1.5380    -3.5340 H     1 <1>   0.0800 
@<TRIPOS>BOND
  1   1   2  2   
  2   2   3  am  
  3   2   4  1   
  4   3   5  1   
  5   3   6  1   
  6   4   7  ar  
  7   4   8  ar  
  8   5   9  1   
  9   5  10  1   
 10   5  31  1   
 11   6  11  1   
 12   6  32  1   
 13   6  33  1   
 14   7  12  ar  
 15   7  34  1   
 16   8  13  ar  
 17   8  35  1   
 18   9  14  ar  
 19   9  15  ar  
 20  10  16  1   
 21  10  17  1   
 22  10  36  1   
 23  11  16  1   
 24  11  37  1   
 25  11  38  1   
 26  12  18  ar  
 27  12  39  1   
 28  13  18  ar  
 29  13  40  1   
 30  14  19  ar  
 31  14  41  1   
 32  15  20  ar  
 33  15  42  1   
 34  17  21  1   
 35  17  43  1   
 36  17  44  1   
 37  18  22  1   
 38  19  23  1   
 39  19  24  ar  
 40  20  24  ar  
 41  20  45  1   
 42  21  46  1   
 43  22  25  1   
 44  22  26  1   
 45  22  27  1   
 46  23  28  1   
 47  24  29  1   
 48  25  47  1   
 49  25  48  1   
 50  25  49  1   
 51  26  50  1   
 52  26  51  1   
 53  26  52  1   
 54  27  53  1   
 55  27  54  1   
 56  27  55  1   
 57  28  56  1   
 58  28  57  1   
 59  28  58  1   
 60  29  30  1   
 61  30  59  1   
 62  30  60  1   
 63  30  61  1   
@<TRIPOS>SUBSTRUCTURE
  1 ****  14 GROUP 4 **** **** 0

# MOE 2024.06 (io_trps.svl 2023.06)
