@<TRIPOS>MOLECULE
NONAME
46 47 1 0 0 
SMALL
USER_CHARGES


@<TRIPOS>ATOM
  1 O        1.5830     0.1720     1.6810 O.2   1 <1>  -0.5700 
  2 C        1.3450    -1.0090     1.5640 C.2   1 <1>   0.5690 
  3 N        0.4060    -1.5790     2.3550 N.am  1 <1>  -0.7300 
  4 C        2.1280    -1.8600     0.5260 C.3   1 <1>   0.2510 
  5 C        0.0510    -3.0140     2.2830 C.3   1 <1>   0.1400 
  6 N        1.7640    -3.3190     0.4850 N.3   1 <1>  -0.8100 
  7 C        3.6380    -1.7240     0.7990 C.3   1 <1>  -0.0990 
  8 C        0.3580    -3.5720     0.8840 C.3   1 <1>   0.1100 
  9 C        2.1800    -3.9810    -0.7710 C.3   1 <1>   0.1900 
 10 C        4.2410    -0.6250    -0.0460 C.2   1 <1>   0.5690 
 11 C        1.1930    -3.7610    -1.9220 C.3   1 <1>  -0.2400 
 12 C        2.3950    -5.4690    -0.5070 C.3   1 <1>  -0.2400 
 13 O        4.9750    -0.9440    -0.9480 O.2   1 <1>  -0.5700 
 14 N        3.9090     0.6660     0.2410 N.am  1 <1>  -0.4940 
 15 C        4.3410     1.8590    -0.3430 C.2   1 <1>   0.2040 
 16 O        5.3220     1.9070    -1.2130 O.3   1 <1>  -0.0190 
 17 C        3.8960     3.1180    -0.1590 C.2   1 <1>  -0.1810 
 18 N        5.5560     3.1310    -1.6160 N.2   1 <1>  -0.4100 
 19 C        4.7110     3.8770    -0.9970 C.2   1 <1>   0.1080 
 20 C        2.7750     3.6200     0.7360 C.3   1 <1>  -0.0590 
 21 C        4.6430     5.3830    -1.1800 C.3   1 <1>   0.0210 
 22 C        5.4570     6.1110    -0.1060 C.3   1 <1>  -0.2400 
 23 H       -0.0450    -0.9990     3.0650 H     1 <1>   0.3700 
 24 H        1.9080    -1.4370    -0.4390 H     1 <1>   0.0800 
 25 H       -0.9970    -3.1370     2.4940 H     1 <1>   0.0800 
 26 H        0.6150    -3.5610     3.0200 H     1 <1>   0.0800 
 27 H        4.1580    -2.6370     0.5800 H     1 <1>   0.0800 
 28 H        3.8130    -1.5070     1.8370 H     1 <1>   0.0800 
 29 H       -0.3140    -3.1140     0.1800 H     1 <1>   0.0800 
 30 H        0.1640    -4.6290     0.8920 H     1 <1>   0.0800 
 31 H        3.1300    -3.5780    -1.0810 H     1 <1>   0.0800 
 32 H        0.2630    -4.2700    -1.7460 H     1 <1>   0.0800 
 33 H        1.6150    -4.1580    -2.8280 H     1 <1>   0.0800 
 34 H        1.0100    -2.7140    -2.0770 H     1 <1>   0.0800 
 35 H        1.4700    -5.9690    -0.2930 H     1 <1>   0.0800 
 36 H        3.0700    -5.5980     0.3200 H     1 <1>   0.0800 
 37 H        2.8330    -5.9300    -1.3730 H     1 <1>   0.0800 
 38 H        3.1690     0.7780     0.9440 H     1 <1>   0.3700 
 39 H        2.3150     2.8050     1.2640 H     1 <1>   0.0800 
 40 H        2.0240     4.1100     0.1440 H     1 <1>   0.0800 
 41 H        3.1640     4.3170     1.4570 H     1 <1>   0.0800 
 42 H        3.6180     5.7040    -1.1450 H     1 <1>   0.0800 
 43 H        5.0330     5.6320    -2.1520 H     1 <1>   0.0800 
 44 H        5.0770     5.8830     0.8740 H     1 <1>   0.0800 
 45 H        5.4090     7.1740    -0.2590 H     1 <1>   0.0800 
 46 H        6.4870     5.8010    -0.1550 H     1 <1>   0.0800 
@<TRIPOS>BOND
  1   1   2  2   
  2   2   3  am  
  3   2   4  1   
  4   3   5  1   
  5   3  23  1   
  6   4   6  1   
  7   4   7  1   
  8   4  24  1   
  9   5   8  1   
 10   5  25  1   
 11   5  26  1   
 12   6   8  1   
 13   6   9  1   
 14   7  10  1   
 15   7  27  1   
 16   7  28  1   
 17   8  29  1   
 18   8  30  1   
 19   9  11  1   
 20   9  12  1   
 21   9  31  1   
 22  10  13  2   
 23  10  14  am  
 24  11  32  1   
 25  11  33  1   
 26  11  34  1   
 27  12  35  1   
 28  12  36  1   
 29  12  37  1   
 30  14  15  1   
 31  14  38  1   
 32  15  16  1   
 33  15  17  2   
 34  16  18  1   
 35  17  19  1   
 36  17  20  1   
 37  18  19  2   
 38  19  21  1   
 39  20  39  1   
 40  20  40  1   
 41  20  41  1   
 42  21  22  1   
 43  21  42  1   
 44  21  43  1   
 45  22  44  1   
 46  22  45  1   
 47  22  46  1   
@<TRIPOS>SUBSTRUCTURE
  1 ****  14 GROUP 4 **** **** 0

# MOE 2024.06 (io_trps.svl 2023.06)
