@<TRIPOS>MOLECULE
NONAME
35 36 1 0 0 
SMALL
USER_CHARGES


@<TRIPOS>ATOM
  1 F       -0.8140    -0.4440     1.4210 F     1 <1>  -0.1900 
  2 C       -1.9520    -1.0150     1.0810 C.ar  1 <1>   0.1900 
  3 C       -2.8830    -0.3750     0.2630 C.ar  1 <1>   0.4100 
  4 C       -2.2170    -2.2750     1.5370 C.ar  1 <1>   0.1600 
  5 N       -3.9980    -1.0040    -0.0620 N.ar  1 <1>  -0.6200 
  6 N       -2.7160     0.9100    -0.2500 N.pl3 1 <1>  -0.8380 
  7 N       -3.3320    -2.9040     1.2190 N.ar  1 <1>  -0.6200 
  8 C       -4.1560    -2.2190     0.4320 C.ar  1 <1>   0.7200 
  9 C       -3.4210     1.3350    -1.4920 C.3   1 <1>   0.1290 
 10 C       -2.2310     2.0240     0.6100 C.3   1 <1>   0.1290 
 11 N       -5.3260    -2.7960     0.0650 N.pl3 1 <1>  -0.8690 
 12 C       -5.5170    -4.2190    -0.2940 C.3   1 <1>   0.2890 
 13 C       -5.5220    -5.0960     0.9660 C.3   1 <1>   0.0960 
 14 C       -4.4700    -4.6260    -1.3370 C.3   1 <1>  -0.2400 
 15 N       -5.7910    -6.4990     0.6210 N.pl3 1 <1>   0.3140 
 16 N       -6.9470    -6.9190     0.1220 N.2   1 <1>  -0.7070 
 17 C       -4.9640    -7.5440     0.7160 C.2   1 <1>   0.0360 
 18 C       -6.7340    -8.1830    -0.0430 C.2   1 <1>   0.3660 
 19 N       -5.5190    -8.6260     0.3070 N.2   1 <1>  -0.5650 
 20 H       -1.5050    -2.7770     2.1690 H     1 <1>   0.1500 
 21 H       -3.5510     0.4930    -2.1510 H     1 <1>   0.0800 
 22 H       -2.8440     2.0840    -2.0040 H     1 <1>   0.0800 
 23 H       -4.3880     1.7350    -1.2420 H     1 <1>   0.0800 
 24 H       -2.1870     1.7150     1.6400 H     1 <1>   0.0800 
 25 H       -2.8970     2.8650     0.5380 H     1 <1>   0.0800 
 26 H       -1.2470     2.3230     0.2910 H     1 <1>   0.0800 
 27 H       -5.8260    -2.1560    -0.5520 H     1 <1>   0.4000 
 28 H       -6.4910    -4.3040    -0.7480 H     1 <1>   0.0800 
 29 H       -6.2930    -4.7600     1.6330 H     1 <1>   0.0800 
 30 H       -4.5770    -5.0500     1.4690 H     1 <1>   0.0800 
 31 H       -3.4860    -4.6560    -0.9060 H     1 <1>   0.0800 
 32 H       -4.4760    -3.9300    -2.1560 H     1 <1>   0.0800 
 33 H       -4.6970    -5.6010    -1.7300 H     1 <1>   0.0800 
 34 H       -3.9590    -7.4630     1.0900 H     1 <1>   0.1500 
 35 H       -7.4740    -8.8620    -0.4370 H     1 <1>   0.1500 
@<TRIPOS>BOND
  1   1   2  1   
  2   2   3  ar  
  3   2   4  ar  
  4   3   5  ar  
  5   3   6  1   
  6   4   7  ar  
  7   4  20  1   
  8   5   8  ar  
  9   6   9  1   
 10   6  10  1   
 11   7   8  ar  
 12   8  11  1   
 13   9  21  1   
 14   9  22  1   
 15   9  23  1   
 16  10  24  1   
 17  10  25  1   
 18  10  26  1   
 19  11  12  1   
 20  11  27  1   
 21  12  13  1   
 22  12  14  1   
 23  12  28  1   
 24  13  15  1   
 25  13  29  1   
 26  13  30  1   
 27  14  31  1   
 28  14  32  1   
 29  14  33  1   
 30  15  16  1   
 31  15  17  1   
 32  16  18  2   
 33  17  19  2   
 34  17  34  1   
 35  18  19  1   
 36  18  35  1   
@<TRIPOS>SUBSTRUCTURE
  1 ****   8 GROUP 4 **** **** 0

# MOE 2024.06 (io_trps.svl 2023.06)
