@<TRIPOS>MOLECULE
NONAME
48 50 1 0 0 
SMALL
USER_CHARGES


@<TRIPOS>ATOM
  1 O        0.2430    -4.3310    -2.5560 O.co2 1 <1>  -0.9000 
  2 C       -0.1010    -3.6760    -1.5570 C.2   1 <1>   0.9790 
  3 O       -1.2980    -3.3330    -1.4980 O.co2 1 <1>  -0.9000 
  4 C        0.8400    -3.3940    -0.5110 C.ar  1 <1>  -0.1790 
  5 C        0.8720    -4.1180     0.6940 C.ar  1 <1>   0.4100 
  6 C        1.7610    -2.3750    -0.6900 C.ar  1 <1>  -0.1500 
  7 N        1.7310    -3.8510     1.6760 N.ar  1 <1>  -0.6200 
  8 N        0.0150    -5.1730     0.9860 N.pl3 1 <1>  -0.8380 
  9 C        2.6490    -2.1130     0.3260 C.ar  1 <1>  -0.1500 
 10 C        2.5910    -2.8730     1.4800 C.ar  1 <1>   0.1670 
 11 C       -0.2060    -6.3130     0.0500 C.3   1 <1>   0.2090 
 12 C       -0.5390    -5.3000     2.3640 C.3   1 <1>   0.2090 
 13 C        3.5540    -2.6050     2.6150 C.3   1 <1>  -0.0970 
 14 C       -1.6900    -6.7820     0.0130 C.3   1 <1>   0.4230 
 15 C       -1.8830    -6.0580     2.3800 C.3   1 <1>  -0.1600 
 16 N       -2.2880    -7.1320    -1.3490 N.4   1 <1>  -0.9590 
 17 C       -2.6350    -6.0460     1.0230 C.3   1 <1>   0.0000 
 18 C       -3.7770    -7.2200    -1.3230 C.3   1 <1>   0.3430 
 19 C       -1.9000    -6.1960    -2.4540 C.3   1 <1>   0.2630 
 20 C       -3.9550    -6.8590     1.1840 C.3   1 <1>  -0.1600 
 21 C       -2.9730    -4.5530     0.7270 C.3   1 <1>   0.1200 
 22 C       -4.2600    -7.8030     0.0040 C.3   1 <1>  -0.1600 
 23 O       -3.4730    -4.3480    -0.5400 O.3   1 <1>  -0.6800 
 24 H        1.7700    -1.8090    -1.6060 H     1 <1>   0.1500 
 25 H        3.3740    -1.3290     0.2180 H     1 <1>   0.1500 
 26 H        0.1720    -6.0840    -0.9230 H     1 <1>   0.0800 
 27 H        0.3870    -7.1330     0.4130 H     1 <1>   0.0800 
 28 H        0.1810    -5.7960     2.9940 H     1 <1>   0.0800 
 29 H       -0.6860    -4.3080     2.7600 H     1 <1>   0.0800 
 30 H        4.2210    -1.7980     2.3770 H     1 <1>   0.0800 
 31 H        4.1300    -3.4910     2.8090 H     1 <1>   0.0800 
 32 H        2.9990    -2.3510     3.5000 H     1 <1>   0.0800 
 33 H       -1.6070    -7.7460     0.4830 H     1 <1>   0.0800 
 34 H       -1.6790    -7.0730     2.6730 H     1 <1>   0.0800 
 35 H       -2.5000    -5.6330     3.1520 H     1 <1>   0.0800 
 36 H       -1.9180    -8.0510    -1.6050 H     1 <1>   0.4500 
 37 H       -4.2050    -6.2390    -1.4470 H     1 <1>   0.0800 
 38 H       -4.1190    -7.8320    -2.1410 H     1 <1>   0.0800 
 39 H       -2.1810    -5.1860    -2.2200 H     1 <1>   0.0800 
 40 H       -2.3870    -6.4710    -3.3730 H     1 <1>   0.0800 
 41 H       -0.8370    -6.2220    -2.6210 H     1 <1>   0.0800 
 42 H       -3.9370    -7.4520     2.0820 H     1 <1>   0.0800 
 43 H       -4.7810    -6.1760     1.2920 H     1 <1>   0.0800 
 44 H       -2.1130    -3.9140     0.8170 H     1 <1>   0.0800 
 45 H       -3.7080    -4.1890     1.4230 H     1 <1>   0.0800 
 46 H       -5.3230    -7.9600    -0.0490 H     1 <1>   0.0800 
 47 H       -3.8000    -8.7620     0.1600 H     1 <1>   0.0800 
 48 H       -2.7390    -3.8580    -1.0440 H     1 <1>   0.4000 
@<TRIPOS>BOND
  1   1   2  ar  
  2   2   3  ar  
  3   2   4  1   
  4   4   5  ar  
  5   4   6  ar  
  6   5   7  ar  
  7   5   8  1   
  8   6   9  ar  
  9   6  24  1   
 10   7  10  ar  
 11   8  11  1   
 12   8  12  1   
 13   9  10  ar  
 14   9  25  1   
 15  10  13  1   
 16  11  14  1   
 17  11  26  1   
 18  11  27  1   
 19  12  15  1   
 20  12  28  1   
 21  12  29  1   
 22  13  30  1   
 23  13  31  1   
 24  13  32  1   
 25  14  16  1   
 26  14  17  1   
 27  14  33  1   
 28  15  17  1   
 29  15  34  1   
 30  15  35  1   
 31  16  18  1   
 32  16  19  1   
 33  16  36  1   
 34  17  20  1   
 35  17  21  1   
 36  18  22  1   
 37  18  37  1   
 38  18  38  1   
 39  19  39  1   
 40  19  40  1   
 41  19  41  1   
 42  20  22  1   
 43  20  42  1   
 44  20  43  1   
 45  21  23  1   
 46  21  44  1   
 47  21  45  1   
 48  22  46  1   
 49  22  47  1   
 50  23  48  1   
@<TRIPOS>SUBSTRUCTURE
  1 ****   8 GROUP 4 **** **** 0

# MOE 2024.06 (io_trps.svl 2023.06)
