@<TRIPOS>MOLECULE
NONAME
48 51 1 0 0 
SMALL
USER_CHARGES


@<TRIPOS>ATOM
  1 O        2.1240    -0.3480    -2.8580 O.2   1 <1>  -0.5700 
  2 C        2.4590    -0.5130    -1.7010 C.2   1 <1>   0.5440 
  3 N        2.9470     0.5690    -0.9980 N.am  1 <1>  -0.6600 
  4 C        2.4100    -1.8300    -1.1120 C.ar  1 <1>   0.0860 
  5 C        2.9270     0.6090     0.5070 C.3   1 <1>   0.2200 
  6 C        3.5830     1.6800    -1.7700 C.3   1 <1>   0.1400 
  7 C        1.3120    -2.2740    -0.3720 C.ar  1 <1>   0.0830 
  8 C        3.4920    -2.6980    -1.2660 C.ar  1 <1>  -0.1500 
  9 C        2.3960     1.9450     1.0490 C.3   1 <1>   0.1200 
 10 C        4.3080     0.2670     1.1120 C.3   1 <1>   0.3430 
 11 C        4.5300     2.5870    -0.9630 C.3   1 <1>  -0.0800 
 12 O        0.2470    -1.4530    -0.2000 O.3   1 <1>  -0.3630 
 13 C        1.3130    -3.5480     0.2010 C.ar  1 <1>   0.0830 
 14 C        3.4920    -3.9600    -0.7010 C.ar  1 <1>  -0.1500 
 15 O        3.4200     2.8870     1.1670 O.3   1 <1>  -0.5600 
 16 N        5.4290     0.4740     0.1490 N.4   1 <1>  -0.9590 
 17 C        3.7780     3.5280    -0.0110 C.3   1 <1>   0.1200 
 18 C        5.7120     1.8710    -0.2790 C.3   1 <1>   0.3430 
 19 C       -0.9780    -2.0550     0.1710 C.3   1 <1>   0.1200 
 20 O        0.2610    -3.9950     0.9350 O.3   1 <1>  -0.3630 
 21 C        2.3990    -4.3870     0.0340 C.ar  1 <1>  -0.1500 
 22 C        6.6960    -0.2770     0.5000 C.3   1 <1>   0.2370 
 23 C       -0.7390    -3.0630     1.3020 C.3   1 <1>   0.1200 
 24 C        7.2900    -0.9380    -0.7440 C.2   1 <1>   0.9060 
 25 O        8.4680    -1.2890    -0.7510 O.co2 1 <1>  -0.9000 
 26 O        6.5200    -1.0470    -1.7120 O.co2 1 <1>  -0.9000 
 27 H        2.2330    -0.1310     0.8570 H     1 <1>   0.0800 
 28 H        4.1400     1.2440    -2.5850 H     1 <1>   0.0800 
 29 H        2.8010     2.2750    -2.2100 H     1 <1>   0.0800 
 30 H        4.3440    -2.3760    -1.8470 H     1 <1>   0.1500 
 31 H        2.0090     1.7910     2.0410 H     1 <1>   0.0800 
 32 H        1.6000     2.3320     0.4340 H     1 <1>   0.0800 
 33 H        4.2900    -0.7700     1.4020 H     1 <1>   0.0800 
 34 H        4.4690     0.8530     2.0010 H     1 <1>   0.0800 
 35 H        4.9760     3.2420    -1.6890 H     1 <1>   0.0800 
 36 H        4.3410    -4.6090    -0.8400 H     1 <1>   0.1500 
 37 H        5.1570    -0.0140    -0.7390 H     1 <1>   0.4500 
 38 H        2.8940     3.9370    -0.4740 H     1 <1>   0.0800 
 39 H        4.4170     4.3490     0.2660 H     1 <1>   0.0800 
 40 H        6.0370     2.4510     0.5690 H     1 <1>   0.0800 
 41 H        6.5280     1.8370    -0.9850 H     1 <1>   0.0800 
 42 H       -1.6520    -1.2780     0.4820 H     1 <1>   0.0800 
 43 H       -1.3850    -2.5490    -0.6940 H     1 <1>   0.0800 
 44 H        2.3870    -5.3680     0.4760 H     1 <1>   0.1500 
 45 H        7.4310     0.3810     0.9250 H     1 <1>   0.0800 
 46 H        6.4840    -1.0620     1.2020 H     1 <1>   0.0800 
 47 H       -1.6380    -3.6110     1.5190 H     1 <1>   0.0800 
 48 H       -0.4130    -2.5560     2.1920 H     1 <1>   0.0800 
@<TRIPOS>BOND
  1   1   2  2   
  2   2   3  am  
  3   2   4  1   
  4   3   5  1   
  5   3   6  1   
  6   4   7  ar  
  7   4   8  ar  
  8   5   9  1   
  9   5  10  1   
 10   5  27  1   
 11   6  11  1   
 12   6  28  1   
 13   6  29  1   
 14   7  12  1   
 15   7  13  ar  
 16   8  14  ar  
 17   8  30  1   
 18   9  15  1   
 19   9  31  1   
 20   9  32  1   
 21  10  16  1   
 22  10  33  1   
 23  10  34  1   
 24  11  17  1   
 25  11  18  1   
 26  11  35  1   
 27  12  19  1   
 28  13  20  1   
 29  13  21  ar  
 30  14  21  ar  
 31  14  36  1   
 32  15  17  1   
 33  16  18  1   
 34  16  22  1   
 35  16  37  1   
 36  17  38  1   
 37  17  39  1   
 38  18  40  1   
 39  18  41  1   
 40  19  23  1   
 41  19  42  1   
 42  19  43  1   
 43  20  23  1   
 44  21  44  1   
 45  22  24  1   
 46  22  45  1   
 47  22  46  1   
 48  23  47  1   
 49  23  48  1   
 50  24  25  ar  
 51  24  26  ar  
@<TRIPOS>SUBSTRUCTURE
  1 ****   3 GROUP 4 **** **** 0

# MOE 2024.06 (io_trps.svl 2023.06)
