@<TRIPOS>MOLECULE
NONAME
38 39 1 0 0 
SMALL
USER_CHARGES


@<TRIPOS>ATOM
  1 CL       1.9140    -3.0120     2.5970 Cl    1 <1>  -0.1770 
  2 C        0.9720    -3.8620     1.4010 C.ar  1 <1>   0.1770 
  3 C        1.0160    -5.2420     1.3570 C.ar  1 <1>  -0.1500 
  4 C        0.1950    -3.1420     0.5130 C.ar  1 <1>  -0.1500 
  5 C        0.2660    -5.9150     0.4080 C.ar  1 <1>  -0.1500 
  6 C       -0.5550    -3.8170    -0.4350 C.ar  1 <1>  -0.1500 
  7 C       -0.5250    -5.2060    -0.4890 C.ar  1 <1>  -0.1430 
  8 C       -1.3560    -5.9500    -1.5170 C.3   1 <1>   0.4870 
  9 N       -2.4520    -6.6440    -0.8060 N.4   1 <1>  -0.9590 
 10 C       -3.0450    -7.7520    -1.5990 C.3   1 <1>   0.5240 
 11 C       -3.4500    -5.7150    -0.1870 C.3   1 <1>   0.3430 
 12 C       -3.0860    -8.9630    -0.6760 C.2   1 <1>   0.0460 
 13 C       -4.2860    -6.3850     0.9130 C.3   1 <1>   0.1200 
 14 N       -2.1530    -9.1040     0.2920 N.2   1 <1>  -0.5650 
 15 C       -3.9680    -9.9860    -0.6450 C.2   1 <1>  -0.3020 
 16 O       -5.2030    -5.4550     1.3700 O.3   1 <1>  -0.6800 
 17 C       -2.4780   -10.2080     0.8810 C.2   1 <1>   0.0060 
 18 N       -3.5760   -10.7960     0.3570 N.pl3 1 <1>   0.0330 
 19 C       -1.7140   -10.8050     2.0450 C.3   1 <1>  -0.0600 
 20 H        1.6330    -5.7760     2.0590 H     1 <1>   0.1500 
 21 H        0.1830    -2.0670     0.5700 H     1 <1>   0.1500 
 22 H        0.3090    -6.9930     0.3800 H     1 <1>   0.1500 
 23 H       -1.1550    -3.2460    -1.1240 H     1 <1>   0.1500 
 24 H       -0.7270    -6.6670    -2.0200 H     1 <1>   0.0800 
 25 H       -1.7530    -5.2640    -2.2480 H     1 <1>   0.0800 
 26 H       -2.0000    -7.1670    -0.0310 H     1 <1>   0.4500 
 27 H       -2.4170    -7.9860    -2.4420 H     1 <1>   0.0800 
 28 H       -4.0330    -7.5020    -1.9490 H     1 <1>   0.0800 
 29 H       -4.1110    -5.3310    -0.9460 H     1 <1>   0.0800 
 30 H       -2.9320    -4.8830     0.2620 H     1 <1>   0.0800 
 31 H       -3.6630    -6.6820     1.7400 H     1 <1>   0.0800 
 32 H       -4.8360    -7.2300     0.5370 H     1 <1>   0.0800 
 33 H       -4.8290   -10.1910    -1.2570 H     1 <1>   0.1500 
 34 H       -5.7260    -5.8050     2.1220 H     1 <1>   0.4000 
 35 H       -4.0070   -11.6760     0.6600 H     1 <1>   0.2700 
 36 H       -0.8770   -10.1780     2.2960 H     1 <1>   0.0800 
 37 H       -1.3440   -11.7800     1.7840 H     1 <1>   0.0800 
 38 H       -2.3520   -10.8870     2.9060 H     1 <1>   0.0800 
@<TRIPOS>BOND
  1   1   2  1   
  2   2   3  ar  
  3   2   4  ar  
  4   3   5  ar  
  5   3  20  1   
  6   4   6  ar  
  7   4  21  1   
  8   5   7  ar  
  9   5  22  1   
 10   6   7  ar  
 11   6  23  1   
 12   7   8  1   
 13   8   9  1   
 14   8  24  1   
 15   8  25  1   
 16   9  10  1   
 17   9  11  1   
 18   9  26  1   
 19  10  12  1   
 20  10  27  1   
 21  10  28  1   
 22  11  13  1   
 23  11  29  1   
 24  11  30  1   
 25  12  14  1   
 26  12  15  2   
 27  13  16  1   
 28  13  31  1   
 29  13  32  1   
 30  14  17  2   
 31  15  18  1   
 32  15  33  1   
 33  16  34  1   
 34  17  18  1   
 35  17  19  1   
 36  18  35  1   
 37  19  36  1   
 38  19  37  1   
 39  19  38  1   
@<TRIPOS>SUBSTRUCTURE
  1 ****   9 GROUP 4 **** **** 0

# MOE 2024.06 (io_trps.svl 2023.06)
