@<TRIPOS>MOLECULE
NONAME
44 46 1 0 0 
SMALL
USER_CHARGES


@<TRIPOS>ATOM
  1 O       -0.7280     0.3580     1.7590 O.2   1 <1>  -0.5700 
  2 C       -1.2010     0.6690     0.6910 C.2   1 <1>   0.5690 
  3 N       -1.7820    -0.2650    -0.1290 N.am  1 <1>  -0.6600 
  4 C       -1.1500     2.1480     0.2790 C.3   1 <1>  -0.0190 
  5 C       -1.8340    -1.7110     0.2890 C.3   1 <1>   0.3640 
  6 C       -2.5120     0.0760    -1.3930 C.3   1 <1>   0.1400 
  7 C        0.0470     2.9410     0.8150 C.3   1 <1>  -0.1600 
  8 C       -2.3490     2.9580     0.7800 C.3   1 <1>  -0.1600 
  9 C       -0.7540    -2.5600    -0.4060 C.ar  1 <1>  -0.1440 
 10 C       -3.2560    -2.3220     0.0720 C.3   1 <1>   0.2000 
 11 C       -3.2790    -1.1220    -1.9730 C.3   1 <1>   0.1200 
 12 C       -0.3670     4.4060     0.6770 C.3   1 <1>  -0.1600 
 13 C       -1.8990     4.4220     0.7420 C.3   1 <1>  -0.1600 
 14 C        0.0410    -2.1030    -1.4530 C.ar  1 <1>  -0.1500 
 15 C       -0.5530    -3.8560     0.0530 C.ar  1 <1>  -0.1500 
 16 O       -4.0160    -1.7250    -0.9580 O.3   1 <1>  -0.5600 
 17 C       -4.0990    -2.2280     1.3490 C.3   1 <1>   0.1200 
 18 C        0.9870    -2.9270    -2.0390 C.ar  1 <1>  -0.1500 
 19 C        0.3920    -4.6820    -0.5300 C.ar  1 <1>  -0.1500 
 20 O       -3.6550    -3.1570     2.2850 O.3   1 <1>  -0.6800 
 21 C        1.1610    -4.2190    -1.5800 C.ar  1 <1>  -0.1500 
 22 H       -1.1110     2.2200    -0.7910 H     1 <1>   0.0800 
 23 H       -1.6180    -1.7800     1.3410 H     1 <1>   0.0800 
 24 H       -3.2190     0.8600    -1.1910 H     1 <1>   0.0800 
 25 H       -1.8140     0.4340    -2.1280 H     1 <1>   0.0800 
 26 H        0.1970     2.7170     1.8580 H     1 <1>   0.0800 
 27 H        0.9520     2.7180     0.2780 H     1 <1>   0.0800 
 28 H       -3.2300     2.7920     0.1860 H     1 <1>   0.0800 
 29 H       -2.5580     2.6800     1.7990 H     1 <1>   0.0800 
 30 H       -3.1640    -3.3600    -0.1910 H     1 <1>   0.0800 
 31 H       -2.6130    -1.8490    -2.4040 H     1 <1>   0.0800 
 32 H       -3.9670    -0.7930    -2.7310 H     1 <1>   0.0800 
 33 H        0.0710     5.0070     1.4560 H     1 <1>   0.0800 
 34 H       -0.0430     4.7850    -0.2770 H     1 <1>   0.0800 
 35 H       -2.2950     4.9130    -0.1310 H     1 <1>   0.0800 
 36 H       -2.2430     4.9430     1.6190 H     1 <1>   0.0800 
 37 H       -0.0560    -1.1010    -1.8230 H     1 <1>   0.1500 
 38 H       -1.1330    -4.2320     0.8790 H     1 <1>   0.1500 
 39 H       -5.1340    -2.4360     1.1390 H     1 <1>   0.0800 
 40 H       -4.0080    -1.2470     1.7820 H     1 <1>   0.0800 
 41 H        1.5920    -2.5590    -2.8490 H     1 <1>   0.1500 
 42 H        0.5310    -5.6840    -0.1630 H     1 <1>   0.1500 
 43 H       -4.0020    -4.0480     2.0800 H     1 <1>   0.4000 
 44 H        1.8970    -4.8590    -2.0350 H     1 <1>   0.1500 
@<TRIPOS>BOND
  1   1   2  2   
  2   2   3  am  
  3   2   4  1   
  4   3   5  1   
  5   3   6  1   
  6   4   7  1   
  7   4   8  1   
  8   4  22  1   
  9   5   9  1   
 10   5  10  1   
 11   5  23  1   
 12   6  11  1   
 13   6  24  1   
 14   6  25  1   
 15   7  12  1   
 16   7  26  1   
 17   7  27  1   
 18   8  13  1   
 19   8  28  1   
 20   8  29  1   
 21   9  14  ar  
 22   9  15  ar  
 23  10  16  1   
 24  10  17  1   
 25  10  30  1   
 26  11  16  1   
 27  11  31  1   
 28  11  32  1   
 29  12  13  1   
 30  12  33  1   
 31  12  34  1   
 32  13  35  1   
 33  13  36  1   
 34  14  18  ar  
 35  14  37  1   
 36  15  19  ar  
 37  15  38  1   
 38  17  20  1   
 39  17  39  1   
 40  17  40  1   
 41  18  21  ar  
 42  18  41  1   
 43  19  21  ar  
 44  19  42  1   
 45  20  43  1   
 46  21  44  1   
@<TRIPOS>SUBSTRUCTURE
  1 ****   3 GROUP 4 **** **** 0

# MOE 2024.06 (io_trps.svl 2023.06)
