@<TRIPOS>MOLECULE
NONAME
42 44 1 0 0 
SMALL
USER_CHARGES


@<TRIPOS>ATOM
  1 O       -0.1260     0.6150     0.7750 O.3   1 <1>  -0.3630 
  2 C       -1.2630     1.1520     0.2590 C.ar  1 <1>   0.0830 
  3 C       -0.1580    -0.4750     1.6680 C.3   1 <1>   0.0400 
  4 C       -1.1430     2.2920    -0.5390 C.ar  1 <1>  -0.1440 
  5 C       -2.5230     0.6000     0.4980 C.ar  1 <1>  -0.1500 
  6 C       -2.2800     2.8670    -1.0930 C.ar  1 <1>  -0.1500 
  7 C        0.2150     2.9200    -0.8240 C.3   1 <1>   0.3530 
  8 C       -3.6390     1.1910    -0.0610 C.ar  1 <1>  -0.1440 
  9 C       -3.5200     2.3090    -0.8460 C.ar  1 <1>  -0.1440 
 10 N        0.1890     4.3360    -0.4190 N.pl3 1 <1>  -0.8690 
 11 C       -5.0800     0.7640     0.0660 C.3   1 <1>  -0.0170 
 12 C       -4.8630     2.7770    -1.3460 C.3   1 <1>  -0.0170 
 13 C        1.3180     5.0580    -0.2760 C.ar  1 <1>   0.7200 
 14 C       -5.8600     1.9610    -0.5050 C.3   1 <1>  -0.1600 
 15 N        2.3700     4.7250    -1.0160 N.ar  1 <1>  -0.6200 
 16 N        1.2360     6.0320     0.6160 N.ar  1 <1>  -0.6200 
 17 C        3.4410     5.4560    -0.8400 C.ar  1 <1>   0.1670 
 18 C        2.3190     6.7490     0.7760 C.ar  1 <1>   0.1670 
 19 C        3.4670     6.4970     0.0600 C.ar  1 <1>  -0.1500 
 20 C        4.6560     5.1050    -1.6720 C.3   1 <1>  -0.0970 
 21 C        2.2540     7.8730     1.7880 C.3   1 <1>  -0.0970 
 22 H        0.8520    -0.6900     1.9680 H     1 <1>   0.0800 
 23 H       -0.5780    -1.3270     1.1640 H     1 <1>   0.0800 
 24 H       -0.7450    -0.2050     2.5280 H     1 <1>   0.0800 
 25 H       -2.6530    -0.2740     1.1040 H     1 <1>   0.1500 
 26 H       -2.1970     3.7460    -1.7100 H     1 <1>   0.1500 
 27 H        0.4260     2.8590    -1.8780 H     1 <1>   0.0800 
 28 H        1.0050     2.4160    -0.2950 H     1 <1>   0.0800 
 29 H       -0.4840     4.5300     0.3190 H     1 <1>   0.4000 
 30 H       -5.3460     0.5710     1.0910 H     1 <1>   0.0800 
 31 H       -5.2460    -0.1170    -0.5290 H     1 <1>   0.0800 
 32 H       -4.9580     2.5370    -2.3900 H     1 <1>   0.0800 
 33 H       -4.9910     3.8350    -1.1980 H     1 <1>   0.0800 
 34 H       -6.2010     2.5720     0.3130 H     1 <1>   0.0800 
 35 H       -6.7090     1.6460    -1.0850 H     1 <1>   0.0800 
 36 H        4.3490     7.0910     0.1970 H     1 <1>   0.1500 
 37 H        4.4100     5.1840    -2.7150 H     1 <1>   0.0800 
 38 H        4.9520     4.0930    -1.4630 H     1 <1>   0.0800 
 39 H        5.4780     5.7610    -1.4550 H     1 <1>   0.0800 
 40 H        1.4810     8.5640     1.5060 H     1 <1>   0.0800 
 41 H        3.1890     8.3980     1.8450 H     1 <1>   0.0800 
 42 H        2.0200     7.4690     2.7560 H     1 <1>   0.0800 
@<TRIPOS>BOND
  1   1   2  1   
  2   1   3  1   
  3   2   4  ar  
  4   2   5  ar  
  5   3  22  1   
  6   3  23  1   
  7   3  24  1   
  8   4   6  ar  
  9   4   7  1   
 10   5   8  ar  
 11   5  25  1   
 12   6   9  ar  
 13   6  26  1   
 14   7  10  1   
 15   7  27  1   
 16   7  28  1   
 17   8   9  ar  
 18   8  11  1   
 19   9  12  1   
 20  10  13  1   
 21  10  29  1   
 22  11  14  1   
 23  11  30  1   
 24  11  31  1   
 25  12  14  1   
 26  12  32  1   
 27  12  33  1   
 28  13  15  ar  
 29  13  16  ar  
 30  14  34  1   
 31  14  35  1   
 32  15  17  ar  
 33  16  18  ar  
 34  17  19  ar  
 35  17  20  1   
 36  18  19  ar  
 37  18  21  1   
 38  19  36  1   
 39  20  37  1   
 40  20  38  1   
 41  20  39  1   
 42  21  40  1   
 43  21  41  1   
 44  21  42  1   
@<TRIPOS>SUBSTRUCTURE
  1 ****   7 GROUP 4 **** **** 0

# MOE 2024.06 (io_trps.svl 2023.06)
