@<TRIPOS>MOLECULE
NONAME
47 49 1 0 0 
SMALL
USER_CHARGES


@<TRIPOS>ATOM
  1 O       -3.5690     1.0620    -1.2690 O.2   1 <1>  -0.5700 
  2 C       -3.7200    -0.0960    -0.9210 C.2   1 <1>   0.6900 
  3 N       -4.6060    -0.9690    -1.4340 N.am  1 <1>  -0.5390 
  4 N       -3.0140    -0.7220     0.0440 N.am  1 <1>  -0.5390 
  5 C       -4.4600    -2.2050    -0.7860 C.2   1 <1>   0.1230 
  6 C       -3.4630    -2.0250     0.1160 C.2   1 <1>  -0.0410 
  7 C       -5.2630    -3.3630    -1.1230 C.2   1 <1>   0.6160 
  8 O       -5.6980    -3.4710    -2.2580 O.2   1 <1>  -0.5700 
  9 N       -5.5920    -4.3400    -0.2030 N.am  1 <1>  -0.6600 
 10 C       -6.2540    -5.6070    -0.6540 C.3   1 <1>   0.1400 
 11 C       -5.7640    -4.0580     1.2510 C.3   1 <1>   0.1400 
 12 C       -7.7850    -5.4740    -0.7480 C.3   1 <1>   0.1400 
 13 C       -6.9680    -3.1410     1.5060 C.3   1 <1>  -0.1600 
 14 N       -8.3960    -4.9250     0.5110 N.am  1 <1>  -0.6600 
 15 C       -8.2130    -3.4550     0.6640 C.3   1 <1>   0.1400 
 16 C       -9.1070    -5.6460     1.4450 C.2   1 <1>   0.5690 
 17 O       -9.5930    -5.0920     2.4060 O.2   1 <1>  -0.5700 
 18 C       -9.2720    -7.1620     1.3230 C.3   1 <1>   0.2370 
 19 N      -10.2980    -7.4500     0.3000 N.pl3 1 <1>   0.3140 
 20 C       -9.6170    -7.8820     2.6440 C.3   1 <1>  -0.2400 
 21 N      -10.0390    -8.2620    -0.7470 N.2   1 <1>  -0.7070 
 22 C      -11.5630    -6.9830     0.2490 C.2   1 <1>  -0.3020 
 23 C      -11.1440    -8.2880    -1.4290 C.2   1 <1>   0.1390 
 24 C      -12.1370    -7.5020    -0.8540 C.2   1 <1>  -0.1810 
 25 C      -13.5440    -7.2920    -1.3720 C.3   1 <1>  -0.0590 
 26 H       -5.1850    -0.7820    -2.2520 H     1 <1>   0.3700 
 27 H       -2.2650    -0.2490     0.5490 H     1 <1>   0.3700 
 28 H       -3.0320    -2.7410     0.7960 H     1 <1>   0.1500 
 29 H       -6.0050    -6.4040     0.0230 H     1 <1>   0.0800 
 30 H       -5.8720    -5.8830    -1.6220 H     1 <1>   0.0800 
 31 H       -4.8750    -3.6190     1.6610 H     1 <1>   0.0800 
 32 H       -5.9240    -4.9880     1.7710 H     1 <1>   0.0800 
 33 H       -8.2000    -6.4340    -0.9920 H     1 <1>   0.0800 
 34 H       -8.0240    -4.8220    -1.5700 H     1 <1>   0.0800 
 35 H       -6.6850    -2.1190     1.3300 H     1 <1>   0.0800 
 36 H       -7.2350    -3.2140     2.5460 H     1 <1>   0.0800 
 37 H       -8.1110    -3.0050    -0.3090 H     1 <1>   0.0800 
 38 H       -9.0840    -3.0220     1.1280 H     1 <1>   0.0800 
 39 H       -8.3440    -7.5660     0.9690 H     1 <1>   0.0800 
 40 H      -10.5550    -7.5260     3.0330 H     1 <1>   0.0800 
 41 H       -8.8530    -7.6880     3.3750 H     1 <1>   0.0800 
 42 H       -9.6790    -8.9430     2.4820 H     1 <1>   0.0800 
 43 H      -11.9700    -6.3170     0.9900 H     1 <1>   0.1500 
 44 H      -11.2670    -8.8550    -2.3360 H     1 <1>   0.1500 
 45 H      -14.0840    -6.6320    -0.7180 H     1 <1>   0.0800 
 46 H      -14.0620    -8.2330    -1.4200 H     1 <1>   0.0800 
 47 H      -13.5120    -6.8570    -2.3540 H     1 <1>   0.0800 
@<TRIPOS>BOND
  1   1   2  2   
  2   2   3  am  
  3   2   4  am  
  4   3   5  1   
  5   3  26  1   
  6   4   6  1   
  7   4  27  1   
  8   5   6  2   
  9   5   7  1   
 10   6  28  1   
 11   7   8  2   
 12   7   9  am  
 13   9  10  1   
 14   9  11  1   
 15  10  12  1   
 16  10  29  1   
 17  10  30  1   
 18  11  13  1   
 19  11  31  1   
 20  11  32  1   
 21  12  14  1   
 22  12  33  1   
 23  12  34  1   
 24  13  15  1   
 25  13  35  1   
 26  13  36  1   
 27  14  15  1   
 28  14  16  am  
 29  15  37  1   
 30  15  38  1   
 31  16  17  2   
 32  16  18  1   
 33  18  19  1   
 34  18  20  1   
 35  18  39  1   
 36  19  21  1   
 37  19  22  1   
 38  20  40  1   
 39  20  41  1   
 40  20  42  1   
 41  21  23  2   
 42  22  24  2   
 43  22  43  1   
 44  23  24  1   
 45  23  44  1   
 46  24  25  1   
 47  25  45  1   
 48  25  46  1   
 49  25  47  1   
@<TRIPOS>SUBSTRUCTURE
  1 ****  14 GROUP 4 **** **** 0

# MOE 2024.06 (io_trps.svl 2023.06)
