@<TRIPOS>MOLECULE
NONAME
44 46 1 0 0 
SMALL
USER_CHARGES


@<TRIPOS>ATOM
  1 O       -0.2440    -0.6670     0.6700 O.3   1 <1>  -0.5600 
  2 C        0.6530    -0.0970    -0.2400 C.3   1 <1>   0.1200 
  3 C       -1.4620     0.0210     0.6620 C.3   1 <1>   0.1200 
  4 C        0.1530     1.3180    -0.5070 C.3   1 <1>   0.2890 
  5 C       -1.3500     1.1120    -0.4040 C.3   1 <1>  -0.0800 
  6 N        0.6360     2.2230     0.5610 N.pl3 1 <1>  -0.8690 
  7 C       -2.1790     2.3760    -0.1070 C.3   1 <1>  -0.0170 
  8 C        1.2140     3.4280     0.3710 C.ar  1 <1>   0.7200 
  9 C       -3.6650     2.0550    -0.0760 C.ar  1 <1>  -0.1440 
 10 N        1.0350     4.0300    -0.7980 N.ar  1 <1>  -0.6200 
 11 N        1.9000     3.8710     1.4110 N.ar  1 <1>  -0.6200 
 12 C       -4.4090     1.9350    -1.2330 C.ar  1 <1>  -0.1500 
 13 C       -4.3470     1.8650     1.1090 C.ar  1 <1>  -0.1500 
 14 C        1.6100     5.2020    -0.9210 C.ar  1 <1>   0.1600 
 15 C        2.4630     5.0450     1.2560 C.ar  1 <1>   0.1600 
 16 C       -5.7580     1.6340    -1.1510 C.ar  1 <1>   0.1600 
 17 C       -5.6990     1.5670     1.0800 C.ar  1 <1>   0.1600 
 18 C        2.3520     5.7710     0.0910 C.ar  1 <1>  -0.1430 
 19 N       -6.4220     1.4440    -0.0210 N.ar  1 <1>  -0.6200 
 20 C        3.0100     7.1320    -0.0690 C.3   1 <1>  -0.0170 
 21 C        2.0540     8.2470     0.3700 C.3   1 <1>  -0.1600 
 22 C        2.6950     9.6290     0.2170 C.3   1 <1>  -0.2400 
 23 H        1.6470    -0.1140     0.1700 H     1 <1>   0.0800 
 24 H        0.6180    -0.6840    -1.1410 H     1 <1>   0.0800 
 25 H       -2.2590    -0.6700     0.4520 H     1 <1>   0.0800 
 26 H       -1.5960     0.4480     1.6410 H     1 <1>   0.0800 
 27 H        0.4550     1.6690    -1.4790 H     1 <1>   0.0800 
 28 H       -1.6910     0.6930    -1.3330 H     1 <1>   0.0800 
 29 H        0.8720     1.7800     1.4470 H     1 <1>   0.4000 
 30 H       -1.9850     3.1160    -0.8640 H     1 <1>   0.0800 
 31 H       -1.8870     2.8030     0.8370 H     1 <1>   0.0800 
 32 H       -3.9510     2.0730    -2.1950 H     1 <1>   0.1500 
 33 H       -3.8400     1.9460     2.0530 H     1 <1>   0.1500 
 34 H        1.4870     5.7250    -1.8530 H     1 <1>   0.1500 
 35 H        3.0280     5.4410     2.0830 H     1 <1>   0.1500 
 36 H       -6.3220     1.5440    -2.0630 H     1 <1>   0.1500 
 37 H       -6.2130     1.4220     2.0150 H     1 <1>   0.1500 
 38 H        3.9090     7.1700     0.5220 H     1 <1>   0.0800 
 39 H        3.2900     7.2780    -1.0980 H     1 <1>   0.0800 
 40 H        1.1560     8.2040    -0.2230 H     1 <1>   0.0800 
 41 H        1.7760     8.0960     1.3990 H     1 <1>   0.0800 
 42 H        2.9590     9.8130    -0.8100 H     1 <1>   0.0800 
 43 H        3.5820     9.7040     0.8220 H     1 <1>   0.0800 
 44 H        2.0040    10.3910     0.5320 H     1 <1>   0.0800 
@<TRIPOS>BOND
  1   1   2  1   
  2   1   3  1   
  3   2   4  1   
  4   2  23  1   
  5   2  24  1   
  6   3   5  1   
  7   3  25  1   
  8   3  26  1   
  9   4   5  1   
 10   4   6  1   
 11   4  27  1   
 12   5   7  1   
 13   5  28  1   
 14   6   8  1   
 15   6  29  1   
 16   7   9  1   
 17   7  30  1   
 18   7  31  1   
 19   8  10  ar  
 20   8  11  ar  
 21   9  12  ar  
 22   9  13  ar  
 23  10  14  ar  
 24  11  15  ar  
 25  12  16  ar  
 26  12  32  1   
 27  13  17  ar  
 28  13  33  1   
 29  14  18  ar  
 30  14  34  1   
 31  15  18  ar  
 32  15  35  1   
 33  16  19  ar  
 34  16  36  1   
 35  17  19  ar  
 36  17  37  1   
 37  18  20  1   
 38  20  21  1   
 39  20  38  1   
 40  20  39  1   
 41  21  22  1   
 42  21  40  1   
 43  21  41  1   
 44  22  42  1   
 45  22  43  1   
 46  22  44  1   
@<TRIPOS>SUBSTRUCTURE
  1 ****   7 GROUP 4 **** **** 0

# MOE 2024.06 (io_trps.svl 2023.06)
