@<TRIPOS>MOLECULE
NONAME
45 46 1 0 0 
SMALL
USER_CHARGES


@<TRIPOS>ATOM
  1 O        0.6680     2.8460    -1.1650 O.2   1 <1>  -0.5700 
  2 C        0.2980     2.8230    -0.0160 C.2   1 <1>   0.5690 
  3 N       -0.5540     3.7120     0.5590 N.am  1 <1>  -0.6600 
  4 C        0.7730     1.7950     0.9720 C.3   1 <1>  -0.0990 
  5 C       -0.7850     3.3910     1.9850 C.3   1 <1>   0.1400 
  6 C       -1.4590     4.7310    -0.0740 C.3   1 <1>   0.1400 
  7 C        0.2770     2.3370     2.3200 C.3   1 <1>  -0.1600 
  8 C       -1.0870     5.1950    -1.5020 C.3   1 <1>   0.3430 
  9 N        0.3650     5.5020    -1.6760 N.4   1 <1>  -0.9590 
 10 C        0.9000     6.5110    -0.7010 C.3   1 <1>   0.3430 
 11 C        0.7040     5.8260    -3.0850 C.3   1 <1>   0.3430 
 12 C        2.4220     6.6890    -0.8270 C.3   1 <1>   0.2000 
 13 C        2.2230     5.9280    -3.2350 C.3   1 <1>  -0.1600 
 14 O        2.7600     7.7800    -0.0340 O.3   1 <1>  -0.5600 
 15 C        2.8330     6.9680    -2.2810 C.3   1 <1>  -0.1600 
 16 C        4.0950     7.8550     0.3610 C.3   1 <1>   0.1200 
 17 C        4.2410     9.0700     1.2750 C.3   1 <1>  -0.1600 
 18 C        5.6860     9.2310     1.7620 C.3   1 <1>  -0.2400 
 19 H        1.8430     1.7000     0.9460 H     1 <1>   0.0800 
 20 H        0.3150     0.8510     0.7410 H     1 <1>   0.0800 
 21 H       -1.7750     2.9820     2.1070 H     1 <1>   0.0800 
 22 H       -0.6730     4.2660     2.6030 H     1 <1>   0.0800 
 23 H       -1.4920     5.5970     0.5640 H     1 <1>   0.0800 
 24 H       -2.4560     4.3260    -0.1010 H     1 <1>   0.0800 
 25 H        1.0890     2.8130     2.8410 H     1 <1>   0.0800 
 26 H       -0.1230     1.5590     2.9460 H     1 <1>   0.0800 
 27 H       -1.6770     6.0610    -1.7550 H     1 <1>   0.0800 
 28 H       -1.3570     4.4050    -2.1850 H     1 <1>   0.0800 
 29 H        0.8240     4.5900    -1.4660 H     1 <1>   0.4500 
 30 H        0.6780     6.1990     0.3060 H     1 <1>   0.0800 
 31 H        0.4320     7.4640    -0.8800 H     1 <1>   0.0800 
 32 H        0.2490     6.7620    -3.3660 H     1 <1>   0.0800 
 33 H        0.3310     5.0530    -3.7390 H     1 <1>   0.0800 
 34 H        2.9140     5.8100    -0.4430 H     1 <1>   0.0800 
 35 H        2.4560     6.2000    -4.2500 H     1 <1>   0.0800 
 36 H        2.6610     4.9610    -3.0540 H     1 <1>   0.0800 
 37 H        3.9050     6.9420    -2.3730 H     1 <1>   0.0800 
 38 H        2.4920     7.9500    -2.5620 H     1 <1>   0.0800 
 39 H        4.7190     7.9670    -0.5090 H     1 <1>   0.0800 
 40 H        4.3580     6.9540     0.8900 H     1 <1>   0.0800 
 41 H        3.5920     8.9550     2.1260 H     1 <1>   0.0800 
 42 H        3.9490     9.9550     0.7370 H     1 <1>   0.0800 
 43 H        5.9960     8.3650     2.3190 H     1 <1>   0.0800 
 44 H        5.7620    10.0930     2.4020 H     1 <1>   0.0800 
 45 H        6.3520     9.3680     0.9280 H     1 <1>   0.0800 
@<TRIPOS>BOND
  1   1   2  2   
  2   2   3  am  
  3   2   4  1   
  4   3   5  1   
  5   3   6  1   
  6   4   7  1   
  7   4  19  1   
  8   4  20  1   
  9   5   7  1   
 10   5  21  1   
 11   5  22  1   
 12   6   8  1   
 13   6  23  1   
 14   6  24  1   
 15   7  25  1   
 16   7  26  1   
 17   8   9  1   
 18   8  27  1   
 19   8  28  1   
 20   9  10  1   
 21   9  11  1   
 22   9  29  1   
 23  10  12  1   
 24  10  30  1   
 25  10  31  1   
 26  11  13  1   
 27  11  32  1   
 28  11  33  1   
 29  12  14  1   
 30  12  15  1   
 31  12  34  1   
 32  13  15  1   
 33  13  35  1   
 34  13  36  1   
 35  14  16  1   
 36  15  37  1   
 37  15  38  1   
 38  16  17  1   
 39  16  39  1   
 40  16  40  1   
 41  17  18  1   
 42  17  41  1   
 43  17  42  1   
 44  18  43  1   
 45  18  44  1   
 46  18  45  1   
@<TRIPOS>SUBSTRUCTURE
  1 ****  10 GROUP 4 **** **** 0

# MOE 2024.06 (io_trps.svl 2023.06)
