@<TRIPOS>MOLECULE
NONAME
56 60 1 0 0 
SMALL
USER_CHARGES


@<TRIPOS>ATOM
  1 O        0.2260     0.6840     0.8420 O.2   1 <1>  -0.5700 
  2 C       -0.4320     1.6730     0.5520 C.2   1 <1>   0.7160 
  3 N       -1.8110     1.5200     0.4830 N.am  1 <1>  -0.6600 
  4 C        0.2560     2.9360     0.2750 C.2   1 <1>   0.2030 
  5 C       -2.7380     2.5460    -0.0920 C.3   1 <1>   0.1400 
  6 C       -2.5010     0.2740     0.9230 C.3   1 <1>   0.1400 
  7 N       -0.1250     4.1500     0.6540 N.2   1 <1>  -0.7070 
  8 C        1.4570     3.0330    -0.4520 C.2   1 <1>  -0.1810 
  9 C       -3.8250     2.9400     0.9260 C.3   1 <1>   0.1430 
 10 C       -3.6050     0.6110     1.9350 C.3   1 <1>  -0.1600 
 11 N        0.8030     4.9910     0.1720 N.pl3 1 <1>   0.3000 
 12 C        1.7620     4.3380    -0.5060 C.2   1 <1>  -0.3320 
 13 C        2.3050     1.9480    -1.0960 C.3   1 <1>   0.0210 
 14 C       -4.7390     3.9590     0.2730 C.ar  1 <1>   0.1670 
 15 C       -4.5770     1.6740     1.3920 C.3   1 <1>  -0.1600 
 16 C       -3.2410     3.7390     2.1220 C.3   1 <1>  -0.1600 
 17 C        2.9700     4.9400    -1.1970 C.3   1 <1>   0.0200 
 18 C        3.6900     2.5050    -1.4800 C.3   1 <1>  -0.1600 
 19 N       -5.6320     3.6980    -0.6490 N.ar  1 <1>  -0.6200 
 20 C       -4.5070     5.2140     0.7480 C.ar  1 <1>  -0.1440 
 21 C       -3.4110     5.2290     1.7840 C.3   1 <1>  -0.0170 
 22 C        3.5950     3.8960    -2.1400 C.3   1 <1>  -0.1600 
 23 C       -6.3180     4.7550    -1.0920 C.ar  1 <1>   0.7200 
 24 C       -5.2610     6.2380     0.2350 C.ar  1 <1>   0.1600 
 25 N       -6.1710     6.0200    -0.6850 N.ar  1 <1>  -0.6200 
 26 N       -7.2680     4.5170    -2.0660 N.pl3 1 <1>  -0.8380 
 27 C       -7.8850     5.6190    -2.8550 C.3   1 <1>   0.1290 
 28 C       -7.7570     3.1460    -2.3770 C.3   1 <1>   0.1290 
 29 H       -3.2160     2.1260    -0.9600 H     1 <1>   0.0800 
 30 H       -2.2110     3.4220    -0.4180 H     1 <1>   0.0800 
 31 H       -1.8050    -0.4130     1.3740 H     1 <1>   0.0800 
 32 H       -2.9300    -0.2080     0.0610 H     1 <1>   0.0800 
 33 H       -3.1450     0.9600     2.8430 H     1 <1>   0.0800 
 34 H       -4.1490    -0.2850     2.1720 H     1 <1>   0.0800 
 35 H        0.7590     6.0060     0.3170 H     1 <1>   0.2700 
 36 H        1.7990     1.5910    -1.9750 H     1 <1>   0.0800 
 37 H        2.4310     1.1210    -0.4190 H     1 <1>   0.0800 
 38 H       -5.1110     1.2600     0.5540 H     1 <1>   0.0800 
 39 H       -5.3050     1.9310     2.1410 H     1 <1>   0.0800 
 40 H       -2.2140     3.4930     2.3250 H     1 <1>   0.0800 
 41 H       -3.8160     3.5320     3.0070 H     1 <1>   0.0800 
 42 H        3.6900     5.2330    -0.4520 H     1 <1>   0.0800 
 43 H        2.6870     5.8110    -1.7620 H     1 <1>   0.0800 
 44 H        4.1790     1.8150    -2.1450 H     1 <1>   0.0800 
 45 H        4.2880     2.5840    -0.5890 H     1 <1>   0.0800 
 46 H       -2.5070     5.6210     1.3500 H     1 <1>   0.0800 
 47 H       -3.6830     5.8050     2.6510 H     1 <1>   0.0800 
 48 H        4.5740     4.2260    -2.4410 H     1 <1>   0.0800 
 49 H        2.9870     3.8170    -3.0240 H     1 <1>   0.0800 
 50 H       -5.1150     7.2460     0.5810 H     1 <1>   0.1500 
 51 H       -7.2020     6.4460    -2.9470 H     1 <1>   0.0800 
 52 H       -8.7780     5.9580    -2.3600 H     1 <1>   0.0800 
 53 H       -8.1330     5.2740    -3.8430 H     1 <1>   0.0800 
 54 H       -7.6890     2.5150    -1.5070 H     1 <1>   0.0800 
 55 H       -7.1590     2.7210    -3.1640 H     1 <1>   0.0800 
 56 H       -8.7860     3.1800    -2.6890 H     1 <1>   0.0800 
@<TRIPOS>BOND
  1   1   2  2   
  2   2   3  am  
  3   2   4  1   
  4   3   5  1   
  5   3   6  1   
  6   4   7  2   
  7   4   8  1   
  8   5   9  1   
  9   5  29  1   
 10   5  30  1   
 11   6  10  1   
 12   6  31  1   
 13   6  32  1   
 14   7  11  1   
 15   8  12  2   
 16   8  13  1   
 17   9  14  1   
 18   9  15  1   
 19   9  16  1   
 20  10  15  1   
 21  10  33  1   
 22  10  34  1   
 23  11  12  1   
 24  11  35  1   
 25  12  17  1   
 26  13  18  1   
 27  13  36  1   
 28  13  37  1   
 29  14  19  ar  
 30  14  20  ar  
 31  15  38  1   
 32  15  39  1   
 33  16  21  1   
 34  16  40  1   
 35  16  41  1   
 36  17  22  1   
 37  17  42  1   
 38  17  43  1   
 39  18  22  1   
 40  18  44  1   
 41  18  45  1   
 42  19  23  ar  
 43  20  21  1   
 44  20  24  ar  
 45  21  46  1   
 46  21  47  1   
 47  22  48  1   
 48  22  49  1   
 49  23  25  ar  
 50  23  26  1   
 51  24  25  ar  
 52  24  50  1   
 53  26  27  1   
 54  26  28  1   
 55  27  51  1   
 56  27  52  1   
 57  27  53  1   
 58  28  54  1   
 59  28  55  1   
 60  28  56  1   
@<TRIPOS>SUBSTRUCTURE
  1 ****   5 GROUP 4 **** **** 0

# MOE 2024.06 (io_trps.svl 2023.06)
