@<TRIPOS>MOLECULE
NONAME
40 41 1 0 0 
SMALL
USER_CHARGES


@<TRIPOS>ATOM
  1 O        3.0330    -0.4430    -1.3930 O.2   1 <1>  -0.5700 
  2 C        2.1670    -0.7740    -0.6030 C.2   1 <1>   0.5440 
  3 N        1.6080     0.2200     0.1490 N.am  1 <1>  -0.7300 
  4 C        1.7810    -2.1710    -0.4590 C.ar  1 <1>   0.0860 
  5 C        1.8540     1.6710    -0.0310 C.3   1 <1>   0.1400 
  6 C        0.5860    -2.6120     0.1410 C.ar  1 <1>   0.0830 
  7 C        2.6460    -3.1560    -0.9410 C.ar  1 <1>  -0.1500 
  8 C        3.2420     2.0380     0.4940 C.3   1 <1>   0.0960 
  9 O       -0.2900    -1.6830     0.6160 O.3   1 <1>  -0.3630 
 10 C        0.3040    -3.9740     0.2430 C.ar  1 <1>  -0.1500 
 11 C        2.3770    -4.5050    -0.8370 C.ar  1 <1>   0.0830 
 12 N        3.5150     3.4550     0.2190 N.pl3 1 <1>   0.3140 
 13 C       -1.5860    -2.0060     1.0770 C.3   1 <1>   0.0400 
 14 C        1.1820    -4.9330    -0.2470 C.ar  1 <1>   0.0830 
 15 O        3.3240    -5.3420    -1.3450 O.3   1 <1>  -0.3630 
 16 N        2.9410     4.4440     0.8910 N.2   1 <1>  -0.7070 
 17 C        4.3250     3.9800    -0.7040 C.2   1 <1>   0.0360 
 18 O        0.9070    -6.2640    -0.1830 O.3   1 <1>  -0.3630 
 19 C        3.7580    -6.4370    -0.5670 C.3   1 <1>   0.0400 
 20 C        3.4480     5.4910     0.3280 C.2   1 <1>   0.3660 
 21 N        4.3130     5.2640    -0.6690 N.2   1 <1>  -0.5650 
 22 C       -0.3540    -6.7650     0.2030 C.3   1 <1>   0.0400 
 23 H        0.7840    -0.0440     0.7020 H     1 <1>   0.3700 
 24 H        1.1030     2.2310     0.5000 H     1 <1>   0.0800 
 25 H        1.7900     1.9060    -1.0810 H     1 <1>   0.0800 
 26 H        3.5670    -2.8620    -1.4140 H     1 <1>   0.1500 
 27 H        3.9950     1.4440     0.0100 H     1 <1>   0.0800 
 28 H        3.2890     1.8810     1.5550 H     1 <1>   0.0800 
 29 H       -0.6040    -4.2940     0.7070 H     1 <1>   0.1500 
 30 H       -2.0960    -1.0890     1.3150 H     1 <1>   0.0800 
 31 H       -1.5040    -2.6140     1.9600 H     1 <1>   0.0800 
 32 H       -2.1170    -2.5240     0.2980 H     1 <1>   0.0800 
 33 H        4.9040     3.3800    -1.3840 H     1 <1>   0.1500 
 34 H        4.7450    -6.7080    -0.8950 H     1 <1>   0.0800 
 35 H        3.0860    -7.2610    -0.7220 H     1 <1>   0.0800 
 36 H        3.7780    -6.1500     0.4690 H     1 <1>   0.0800 
 37 H        3.2050     6.4990     0.6250 H     1 <1>   0.1500 
 38 H       -0.3380    -7.8340     0.0830 H     1 <1>   0.0800 
 39 H       -1.1090    -6.3390    -0.4330 H     1 <1>   0.0800 
 40 H       -0.5280    -6.5180     1.2350 H     1 <1>   0.0800 
@<TRIPOS>BOND
  1   1   2  2   
  2   2   3  am  
  3   2   4  1   
  4   3   5  1   
  5   3  23  1   
  6   4   6  ar  
  7   4   7  ar  
  8   5   8  1   
  9   5  24  1   
 10   5  25  1   
 11   6   9  1   
 12   6  10  ar  
 13   7  11  ar  
 14   7  26  1   
 15   8  12  1   
 16   8  27  1   
 17   8  28  1   
 18   9  13  1   
 19  10  14  ar  
 20  10  29  1   
 21  11  14  ar  
 22  11  15  1   
 23  12  16  1   
 24  12  17  1   
 25  13  30  1   
 26  13  31  1   
 27  13  32  1   
 28  14  18  1   
 29  15  19  1   
 30  16  20  2   
 31  17  21  2   
 32  17  33  1   
 33  18  22  1   
 34  19  34  1   
 35  19  35  1   
 36  19  36  1   
 37  20  21  1   
 38  20  37  1   
 39  22  38  1   
 40  22  39  1   
 41  22  40  1   
@<TRIPOS>SUBSTRUCTURE
  1 ****   2 GROUP 4 **** **** 0

# MOE 2024.06 (io_trps.svl 2023.06)
