@<TRIPOS>MOLECULE
NONAME
48 51 1 0 0 
SMALL
USER_CHARGES


@<TRIPOS>ATOM
  1 O       -0.5780    -0.5550    -0.7690 O.2   1 <1>  -0.5700 
  2 C        0.4060    -1.2650    -0.7340 C.2   1 <1>   0.6900 
  3 N        0.4720    -2.5400    -0.2400 N.am  1 <1>  -0.4770 
  4 N        1.6030    -0.8460    -1.1730 N.am  1 <1>  -0.7300 
  5 C       -0.5170    -3.2800     0.4310 C.ar  1 <1>   0.1170 
  6 C        1.8740    -3.0250    -0.3430 C.3   1 <1>   0.1400 
  7 C        2.6590    -1.8340    -0.9170 C.3   1 <1>   0.1400 
  8 C       -0.5820    -4.6610     0.2940 C.ar  1 <1>  -0.1500 
  9 C       -1.4470    -2.6590     1.2580 C.ar  1 <1>  -0.1500 
 10 C       -1.5340    -5.4310     0.9550 C.ar  1 <1>   0.0860 
 11 C       -2.3990    -3.3980     1.9350 C.ar  1 <1>  -0.1500 
 12 C       -1.5680    -6.8710     0.7760 C.2   1 <1>   0.5440 
 13 C       -2.4360    -4.7720     1.7890 C.ar  1 <1>  -0.1500 
 14 O       -0.5410    -7.5130     0.8870 O.2   1 <1>  -0.5700 
 15 N       -2.7310    -7.5350     0.4620 N.am  1 <1>  -0.6600 
 16 C       -3.9440    -6.8960    -0.1100 C.3   1 <1>   0.1400 
 17 C       -2.7750    -9.0050     0.2680 C.3   1 <1>   0.1400 
 18 C       -4.7140    -8.0360    -0.7780 C.3   1 <1>   0.2000 
 19 C       -4.2280    -9.3140    -0.1000 C.3   1 <1>  -0.0800 
 20 O       -6.0830    -7.9010    -0.6050 O.3   1 <1>  -0.6800 
 21 C       -4.4040   -10.5590    -0.9860 C.3   1 <1>  -0.0170 
 22 C       -3.9630   -11.8260    -0.2720 C.ar  1 <1>   0.1670 
 23 N       -2.6700   -12.1040    -0.3050 N.ar  1 <1>  -0.6200 
 24 C       -4.9040   -12.6240     0.3770 C.ar  1 <1>   0.1600 
 25 C       -2.3820   -13.2170     0.3480 C.ar  1 <1>   0.1600 
 26 N       -4.6190   -13.7370     1.0320 N.ar  1 <1>  -0.6200 
 27 C       -3.3250   -14.0060     0.9960 C.ar  1 <1>   0.1600 
 28 H        1.7640     0.1320    -1.4120 H     1 <1>   0.3700 
 29 H        2.2460    -3.3040     0.6270 H     1 <1>   0.0800 
 30 H        1.9280    -3.8670    -1.0100 H     1 <1>   0.0800 
 31 H        3.1640    -2.1010    -1.8290 H     1 <1>   0.0800 
 32 H        3.3650    -1.4540    -0.1980 H     1 <1>   0.0800 
 33 H        0.1180    -5.1670    -0.3440 H     1 <1>   0.1500 
 34 H       -1.4230    -1.5900     1.3750 H     1 <1>   0.1500 
 35 H       -3.1050    -2.9000     2.5770 H     1 <1>   0.1500 
 36 H       -3.1670    -5.3460     2.3300 H     1 <1>   0.1500 
 37 H       -4.5230    -6.4580     0.6830 H     1 <1>   0.0800 
 38 H       -3.6710    -6.1440    -0.8310 H     1 <1>   0.0800 
 39 H       -2.1070    -9.2740    -0.5340 H     1 <1>   0.0800 
 40 H       -2.4720    -9.5190     1.1640 H     1 <1>   0.0800 
 41 H       -4.5030    -8.0470    -1.8350 H     1 <1>   0.0800 
 42 H       -4.7630    -9.4550     0.8230 H     1 <1>   0.0800 
 43 H       -6.3050    -7.8800     0.3460 H     1 <1>   0.4000 
 44 H       -3.8330   -10.4500    -1.8920 H     1 <1>   0.0800 
 45 H       -5.4390   -10.6490    -1.2670 H     1 <1>   0.0800 
 46 H       -5.9370   -12.3280     0.3550 H     1 <1>   0.1500 
 47 H       -1.3500   -13.5190     0.3740 H     1 <1>   0.1500 
 48 H       -2.9940   -14.8950     1.5020 H     1 <1>   0.1500 
@<TRIPOS>BOND
  1   1   2  2   
  2   2   3  am  
  3   2   4  am  
  4   3   5  1   
  5   3   6  1   
  6   4   7  1   
  7   4  28  1   
  8   5   8  ar  
  9   5   9  ar  
 10   6   7  1   
 11   6  29  1   
 12   6  30  1   
 13   7  31  1   
 14   7  32  1   
 15   8  10  ar  
 16   8  33  1   
 17   9  11  ar  
 18   9  34  1   
 19  10  12  1   
 20  10  13  ar  
 21  11  13  ar  
 22  11  35  1   
 23  12  14  2   
 24  12  15  am  
 25  13  36  1   
 26  15  16  1   
 27  15  17  1   
 28  16  18  1   
 29  16  37  1   
 30  16  38  1   
 31  17  19  1   
 32  17  39  1   
 33  17  40  1   
 34  18  19  1   
 35  18  20  1   
 36  18  41  1   
 37  19  21  1   
 38  19  42  1   
 39  20  43  1   
 40  21  22  1   
 41  21  44  1   
 42  21  45  1   
 43  22  23  ar  
 44  22  24  ar  
 45  23  25  ar  
 46  24  26  ar  
 47  24  46  1   
 48  25  27  ar  
 49  25  47  1   
 50  26  27  ar  
 51  27  48  1   
@<TRIPOS>SUBSTRUCTURE
  1 ****  12 GROUP 4 **** **** 0

# MOE 2024.06 (io_trps.svl 2023.06)
