@<TRIPOS>MOLECULE
NONAME
53 56 1 0 0 
SMALL
USER_CHARGES


@<TRIPOS>ATOM
  1 O        0.8130    -0.4590    -1.0840 O.3   1 <1>  -0.5600 
  2 C        1.8880    -1.0970    -0.4350 C.3   1 <1>   0.4240 
  3 C       -0.4770    -0.8000    -0.6820 C.3   1 <1>   0.1200 
  4 C        1.5830    -2.5830    -0.1480 C.ar  1 <1>  -0.1440 
  5 C        2.1880    -0.3300     0.8630 C.3   1 <1>  -0.1600 
  6 C        3.0740    -0.9750    -1.4010 C.3   1 <1>  -0.1600 
  7 C       -0.7370    -2.2590    -1.0420 C.3   1 <1>  -0.0160 
  8 C        0.3430    -3.1350    -0.4380 C.ar  1 <1>  -0.1440 
  9 C        2.5500    -3.4050     0.4160 C.ar  1 <1>  -0.1500 
 10 C        2.5600     1.1260     0.5860 C.3   1 <1>   0.2090 
 11 C        3.4450     0.4850    -1.6590 C.3   1 <1>   0.2090 
 12 C        0.0850    -4.4710    -0.1750 C.ar  1 <1>  -0.1500 
 13 C        2.3150    -4.7430     0.6800 C.ar  1 <1>   0.0820 
 14 N        3.7090     1.1660    -0.3600 N.pl3 1 <1>  -0.8380 
 15 C        1.0560    -5.2930     0.3910 C.ar  1 <1>   0.0820 
 16 O        3.3780    -5.4070     1.2200 O.3   1 <1>  -0.3630 
 17 C        4.9030     1.7360    -0.0610 C.ar  1 <1>   0.1000 
 18 O        0.7960    -6.6030     0.6790 O.3   1 <1>  -0.3630 
 19 C        3.5630    -6.7920     1.0270 C.3   1 <1>   0.0400 
 20 C        5.0510     3.1000     0.2610 C.ar  1 <1>  -0.1440 
 21 C        6.0580     0.9480    -0.0730 C.ar  1 <1>  -0.1500 
 22 C       -0.4910    -7.1650     0.5410 C.3   1 <1>   0.0400 
 23 C        6.2950     3.5940     0.5690 C.ar  1 <1>   0.2110 
 24 C        3.8500     4.0430     0.2420 C.3   1 <1>  -0.0970 
 25 C        7.2790     1.4790     0.2380 C.ar  1 <1>   0.2110 
 26 N        7.3880     2.7910     0.5600 N.ar  1 <1>  -0.1790 
 27 H       -1.1660    -0.1560    -1.2000 H     1 <1>   0.0800 
 28 H       -0.5730    -0.6390     0.3780 H     1 <1>   0.0800 
 29 H        3.0110    -0.7930     1.3730 H     1 <1>   0.0800 
 30 H        1.3430    -0.3750     1.5220 H     1 <1>   0.0800 
 31 H        2.8200    -1.4560    -2.3280 H     1 <1>   0.0800 
 32 H        3.9320    -1.4770    -1.0010 H     1 <1>   0.0800 
 33 H       -0.7360    -2.3690    -2.1120 H     1 <1>   0.0800 
 34 H       -1.7030    -2.5480    -0.6720 H     1 <1>   0.0800 
 35 H        3.5200    -3.0160     0.6630 H     1 <1>   0.1500 
 36 H        2.8260     1.6080     1.5100 H     1 <1>   0.0800 
 37 H        1.7220     1.6470     0.1530 H     1 <1>   0.0800 
 38 H        2.6340     0.9860    -2.1620 H     1 <1>   0.0800 
 39 H        4.3140     0.5390    -2.2910 H     1 <1>   0.0800 
 40 H       -0.8850    -4.8540    -0.4200 H     1 <1>   0.1500 
 41 H        4.5890    -7.0260     1.2460 H     1 <1>   0.0800 
 42 H        3.3370    -7.0380     0.0050 H     1 <1>   0.0800 
 43 H        2.9180    -7.3250     1.7010 H     1 <1>   0.0800 
 44 H        5.9590    -0.0940    -0.3230 H     1 <1>   0.1500 
 45 H       -0.4490    -8.1820     0.8850 H     1 <1>   0.0800 
 46 H       -0.7730    -7.1420    -0.4960 H     1 <1>   0.0800 
 47 H       -1.1830    -6.6040     1.1440 H     1 <1>   0.0800 
 48 H        6.4280     4.6340     0.8200 H     1 <1>   0.1500 
 49 H        3.2470     3.8540    -0.6290 H     1 <1>   0.0800 
 50 H        4.1580     5.0730     0.2150 H     1 <1>   0.0800 
 51 H        3.2430     3.8930     1.1170 H     1 <1>   0.0800 
 52 H        8.1670     0.8670     0.2340 H     1 <1>   0.1500 
 53 H        8.3070     3.1830     0.7930 H     1 <1>   0.4570 
@<TRIPOS>BOND
  1   1   2  1   
  2   1   3  1   
  3   2   4  1   
  4   2   5  1   
  5   2   6  1   
  6   3   7  1   
  7   3  27  1   
  8   3  28  1   
  9   4   8  ar  
 10   4   9  ar  
 11   5  10  1   
 12   5  29  1   
 13   5  30  1   
 14   6  11  1   
 15   6  31  1   
 16   6  32  1   
 17   7   8  1   
 18   7  33  1   
 19   7  34  1   
 20   8  12  ar  
 21   9  13  ar  
 22   9  35  1   
 23  10  14  1   
 24  10  36  1   
 25  10  37  1   
 26  11  14  1   
 27  11  38  1   
 28  11  39  1   
 29  12  15  ar  
 30  12  40  1   
 31  13  15  ar  
 32  13  16  1   
 33  14  17  1   
 34  15  18  1   
 35  16  19  1   
 36  17  20  ar  
 37  17  21  ar  
 38  18  22  1   
 39  19  41  1   
 40  19  42  1   
 41  19  43  1   
 42  20  23  ar  
 43  20  24  1   
 44  21  25  ar  
 45  21  44  1   
 46  22  45  1   
 47  22  46  1   
 48  22  47  1   
 49  23  26  ar  
 50  23  48  1   
 51  24  49  1   
 52  24  50  1   
 53  24  51  1   
 54  25  26  ar  
 55  25  52  1   
 56  26  53  1   
@<TRIPOS>SUBSTRUCTURE
  1 ****   2 GROUP 4 **** **** 0

# MOE 2024.06 (io_trps.svl 2023.06)
