@<TRIPOS>MOLECULE
NONAME
51 53 1 0 0 
SMALL
USER_CHARGES


@<TRIPOS>ATOM
  1 CL      -0.1410    -1.3700     3.4770 Cl    1 <1>  -0.1770 
  2 C        0.6930    -1.5060     1.9510 C.ar  1 <1>   0.1770 
  3 C        0.9290    -2.7580     1.4220 C.ar  1 <1>  -0.1500 
  4 C        1.0840    -0.3560     1.2930 C.ar  1 <1>  -0.1500 
  5 C        1.5420    -2.8910     0.1780 C.ar  1 <1>   0.0860 
  6 C        1.7240    -0.4640     0.0700 C.ar  1 <1>  -0.1440 
  7 C        1.7830    -4.1900    -0.4260 C.2   1 <1>   0.5440 
  8 C        1.9480    -1.7220    -0.4680 C.ar  1 <1>  -0.1500 
  9 C        2.1900     0.7790    -0.6670 C.3   1 <1>  -0.0960 
 10 O        2.9290    -4.4800    -0.7080 O.2   1 <1>  -0.5700 
 11 N        0.7850    -5.1160    -0.6920 N.am  1 <1>  -0.6600 
 12 C       -0.6300    -4.8500    -1.0980 C.3   1 <1>   0.2200 
 13 C        1.1640    -6.5540    -0.8300 C.3   1 <1>   0.0600 
 14 C       -0.8650    -3.5660    -1.9020 C.3   1 <1>  -0.1600 
 15 C       -1.5700    -4.8300     0.1070 C.3   1 <1>  -0.1600 
 16 C       -2.1610    -2.9380    -1.3710 C.3   1 <1>  -0.0800 
 17 C       -2.6410    -3.7700    -0.1800 C.3   1 <1>  -0.0800 
 18 C       -2.0090    -1.5090    -0.8360 C.3   1 <1>  -0.1600 
 19 C       -2.8740    -2.7760     0.9720 C.3   1 <1>  -0.1600 
 20 C       -3.0060    -1.3960     0.3210 C.3   1 <1>   0.4230 
 21 N       -4.4020    -1.1880    -0.1830 N.4   1 <1>  -0.9590 
 22 C       -4.5470     0.0550    -1.0070 C.3   1 <1>   0.2630 
 23 C       -5.4070    -1.1360     0.9290 C.3   1 <1>   0.2630 
 24 H        0.6520    -3.6330     1.9780 H     1 <1>   0.1500 
 25 H        0.8990     0.6040     1.7410 H     1 <1>   0.1500 
 26 H        2.4580    -1.8180    -1.4120 H     1 <1>   0.1500 
 27 H        2.1680     0.6190    -1.7300 H     1 <1>   0.0800 
 28 H        3.1980     1.0150    -0.3770 H     1 <1>   0.0800 
 29 H        1.5590     1.6180    -0.4360 H     1 <1>   0.0800 
 30 H       -0.9530    -5.6590    -1.7330 H     1 <1>   0.0800 
 31 H        0.4090    -7.1800    -0.3880 H     1 <1>   0.0800 
 32 H        2.0990    -6.7480    -0.3330 H     1 <1>   0.0800 
 33 H        1.2710    -6.8010    -1.8720 H     1 <1>   0.0800 
 34 H       -0.0470    -2.8790    -1.8490 H     1 <1>   0.0800 
 35 H       -0.9900    -3.8260    -2.9380 H     1 <1>   0.0800 
 36 H       -2.0250    -5.7970     0.2300 H     1 <1>   0.0800 
 37 H       -1.0250    -4.6110     1.0010 H     1 <1>   0.0800 
 38 H       -2.9130    -2.9580    -2.1440 H     1 <1>   0.0800 
 39 H       -3.5650    -4.2580    -0.4450 H     1 <1>   0.0800 
 40 H       -2.1130    -0.7660    -1.6030 H     1 <1>   0.0800 
 41 H       -1.0260    -1.3940    -0.4170 H     1 <1>   0.0800 
 42 H       -2.0030    -2.7400     1.6010 H     1 <1>   0.0800 
 43 H       -3.6990    -3.0650     1.5950 H     1 <1>   0.0800 
 44 H       -2.7290    -0.6090     1.0040 H     1 <1>   0.0800 
 45 H       -4.6140    -2.0010    -0.7780 H     1 <1>   0.4500 
 46 H       -4.2320     0.9180    -0.4430 H     1 <1>   0.0800 
 47 H       -5.5770     0.1920    -1.2980 H     1 <1>   0.0800 
 48 H       -3.9540    -0.0100    -1.9040 H     1 <1>   0.0800 
 49 H       -5.1620    -0.3440     1.6180 H     1 <1>   0.0800 
 50 H       -5.4300    -2.0680     1.4690 H     1 <1>   0.0800 
 51 H       -6.3930    -0.9550     0.5330 H     1 <1>   0.0800 
@<TRIPOS>BOND
  1   1   2  1   
  2   2   3  ar  
  3   2   4  ar  
  4   3   5  ar  
  5   3  24  1   
  6   4   6  ar  
  7   4  25  1   
  8   5   7  1   
  9   5   8  ar  
 10   6   8  ar  
 11   6   9  1   
 12   7  10  2   
 13   7  11  am  
 14   8  26  1   
 15   9  27  1   
 16   9  28  1   
 17   9  29  1   
 18  11  12  1   
 19  11  13  1   
 20  12  14  1   
 21  12  15  1   
 22  12  30  1   
 23  13  31  1   
 24  13  32  1   
 25  13  33  1   
 26  14  16  1   
 27  14  34  1   
 28  14  35  1   
 29  15  17  1   
 30  15  36  1   
 31  15  37  1   
 32  16  17  1   
 33  16  18  1   
 34  16  38  1   
 35  17  19  1   
 36  17  39  1   
 37  18  20  1   
 38  18  40  1   
 39  18  41  1   
 40  19  20  1   
 41  19  42  1   
 42  19  43  1   
 43  20  21  1   
 44  20  44  1   
 45  21  22  1   
 46  21  23  1   
 47  21  45  1   
 48  22  46  1   
 49  22  47  1   
 50  22  48  1   
 51  23  49  1   
 52  23  50  1   
 53  23  51  1   
@<TRIPOS>SUBSTRUCTURE
  1 ****  18 GROUP 4 **** **** 0

# MOE 2024.06 (io_trps.svl 2023.06)
