@<TRIPOS>MOLECULE
NONAME
47 48 1 0 0 
SMALL
USER_CHARGES


@<TRIPOS>ATOM
  1 CL      -4.7330     0.3740    -0.2650 Cl    1 <1>  -0.1770 
  2 C       -3.8880    -1.0320     0.3310 C.ar  1 <1>   0.1770 
  3 C       -4.1070    -2.2580    -0.2690 C.ar  1 <1>  -0.1500 
  4 C       -3.0160    -0.8970     1.3940 C.ar  1 <1>  -0.1500 
  5 C       -3.4390    -3.3790     0.2020 C.ar  1 <1>  -0.1440 
  6 C       -2.3490    -2.0150     1.8650 C.ar  1 <1>  -0.1500 
  7 C       -2.5610    -3.2490     1.2690 C.ar  1 <1>  -0.1500 
  8 C       -3.6710    -4.7360    -0.4440 C.3   1 <1>  -0.0160 
  9 C       -4.8400    -5.4600     0.2320 C.3   1 <1>  -0.0990 
 10 C       -5.0580    -6.8230    -0.3830 C.2   1 <1>   0.5690 
 11 O       -5.6980    -6.9160    -1.4020 O.2   1 <1>  -0.5700 
 12 N       -4.5340    -7.9110     0.2320 N.am  1 <1>  -0.7300 
 13 C       -4.7270    -9.2940    -0.2520 C.3   1 <1>   0.2200 
 14 C       -6.1020    -9.7890     0.1870 C.3   1 <1>  -0.0800 
 15 C       -3.7640   -10.2620     0.4300 C.3   1 <1>   0.1200 
 16 C       -5.7960   -10.9170     1.1760 C.3   1 <1>   0.1200 
 17 C       -6.9540   -10.2230    -1.0190 C.3   1 <1>  -0.0550 
 18 O       -4.4580   -10.7540     1.5270 O.3   1 <1>  -0.5600 
 19 S       -8.6700   -10.5570    -0.6170 S.o2  1 <1>   1.3330 
 20 O       -8.6980   -11.6030     0.3800 O.2   1 <1>  -0.6500 
 21 O       -9.4150   -10.7220    -1.8440 O.2   1 <1>  -0.6500 
 22 N       -9.2100    -9.1270     0.1190 N.am  1 <1>  -0.8490 
 23 C      -10.4760    -9.3310     0.8270 C.3   1 <1>   0.1160 
 24 C       -9.3370    -8.0010    -0.8150 C.3   1 <1>   0.1160 
 25 H       -4.7930    -2.3260    -1.0930 H     1 <1>   0.1500 
 26 H       -2.8640     0.0680     1.8430 H     1 <1>   0.1500 
 27 H       -1.6650    -1.9260     2.6910 H     1 <1>   0.1500 
 28 H       -2.0370    -4.1110     1.6440 H     1 <1>   0.1500 
 29 H       -3.8840    -4.6090    -1.4920 H     1 <1>   0.0800 
 30 H       -2.7780    -5.3320    -0.3650 H     1 <1>   0.0800 
 31 H       -5.7380    -4.8810     0.1120 H     1 <1>   0.0800 
 32 H       -4.6480    -5.5620     1.2840 H     1 <1>   0.0800 
 33 H       -4.1350    -7.8380     1.1710 H     1 <1>   0.3700 
 34 H       -4.5940    -9.3190    -1.3220 H     1 <1>   0.0800 
 35 H       -6.6230    -9.0100     0.7180 H     1 <1>   0.0800 
 36 H       -2.8540    -9.7920     0.7580 H     1 <1>   0.0800 
 37 H       -3.5400   -11.0930    -0.2150 H     1 <1>   0.0800 
 38 H       -5.9050   -11.8890     0.7260 H     1 <1>   0.0800 
 39 H       -6.4040   -10.8590     2.0640 H     1 <1>   0.0800 
 40 H       -6.5200   -11.0950    -1.4690 H     1 <1>   0.0800 
 41 H       -6.9260    -9.4390    -1.7510 H     1 <1>   0.0800 
 42 H      -10.7820    -8.4210     1.3140 H     1 <1>   0.0800 
 43 H      -10.3570   -10.0920     1.5800 H     1 <1>   0.0800 
 44 H      -11.2440    -9.6420     0.1390 H     1 <1>   0.0800 
 45 H       -9.6530    -7.1170    -0.2880 H     1 <1>   0.0800 
 46 H      -10.0570    -8.2260    -1.5850 H     1 <1>   0.0800 
 47 H       -8.3880    -7.7880    -1.2780 H     1 <1>   0.0800 
@<TRIPOS>BOND
  1   1   2  1   
  2   2   3  ar  
  3   2   4  ar  
  4   3   5  ar  
  5   3  25  1   
  6   4   6  ar  
  7   4  26  1   
  8   5   7  ar  
  9   5   8  1   
 10   6   7  ar  
 11   6  27  1   
 12   7  28  1   
 13   8   9  1   
 14   8  29  1   
 15   8  30  1   
 16   9  10  1   
 17   9  31  1   
 18   9  32  1   
 19  10  11  2   
 20  10  12  am  
 21  12  13  1   
 22  12  33  1   
 23  13  14  1   
 24  13  15  1   
 25  13  34  1   
 26  14  16  1   
 27  14  17  1   
 28  14  35  1   
 29  15  18  1   
 30  15  36  1   
 31  15  37  1   
 32  16  18  1   
 33  16  38  1   
 34  16  39  1   
 35  17  19  1   
 36  17  40  1   
 37  17  41  1   
 38  19  20  2   
 39  19  21  2   
 40  19  22  am  
 41  22  23  1   
 42  22  24  1   
 43  23  42  1   
 44  23  43  1   
 45  23  44  1   
 46  24  45  1   
 47  24  46  1   
 48  24  47  1   
@<TRIPOS>SUBSTRUCTURE
  1 ****  10 GROUP 4 **** **** 0

# MOE 2024.06 (io_trps.svl 2023.06)
