@<TRIPOS>MOLECULE
NONAME
49 51 1 0 0 
SMALL
USER_CHARGES


@<TRIPOS>ATOM
  1 S        1.5480    -0.7780    -1.3240 S.3   1 <1>  -0.3320 
  2 C        2.8570    -1.7660    -0.5760 C.ar  1 <1>   0.1020 
  3 C        0.3080    -0.4640     0.0340 C.3   1 <1>   0.2110 
  4 C        3.5030    -1.3770     0.6010 C.ar  1 <1>   0.0860 
  5 C        3.1940    -2.9320    -1.2390 C.ar  1 <1>  -0.1500 
  6 C       -1.0310    -1.0820    -0.3330 C.2   1 <1>   0.5690 
  7 C        0.0140     1.0430     0.0960 C.3   1 <1>  -0.0990 
  8 C        3.2100    -0.1350     1.2720 C.2   1 <1>   0.5440 
  9 C        4.4740    -2.2400     1.1110 C.ar  1 <1>  -0.1500 
 10 C        4.1730    -3.7600    -0.7200 C.ar  1 <1>  -0.1500 
 11 O       -1.2380    -2.2690    -0.3930 O.2   1 <1>  -0.5700 
 12 N       -1.9520    -0.1060    -0.5570 N.am  1 <1>  -0.4200 
 13 C       -1.4210     1.1300    -0.3590 C.2   1 <1>   0.5690 
 14 O        2.7280    -0.1480     2.3880 O.2   1 <1>  -0.5700 
 15 N        3.4340     1.0540     0.6310 N.am  1 <1>  -0.4930 
 16 C        4.8080    -3.4140     0.4610 C.ar  1 <1>  -0.1500 
 17 C       -3.3490    -0.3570    -0.9660 C.3   1 <1>   0.1400 
 18 O       -1.9920     2.1770    -0.5220 O.2   1 <1>  -0.5700 
 19 C        2.9460     2.3330     0.9890 C.2   1 <1>   0.0630 
 20 C       -4.2360    -0.4730     0.2720 C.3   1 <1>  -0.2400 
 21 C        2.5710     2.8200     2.2410 C.2   1 <1>   0.1390 
 22 C        2.6870     3.3480     0.1410 C.2   1 <1>  -0.3020 
 23 N        2.0990     4.0290     2.1790 N.2   1 <1>  -0.7070 
 24 N        2.1650     4.3590     0.8740 N.pl3 1 <1>   0.3140 
 25 C        1.6210     5.6470     0.3650 C.3   1 <1>   0.1760 
 26 C        0.3950     5.3980    -0.5250 C.3   1 <1>  -0.2400 
 27 C        2.6990     6.4380    -0.3890 C.3   1 <1>  -0.2400 
 28 H        0.6770    -0.8660     0.9590 H     1 <1>   0.0800 
 29 H        2.6860    -3.1960    -2.1510 H     1 <1>   0.1500 
 30 H        0.6380     1.6110    -0.5650 H     1 <1>   0.0800 
 31 H        0.0970     1.4140     1.1010 H     1 <1>   0.0800 
 32 H        4.9710    -1.9790     2.0310 H     1 <1>   0.1500 
 33 H        4.4350    -4.6730    -1.2290 H     1 <1>   0.1500 
 34 H        3.8100     0.9880    -0.3150 H     1 <1>   0.3700 
 35 H        5.5630    -4.0630     0.8720 H     1 <1>   0.1500 
 36 H       -3.3950    -1.2680    -1.5390 H     1 <1>   0.0800 
 37 H       -3.6890     0.4550    -1.5880 H     1 <1>   0.0800 
 38 H       -3.9110    -1.2930     0.8880 H     1 <1>   0.0800 
 39 H       -5.2520    -0.6540    -0.0280 H     1 <1>   0.0800 
 40 H       -4.2060     0.4410     0.8400 H     1 <1>   0.0800 
 41 H        2.6530     2.2570     3.1560 H     1 <1>   0.1500 
 42 H        2.8190     3.4060    -0.9220 H     1 <1>   0.1500 
 43 H        1.3120     6.2200     1.2230 H     1 <1>   0.0800 
 44 H        0.6640     4.8430    -1.4050 H     1 <1>   0.0800 
 45 H       -0.0360     6.3340    -0.8290 H     1 <1>   0.0800 
 46 H       -0.3510     4.8470     0.0230 H     1 <1>   0.0800 
 47 H        3.0210     5.9090    -1.2680 H     1 <1>   0.0800 
 48 H        3.5450     6.6080     0.2540 H     1 <1>   0.0800 
 49 H        2.3080     7.3930    -0.6900 H     1 <1>   0.0800 
@<TRIPOS>BOND
  1   1   2  1   
  2   1   3  1   
  3   2   4  ar  
  4   2   5  ar  
  5   3   6  1   
  6   3   7  1   
  7   3  28  1   
  8   4   8  1   
  9   4   9  ar  
 10   5  10  ar  
 11   5  29  1   
 12   6  11  2   
 13   6  12  am  
 14   7  13  1   
 15   7  30  1   
 16   7  31  1   
 17   8  14  2   
 18   8  15  am  
 19   9  16  ar  
 20   9  32  1   
 21  10  16  ar  
 22  10  33  1   
 23  12  13  am  
 24  12  17  1   
 25  13  18  2   
 26  15  19  1   
 27  15  34  1   
 28  16  35  1   
 29  17  20  1   
 30  17  36  1   
 31  17  37  1   
 32  19  21  1   
 33  19  22  2   
 34  20  38  1   
 35  20  39  1   
 36  20  40  1   
 37  21  23  2   
 38  21  41  1   
 39  22  24  1   
 40  22  42  1   
 41  23  24  1   
 42  24  25  1   
 43  25  26  1   
 44  25  27  1   
 45  25  43  1   
 46  26  44  1   
 47  26  45  1   
 48  26  46  1   
 49  27  47  1   
 50  27  48  1   
 51  27  49  1   
@<TRIPOS>SUBSTRUCTURE
  1 ****   7 GROUP 4 **** **** 0

# MOE 2024.06 (io_trps.svl 2023.06)
