@<TRIPOS>MOLECULE
NONAME
48 50 1 0 0 
SMALL
USER_CHARGES


@<TRIPOS>ATOM
  1 CL       1.3490     1.7790     1.2100 Cl    1 <1>  -0.1770 
  2 C        0.5440     3.3270     1.3170 C.ar  1 <1>   0.1770 
  3 C        0.1390     3.9950     0.1690 C.ar  1 <1>  -0.1440 
  4 C        0.3220     3.8540     2.5770 C.ar  1 <1>  -0.1500 
  5 C       -0.4980     5.2200     0.3110 C.ar  1 <1>  -0.1500 
  6 C        0.3630     3.4040    -1.2150 C.3   1 <1>   0.2140 
  7 C       -0.3150     5.0760     2.7030 C.ar  1 <1>  -0.1500 
  8 C       -0.7210     5.7570     1.5680 C.ar  1 <1>  -0.1500 
  9 S        2.0570     3.7830    -1.7670 S.3   1 <1>  -0.4600 
 10 C        1.8050     5.0020    -3.1030 C.3   1 <1>   0.1310 
 11 C        1.1830     6.2650    -2.5380 C.2   1 <1>   0.5690 
 12 O        0.0400     6.5200    -2.8450 O.2   1 <1>  -0.5700 
 13 N        1.9430     7.0060    -1.6890 N.am  1 <1>  -0.4930 
 14 C        1.6080     8.0260    -0.7650 C.2   1 <1>   0.0630 
 15 C        2.3200     8.1800     0.4310 C.2   1 <1>   0.3720 
 16 C        0.6680     8.9970    -0.7430 C.2   1 <1>  -0.3320 
 17 N        1.8520     9.1400     1.1630 N.2   1 <1>  -0.7070 
 18 N        3.4170     7.3600     0.7810 N.pl3 1 <1>  -0.8210 
 19 N        0.8280     9.6440     0.4390 N.pl3 1 <1>   0.3140 
 20 C       -0.3760     9.3750    -1.7840 C.3   1 <1>  -0.0600 
 21 C        4.4030     7.9690     1.7140 C.3   1 <1>   0.2090 
 22 C        2.9810     6.0580     1.3530 C.3   1 <1>   0.2090 
 23 C        0.0410    10.7750     0.9470 C.3   1 <1>   0.0160 
 24 C        4.9080     6.8190     2.5710 C.3   1 <1>  -0.1600 
 25 C        3.7010     5.9020     2.6850 C.3   1 <1>  -0.1600 
 26 H        0.6460     3.3110     3.4460 H     1 <1>   0.1500 
 27 H       -0.8260     5.7710    -0.5540 H     1 <1>   0.1500 
 28 H       -0.3200     3.8190    -1.9350 H     1 <1>   0.0800 
 29 H        0.2640     2.3330    -1.2080 H     1 <1>   0.0800 
 30 H       -0.4900     5.4990     3.6770 H     1 <1>   0.1500 
 31 H       -1.2070     6.7140     1.6590 H     1 <1>   0.1500 
 32 H        1.1620     4.5530    -3.8370 H     1 <1>   0.0800 
 33 H        2.7660     5.2100    -3.5350 H     1 <1>   0.0800 
 34 H        2.8400     6.5920    -1.4180 H     1 <1>   0.3700 
 35 H       -0.0830     9.0160    -2.7530 H     1 <1>   0.0800 
 36 H       -0.4800    10.4430    -1.8500 H     1 <1>   0.0800 
 37 H       -1.3260     8.9400    -1.5280 H     1 <1>   0.0800 
 38 H        3.9360     8.7060     2.3450 H     1 <1>   0.0800 
 39 H        5.2030     8.4320     1.1630 H     1 <1>   0.0800 
 40 H        3.2660     5.2670     0.6810 H     1 <1>   0.0800 
 41 H        1.9160     6.0330     1.4920 H     1 <1>   0.0800 
 42 H       -1.0040    10.5490     0.8550 H     1 <1>   0.0800 
 43 H        0.2830    11.6530     0.3790 H     1 <1>   0.0800 
 44 H        0.2860    10.9360     1.9810 H     1 <1>   0.0800 
 45 H        5.2620     7.1590     3.5270 H     1 <1>   0.0800 
 46 H        5.7060     6.3190     2.0500 H     1 <1>   0.0800 
 47 H        3.9720     4.8790     2.8740 H     1 <1>   0.0800 
 48 H        3.0500     6.2480     3.4690 H     1 <1>   0.0800 
@<TRIPOS>BOND
  1   1   2  1   
  2   2   3  ar  
  3   2   4  ar  
  4   3   5  ar  
  5   3   6  1   
  6   4   7  ar  
  7   4  26  1   
  8   5   8  ar  
  9   5  27  1   
 10   6   9  1   
 11   6  28  1   
 12   6  29  1   
 13   7   8  ar  
 14   7  30  1   
 15   8  31  1   
 16   9  10  1   
 17  10  11  1   
 18  10  32  1   
 19  10  33  1   
 20  11  12  2   
 21  11  13  am  
 22  13  14  1   
 23  13  34  1   
 24  14  15  1   
 25  14  16  2   
 26  15  17  2   
 27  15  18  1   
 28  16  19  1   
 29  16  20  1   
 30  17  19  1   
 31  18  21  1   
 32  18  22  1   
 33  19  23  1   
 34  20  35  1   
 35  20  36  1   
 36  20  37  1   
 37  21  24  1   
 38  21  38  1   
 39  21  39  1   
 40  22  25  1   
 41  22  40  1   
 42  22  41  1   
 43  23  42  1   
 44  23  43  1   
 45  23  44  1   
 46  24  25  1   
 47  24  45  1   
 48  24  46  1   
 49  25  47  1   
 50  25  48  1   
@<TRIPOS>SUBSTRUCTURE
  1 ****  14 GROUP 4 **** **** 0

# MOE 2024.06 (io_trps.svl 2023.06)
