@<TRIPOS>MOLECULE
NONAME
41 42 1 0 0 
SMALL
USER_CHARGES


@<TRIPOS>ATOM
  1 O       -0.5020    -0.2140     1.0850 O.2   1 <1>  -0.5700 
  2 C       -1.5370    -0.7670     0.7830 C.2   1 <1>   0.6900 
  3 N       -2.5530    -0.1280     0.1020 N.am  1 <1>  -0.4200 
  4 N       -1.7000    -2.0780     1.1310 N.am  1 <1>  -0.5390 
  5 C       -3.7000    -0.8230    -0.2420 C.2   1 <1>   0.6160 
  6 C       -2.3960     1.3020    -0.2930 C.3   1 <1>   0.0600 
  7 C       -2.8300    -2.8070     0.8210 C.2   1 <1>  -0.0410 
  8 O       -4.5880    -0.2650    -0.8640 O.2   1 <1>  -0.5700 
  9 C       -3.8340    -2.2040     0.1380 C.2   1 <1>  -0.1240 
 10 C       -5.1420    -2.8850    -0.2780 C.3   1 <1>  -0.0220 
 11 C       -5.2630    -4.3550     0.1370 C.3   1 <1>   0.3430 
 12 N       -6.5120    -4.9770    -0.4030 N.4   1 <1>  -0.9590 
 13 C       -7.7670    -4.4070     0.2170 C.3   1 <1>   0.3430 
 14 C       -6.4910    -6.4740    -0.2180 C.3   1 <1>   0.3430 
 15 C       -9.0400    -5.1630    -0.2320 C.3   1 <1>   0.2000 
 16 C       -7.8200    -7.1360    -0.6510 C.3   1 <1>   0.2000 
 17 O       -8.8870    -6.5280     0.0090 O.3   1 <1>  -0.5600 
 18 C      -10.2750    -4.7140     0.5450 C.3   1 <1>  -0.2400 
 19 C       -7.8640    -8.6180    -0.2890 C.3   1 <1>  -0.2400 
 20 H       -0.9010    -2.4680     1.6370 H     1 <1>   0.3700 
 21 H       -3.3440     1.8080    -0.2430 H     1 <1>   0.0800 
 22 H       -2.0220     1.3550    -1.3010 H     1 <1>   0.0800 
 23 H       -1.7070     1.8030     0.3640 H     1 <1>   0.0800 
 24 H       -2.8360    -3.8320     1.1510 H     1 <1>   0.1500 
 25 H       -5.2210    -2.8170    -1.3490 H     1 <1>   0.0800 
 26 H       -5.9510    -2.3230     0.1550 H     1 <1>   0.0800 
 27 H       -5.2510    -4.4290     1.2130 H     1 <1>   0.0800 
 28 H       -4.4070    -4.8890    -0.2450 H     1 <1>   0.0800 
 29 H       -6.5600    -4.7970    -1.4160 H     1 <1>   0.4500 
 30 H       -7.7030    -4.4710     1.2910 H     1 <1>   0.0800 
 31 H       -7.8710    -3.3670    -0.0440 H     1 <1>   0.0800 
 32 H       -5.6830    -6.9050    -0.7850 H     1 <1>   0.0800 
 33 H       -6.3270    -6.7090     0.8210 H     1 <1>   0.0800 
 34 H       -9.2110    -5.0200    -1.2860 H     1 <1>   0.0800 
 35 H       -7.9690    -7.0260    -1.7130 H     1 <1>   0.0800 
 36 H      -10.1440    -4.8850     1.5990 H     1 <1>   0.0800 
 37 H      -11.1360    -5.2620     0.2070 H     1 <1>   0.0800 
 38 H      -10.4600    -3.6670     0.3840 H     1 <1>   0.0800 
 39 H       -7.7590    -8.7540     0.7740 H     1 <1>   0.0800 
 40 H       -7.0740    -9.1530    -0.7860 H     1 <1>   0.0800 
 41 H       -8.8030    -9.0410    -0.6020 H     1 <1>   0.0800 
@<TRIPOS>BOND
  1   1   2  2   
  2   2   3  am  
  3   2   4  am  
  4   3   5  am  
  5   3   6  1   
  6   4   7  1   
  7   4  20  1   
  8   5   8  2   
  9   5   9  1   
 10   6  21  1   
 11   6  22  1   
 12   6  23  1   
 13   7   9  2   
 14   7  24  1   
 15   9  10  1   
 16  10  11  1   
 17  10  25  1   
 18  10  26  1   
 19  11  12  1   
 20  11  27  1   
 21  11  28  1   
 22  12  13  1   
 23  12  14  1   
 24  12  29  1   
 25  13  15  1   
 26  13  30  1   
 27  13  31  1   
 28  14  16  1   
 29  14  32  1   
 30  14  33  1   
 31  15  17  1   
 32  15  18  1   
 33  15  34  1   
 34  16  17  1   
 35  16  19  1   
 36  16  35  1   
 37  18  36  1   
 38  18  37  1   
 39  18  38  1   
 40  19  39  1   
 41  19  40  1   
 42  19  41  1   
@<TRIPOS>SUBSTRUCTURE
  1 ****  10 GROUP 4 **** **** 0

# MOE 2024.06 (io_trps.svl 2023.06)
