@<TRIPOS>MOLECULE
NONAME
53 55 1 0 0 
SMALL
USER_CHARGES


@<TRIPOS>ATOM
  1 O       -3.1550     2.3280    -2.1480 O.2   1 <1>  -0.5700 
  2 C       -2.7960     1.5080    -1.3230 C.2   1 <1>   0.5440 
  3 N       -3.4050     0.2690    -1.3080 N.am  1 <1>  -0.6600 
  4 C       -1.7500     1.8600    -0.3860 C.ar  1 <1>   0.0860 
  5 C       -2.9350    -0.8410    -0.3980 C.3   1 <1>   0.3640 
  6 C       -4.6540     0.0630    -2.1030 C.3   1 <1>   0.1400 
  7 C       -2.0340     2.1030     0.9580 C.ar  1 <1>  -0.1500 
  8 C       -0.4190     1.9340    -0.7920 C.ar  1 <1>  -0.1500 
  9 C       -1.4680    -1.1540    -0.7130 C.ar  1 <1>  -0.1430 
 10 C       -3.7550    -2.1680    -0.4550 C.3   1 <1>   0.2000 
 11 C       -5.0140    -1.4120    -2.2760 C.3   1 <1>   0.1200 
 12 C       -1.0250     2.3630     1.8660 C.ar  1 <1>  -0.1500 
 13 C        0.5970     2.1880     0.1110 C.ar  1 <1>  -0.1500 
 14 C       -0.5220    -1.1540     0.3040 C.ar  1 <1>  -0.1500 
 15 C       -1.0600    -1.4270    -2.0130 C.ar  1 <1>  -0.1500 
 16 O       -5.0260    -2.0270    -1.0290 O.3   1 <1>  -0.5600 
 17 C       -3.9780    -2.7810     0.9360 C.3   1 <1>   0.1200 
 18 C        0.2980     2.3890     1.4550 C.ar  1 <1>   0.0830 
 19 C        0.8110    -1.4130     0.0330 C.ar  1 <1>   0.0830 
 20 C        0.2710    -1.6840    -2.2940 C.ar  1 <1>  -0.1500 
 21 O       -2.7740    -2.9710     1.6080 O.3   1 <1>  -0.6800 
 22 O        1.2360     2.6000     2.4040 O.3   1 <1>  -0.3630 
 23 O        1.6780    -1.4050     1.0750 O.3   1 <1>  -0.3620 
 24 C        1.2150    -1.6630    -1.2820 C.ar  1 <1>   0.0830 
 25 C        2.5780     2.2280     2.1840 C.3   1 <1>   0.0400 
 26 C        2.2190    -2.6550     1.4380 C.3   1 <1>   0.0400 
 27 O        2.5070    -1.8860    -1.6250 O.3   1 <1>  -0.3630 
 28 C        3.3920    -0.8000    -1.4670 C.3   1 <1>   0.0400 
 29 H       -2.9930    -0.4710     0.6110 H     1 <1>   0.0800 
 30 H       -5.4660     0.5660    -1.6060 H     1 <1>   0.0800 
 31 H       -4.5400     0.5100    -3.0760 H     1 <1>   0.0800 
 32 H       -3.0580     2.0810     1.2870 H     1 <1>   0.1500 
 33 H       -0.1870     1.7700    -1.8300 H     1 <1>   0.1500 
 34 H       -3.2280    -2.8870    -1.0570 H     1 <1>   0.0800 
 35 H       -4.3100    -1.9130    -2.9170 H     1 <1>   0.0800 
 36 H       -5.9980    -1.5040    -2.7000 H     1 <1>   0.0800 
 37 H       -1.2510     2.5410     2.9020 H     1 <1>   0.1500 
 38 H        1.6090     2.2220    -0.2420 H     1 <1>   0.1500 
 39 H       -0.8080    -0.9450     1.3200 H     1 <1>   0.1500 
 40 H       -1.7770    -1.4270    -2.8150 H     1 <1>   0.1500 
 41 H       -4.4690    -3.7350     0.8510 H     1 <1>   0.0800 
 42 H       -4.5820    -2.1210     1.5350 H     1 <1>   0.0800 
 43 H        0.5850    -1.8920    -3.3000 H     1 <1>   0.1500 
 44 H       -2.2080    -3.6190     1.1420 H     1 <1>   0.4000 
 45 H        3.1090     2.3290     3.1130 H     1 <1>   0.0800 
 46 H        3.0050     2.8830     1.4460 H     1 <1>   0.0800 
 47 H        2.6050     1.2040     1.8540 H     1 <1>   0.0800 
 48 H        2.8340    -2.5160     2.3080 H     1 <1>   0.0800 
 49 H        2.8120    -3.0360     0.6260 H     1 <1>   0.0800 
 50 H        1.4120    -3.3300     1.6610 H     1 <1>   0.0800 
 51 H        4.3420    -1.0780    -1.8860 H     1 <1>   0.0800 
 52 H        3.5030    -0.5810    -0.4210 H     1 <1>   0.0800 
 53 H        2.9920     0.0510    -1.9890 H     1 <1>   0.0800 
@<TRIPOS>BOND
  1   1   2  2   
  2   2   3  am  
  3   2   4  1   
  4   3   5  1   
  5   3   6  1   
  6   4   7  ar  
  7   4   8  ar  
  8   5   9  1   
  9   5  10  1   
 10   5  29  1   
 11   6  11  1   
 12   6  30  1   
 13   6  31  1   
 14   7  12  ar  
 15   7  32  1   
 16   8  13  ar  
 17   8  33  1   
 18   9  14  ar  
 19   9  15  ar  
 20  10  16  1   
 21  10  17  1   
 22  10  34  1   
 23  11  16  1   
 24  11  35  1   
 25  11  36  1   
 26  12  18  ar  
 27  12  37  1   
 28  13  18  ar  
 29  13  38  1   
 30  14  19  ar  
 31  14  39  1   
 32  15  20  ar  
 33  15  40  1   
 34  17  21  1   
 35  17  41  1   
 36  17  42  1   
 37  18  22  1   
 38  19  23  1   
 39  19  24  ar  
 40  20  24  ar  
 41  20  43  1   
 42  21  44  1   
 43  22  25  1   
 44  23  26  1   
 45  24  27  1   
 46  25  45  1   
 47  25  46  1   
 48  25  47  1   
 49  26  48  1   
 50  26  49  1   
 51  26  50  1   
 52  27  28  1   
 53  28  51  1   
 54  28  52  1   
 55  28  53  1   
@<TRIPOS>SUBSTRUCTURE
  1 ****   9 GROUP 4 **** **** 0

# MOE 2024.06 (io_trps.svl 2023.06)
