@<TRIPOS>MOLECULE
NONAME
50 54 1 0 0 
SMALL
USER_CHARGES


@<TRIPOS>ATOM
  1 O        0.3590     0.2350     0.5180 O.2   1 <1>  -0.5700 
  2 C       -0.1150     1.3400     0.3050 C.2   1 <1>   0.7160 
  3 N       -1.4990     1.4490     0.2740 N.am  1 <1>  -0.6600 
  4 C        0.8110     2.4460     0.0840 C.2   1 <1>   0.2030 
  5 C       -2.2580     2.5730    -0.3680 C.3   1 <1>   0.1400 
  6 C       -2.3820     0.3280     0.7080 C.3   1 <1>   0.1400 
  7 N        0.6080     3.7210     0.2450 N.2   1 <1>  -0.4100 
  8 C        2.1210     2.2790    -0.3270 C.2   1 <1>  -0.1500 
  9 C       -3.3080     3.1590     0.5980 C.3   1 <1>   0.1440 
 10 C       -3.4380     0.8450     1.6920 C.3   1 <1>  -0.1600 
 11 O        1.6920     4.3940    -0.0440 O.3   1 <1>  -0.0190 
 12 C        2.6260     3.5230    -0.3930 C.2   1 <1>   0.0870 
 13 C       -4.1440     4.2180    -0.1000 C.ar  1 <1>   0.1660 
 14 C       -4.2300     2.0350     1.1200 C.3   1 <1>  -0.1600 
 15 C       -2.6650     3.9630     1.7610 C.3   1 <1>  -0.1600 
 16 C        3.9460     3.9840    -0.7650 C.ar  1 <1>   0.0530 
 17 N       -4.7070     4.0880    -1.2810 N.ar  1 <1>  -0.6200 
 18 C       -4.2580     5.3470     0.6540 C.ar  1 <1>  -0.1440 
 19 C       -3.5210     5.2250     1.9630 C.3   1 <1>  -0.0170 
 20 C        4.9980     3.0870    -0.9530 C.ar  1 <1>  -0.1500 
 21 C        4.2210     5.3400    -0.9510 C.ar  1 <1>  -0.1500 
 22 C       -5.3940     5.1500    -1.6790 C.ar  1 <1>   0.4770 
 23 C       -4.9940     6.3870     0.1430 C.ar  1 <1>   0.1600 
 24 C        6.2620     3.5200    -1.3110 C.ar  1 <1>  -0.1500 
 25 C        5.4820     5.7800    -1.3090 C.ar  1 <1>  -0.1500 
 26 N       -5.5740     6.2960    -1.0360 N.ar  1 <1>  -0.6200 
 27 C       -6.0600     5.0400    -3.0300 C.3   1 <1>  -0.0970 
 28 C        6.5070     4.8690    -1.4900 C.ar  1 <1>  -0.1500 
 29 H       -2.7680     2.1820    -1.2320 H     1 <1>   0.0800 
 30 H       -1.6080     3.3510    -0.7180 H     1 <1>   0.0800 
 31 H       -1.8110    -0.4530     1.1820 H     1 <1>   0.0800 
 32 H       -2.8640    -0.0930    -0.1580 H     1 <1>   0.0800 
 33 H        2.5880     1.3340    -0.5350 H     1 <1>   0.1500 
 34 H       -2.9480     1.1250     2.6070 H     1 <1>   0.0800 
 35 H       -4.1180     0.0450     1.9270 H     1 <1>   0.0800 
 36 H       -4.8340     1.6820     0.3020 H     1 <1>   0.0800 
 37 H       -4.8990     2.4250     1.8670 H     1 <1>   0.0800 
 38 H       -1.6800     4.2800     1.4730 H     1 <1>   0.0800 
 39 H       -2.5770     3.3940     2.6680 H     1 <1>   0.0800 
 40 H       -2.9090     6.0890     2.1600 H     1 <1>   0.0800 
 41 H       -4.2260     5.0830     2.7640 H     1 <1>   0.0800 
 42 H        4.8320     2.0340    -0.8150 H     1 <1>   0.1500 
 43 H        3.4360     6.0630    -0.8170 H     1 <1>   0.1500 
 44 H       -5.1120     7.2990     0.7020 H     1 <1>   0.1500 
 45 H        7.0570     2.8080    -1.4500 H     1 <1>   0.1500 
 46 H        5.6670     6.8310    -1.4470 H     1 <1>   0.1500 
 47 H       -5.5100     4.3650    -3.6590 H     1 <1>   0.0800 
 48 H       -6.0970     6.0040    -3.5010 H     1 <1>   0.0800 
 49 H       -7.0590     4.6700    -2.9020 H     1 <1>   0.0800 
 50 H        7.4900     5.2090    -1.7690 H     1 <1>   0.1500 
@<TRIPOS>BOND
  1   1   2  2   
  2   2   3  am  
  3   2   4  1   
  4   3   5  1   
  5   3   6  1   
  6   4   7  2   
  7   4   8  1   
  8   5   9  1   
  9   5  29  1   
 10   5  30  1   
 11   6  10  1   
 12   6  31  1   
 13   6  32  1   
 14   7  11  1   
 15   8  12  2   
 16   8  33  1   
 17   9  13  1   
 18   9  14  1   
 19   9  15  1   
 20  10  14  1   
 21  10  34  1   
 22  10  35  1   
 23  11  12  1   
 24  12  16  1   
 25  13  17  ar  
 26  13  18  ar  
 27  14  36  1   
 28  14  37  1   
 29  15  19  1   
 30  15  38  1   
 31  15  39  1   
 32  16  20  ar  
 33  16  21  ar  
 34  17  22  ar  
 35  18  19  1   
 36  18  23  ar  
 37  19  40  1   
 38  19  41  1   
 39  20  24  ar  
 40  20  42  1   
 41  21  25  ar  
 42  21  43  1   
 43  22  26  ar  
 44  22  27  1   
 45  23  26  ar  
 46  23  44  1   
 47  24  28  ar  
 48  24  45  1   
 49  25  28  ar  
 50  25  46  1   
 51  27  47  1   
 52  27  48  1   
 53  27  49  1   
 54  28  50  1   
@<TRIPOS>SUBSTRUCTURE
  1 ****   7 GROUP 4 **** **** 0

# MOE 2024.06 (io_trps.svl 2023.06)
