@<TRIPOS>MOLECULE
NONAME
37 38 1 0 0 
SMALL
USER_CHARGES


@<TRIPOS>ATOM
  1 S       -0.6010    -0.1720     0.9010 S.3   1 <1>  -0.0800 
  2 C       -0.4650    -1.8830     1.2620 C.2   1 <1>  -0.1100 
  3 C       -1.3430    -0.5180    -0.6500 C.2   1 <1>  -0.1100 
  4 C       -0.9600    -2.6280     0.2550 C.2   1 <1>  -0.1810 
  5 C       -1.4590    -1.8450    -0.8370 C.2   1 <1>  -0.1500 
  6 C       -1.0060    -4.1460     0.2260 C.3   1 <1>   0.0210 
  7 C       -2.4440    -4.6480     0.3930 C.3   1 <1>  -0.0990 
  8 C       -2.4910    -6.1580     0.3490 C.2   1 <1>   0.5690 
  9 O       -2.1110    -6.7800     1.3100 O.2   1 <1>  -0.5700 
 10 N       -2.9610    -6.7590    -0.7720 N.am  1 <1>  -0.7300 
 11 C       -3.2170    -8.2200    -0.9440 C.3   1 <1>   0.2200 
 12 C       -4.3230    -8.7170     0.0050 C.3   1 <1>   0.2000 
 13 C       -1.9460    -9.0620    -0.7490 C.3   1 <1>   0.1200 
 14 O       -5.5270    -8.0770    -0.3160 O.3   1 <1>  -0.5600 
 15 C       -4.5020   -10.2320    -0.1330 C.3   1 <1>  -0.1600 
 16 O       -2.2500   -10.4190    -0.9260 O.3   1 <1>  -0.5600 
 17 C       -6.3990    -7.9010     0.7560 C.3   1 <1>   0.0400 
 18 C       -3.1490   -10.9410     0.0050 C.3   1 <1>   0.1200 
 19 H       -0.0230    -2.1530     2.2050 H     1 <1>   0.1500 
 20 H       -1.6160     0.3210    -1.2660 H     1 <1>   0.1500 
 21 H       -1.8790    -2.3120    -1.7100 H     1 <1>   0.1500 
 22 H       -0.5960    -4.4990    -0.7030 H     1 <1>   0.0800 
 23 H       -0.4000    -4.5380     1.0250 H     1 <1>   0.0800 
 24 H       -3.0690    -4.2410    -0.3780 H     1 <1>   0.0800 
 25 H       -2.8280    -4.3210     1.3420 H     1 <1>   0.0800 
 26 H       -3.4360    -6.1870    -1.4710 H     1 <1>   0.3700 
 27 H       -3.5490    -8.3820    -1.9540 H     1 <1>   0.0800 
 28 H       -4.0440    -8.4740     1.0170 H     1 <1>   0.0800 
 29 H       -1.5320    -8.9350     0.2350 H     1 <1>   0.0800 
 30 H       -1.2080    -8.7950    -1.4840 H     1 <1>   0.0800 
 31 H       -5.1670   -10.5970     0.6270 H     1 <1>   0.0800 
 32 H       -4.9180   -10.4650    -1.0970 H     1 <1>   0.0800 
 33 H       -7.2800    -7.4040     0.3910 H     1 <1>   0.0800 
 34 H       -5.9220    -7.2910     1.5040 H     1 <1>   0.0800 
 35 H       -6.6670    -8.8600     1.1630 H     1 <1>   0.0800 
 36 H       -3.2520   -11.9930    -0.1940 H     1 <1>   0.0800 
 37 H       -2.7360   -10.8100     0.9920 H     1 <1>   0.0800 
@<TRIPOS>BOND
  1   1   2  1   
  2   1   3  1   
  3   2   4  2   
  4   2  19  1   
  5   3   5  2   
  6   3  20  1   
  7   4   5  1   
  8   4   6  1   
  9   5  21  1   
 10   6   7  1   
 11   6  22  1   
 12   6  23  1   
 13   7   8  1   
 14   7  24  1   
 15   7  25  1   
 16   8   9  2   
 17   8  10  am  
 18  10  11  1   
 19  10  26  1   
 20  11  12  1   
 21  11  13  1   
 22  11  27  1   
 23  12  14  1   
 24  12  15  1   
 25  12  28  1   
 26  13  16  1   
 27  13  29  1   
 28  13  30  1   
 29  14  17  1   
 30  15  18  1   
 31  15  31  1   
 32  15  32  1   
 33  16  18  1   
 34  17  33  1   
 35  17  34  1   
 36  17  35  1   
 37  18  36  1   
 38  18  37  1   
@<TRIPOS>SUBSTRUCTURE
  1 ****   8 GROUP 4 **** **** 0

# MOE 2024.06 (io_trps.svl 2023.06)
