@<TRIPOS>MOLECULE
NONAME
44 45 1 0 0 
SMALL
USER_CHARGES


@<TRIPOS>ATOM
  1 O       -0.1810     0.6660     2.5190 O.2   1 <1>  -0.5700 
  2 C        0.2060    -0.1280     1.6940 C.2   1 <1>   0.5690 
  3 N        1.1880     0.1240     0.7810 N.am  1 <1>  -0.5470 
  4 C       -0.4330    -1.5190     1.6510 C.3   1 <1>   0.1710 
  5 C        1.9780     1.2450     0.4710 C.ar  1 <1>   0.1170 
  6 N       -0.2720    -2.2370     0.3460 N.3   1 <1>  -0.8100 
  7 C        2.7420     1.2210    -0.7010 C.ar  1 <1>   0.0830 
  8 C        2.0340     2.3710     1.2850 C.ar  1 <1>  -0.1500 
  9 C       -0.5610    -3.6740     0.5070 C.3   1 <1>   0.1100 
 10 C       -1.1310    -1.6250    -0.6870 C.3   1 <1>   0.0300 
 11 O        2.6650     0.0970    -1.4760 O.3   1 <1>  -0.3630 
 12 C        3.5370     2.3130    -1.0370 C.ar  1 <1>  -0.1500 
 13 C        2.8260     3.4540     0.9460 C.ar  1 <1>  -0.1500 
 14 C        0.0280    -4.5000    -0.6410 C.3   1 <1>   0.0210 
 15 C        3.4140    -0.0300    -2.6640 C.3   1 <1>   0.0400 
 16 C        3.5770     3.4260    -0.2140 C.ar  1 <1>  -0.1500 
 17 C       -0.1890    -5.9800    -0.3870 C.2   1 <1>  -0.1810 
 18 C        0.4750    -6.7710     0.5450 C.2   1 <1>   0.1390 
 19 C       -1.0500    -6.8230    -0.9930 C.2   1 <1>  -0.3020 
 20 N        0.0620    -8.0010     0.5270 N.2   1 <1>  -0.7070 
 21 N       -0.8810    -8.0340    -0.4280 N.pl3 1 <1>   0.3140 
 22 C       -1.5960    -9.2710    -0.7560 C.3   1 <1>   0.0160 
 23 H        1.3090    -0.6550     0.1230 H     1 <1>   0.3700 
 24 H       -1.4770    -1.4280     1.8920 H     1 <1>   0.0800 
 25 H        0.0340    -2.0920     2.4320 H     1 <1>   0.0800 
 26 H        1.4600     2.4100     2.1920 H     1 <1>   0.1500 
 27 H       -1.6240    -3.8390     0.5730 H     1 <1>   0.0800 
 28 H       -0.1160    -4.0270     1.4220 H     1 <1>   0.0800 
 29 H       -0.9280    -0.5710    -0.7720 H     1 <1>   0.0800 
 30 H       -2.1710    -1.7560    -0.4390 H     1 <1>   0.0800 
 31 H       -0.9410    -2.0720    -1.6460 H     1 <1>   0.0800 
 32 H        4.1320     2.3220    -1.9300 H     1 <1>   0.1500 
 33 H        2.8550     4.3170     1.5890 H     1 <1>   0.1500 
 34 H        1.0830    -4.3040    -0.7200 H     1 <1>   0.0800 
 35 H       -0.4430    -4.2370    -1.5690 H     1 <1>   0.0800 
 36 H        3.2010    -0.9930    -3.0920 H     1 <1>   0.0800 
 37 H        4.4610     0.0400    -2.4260 H     1 <1>   0.0800 
 38 H        3.1200     0.7470    -3.3480 H     1 <1>   0.0800 
 39 H        4.1930     4.2690    -0.4760 H     1 <1>   0.1500 
 40 H        1.2440    -6.4170     1.2100 H     1 <1>   0.1500 
 41 H       -1.7590    -6.6340    -1.7780 H     1 <1>   0.1500 
 42 H       -2.0990    -9.1590    -1.6980 H     1 <1>   0.0800 
 43 H       -2.3090    -9.4760     0.0200 H     1 <1>   0.0800 
 44 H       -0.8870   -10.0760    -0.8150 H     1 <1>   0.0800 
@<TRIPOS>BOND
  1   1   2  2   
  2   2   3  am  
  3   2   4  1   
  4   3   5  1   
  5   3  23  1   
  6   4   6  1   
  7   4  24  1   
  8   4  25  1   
  9   5   7  ar  
 10   5   8  ar  
 11   6   9  1   
 12   6  10  1   
 13   7  11  1   
 14   7  12  ar  
 15   8  13  ar  
 16   8  26  1   
 17   9  14  1   
 18   9  27  1   
 19   9  28  1   
 20  10  29  1   
 21  10  30  1   
 22  10  31  1   
 23  11  15  1   
 24  12  16  ar  
 25  12  32  1   
 26  13  16  ar  
 27  13  33  1   
 28  14  17  1   
 29  14  34  1   
 30  14  35  1   
 31  15  36  1   
 32  15  37  1   
 33  15  38  1   
 34  16  39  1   
 35  17  18  1   
 36  17  19  2   
 37  18  20  2   
 38  18  40  1   
 39  19  21  1   
 40  19  41  1   
 41  20  21  1   
 42  21  22  1   
 43  22  42  1   
 44  22  43  1   
 45  22  44  1   
@<TRIPOS>SUBSTRUCTURE
  1 ****   6 GROUP 4 **** **** 0

# MOE 2024.06 (io_trps.svl 2023.06)
