@<TRIPOS>MOLECULE
NONAME
37 39 1 0 0 
SMALL
USER_CHARGES


@<TRIPOS>ATOM
  1 CL      -0.5980     0.3110    -0.9100 Cl    1 <1>  -0.1240 
  2 C       -1.3580    -1.1330    -0.3040 C.2   1 <1>   0.1640 
  3 S       -0.7930    -2.6530    -0.9500 S.3   1 <1>  -0.0800 
  4 C       -2.3350    -1.3060     0.6010 C.2   1 <1>  -0.1500 
  5 C       -1.9400    -3.5630     0.0510 C.2   1 <1>  -0.0450 
  6 C       -2.6580    -2.6810     0.8020 C.2   1 <1>  -0.1500 
  7 C       -1.9470    -5.0030    -0.0580 C.2   1 <1>   0.7150 
  8 O       -0.9370    -5.6000    -0.3820 O.2   1 <1>  -0.5700 
  9 N       -3.0830    -5.7390     0.1980 N.am  1 <1>  -0.6600 
 10 C       -4.4690    -5.2200     0.0770 C.3   1 <1>   0.1400 
 11 C       -3.0840    -7.2250     0.1370 C.3   1 <1>   0.1400 
 12 C       -5.3020    -6.4250    -0.3540 C.3   1 <1>   0.2000 
 13 C       -4.5560    -7.6370     0.1930 C.3   1 <1>  -0.0800 
 14 O       -6.5840    -6.3700     0.1670 O.3   1 <1>  -0.6800 
 15 C       -4.8610    -8.9340    -0.5710 C.3   1 <1>   0.0210 
 16 C       -4.0220   -10.0820    -0.0450 C.2   1 <1>   0.1080 
 17 N       -4.0820   -10.4910     1.1850 N.2   1 <1>  -0.7070 
 18 C       -3.1020   -10.8070    -0.7960 C.2   1 <1>  -0.1500 
 19 N       -3.1950   -11.5020     1.2510 N.pl3 1 <1>   0.3000 
 20 C       -2.5870   -11.7110     0.0640 C.2   1 <1>  -0.3320 
 21 C       -1.5350   -12.7780    -0.1800 C.3   1 <1>  -0.0600 
 22 H       -2.8340    -0.5160     1.1330 H     1 <1>   0.1500 
 23 H       -3.4150    -2.9610     1.5130 H     1 <1>   0.1500 
 24 H       -4.7960    -4.8620     1.0370 H     1 <1>   0.0800 
 25 H       -4.5260    -4.4350    -0.6580 H     1 <1>   0.0800 
 26 H       -2.6310    -7.5420    -0.7880 H     1 <1>   0.0800 
 27 H       -2.5300    -7.6420     0.9620 H     1 <1>   0.0800 
 28 H       -5.3710    -6.4530    -1.4280 H     1 <1>   0.0800 
 29 H       -4.8030    -7.7760     1.2310 H     1 <1>   0.0800 
 30 H       -6.5730    -6.5750     1.1230 H     1 <1>   0.4000 
 31 H       -4.6670    -8.8020    -1.6200 H     1 <1>   0.0800 
 32 H       -5.8990    -9.1860    -0.4510 H     1 <1>   0.0800 
 33 H       -2.8710   -10.6580    -1.8350 H     1 <1>   0.1500 
 34 H       -3.0280   -12.0270     2.1170 H     1 <1>   0.2700 
 35 H       -1.2050   -12.7440    -1.2030 H     1 <1>   0.0800 
 36 H       -1.9420   -13.7540     0.0170 H     1 <1>   0.0800 
 37 H       -0.6860   -12.6150     0.4600 H     1 <1>   0.0800 
@<TRIPOS>BOND
  1   1   2  1   
  2   2   3  1   
  3   2   4  2   
  4   3   5  1   
  5   4   6  1   
  6   4  22  1   
  7   5   6  2   
  8   5   7  1   
  9   6  23  1   
 10   7   8  2   
 11   7   9  am  
 12   9  10  1   
 13   9  11  1   
 14  10  12  1   
 15  10  24  1   
 16  10  25  1   
 17  11  13  1   
 18  11  26  1   
 19  11  27  1   
 20  12  13  1   
 21  12  14  1   
 22  12  28  1   
 23  13  15  1   
 24  13  29  1   
 25  14  30  1   
 26  15  16  1   
 27  15  31  1   
 28  15  32  1   
 29  16  17  2   
 30  16  18  1   
 31  17  19  1   
 32  18  20  2   
 33  18  33  1   
 34  19  20  1   
 35  19  34  1   
 36  20  21  1   
 37  21  35  1   
 38  21  36  1   
 39  21  37  1   
@<TRIPOS>SUBSTRUCTURE
  1 ****  11 GROUP 4 **** **** 0

# MOE 2024.06 (io_trps.svl 2023.06)
