@<TRIPOS>MOLECULE
NONAME
51 54 1 0 0 
SMALL
USER_CHARGES


@<TRIPOS>ATOM
  1 O       -0.7880    -0.8370    -0.2310 O.3   1 <1>  -0.2800 
  2 C       -0.8550     0.4390     0.0780 C.2   1 <1>   0.4250 
  3 C       -1.9340    -1.2490     0.2250 C.2   1 <1>   0.2980 
  4 N       -1.9580     0.7550     0.6700 N.2   1 <1>  -0.3380 
  5 C        0.2420     1.3260    -0.2530 C.ar  1 <1>   0.0530 
  6 N       -2.6570    -0.3490     0.7660 N.2   1 <1>  -0.3380 
  7 C       -2.3110    -2.7220     0.0820 C.3   1 <1>   0.5230 
  8 C        1.3990     0.8620    -0.8850 C.ar  1 <1>  -0.1500 
  9 C        0.1850     2.6880     0.0500 C.ar  1 <1>  -0.1500 
 10 N       -3.7790    -2.9720     0.3160 N.4   1 <1>  -0.9590 
 11 C        2.4420     1.7130    -1.1990 C.ar  1 <1>  -0.1500 
 12 C        1.2240     3.5440    -0.2630 C.ar  1 <1>  -0.1500 
 13 C       -4.1420    -4.4150     0.5160 C.3   1 <1>   0.4230 
 14 C       -4.5430    -2.3520    -0.8100 C.3   1 <1>   0.3430 
 15 C        2.3570     3.0580    -0.8890 C.ar  1 <1>  -0.1500 
 16 C       -5.6560    -4.5090     0.7810 C.3   1 <1>  -0.1600 
 17 C       -3.3960    -5.0790     1.6990 C.3   1 <1>  -0.1600 
 18 C       -6.0430    -2.4130    -0.5350 C.3   1 <1>  -0.1600 
 19 C       -6.4990    -3.8560    -0.3190 C.3   1 <1>  -0.1600 
 20 C       -1.9910    -5.6600     1.4210 C.3   1 <1>  -0.0170 
 21 C       -1.8580    -6.2710     0.0340 C.ar  1 <1>   0.1670 
 22 N       -1.6320    -5.4240    -0.9620 N.ar  1 <1>  -0.6200 
 23 C       -1.9740    -7.6440    -0.1220 C.ar  1 <1>  -0.1500 
 24 C       -1.4980    -5.9790    -2.1600 C.ar  1 <1>   0.1600 
 25 C       -1.8450    -8.2010    -1.3750 C.ar  1 <1>  -0.1500 
 26 C       -1.5970    -7.3350    -2.4160 C.ar  1 <1>  -0.1500 
 27 H       -1.7240    -3.2630     0.7940 H     1 <1>   0.0800 
 28 H       -2.0370    -3.0610    -0.9020 H     1 <1>   0.0800 
 29 H        1.4910    -0.1800    -1.1370 H     1 <1>   0.1500 
 30 H       -0.6890     3.0860     0.5380 H     1 <1>   0.1500 
 31 H       -4.0350    -2.4530     1.1660 H     1 <1>   0.4500 
 32 H        3.3230     1.3320    -1.6870 H     1 <1>   0.1500 
 33 H        1.1540     4.5910    -0.0180 H     1 <1>   0.1500 
 34 H       -3.9330    -4.9630    -0.3890 H     1 <1>   0.0800 
 35 H       -4.3270    -2.8760    -1.7270 H     1 <1>   0.0800 
 36 H       -4.2550    -1.3200    -0.9340 H     1 <1>   0.0800 
 37 H        3.1680     3.7230    -1.1330 H     1 <1>   0.1500 
 38 H       -5.8860    -4.0520     1.7280 H     1 <1>   0.0800 
 39 H       -5.9400    -5.5450     0.8480 H     1 <1>   0.0800 
 40 H       -3.9860    -5.9260     2.0070 H     1 <1>   0.0800 
 41 H       -3.3640    -4.4150     2.5440 H     1 <1>   0.0800 
 42 H       -6.5720    -1.9930    -1.3730 H     1 <1>   0.0800 
 43 H       -6.2760    -1.8130     0.3270 H     1 <1>   0.0800 
 44 H       -7.5400    -3.8740    -0.0420 H     1 <1>   0.0800 
 45 H       -6.3920    -4.4120    -1.2350 H     1 <1>   0.0800 
 46 H       -1.7840    -6.4170     2.1580 H     1 <1>   0.0800 
 47 H       -1.2260    -4.9200     1.5500 H     1 <1>   0.0800 
 48 H       -2.1600    -8.2810     0.7250 H     1 <1>   0.1500 
 49 H       -1.2950    -5.3210    -2.9890 H     1 <1>   0.1500 
 50 H       -1.9280    -9.2630    -1.5330 H     1 <1>   0.1500 
 51 H       -1.4780    -7.7080    -3.4180 H     1 <1>   0.1500 
@<TRIPOS>BOND
  1   1   2  1   
  2   1   3  1   
  3   2   4  2   
  4   2   5  1   
  5   3   6  2   
  6   3   7  1   
  7   4   6  1   
  8   5   8  ar  
  9   5   9  ar  
 10   7  10  1   
 11   7  27  1   
 12   7  28  1   
 13   8  11  ar  
 14   8  29  1   
 15   9  12  ar  
 16   9  30  1   
 17  10  13  1   
 18  10  14  1   
 19  10  31  1   
 20  11  15  ar  
 21  11  32  1   
 22  12  15  ar  
 23  12  33  1   
 24  13  16  1   
 25  13  17  1   
 26  13  34  1   
 27  14  18  1   
 28  14  35  1   
 29  14  36  1   
 30  15  37  1   
 31  16  19  1   
 32  16  38  1   
 33  16  39  1   
 34  17  20  1   
 35  17  40  1   
 36  17  41  1   
 37  18  19  1   
 38  18  42  1   
 39  18  43  1   
 40  19  44  1   
 41  19  45  1   
 42  20  21  1   
 43  20  46  1   
 44  20  47  1   
 45  21  22  ar  
 46  21  23  ar  
 47  22  24  ar  
 48  23  25  ar  
 49  23  48  1   
 50  24  26  ar  
 51  24  49  1   
 52  25  26  ar  
 53  25  50  1   
 54  26  51  1   
@<TRIPOS>SUBSTRUCTURE
  1 ****   7 GROUP 4 **** **** 0

# MOE 2024.06 (io_trps.svl 2023.06)
