@<TRIPOS>MOLECULE
NONAME
59 62 1 0 0 
SMALL
USER_CHARGES


@<TRIPOS>ATOM
  1 O       -0.2950    -0.5180    -0.4520 O.2   1 <1>  -0.5700 
  2 C       -0.2870    -1.5740     0.1440 C.2   1 <1>   0.5690 
  3 N        0.4890    -1.7870     1.2560 N.am  1 <1>  -0.6600 
  4 C       -1.2130    -2.6690    -0.4190 C.3   1 <1>   0.4040 
  5 C        0.4900    -3.0460     2.0550 C.3   1 <1>   0.1400 
  6 C        1.3320    -0.6840     1.8110 C.3   1 <1>   0.1400 
  7 N       -2.2590    -2.1150    -1.3590 N.4   1 <1>  -0.9590 
  8 C        1.2900    -4.1360     1.3410 C.3   1 <1>  -0.2400 
  9 C        2.7950    -0.8960     1.4350 C.3   1 <1>  -0.2400 
 10 C       -3.3200    -1.3630    -0.6050 C.3   1 <1>   0.3430 
 11 C       -2.8350    -3.1320    -2.2790 C.3   1 <1>   0.3430 
 12 C       -4.2750    -0.6250    -1.5580 C.3   1 <1>   0.1430 
 13 C       -3.7580    -2.4410    -3.2880 C.3   1 <1>  -0.1600 
 14 C       -5.3880    -0.0100    -0.7440 C.ar  1 <1>   0.1670 
 15 C       -4.8550    -1.6060    -2.6010 C.3   1 <1>  -0.1600 
 16 C       -3.6160     0.6160    -2.2210 C.3   1 <1>  -0.1600 
 17 N       -6.0770    -0.6470     0.1700 N.ar  1 <1>  -0.6200 
 18 C       -5.5890     1.2960    -1.0620 C.ar  1 <1>  -0.1440 
 19 C       -4.6440     1.7610    -2.1410 C.3   1 <1>  -0.0170 
 20 C       -7.0250     0.0770     0.7860 C.ar  1 <1>   0.6200 
 21 C       -6.5740     1.9680    -0.3850 C.ar  1 <1>   0.1600 
 22 N       -7.2910     1.3670     0.5380 N.ar  1 <1>  -0.6200 
 23 C       -7.8180    -0.5900     1.8070 C.ar  1 <1>   0.0000 
 24 C       -8.1510    -1.9440     1.7080 C.ar  1 <1>  -0.1500 
 25 C       -8.2820     0.0940     2.9340 C.ar  1 <1>  -0.1500 
 26 C       -8.9000    -2.5810     2.6810 C.ar  1 <1>  -0.1500 
 27 C       -9.0320    -0.5360     3.9100 C.ar  1 <1>  -0.1500 
 28 C       -9.3420    -1.8780     3.7860 C.ar  1 <1>  -0.1500 
 29 H       -1.6880    -3.1850     0.3960 H     1 <1>   0.0800 
 30 H       -0.5930    -3.3710    -0.9490 H     1 <1>   0.0800 
 31 H       -0.5210    -3.3760     2.2240 H     1 <1>   0.0800 
 32 H        0.9320    -2.8630     3.0210 H     1 <1>   0.0800 
 33 H        1.2270    -0.6450     2.8820 H     1 <1>   0.0800 
 34 H        1.0040     0.2660     1.4210 H     1 <1>   0.0800 
 35 H       -1.7500    -1.4030    -1.9110 H     1 <1>   0.4500 
 36 H        0.8490    -4.4040     0.4000 H     1 <1>   0.0800 
 37 H        1.3190    -5.0170     1.9570 H     1 <1>   0.0800 
 38 H        2.3020    -3.8160     1.1770 H     1 <1>   0.0800 
 39 H        3.1900    -1.7750     1.9110 H     1 <1>   0.0800 
 40 H        3.3750    -0.0520     1.7620 H     1 <1>   0.0800 
 41 H        2.8970    -0.9830     0.3680 H     1 <1>   0.0800 
 42 H       -2.8660    -0.6430     0.0570 H     1 <1>   0.0800 
 43 H       -3.8960    -2.0490    -0.0060 H     1 <1>   0.0800 
 44 H       -3.4000    -3.8570    -1.7140 H     1 <1>   0.0800 
 45 H       -2.0480    -3.6470    -2.8060 H     1 <1>   0.0800 
 46 H       -4.2230    -3.1920    -3.9030 H     1 <1>   0.0800 
 47 H       -3.1690    -1.8210    -3.9410 H     1 <1>   0.0800 
 48 H       -5.4260    -1.0660    -3.3380 H     1 <1>   0.0800 
 49 H       -5.5360    -2.2760    -2.1030 H     1 <1>   0.0800 
 50 H       -3.3140     0.4410    -3.2380 H     1 <1>   0.0800 
 51 H       -2.7470     0.9110    -1.6570 H     1 <1>   0.0800 
 52 H       -5.1790     1.8630    -3.0700 H     1 <1>   0.0800 
 53 H       -4.1770     2.6980    -1.8850 H     1 <1>   0.0800 
 54 H       -6.7770     3.0040    -0.5970 H     1 <1>   0.1500 
 55 H       -7.8200    -2.5050     0.8530 H     1 <1>   0.1500 
 56 H       -8.0510     1.1400     3.0460 H     1 <1>   0.1500 
 57 H       -9.1420    -3.6250     2.5780 H     1 <1>   0.1500 
 58 H       -9.3750     0.0180     4.7670 H     1 <1>   0.1500 
 59 H       -9.9260    -2.3710     4.5440 H     1 <1>   0.1500 
@<TRIPOS>BOND
  1   1   2  2   
  2   2   3  am  
  3   2   4  1   
  4   3   5  1   
  5   3   6  1   
  6   4   7  1   
  7   4  29  1   
  8   4  30  1   
  9   5   8  1   
 10   5  31  1   
 11   5  32  1   
 12   6   9  1   
 13   6  33  1   
 14   6  34  1   
 15   7  10  1   
 16   7  11  1   
 17   7  35  1   
 18   8  36  1   
 19   8  37  1   
 20   8  38  1   
 21   9  39  1   
 22   9  40  1   
 23   9  41  1   
 24  10  12  1   
 25  10  42  1   
 26  10  43  1   
 27  11  13  1   
 28  11  44  1   
 29  11  45  1   
 30  12  14  1   
 31  12  15  1   
 32  12  16  1   
 33  13  15  1   
 34  13  46  1   
 35  13  47  1   
 36  14  17  ar  
 37  14  18  ar  
 38  15  48  1   
 39  15  49  1   
 40  16  19  1   
 41  16  50  1   
 42  16  51  1   
 43  17  20  ar  
 44  18  19  1   
 45  18  21  ar  
 46  19  52  1   
 47  19  53  1   
 48  20  22  ar  
 49  20  23  1   
 50  21  22  ar  
 51  21  54  1   
 52  23  24  ar  
 53  23  25  ar  
 54  24  26  ar  
 55  24  55  1   
 56  25  27  ar  
 57  25  56  1   
 58  26  28  ar  
 59  26  57  1   
 60  27  28  ar  
 61  27  58  1   
 62  28  59  1   
@<TRIPOS>SUBSTRUCTURE
  1 ****  10 GROUP 4 **** **** 0

# MOE 2024.06 (io_trps.svl 2023.06)
