@<TRIPOS>MOLECULE
NONAME
37 38 1 0 0 
SMALL
USER_CHARGES


@<TRIPOS>ATOM
  1 O       -2.2970     5.3460    -1.5700 O.co2 1 <1>  -0.9000 
  2 C       -2.2740     4.4780    -0.6740 C.2   1 <1>   0.9790 
  3 O       -3.3570     3.9280    -0.3830 O.co2 1 <1>  -0.9000 
  4 C       -1.0560     4.1320     0.0690 C.ar  1 <1>   0.1310 
  5 N        0.1850     4.2940    -0.4390 N.ar  1 <1>  -0.6200 
  6 C       -1.2430     3.6220     1.3570 C.ar  1 <1>   0.1600 
  7 C        1.1590     3.9730     0.3920 C.ar  1 <1>   0.4100 
  8 N       -0.2810     3.2780     2.2060 N.ar  1 <1>  -0.6200 
  9 N        2.4630     4.1410    -0.0610 N.pl3 1 <1>  -0.8380 
 10 C        0.9090     3.4790     1.6790 C.ar  1 <1>   0.1600 
 11 C        2.7470     5.2510    -1.0400 C.3   1 <1>   0.2090 
 12 C        3.2220     2.9020    -0.3330 C.3   1 <1>   0.2090 
 13 C        2.2640     6.6350    -0.5680 C.3   1 <1>   0.2000 
 14 C        4.5020     2.9240     0.4940 C.3   1 <1>  -0.2400 
 15 O        2.7780     7.6100    -1.4320 O.3   1 <1>  -0.5600 
 16 C        2.7010     6.9960     0.8680 C.3   1 <1>  -0.1600 
 17 C        2.1350     8.8500    -1.3390 C.3   1 <1>   0.1200 
 18 C        2.8260     8.5150     1.0880 C.3   1 <1>  -0.1600 
 19 C        1.8930     9.2630     0.1280 C.3   1 <1>  -0.1600 
 20 H       -2.2560     3.4970     1.7020 H     1 <1>   0.1500 
 21 H        1.7640     3.2490     2.2840 H     1 <1>   0.1500 
 22 H        2.2680     5.0230    -1.9770 H     1 <1>   0.0800 
 23 H        3.8080     5.3080    -1.2020 H     1 <1>   0.0800 
 24 H        3.4530     2.8360    -1.3830 H     1 <1>   0.0800 
 25 H        2.6290     2.0400    -0.0690 H     1 <1>   0.0800 
 26 H        1.1900     6.6670    -0.6480 H     1 <1>   0.0800 
 27 H        5.1080     3.7670     0.2190 H     1 <1>   0.0800 
 28 H        5.0620     2.0240     0.3180 H     1 <1>   0.0800 
 29 H        4.2630     2.9830     1.5400 H     1 <1>   0.0800 
 30 H        3.6390     6.5210     1.0950 H     1 <1>   0.0800 
 31 H        1.9680     6.5890     1.5430 H     1 <1>   0.0800 
 32 H        1.2020     8.7870    -1.8740 H     1 <1>   0.0800 
 33 H        2.7680     9.5680    -1.8300 H     1 <1>   0.0800 
 34 H        3.8400     8.8120     0.8780 H     1 <1>   0.0800 
 35 H        2.6060     8.7650     2.1110 H     1 <1>   0.0800 
 36 H        0.8720     9.0370     0.3820 H     1 <1>   0.0800 
 37 H        2.0200    10.3260     0.2290 H     1 <1>   0.0800 
@<TRIPOS>BOND
  1   1   2  ar  
  2   2   3  ar  
  3   2   4  1   
  4   4   5  ar  
  5   4   6  ar  
  6   5   7  ar  
  7   6   8  ar  
  8   6  20  1   
  9   7   9  1   
 10   7  10  ar  
 11   8  10  ar  
 12   9  11  1   
 13   9  12  1   
 14  10  21  1   
 15  11  13  1   
 16  11  22  1   
 17  11  23  1   
 18  12  14  1   
 19  12  24  1   
 20  12  25  1   
 21  13  15  1   
 22  13  16  1   
 23  13  26  1   
 24  14  27  1   
 25  14  28  1   
 26  14  29  1   
 27  15  17  1   
 28  16  18  1   
 29  16  30  1   
 30  16  31  1   
 31  17  19  1   
 32  17  32  1   
 33  17  33  1   
 34  18  19  1   
 35  18  34  1   
 36  18  35  1   
 37  19  36  1   
 38  19  37  1   
@<TRIPOS>SUBSTRUCTURE
  1 ****   7 GROUP 4 **** **** 0

# MOE 2024.06 (io_trps.svl 2023.06)
