@<TRIPOS>MOLECULE
NONAME
34 35 1 0 0 
SMALL
USER_CHARGES


@<TRIPOS>ATOM
  1 O        1.4670    -0.5240     3.1680 O.2   1 <1>  -0.5700 
  2 C        1.1650    -0.9000     2.0610 C.2   1 <1>   0.5690 
  3 N        1.4950    -0.2270     0.9230 N.am  1 <1>  -0.4930 
  4 C        0.3740    -2.1930     1.9370 C.3   1 <1>   0.0450 
  5 C        2.2160     0.9800     0.7550 C.2   1 <1>   0.0630 
  6 C        0.0500    -2.5490     0.4880 C.ar  1 <1>  -0.1440 
  7 C        2.5020     1.5800    -0.4200 C.2   1 <1>  -0.3320 
  8 C        2.7810     1.8060     1.7260 C.2   1 <1>   0.1390 
  9 C        0.9040    -3.3130    -0.2820 C.ar  1 <1>  -0.1500 
 10 C       -1.0990    -2.1020    -0.1320 C.ar  1 <1>  -0.1500 
 11 N        3.2050     2.7030    -0.1190 N.pl3 1 <1>   0.3140 
 12 C        2.1420     1.1460    -1.8360 C.3   1 <1>  -0.0600 
 13 N        3.3740     2.8400     1.2090 N.2   1 <1>  -0.7070 
 14 C        0.5820    -3.5760    -1.6030 C.ar  1 <1>   0.1600 
 15 C       -1.3280    -2.4220    -1.4600 C.ar  1 <1>   0.1600 
 16 C        3.7520     3.7080    -1.0560 C.3   1 <1>   0.0960 
 17 N       -0.5090    -3.1410    -2.2100 N.ar  1 <1>  -0.6200 
 18 C        5.1580     3.3190    -1.5290 C.3   1 <1>  -0.2400 
 19 H        1.1760    -0.6540     0.0530 H     1 <1>   0.3700 
 20 H       -0.5350    -2.0880     2.5000 H     1 <1>   0.0800 
 21 H        0.9450    -2.9820     2.3890 H     1 <1>   0.0800 
 22 H        2.7350     1.6130     2.7840 H     1 <1>   0.1500 
 23 H        1.8190    -3.7050     0.1280 H     1 <1>   0.1500 
 24 H       -1.8190    -1.5050     0.4000 H     1 <1>   0.1500 
 25 H        1.5920     0.2230    -1.8260 H     1 <1>   0.0800 
 26 H        3.0340     1.0000    -2.4170 H     1 <1>   0.0800 
 27 H        1.5340     1.8960    -2.3100 H     1 <1>   0.0800 
 28 H        1.2580    -4.1740    -2.1910 H     1 <1>   0.1500 
 29 H       -2.2290    -2.0660    -1.9300 H     1 <1>   0.1500 
 30 H        3.7890     4.6530    -0.5440 H     1 <1>   0.0800 
 31 H        3.0850     3.8020    -1.8930 H     1 <1>   0.0800 
 32 H        5.8190     3.2420    -0.6830 H     1 <1>   0.0800 
 33 H        5.5410     4.0720    -2.1940 H     1 <1>   0.0800 
 34 H        5.1360     2.3780    -2.0490 H     1 <1>   0.0800 
@<TRIPOS>BOND
  1   1   2  2   
  2   2   3  am  
  3   2   4  1   
  4   3   5  1   
  5   3  19  1   
  6   4   6  1   
  7   4  20  1   
  8   4  21  1   
  9   5   7  2   
 10   5   8  1   
 11   6   9  ar  
 12   6  10  ar  
 13   7  11  1   
 14   7  12  1   
 15   8  13  2   
 16   8  22  1   
 17   9  14  ar  
 18   9  23  1   
 19  10  15  ar  
 20  10  24  1   
 21  11  13  1   
 22  11  16  1   
 23  12  25  1   
 24  12  26  1   
 25  12  27  1   
 26  14  17  ar  
 27  14  28  1   
 28  15  17  ar  
 29  15  29  1   
 30  16  18  1   
 31  16  30  1   
 32  16  31  1   
 33  18  32  1   
 34  18  33  1   
 35  18  34  1   
@<TRIPOS>SUBSTRUCTURE
  1 ****   3 GROUP 4 **** **** 0

# MOE 2024.06 (io_trps.svl 2023.06)
