@<TRIPOS>MOLECULE
NONAME
51 54 1 0 0 
SMALL
USER_CHARGES


@<TRIPOS>ATOM
  1 S       -2.2700     0.1690     1.8570 S.3   1 <1>  -0.0800 
  2 C       -1.5840     1.2900     0.6850 C.2   1 <1>   0.4620 
  3 C       -2.2850    -1.0750     0.6270 C.ar  1 <1>   0.0400 
  4 N       -1.3900     0.8010    -0.4790 N.2   1 <1>  -0.5650 
  5 N       -1.3200     2.5540     1.0830 N.pl3 1 <1>  -0.8840 
  6 C       -1.7730    -0.5290    -0.5370 C.ar  1 <1>   0.2270 
  7 C       -2.7170    -2.3780     0.7450 C.ar  1 <1>  -0.1500 
  8 C       -1.6890    -1.3590    -1.6540 C.ar  1 <1>  -0.1440 
  9 C       -2.6500    -3.2130    -0.3720 C.ar  1 <1>   0.0860 
 10 C       -2.1210    -2.6730    -1.5550 C.ar  1 <1>  -0.1500 
 11 C       -1.1250    -0.8210    -2.9600 C.3   1 <1>  -0.0970 
 12 C       -3.1070    -4.5890    -0.3180 C.2   1 <1>   0.5440 
 13 O       -2.5720    -5.4470    -0.9990 O.2   1 <1>  -0.5700 
 14 N       -4.1830    -4.9590     0.4590 N.am  1 <1>  -0.6600 
 15 C       -4.3400    -6.4030     0.8320 C.3   1 <1>   0.1400 
 16 C       -5.4580    -4.1740     0.3280 C.3   1 <1>   0.1400 
 17 C       -5.4610    -6.9480    -0.0640 C.3   1 <1>   0.4230 
 18 C       -6.6910    -4.9240     0.8670 C.3   1 <1>  -0.1600 
 19 N       -5.5050    -8.4220    -0.3210 N.4   1 <1>  -0.9590 
 20 C       -6.8070    -6.4350     0.4770 C.3   1 <1>  -0.1060 
 21 C       -6.5140    -8.7450    -1.3670 C.3   1 <1>   0.3430 
 22 C       -4.1810    -9.0380    -0.5980 C.3   1 <1>   0.2630 
 23 C       -7.2110    -7.2260     1.7350 C.2   1 <1>   0.9060 
 24 C       -7.8470    -6.6630    -0.6430 C.3   1 <1>  -0.1600 
 25 C       -7.8920    -8.1540    -1.0320 C.3   1 <1>  -0.1600 
 26 O       -8.2260    -6.8910     2.3410 O.co2 1 <1>  -0.9000 
 27 O       -6.5340    -8.2050     2.0880 O.co2 1 <1>  -0.9000 
 28 H       -1.4900     2.8830     2.0330 H     1 <1>   0.4000 
 29 H       -0.9160     3.2200     0.4230 H     1 <1>   0.4000 
 30 H       -3.0960    -2.7430     1.6830 H     1 <1>   0.1500 
 31 H       -2.0530    -3.3190    -2.4140 H     1 <1>   0.1500 
 32 H       -1.1290    -1.5730    -3.7270 H     1 <1>   0.0800 
 33 H       -0.1130    -0.4880    -2.8080 H     1 <1>   0.0800 
 34 H       -1.7120     0.0160    -3.2930 H     1 <1>   0.0800 
 35 H       -3.4140    -6.9220     0.6740 H     1 <1>   0.0800 
 36 H       -4.5990    -6.4850     1.8740 H     1 <1>   0.0800 
 37 H       -5.3600    -3.2410     0.8560 H     1 <1>   0.0800 
 38 H       -5.6170    -3.9460    -0.7130 H     1 <1>   0.0800 
 39 H       -5.3000    -6.4820    -1.0210 H     1 <1>   0.0800 
 40 H       -6.6440    -4.8460     1.9410 H     1 <1>   0.0800 
 41 H       -7.5860    -4.3990     0.5820 H     1 <1>   0.0800 
 42 H       -5.8690    -8.7760     0.6050 H     1 <1>   0.4500 
 43 H       -6.1820    -8.3440    -2.3110 H     1 <1>   0.0800 
 44 H       -6.6040    -9.8140    -1.4670 H     1 <1>   0.0800 
 45 H       -3.7210    -8.5680    -1.4520 H     1 <1>   0.0800 
 46 H       -4.2950   -10.0910    -0.7930 H     1 <1>   0.0800 
 47 H       -3.5320    -8.9210     0.2540 H     1 <1>   0.0800 
 48 H       -8.8220    -6.3590    -0.2950 H     1 <1>   0.0800 
 49 H       -7.6000    -6.0670    -1.5040 H     1 <1>   0.0800 
 50 H       -8.5430    -8.2810    -1.8790 H     1 <1>   0.0800 
 51 H       -8.3210    -8.7230    -0.2230 H     1 <1>   0.0800 
@<TRIPOS>BOND
  1   1   2  1   
  2   1   3  1   
  3   2   4  2   
  4   2   5  1   
  5   3   6  ar  
  6   3   7  ar  
  7   4   6  1   
  8   5  28  1   
  9   5  29  1   
 10   6   8  ar  
 11   7   9  ar  
 12   7  30  1   
 13   8  10  ar  
 14   8  11  1   
 15   9  10  ar  
 16   9  12  1   
 17  10  31  1   
 18  11  32  1   
 19  11  33  1   
 20  11  34  1   
 21  12  13  2   
 22  12  14  am  
 23  14  15  1   
 24  14  16  1   
 25  15  17  1   
 26  15  35  1   
 27  15  36  1   
 28  16  18  1   
 29  16  37  1   
 30  16  38  1   
 31  17  19  1   
 32  17  20  1   
 33  17  39  1   
 34  18  20  1   
 35  18  40  1   
 36  18  41  1   
 37  19  21  1   
 38  19  22  1   
 39  19  42  1   
 40  20  23  1   
 41  20  24  1   
 42  21  25  1   
 43  21  43  1   
 44  21  44  1   
 45  22  45  1   
 46  22  46  1   
 47  22  47  1   
 48  23  26  ar  
 49  23  27  ar  
 50  24  25  1   
 51  24  48  1   
 52  24  49  1   
 53  25  50  1   
 54  25  51  1   
@<TRIPOS>SUBSTRUCTURE
  1 ****  14 GROUP 4 **** **** 0

# MOE 2024.06 (io_trps.svl 2023.06)
