@<TRIPOS>MOLECULE
NONAME
51 54 1 0 0 
SMALL
USER_CHARGES


@<TRIPOS>ATOM
  1 O       -0.8720     0.5470    -1.3220 O.2   1 <1>  -0.5700 
  2 C       -1.3020     1.3750    -0.5400 C.2   1 <1>   0.5440 
  3 N       -2.4860     1.1060     0.1210 N.am  1 <1>  -0.6600 
  4 C       -0.5670     2.6000    -0.3380 C.ar  1 <1>   0.0860 
  5 C       -3.0360    -0.2850     0.1140 C.3   1 <1>   0.1400 
  6 C       -3.3300     2.1750     0.7390 C.3   1 <1>   0.1400 
  7 C       -0.2770     3.0660     0.9420 C.ar  1 <1>   0.1600 
  8 C       -0.1100     3.3680    -1.4050 C.ar  1 <1>  -0.1500 
  9 C       -3.8700    -0.5470    -1.1490 C.3   1 <1>   0.1400 
 10 C       -4.8210     2.0930     0.3780 C.3   1 <1>  -0.1600 
 11 N        0.3600     4.1850     1.2390 N.ar  1 <1>  -0.6200 
 12 C        0.5620     4.5320    -1.1190 C.ar  1 <1>  -0.1500 
 13 N       -5.1890     0.1530    -1.0920 N.am  1 <1>  -0.6600 
 14 C       -5.1120     1.6380    -1.0560 C.3   1 <1>   0.1400 
 15 C        0.7670     4.9010     0.2070 C.ar  1 <1>   0.4100 
 16 C       -6.4060    -0.4850    -1.0350 C.2   1 <1>   0.6300 
 17 N        1.4220     6.0370     0.5340 N.pl3 1 <1>  -0.9000 
 18 O       -7.4460     0.1330    -1.0440 O.2   1 <1>  -0.5700 
 19 C       -6.4810    -2.0100    -0.9620 C.3   1 <1>  -0.1000 
 20 C       -7.4030    -2.7410    -0.0300 C.3   1 <1>  -0.1900 
 21 C       -5.9340    -2.7550     0.2350 C.3   1 <1>  -0.2000 
 22 C       -8.3070    -2.0670     0.9990 C.3   1 <1>  -0.0650 
 23 C       -8.0770    -4.0600    -0.3780 C.3   1 <1>  -0.0650 
 24 C       -9.0230    -3.2150     1.7190 C.3   1 <1>  -0.1600 
 25 C       -8.7010    -4.5020     0.9440 C.3   1 <1>  -0.1600 
 26 H       -3.6290    -0.4600     0.9940 H     1 <1>   0.0800 
 27 H       -2.2150    -0.9800     0.1300 H     1 <1>   0.0800 
 28 H       -2.9740     3.1370     0.4150 H     1 <1>   0.0800 
 29 H       -3.2230     2.1330     1.8100 H     1 <1>   0.0800 
 30 H       -0.6000     2.4640     1.7740 H     1 <1>   0.1500 
 31 H       -0.2860     3.0470    -2.4170 H     1 <1>   0.1500 
 32 H       -4.0080    -1.6050    -1.2550 H     1 <1>   0.0800 
 33 H       -3.3230    -0.2130    -2.0140 H     1 <1>   0.0800 
 34 H       -5.2370     3.0760     0.5090 H     1 <1>   0.0800 
 35 H       -5.3350     1.4510     1.0710 H     1 <1>   0.0800 
 36 H        0.9300     5.1650    -1.9030 H     1 <1>   0.1500 
 37 H       -4.3530     1.9880    -1.7340 H     1 <1>   0.0800 
 38 H       -6.0520     2.0560    -1.3760 H     1 <1>   0.0800 
 39 H        2.1440     6.4010    -0.0850 H     1 <1>   0.4000 
 40 H        1.6310     6.1300     1.5300 H     1 <1>   0.4000 
 41 H       -6.3500    -2.4460    -1.9350 H     1 <1>   0.1000 
 42 H       -5.5540    -2.1890     1.0670 H     1 <1>   0.1000 
 43 H       -5.3760    -3.6590     0.0650 H     1 <1>   0.1000 
 44 H       -9.0350    -1.4650     0.4810 H     1 <1>   0.0800 
 45 H       -7.7620    -1.4360     1.6790 H     1 <1>   0.0800 
 46 H       -7.3930    -4.7930    -0.7690 H     1 <1>   0.0800 
 47 H       -8.8540    -3.8770    -1.1000 H     1 <1>   0.0800 
 48 H      -10.0840    -3.0340     1.7270 H     1 <1>   0.0800 
 49 H       -8.6770    -3.2980     2.7350 H     1 <1>   0.0800 
 50 H       -7.9770    -5.0740     1.4990 H     1 <1>   0.0800 
 51 H       -9.5780    -5.1060     0.7860 H     1 <1>   0.0800 
@<TRIPOS>BOND
  1   1   2  2   
  2   2   3  am  
  3   2   4  1   
  4   3   5  1   
  5   3   6  1   
  6   4   7  ar  
  7   4   8  ar  
  8   5   9  1   
  9   5  26  1   
 10   5  27  1   
 11   6  10  1   
 12   6  28  1   
 13   6  29  1   
 14   7  11  ar  
 15   7  30  1   
 16   8  12  ar  
 17   8  31  1   
 18   9  13  1   
 19   9  32  1   
 20   9  33  1   
 21  10  14  1   
 22  10  34  1   
 23  10  35  1   
 24  11  15  ar  
 25  12  15  ar  
 26  12  36  1   
 27  13  14  1   
 28  13  16  am  
 29  14  37  1   
 30  14  38  1   
 31  15  17  1   
 32  16  18  2   
 33  16  19  1   
 34  17  39  1   
 35  17  40  1   
 36  19  20  1   
 37  19  21  1   
 38  19  41  1   
 39  20  21  1   
 40  20  22  1   
 41  20  23  1   
 42  21  42  1   
 43  21  43  1   
 44  22  24  1   
 45  22  44  1   
 46  22  45  1   
 47  23  25  1   
 48  23  46  1   
 49  23  47  1   
 50  24  25  1   
 51  24  48  1   
 52  24  49  1   
 53  25  50  1   
 54  25  51  1   
@<TRIPOS>SUBSTRUCTURE
  1 ****   5 GROUP 4 **** **** 0

# MOE 2024.06 (io_trps.svl 2023.06)
