@<TRIPOS>MOLECULE
NONAME
50 53 1 0 0 
SMALL
USER_CHARGES


@<TRIPOS>ATOM
  1 O       -0.8900     0.6350    -0.8700 O.2   1 <1>  -0.5700 
  2 C       -0.5750     1.6980    -0.4000 C.2   1 <1>   0.5690 
  3 N       -1.5160     2.5870    -0.0150 N.am  1 <1>  -0.7300 
  4 C        0.9040     2.0720    -0.2700 C.3   1 <1>   0.1810 
  5 C       -1.2050     3.9110     0.5750 C.3   1 <1>   0.3640 
  6 O        1.1340     3.1500     0.6120 O.3   1 <1>  -0.5600 
  7 C       -2.0860     4.9640    -0.0970 C.ar  1 <1>  -0.1440 
  8 C        0.2930     4.2780     0.4150 C.3   1 <1>   0.2610 
  9 C       -2.2810     4.9750    -1.4730 C.ar  1 <1>  -0.1500 
 10 C       -2.6980     5.9420     0.6750 C.ar  1 <1>  -0.1500 
 11 C        0.6980     5.4340     1.3480 C.2   1 <1>   0.5690 
 12 C       -3.0740     5.9430    -2.0640 C.ar  1 <1>  -0.1500 
 13 C       -3.4910     6.9110     0.0850 C.ar  1 <1>  -0.1500 
 14 O        0.0270     5.6490     2.3340 O.2   1 <1>  -0.5700 
 15 N        1.7870     6.2240     1.0590 N.am  1 <1>  -0.6600 
 16 C       -3.6800     6.9120    -1.2850 C.ar  1 <1>  -0.1500 
 17 C        2.7810     5.9890    -0.0310 C.3   1 <1>   0.1400 
 18 C        2.1050     7.4520     1.8460 C.3   1 <1>   0.1400 
 19 C        2.8740     7.2250    -0.9420 C.3   1 <1>   0.1100 
 20 C        2.2280     8.6710     0.9150 C.3   1 <1>   0.1100 
 21 N        3.2060     8.4410    -0.1740 N.3   1 <1>  -0.8100 
 22 C        3.3270     9.6120    -1.0640 C.3   1 <1>   0.2900 
 23 C        3.7810    10.8650    -0.3250 C.2   1 <1>  -0.0400 
 24 O        5.0060    10.9260     0.1630 O.3   1 <1>  -0.2800 
 25 C        3.1150    12.0120    -0.0650 C.2   1 <1>  -0.1500 
 26 C        5.1470    12.1000     0.7440 C.2   1 <1>  -0.0100 
 27 C        4.0130    12.8230     0.6390 C.2   1 <1>  -0.1500 
 28 H       -2.5020     2.3390    -0.1060 H     1 <1>   0.3700 
 29 H        1.2900     2.3370    -1.2370 H     1 <1>   0.0800 
 30 H        1.4520     1.2250     0.1010 H     1 <1>   0.0800 
 31 H       -1.4480     3.8620     1.6230 H     1 <1>   0.0800 
 32 H        0.4380     4.6100    -0.5950 H     1 <1>   0.0800 
 33 H       -1.8220     4.2270    -2.0970 H     1 <1>   0.1500 
 34 H       -2.5570     5.9590     1.7430 H     1 <1>   0.1500 
 35 H       -3.2230     5.9410    -3.1300 H     1 <1>   0.1500 
 36 H       -3.9600     7.6640     0.6940 H     1 <1>   0.1500 
 37 H       -4.2980     7.6650    -1.7430 H     1 <1>   0.1500 
 38 H        3.7460     5.8100     0.4120 H     1 <1>   0.0800 
 39 H        2.5280     5.1250    -0.6150 H     1 <1>   0.0800 
 40 H        1.3420     7.6440     2.5800 H     1 <1>   0.0800 
 41 H        3.0360     7.3090     2.3650 H     1 <1>   0.0800 
 42 H        1.9350     7.3580    -1.4520 H     1 <1>   0.0800 
 43 H        3.6390     7.0530    -1.6790 H     1 <1>   0.0800 
 44 H        2.5400     9.5140     1.5080 H     1 <1>   0.0800 
 45 H        1.2600     8.8930     0.5010 H     1 <1>   0.0800 
 46 H        4.0490     9.4000    -1.8330 H     1 <1>   0.0800 
 47 H        2.3790     9.8050    -1.5350 H     1 <1>   0.0800 
 48 H        2.1070    12.2810    -0.3270 H     1 <1>   0.1500 
 49 H        6.0890    12.3380     1.2070 H     1 <1>   0.1500 
 50 H        3.8090    13.8130     1.0060 H     1 <1>   0.1500 
@<TRIPOS>BOND
  1   1   2  2   
  2   2   3  am  
  3   2   4  1   
  4   3   5  1   
  5   3  28  1   
  6   4   6  1   
  7   4  29  1   
  8   4  30  1   
  9   5   7  1   
 10   5   8  1   
 11   5  31  1   
 12   6   8  1   
 13   7   9  ar  
 14   7  10  ar  
 15   8  11  1   
 16   8  32  1   
 17   9  12  ar  
 18   9  33  1   
 19  10  13  ar  
 20  10  34  1   
 21  11  14  2   
 22  11  15  am  
 23  12  16  ar  
 24  12  35  1   
 25  13  16  ar  
 26  13  36  1   
 27  15  17  1   
 28  15  18  1   
 29  16  37  1   
 30  17  19  1   
 31  17  38  1   
 32  17  39  1   
 33  18  20  1   
 34  18  40  1   
 35  18  41  1   
 36  19  21  1   
 37  19  42  1   
 38  19  43  1   
 39  20  21  1   
 40  20  44  1   
 41  20  45  1   
 42  21  22  1   
 43  22  23  1   
 44  22  46  1   
 45  22  47  1   
 46  23  24  1   
 47  23  25  2   
 48  24  26  1   
 49  25  27  1   
 50  25  48  1   
 51  26  27  2   
 52  26  49  1   
 53  27  50  1   
@<TRIPOS>SUBSTRUCTURE
  1 ****  15 GROUP 4 **** **** 0

# MOE 2024.06 (io_trps.svl 2023.06)
