@<TRIPOS>MOLECULE
NONAME
42 44 1 0 0 
SMALL
USER_CHARGES


@<TRIPOS>ATOM
  1 O       -0.4820     2.0180     2.2820 O.2   1 <1>  -0.5700 
  2 C       -0.2910     2.7600     1.3320 C.2   1 <1>   0.5440 
  3 N       -1.3450     3.5600     0.9150 N.am  1 <1>  -0.6600 
  4 C        1.0390     2.7760     0.7130 C.ar  1 <1>   0.3960 
  5 C       -2.7610     3.2730     1.3050 C.3   1 <1>   0.1400 
  6 C       -1.2240     4.6880    -0.0450 C.3   1 <1>   0.1400 
  7 N        1.1770     2.7900    -0.6270 N.ar  1 <1>  -0.6200 
  8 C        2.1570     2.7610     1.5500 C.ar  1 <1>  -0.1500 
  9 C       -3.6000     2.9010     0.0560 C.3   1 <1>   0.0000 
 10 C       -2.0090     4.3560    -1.3180 C.3   1 <1>  -0.1600 
 11 C        2.4070     2.7910    -1.1070 C.ar  1 <1>   0.1600 
 12 C        3.4360     2.7660     1.0380 C.ar  1 <1>  -0.1500 
 13 C       -5.0690     2.6340     0.4280 C.3   1 <1>   0.2000 
 14 C       -3.4780     4.0190    -1.0040 C.3   1 <1>  -0.1600 
 15 C       -3.1680     1.5290    -0.4930 C.3   1 <1>  -0.1600 
 16 C        3.5540     2.7820    -0.3330 C.ar  1 <1>  -0.1500 
 17 O       -5.5350     3.5520     1.3730 O.3   1 <1>  -0.5600 
 18 C       -5.1060     1.2020     0.9720 C.3   1 <1>  -0.1600 
 19 C       -3.8760     0.4940     0.3870 C.3   1 <1>  -0.1600 
 20 C       -6.9170     3.5750     1.5370 C.3   1 <1>   0.0400 
 21 H       -2.8040     2.4790     2.0290 H     1 <1>   0.0800 
 22 H       -3.1690     4.1530     1.7700 H     1 <1>   0.0800 
 23 H       -1.6330     5.5730     0.4100 H     1 <1>   0.0800 
 24 H       -0.1950     4.8890    -0.2830 H     1 <1>   0.0800 
 25 H        2.0040     2.7400     2.6140 H     1 <1>   0.1500 
 26 H       -1.9670     5.1960    -1.9880 H     1 <1>   0.0800 
 27 H       -1.5350     3.5240    -1.8100 H     1 <1>   0.0800 
 28 H        2.5110     2.7990    -2.1790 H     1 <1>   0.1500 
 29 H        4.3010     2.7550     1.6790 H     1 <1>   0.1500 
 30 H       -5.6750     2.7050    -0.4600 H     1 <1>   0.0800 
 31 H       -3.9840     3.7330    -1.9090 H     1 <1>   0.0800 
 32 H       -3.9620     4.9030    -0.6260 H     1 <1>   0.0800 
 33 H       -3.5140     1.4180    -1.5050 H     1 <1>   0.0800 
 34 H       -2.1000     1.3920    -0.4840 H     1 <1>   0.0800 
 35 H        4.5220     2.7840    -0.8010 H     1 <1>   0.1500 
 36 H       -5.0370     1.2090     2.0460 H     1 <1>   0.0800 
 37 H       -6.0120     0.7070     0.6700 H     1 <1>   0.0800 
 38 H       -3.2200     0.1930     1.1860 H     1 <1>   0.0800 
 39 H       -4.1490    -0.3760    -0.1840 H     1 <1>   0.0800 
 40 H       -7.1530     4.3280     2.2680 H     1 <1>   0.0800 
 41 H       -7.2540     2.6150     1.8880 H     1 <1>   0.0800 
 42 H       -7.3830     3.8210     0.5990 H     1 <1>   0.0800 
@<TRIPOS>BOND
  1   1   2  2   
  2   2   3  am  
  3   2   4  1   
  4   3   5  1   
  5   3   6  1   
  6   4   7  ar  
  7   4   8  ar  
  8   5   9  1   
  9   5  21  1   
 10   5  22  1   
 11   6  10  1   
 12   6  23  1   
 13   6  24  1   
 14   7  11  ar  
 15   8  12  ar  
 16   8  25  1   
 17   9  13  1   
 18   9  14  1   
 19   9  15  1   
 20  10  14  1   
 21  10  26  1   
 22  10  27  1   
 23  11  16  ar  
 24  11  28  1   
 25  12  16  ar  
 26  12  29  1   
 27  13  17  1   
 28  13  18  1   
 29  13  30  1   
 30  14  31  1   
 31  14  32  1   
 32  15  19  1   
 33  15  33  1   
 34  15  34  1   
 35  16  35  1   
 36  17  20  1   
 37  18  19  1   
 38  18  36  1   
 39  18  37  1   
 40  19  38  1   
 41  19  39  1   
 42  20  40  1   
 43  20  41  1   
 44  20  42  1   
@<TRIPOS>SUBSTRUCTURE
  1 ****   3 GROUP 4 **** **** 0

# MOE 2024.06 (io_trps.svl 2023.06)
