@<TRIPOS>MOLECULE
NONAME
44 46 1 0 0 
SMALL
USER_CHARGES


@<TRIPOS>ATOM
  1 O       -1.4850     0.3810    -1.6420 O.2   1 <1>  -0.5700 
  2 C       -1.8470     0.9090    -0.6070 C.2   1 <1>   0.7150 
  3 N       -2.4250     0.1230     0.3460 N.am  1 <1>  -0.7300 
  4 C       -1.6950     2.3260    -0.3700 C.2   1 <1>   0.0550 
  5 C       -2.6700    -1.3320     0.2450 C.3   1 <1>   0.2200 
  6 O       -2.1520     2.8540     0.7600 O.3   1 <1>  -0.2800 
  7 C       -1.1440     3.3120    -1.1110 C.2   1 <1>   0.0460 
  8 C       -4.1400    -1.5700    -0.0500 C.3   1 <1>  -0.0800 
  9 C       -2.5170    -1.9760     1.6190 C.3   1 <1>   0.1200 
 10 C       -1.8430     4.1280     0.6200 C.2   1 <1>   0.2980 
 11 N       -1.2460     4.4660    -0.4640 N.2   1 <1>  -0.5650 
 12 C       -0.4770     3.2880    -2.4720 C.3   1 <1>  -0.0590 
 13 C       -4.7600    -1.5070     1.3500 C.3   1 <1>   0.1200 
 14 C       -4.3680    -2.9330    -0.7290 C.3   1 <1>  -0.0160 
 15 O       -3.7490    -1.8270     2.2620 O.3   1 <1>  -0.5600 
 16 C       -2.2270     5.0600     1.7600 C.3   1 <1>   0.0200 
 17 C       -5.8380    -3.1560    -1.0480 C.ar  1 <1>  -0.1440 
 18 C       -1.8370     6.5280     1.5240 C.3   1 <1>  -0.2400 
 19 C       -6.4590    -2.5050    -2.0950 C.ar  1 <1>  -0.1500 
 20 C       -6.6280    -4.0160    -0.3120 C.ar  1 <1>  -0.1500 
 21 C       -7.8020    -2.7350    -2.3460 C.ar  1 <1>   0.1600 
 22 C       -7.9630    -4.1750    -0.6460 C.ar  1 <1>   0.1600 
 23 N       -8.5690    -3.5540    -1.6440 N.ar  1 <1>  -0.6200 
 24 H       -2.7570     0.5710     1.2030 H     1 <1>   0.3700 
 25 H       -2.0120    -1.7730    -0.4850 H     1 <1>   0.0800 
 26 H       -4.5400    -0.7980    -0.6840 H     1 <1>   0.0800 
 27 H       -1.7430    -1.5170     2.2090 H     1 <1>   0.0800 
 28 H       -2.3260    -3.0300     1.5250 H     1 <1>   0.0800 
 29 H       -0.4450     2.2950    -2.8790 H     1 <1>   0.0800 
 30 H        0.5280     3.6580    -2.3850 H     1 <1>   0.0800 
 31 H       -1.0200     3.9220    -3.1490 H     1 <1>   0.0800 
 32 H       -5.5810    -2.1880     1.4830 H     1 <1>   0.0800 
 33 H       -5.0900    -0.5060     1.5730 H     1 <1>   0.0800 
 34 H       -4.0120    -3.7300    -0.0990 H     1 <1>   0.0800 
 35 H       -3.8090    -2.9720    -1.6480 H     1 <1>   0.0800 
 36 H       -3.2910     4.9970     1.9020 H     1 <1>   0.0800 
 37 H       -1.7510     4.7090     2.6570 H     1 <1>   0.0800 
 38 H       -2.3190     6.9000     0.6370 H     1 <1>   0.0800 
 39 H       -0.7720     6.6110     1.3950 H     1 <1>   0.0800 
 40 H       -2.1350     7.1330     2.3610 H     1 <1>   0.0800 
 41 H       -5.9120    -1.8220    -2.7190 H     1 <1>   0.1500 
 42 H       -6.2200    -4.5630     0.5180 H     1 <1>   0.1500 
 43 H       -8.2690    -2.2180    -3.1660 H     1 <1>   0.1500 
 44 H       -8.5640    -4.8500    -0.0600 H     1 <1>   0.1500 
@<TRIPOS>BOND
  1   1   2  2   
  2   2   3  am  
  3   2   4  1   
  4   3   5  1   
  5   3  24  1   
  6   4   6  1   
  7   4   7  2   
  8   5   8  1   
  9   5   9  1   
 10   5  25  1   
 11   6  10  1   
 12   7  11  1   
 13   7  12  1   
 14   8  13  1   
 15   8  14  1   
 16   8  26  1   
 17   9  15  1   
 18   9  27  1   
 19   9  28  1   
 20  10  11  2   
 21  10  16  1   
 22  12  29  1   
 23  12  30  1   
 24  12  31  1   
 25  13  15  1   
 26  13  32  1   
 27  13  33  1   
 28  14  17  1   
 29  14  34  1   
 30  14  35  1   
 31  16  18  1   
 32  16  36  1   
 33  16  37  1   
 34  17  19  ar  
 35  17  20  ar  
 36  18  38  1   
 37  18  39  1   
 38  18  40  1   
 39  19  21  ar  
 40  19  41  1   
 41  20  22  ar  
 42  20  42  1   
 43  21  23  ar  
 44  21  43  1   
 45  22  23  ar  
 46  22  44  1   
@<TRIPOS>SUBSTRUCTURE
  1 ****   3 GROUP 4 **** **** 0

# MOE 2024.06 (io_trps.svl 2023.06)
