@<TRIPOS>MOLECULE
NONAME
45 47 1 0 0 
SMALL
USER_CHARGES


@<TRIPOS>ATOM
  1 O       -0.9570     0.5260     2.0550 O.2   1 <1>  -0.5700 
  2 C       -1.4400     0.8480     0.9950 C.2   1 <1>   0.5690 
  3 N       -2.1920    -0.0350     0.2770 N.am  1 <1>  -0.5100 
  4 C       -1.1780     2.2780     0.5100 C.3   1 <1>  -0.0190 
  5 C       -3.2930     0.1090    -0.7310 C.3   1 <1>   0.2250 
  6 C       -2.7460    -1.3520     0.7290 C.3   1 <1>   0.2250 
  7 C       -2.3560     3.2250     0.8190 C.3   1 <1>  -0.1600 
  8 C       -0.7230     2.3770    -0.9680 C.3   1 <1>  -0.1600 
  9 C       -4.0860    -0.9570     0.0610 C.3   1 <1>   0.2580 
 10 C       -2.0020     4.7020     0.5450 C.3   1 <1>   0.2000 
 11 C       -0.9650     3.7640    -1.5950 C.3   1 <1>  -0.1600 
 12 O       -4.5860    -1.9630    -0.7980 O.3   1 <1>  -0.3400 
 13 O       -3.1760     5.3550     0.1280 O.3   1 <1>  -0.5600 
 14 C       -0.9070     4.8740    -0.5420 C.3   1 <1>   0.2000 
 15 C       -5.2220    -3.0560    -0.3070 C.ar  1 <1>   0.0820 
 16 C       -4.0180     5.7710     1.1580 C.3   1 <1>   0.0400 
 17 O       -1.0910     6.0810    -1.1850 O.3   1 <1>  -0.6800 
 18 C       -5.5970    -4.0230    -1.2260 C.ar  1 <1>  -0.1500 
 19 C       -5.5090    -3.2480     1.0430 C.ar  1 <1>  -0.1500 
 20 C       -6.2490    -5.1710    -0.8120 C.ar  1 <1>  -0.1500 
 21 C       -6.1600    -4.3980     1.4550 C.ar  1 <1>  -0.1500 
 22 C       -6.5300    -5.3590     0.5300 C.ar  1 <1>  -0.1500 
 23 H       -0.3520     2.6320     1.1040 H     1 <1>   0.0800 
 24 H       -3.7440     1.0830    -0.7110 H     1 <1>   0.0000 
 25 H       -2.9700    -0.2160    -1.7040 H     1 <1>   0.0000 
 26 H       -2.2370    -2.1700     0.2490 H     1 <1>   0.0000 
 27 H       -2.7970    -1.4190     1.8010 H     1 <1>   0.0000 
 28 H       -2.6360     3.1170     1.8510 H     1 <1>   0.0800 
 29 H       -3.1960     2.9490     0.2090 H     1 <1>   0.0800 
 30 H        0.3290     2.1500    -1.0090 H     1 <1>   0.0800 
 31 H       -1.2210     1.6480    -1.5800 H     1 <1>   0.0800 
 32 H       -4.8430    -0.5550     0.7110 H     1 <1>   0.0000 
 33 H       -1.6430     5.1700     1.4450 H     1 <1>   0.0800 
 34 H       -1.9410     3.7780    -2.0500 H     1 <1>   0.0800 
 35 H       -0.2320     3.9470    -2.3610 H     1 <1>   0.0800 
 36 H        0.0700     4.8850    -0.0910 H     1 <1>   0.0800 
 37 H       -4.8730     6.2530     0.7170 H     1 <1>   0.0800 
 38 H       -3.4940     6.4720     1.7850 H     1 <1>   0.0800 
 39 H       -4.3400     4.9180     1.7290 H     1 <1>   0.0800 
 40 H       -2.0580     6.2590    -1.1440 H     1 <1>   0.4000 
 41 H       -5.3760    -3.8720    -2.2670 H     1 <1>   0.1500 
 42 H       -5.2390    -2.5210     1.7850 H     1 <1>   0.1500 
 43 H       -6.5360    -5.9170    -1.5330 H     1 <1>   0.1500 
 44 H       -6.3820    -4.5470     2.4980 H     1 <1>   0.1500 
 45 H       -7.0370    -6.2520     0.8530 H     1 <1>   0.1500 
@<TRIPOS>BOND
  1   1   2  2   
  2   2   3  am  
  3   2   4  1   
  4   3   5  1   
  5   3   6  1   
  6   4   7  1   
  7   4   8  1   
  8   4  23  1   
  9   5   9  1   
 10   5  24  1   
 11   5  25  1   
 12   6   9  1   
 13   6  26  1   
 14   6  27  1   
 15   7  10  1   
 16   7  28  1   
 17   7  29  1   
 18   8  11  1   
 19   8  30  1   
 20   8  31  1   
 21   9  12  1   
 22   9  32  1   
 23  10  13  1   
 24  10  14  1   
 25  10  33  1   
 26  11  14  1   
 27  11  34  1   
 28  11  35  1   
 29  12  15  1   
 30  13  16  1   
 31  14  17  1   
 32  14  36  1   
 33  15  18  ar  
 34  15  19  ar  
 35  16  37  1   
 36  16  38  1   
 37  16  39  1   
 38  17  40  1   
 39  18  20  ar  
 40  18  41  1   
 41  19  21  ar  
 42  19  42  1   
 43  20  22  ar  
 44  20  43  1   
 45  21  22  ar  
 46  21  44  1   
 47  22  45  1   
@<TRIPOS>SUBSTRUCTURE
  1 ****   5 GROUP 4 **** **** 0

# MOE 2024.06 (io_trps.svl 2023.06)
