@<TRIPOS>MOLECULE
NONAME
51 53 1 0 0 
SMALL
USER_CHARGES


@<TRIPOS>ATOM
  1 N       -1.9100    -0.5090     1.3350 N.ar  1 <1>  -0.6200 
  2 C       -2.0910    -1.1880     0.2180 C.ar  1 <1>   0.4100 
  3 C       -1.2080    -1.1910     2.2310 C.ar  1 <1>   0.1600 
  4 N       -2.8480    -0.5660    -0.7790 N.pl3 1 <1>  -0.8380 
  5 C       -1.5770    -2.5080     0.0140 C.ar  1 <1>   0.4100 
  6 C       -0.7410    -2.4800     2.0420 C.ar  1 <1>   0.1600 
  7 C       -4.2160    -0.1370    -0.3740 C.3   1 <1>   0.1290 
  8 C       -2.1200     0.4880    -1.5330 C.3   1 <1>   0.1290 
  9 N       -0.9310    -3.1980     0.9370 N.ar  1 <1>  -0.6200 
 10 N       -1.7850    -3.1430    -1.2020 N.pl3 1 <1>  -0.8690 
 11 C       -2.0260    -4.6080    -1.2670 C.3   1 <1>   0.2090 
 12 C       -3.0830    -5.0710    -0.2320 C.3   1 <1>   0.5660 
 13 N       -3.1680    -6.5670    -0.0760 N.4   1 <1>  -0.9590 
 14 C       -4.4540    -4.4560    -0.5030 C.ar  1 <1>  -0.1430 
 15 C       -3.5050    -7.3050    -1.3280 C.3   1 <1>   0.3430 
 16 C       -4.1130    -6.9220     1.0260 C.3   1 <1>   0.3430 
 17 C       -5.0500    -3.7300     0.5180 C.ar  1 <1>   0.1600 
 18 C       -5.1250    -4.5670    -1.7100 C.ar  1 <1>  -0.1500 
 19 C       -3.3850    -8.8110    -1.0840 C.3   1 <1>  -0.1600 
 20 C       -4.0160    -8.4190     1.3260 C.3   1 <1>  -0.1600 
 21 N       -6.2390    -3.1600     0.4490 N.ar  1 <1>  -0.6200 
 22 C       -6.3620    -3.9660    -1.8000 C.ar  1 <1>  -0.1500 
 23 C       -4.2790    -9.2680     0.0760 C.3   1 <1>  -0.1600 
 24 C       -6.8690    -3.2880    -0.7060 C.ar  1 <1>   0.1600 
 25 H       -1.0010    -0.6920     3.1620 H     1 <1>   0.1500 
 26 H       -0.1840    -2.9470     2.8360 H     1 <1>   0.1500 
 27 H       -4.6480    -0.8610     0.2950 H     1 <1>   0.0800 
 28 H       -4.8460    -0.0500    -1.2410 H     1 <1>   0.0800 
 29 H       -4.1710     0.8120     0.1330 H     1 <1>   0.0800 
 30 H       -1.1420     0.1330    -1.8070 H     1 <1>   0.0800 
 31 H       -2.0100     1.3670    -0.9210 H     1 <1>   0.0800 
 32 H       -2.6620     0.7420    -2.4280 H     1 <1>   0.0800 
 33 H       -2.4110    -2.5510    -1.7750 H     1 <1>   0.4000 
 34 H       -1.0910    -5.1020    -1.0640 H     1 <1>   0.0800 
 35 H       -2.3380    -4.8590    -2.2640 H     1 <1>   0.0800 
 36 H       -2.7510    -4.6850     0.7160 H     1 <1>   0.0800 
 37 H       -2.2380    -6.8830     0.2250 H     1 <1>   0.4500 
 38 H       -2.8380    -7.0210    -2.1260 H     1 <1>   0.0800 
 39 H       -4.5150    -7.0760    -1.6260 H     1 <1>   0.0800 
 40 H       -5.1230    -6.6770     0.7350 H     1 <1>   0.0800 
 41 H       -3.8740    -6.3630     1.9170 H     1 <1>   0.0800 
 42 H       -4.5260    -3.6020     1.4510 H     1 <1>   0.1500 
 43 H       -4.7210    -5.0840    -2.5630 H     1 <1>   0.1500 
 44 H       -2.3580    -9.0610    -0.8790 H     1 <1>   0.0800 
 45 H       -3.6700    -9.3360    -1.9790 H     1 <1>   0.0800 
 46 H       -4.7370    -8.6710     2.0840 H     1 <1>   0.0800 
 47 H       -3.0410    -8.6420     1.7240 H     1 <1>   0.0800 
 48 H       -6.9350    -4.0160    -2.7090 H     1 <1>   0.1500 
 49 H       -4.0960   -10.3080     0.2930 H     1 <1>   0.0800 
 50 H       -5.3140    -9.1720    -0.2100 H     1 <1>   0.0800 
 51 H       -7.8400    -2.8260    -0.7850 H     1 <1>   0.1500 
@<TRIPOS>BOND
  1   1   2  ar  
  2   1   3  ar  
  3   2   4  1   
  4   2   5  ar  
  5   3   6  ar  
  6   3  25  1   
  7   4   7  1   
  8   4   8  1   
  9   5   9  ar  
 10   5  10  1   
 11   6   9  ar  
 12   6  26  1   
 13   7  27  1   
 14   7  28  1   
 15   7  29  1   
 16   8  30  1   
 17   8  31  1   
 18   8  32  1   
 19  10  11  1   
 20  10  33  1   
 21  11  12  1   
 22  11  34  1   
 23  11  35  1   
 24  12  13  1   
 25  12  14  1   
 26  12  36  1   
 27  13  15  1   
 28  13  16  1   
 29  13  37  1   
 30  14  17  ar  
 31  14  18  ar  
 32  15  19  1   
 33  15  38  1   
 34  15  39  1   
 35  16  20  1   
 36  16  40  1   
 37  16  41  1   
 38  17  21  ar  
 39  17  42  1   
 40  18  22  ar  
 41  18  43  1   
 42  19  23  1   
 43  19  44  1   
 44  19  45  1   
 45  20  23  1   
 46  20  46  1   
 47  20  47  1   
 48  21  24  ar  
 49  22  24  ar  
 50  22  48  1   
 51  23  49  1   
 52  23  50  1   
 53  24  51  1   
@<TRIPOS>SUBSTRUCTURE
  1 ****  12 GROUP 4 **** **** 0

# MOE 2024.06 (io_trps.svl 2023.06)
