@<TRIPOS>MOLECULE
NONAME
50 52 1 0 0 
SMALL
USER_CHARGES


@<TRIPOS>ATOM
  1 O        2.9620     1.1090    -0.4780 O.co2 1 <1>  -0.9000 
  2 C        3.1220     2.2780    -0.0800 C.2   1 <1>   1.0330 
  3 O        4.1170     2.5470     0.6180 O.co2 1 <1>  -0.9000 
  4 C        2.1480     3.3020    -0.4580 C.2   1 <1>  -0.0060 
  5 N        2.1270     4.6240    -0.0760 N.2   1 <1>  -0.5650 
  6 C        1.0870     3.1140    -1.2700 C.2   1 <1>  -0.0100 
  7 C        1.1030     5.1000    -0.6770 C.2   1 <1>   0.2980 
  8 O        0.4400     4.2380    -1.4050 O.3   1 <1>  -0.2800 
  9 C        0.6360     6.5470    -0.5970 C.3   1 <1>   0.5230 
 10 N        1.6400     7.3950     0.1370 N.4   1 <1>  -0.9590 
 11 C        1.0510     8.6550     0.6600 C.3   1 <1>   0.3430 
 12 C        2.8810     7.5910    -0.6690 C.3   1 <1>   0.3430 
 13 C        2.0820     9.4030     1.5010 C.3   1 <1>  -0.1600 
 14 C        3.9270     8.3330     0.1620 C.3   1 <1>  -0.1600 
 15 C        3.3880     9.6610     0.7240 C.3   1 <1>  -0.0190 
 16 C        4.4270    10.3430     1.6120 C.2   1 <1>   0.5690 
 17 O        4.7280     9.8270     2.6590 O.2   1 <1>  -0.5700 
 18 N        4.9840    11.5070     1.2060 N.am  1 <1>  -0.7300 
 19 C        6.0200    12.2310     1.9600 C.3   1 <1>   0.2840 
 20 C        6.6280    13.2600     1.0270 C.ar  1 <1>  -0.1430 
 21 C        7.7490    12.9490     0.2720 C.ar  1 <1>  -0.1500 
 22 C        6.0590    14.5200     0.9120 C.ar  1 <1>  -0.1500 
 23 C        8.2990    13.8840    -0.5890 C.ar  1 <1>  -0.1500 
 24 C        6.6060    15.4550     0.0520 C.ar  1 <1>  -0.1500 
 25 C        7.7260    15.1470    -0.7030 C.ar  1 <1>   0.0830 
 26 O        8.1980    16.1200    -1.5210 O.3   1 <1>  -0.3620 
 27 C        9.3450    15.9180    -2.3170 C.3   1 <1>   0.0400 
 28 H        0.7590     2.2170    -1.7700 H     1 <1>   0.1500 
 29 H       -0.3070     6.5600    -0.0790 H     1 <1>   0.0800 
 30 H        0.4850     6.9250    -1.5930 H     1 <1>   0.0800 
 31 H        1.9400     6.7930     0.9270 H     1 <1>   0.4500 
 32 H        0.1880     8.4350     1.2690 H     1 <1>   0.0800 
 33 H        0.7380     9.2790    -0.1620 H     1 <1>   0.0800 
 34 H        2.6560     8.1560    -1.5580 H     1 <1>   0.0800 
 35 H        3.2830     6.6330    -0.9670 H     1 <1>   0.0800 
 36 H        2.2910     8.8310     2.3890 H     1 <1>   0.0800 
 37 H        1.6650    10.3430     1.8190 H     1 <1>   0.0800 
 38 H        4.7900     8.5250    -0.4510 H     1 <1>   0.0800 
 39 H        4.2480     7.6940     0.9680 H     1 <1>   0.0800 
 40 H        3.1690    10.3170    -0.1000 H     1 <1>   0.0800 
 41 H        4.7620    11.9410     0.3090 H     1 <1>   0.3700 
 42 H        6.7710    11.5400     2.3080 H     1 <1>   0.0800 
 43 H        5.5760    12.7110     2.8160 H     1 <1>   0.0800 
 44 H        8.1990    11.9740     0.3520 H     1 <1>   0.1500 
 45 H        5.1890    14.7790     1.4900 H     1 <1>   0.1500 
 46 H        9.1670    13.6120    -1.1580 H     1 <1>   0.1500 
 47 H        6.1690    16.4330    -0.0400 H     1 <1>   0.1500 
 48 H        9.5300    16.8200    -2.8710 H     1 <1>   0.0800 
 49 H        9.1600    15.1040    -2.9950 H     1 <1>   0.0800 
 50 H       10.1810    15.7050    -1.6750 H     1 <1>   0.0800 
@<TRIPOS>BOND
  1   1   2  ar  
  2   2   3  ar  
  3   2   4  1   
  4   4   5  1   
  5   4   6  2   
  6   5   7  2   
  7   6   8  1   
  8   6  28  1   
  9   7   8  1   
 10   7   9  1   
 11   9  10  1   
 12   9  29  1   
 13   9  30  1   
 14  10  11  1   
 15  10  12  1   
 16  10  31  1   
 17  11  13  1   
 18  11  32  1   
 19  11  33  1   
 20  12  14  1   
 21  12  34  1   
 22  12  35  1   
 23  13  15  1   
 24  13  36  1   
 25  13  37  1   
 26  14  15  1   
 27  14  38  1   
 28  14  39  1   
 29  15  16  1   
 30  15  40  1   
 31  16  17  2   
 32  16  18  am  
 33  18  19  1   
 34  18  41  1   
 35  19  20  1   
 36  19  42  1   
 37  19  43  1   
 38  20  21  ar  
 39  20  22  ar  
 40  21  23  ar  
 41  21  44  1   
 42  22  24  ar  
 43  22  45  1   
 44  23  25  ar  
 45  23  46  1   
 46  24  25  ar  
 47  24  47  1   
 48  25  26  1   
 49  26  27  1   
 50  27  48  1   
 51  27  49  1   
 52  27  50  1   
@<TRIPOS>SUBSTRUCTURE
  1 ****  14 GROUP 4 **** **** 0

# MOE 2024.06 (io_trps.svl 2023.06)
