@<TRIPOS>MOLECULE
NONAME
47 49 1 0 0 
SMALL
USER_CHARGES


@<TRIPOS>ATOM
  1 S        0.7230     0.6270    -1.8850 S.o2  1 <1>   1.3330 
  2 O        0.0400     1.6050    -2.7020 O.2   1 <1>  -0.6500 
  3 O        0.9850    -0.6930    -2.4130 O.2   1 <1>  -0.6500 
  4 N       -0.1800     0.4470    -0.4560 N.am  1 <1>  -0.8490 
  5 C        2.2810     1.3150    -1.3200 C.3   1 <1>  -0.0550 
  6 C       -1.1690    -0.6310    -0.5610 C.3   1 <1>   0.1160 
  7 C       -0.8420     1.6840    -0.0270 C.3   1 <1>   0.1160 
  8 C        3.1440     0.3360    -0.4940 C.3   1 <1>  -0.0800 
  9 C        4.5430     0.8370    -0.1640 C.3   1 <1>   0.2200 
 10 C        2.5800    -0.0300     0.8860 C.3   1 <1>   0.1200 
 11 N        4.5050     2.2580     0.2580 N.am  1 <1>  -0.7300 
 12 C        4.8620    -0.0190     1.0520 C.3   1 <1>   0.1200 
 13 O        3.6660    -0.0700     1.7670 O.3   1 <1>  -0.5600 
 14 C        4.8420     3.3260    -0.5210 C.2   1 <1>   0.6160 
 15 O        5.1620     3.1130    -1.6760 O.2   1 <1>  -0.5700 
 16 C        4.7960     4.6910    -0.0100 C.2   1 <1>   0.1140 
 17 N        5.1060     5.7290    -0.8760 N.pl3 1 <1>  -0.6000 
 18 C        4.4600     5.0360     1.2670 C.2   1 <1>  -0.1360 
 19 C        5.0930     7.0760    -0.5210 C.ar  1 <1>   0.1000 
 20 C        4.4150     6.3780     1.7130 C.2   1 <1>   0.4690 
 21 C        5.4120     8.0970    -1.4200 C.ar  1 <1>   0.1900 
 22 C        4.7460     7.4320     0.7900 C.ar  1 <1>   0.0860 
 23 O        4.0910     6.6170     2.8690 O.2   1 <1>  -0.5700 
 24 F        5.7360     7.7730    -2.6470 F     1 <1>  -0.1900 
 25 C        5.4020     9.4280    -1.0760 C.ar  1 <1>  -0.1500 
 26 C        4.7360     8.7910     1.1370 C.ar  1 <1>  -0.1500 
 27 C        5.0580     9.7760     0.2240 C.ar  1 <1>  -0.1500 
 28 H        2.8480     1.6060    -2.1840 H     1 <1>   0.0800 
 29 H        2.0890     2.2030    -0.7520 H     1 <1>   0.0800 
 30 H       -1.7170    -0.7270     0.3610 H     1 <1>   0.0800 
 31 H       -0.6760    -1.5680    -0.7580 H     1 <1>   0.0800 
 32 H       -1.8590    -0.4290    -1.3650 H     1 <1>   0.0800 
 33 H       -1.3210     1.5360     0.9260 H     1 <1>   0.0800 
 34 H       -1.5840     1.9850    -0.7490 H     1 <1>   0.0800 
 35 H       -0.1210     2.4760     0.0760 H     1 <1>   0.0800 
 36 H        3.2490    -0.5770    -1.0540 H     1 <1>   0.0800 
 37 H        5.2440     0.6910    -0.9690 H     1 <1>   0.0800 
 38 H        2.0990    -0.9940     0.8770 H     1 <1>   0.0800 
 39 H        1.8940     0.7140     1.2520 H     1 <1>   0.0800 
 40 H        4.1960     2.3830     1.2240 H     1 <1>   0.3700 
 41 H        5.6400     0.3970     1.6680 H     1 <1>   0.0800 
 42 H        5.1190    -1.0230     0.7600 H     1 <1>   0.0800 
 43 H        5.3650     5.4700    -1.8420 H     1 <1>   0.4000 
 44 H        4.2100     4.3000     2.0060 H     1 <1>   0.1500 
 45 H        5.6550    10.1820    -1.8010 H     1 <1>   0.1500 
 46 H        4.4700     9.0630     2.1450 H     1 <1>   0.1500 
 47 H        5.0430    10.8140     0.5150 H     1 <1>   0.1500 
@<TRIPOS>BOND
  1   1   2  2   
  2   1   3  2   
  3   1   4  am  
  4   1   5  1   
  5   4   6  1   
  6   4   7  1   
  7   5   8  1   
  8   5  28  1   
  9   5  29  1   
 10   6  30  1   
 11   6  31  1   
 12   6  32  1   
 13   7  33  1   
 14   7  34  1   
 15   7  35  1   
 16   8   9  1   
 17   8  10  1   
 18   8  36  1   
 19   9  11  1   
 20   9  12  1   
 21   9  37  1   
 22  10  13  1   
 23  10  38  1   
 24  10  39  1   
 25  11  14  am  
 26  11  40  1   
 27  12  13  1   
 28  12  41  1   
 29  12  42  1   
 30  14  15  2   
 31  14  16  1   
 32  16  17  1   
 33  16  18  2   
 34  17  19  1   
 35  17  43  1   
 36  18  20  1   
 37  18  44  1   
 38  19  21  ar  
 39  19  22  ar  
 40  20  22  1   
 41  20  23  2   
 42  21  24  1   
 43  21  25  ar  
 44  22  26  ar  
 45  25  27  ar  
 46  25  45  1   
 47  26  27  ar  
 48  26  46  1   
 49  27  47  1   
@<TRIPOS>SUBSTRUCTURE
  1 ****  14 GROUP 4 **** **** 0

# MOE 2024.06 (io_trps.svl 2023.06)
