@<TRIPOS>MOLECULE
NONAME
53 56 1 0 0 
SMALL
USER_CHARGES


@<TRIPOS>ATOM
  1 S        1.7510    -4.4360     1.4700 S.3   1 <1>  -0.1930 
  2 C        0.1900    -4.1130     0.7730 C.cat 1 <1>   0.8920 
  3 C        0.9730    -5.3580     2.7760 C.2   1 <1>  -0.0490 
  4 N       -0.2310    -3.4550    -0.2860 N.pl3 1 <1>  -0.7000 
  5 N       -0.7900    -4.6480     1.4700 N.pl3 1 <1>  -0.6290 
  6 C       -0.3610    -5.3590     2.6130 C.2   1 <1>   0.2290 
  7 C       -1.5950    -3.6000    -0.2930 C.2   1 <1>   0.1820 
  8 C       -1.9690    -4.3680     0.7760 C.2   1 <1>   0.2770 
  9 C       -2.4320    -2.9560    -1.3830 C.3   1 <1>  -0.0720 
 10 C       -3.2860    -4.8580     1.1540 C.2   1 <1>   0.7030 
 11 O       -3.6590    -4.7250     2.3040 O.2   1 <1>  -0.5700 
 12 N       -4.1320    -5.4920     0.2660 N.am  1 <1>  -0.6600 
 13 C       -3.7830    -6.8960    -0.1680 C.3   1 <1>   0.3640 
 14 C       -5.5990    -5.2620     0.4360 C.3   1 <1>   0.1400 
 15 C       -2.3820    -6.8620    -0.7800 C.ar  1 <1>  -0.1430 
 16 C       -4.8170    -7.5640    -1.1290 C.3   1 <1>   0.2000 
 17 C       -6.3960    -5.8550    -0.7280 C.3   1 <1>   0.1200 
 18 C       -1.3200    -7.4080    -0.0760 C.ar  1 <1>  -0.1500 
 19 C       -2.1360    -6.2450    -1.9990 C.ar  1 <1>  -0.1500 
 20 O       -6.1380    -7.2200    -0.8080 O.3   1 <1>  -0.5600 
 21 C       -4.7640    -9.1010    -1.0750 C.3   1 <1>   0.1200 
 22 C       -0.0170    -7.2870    -0.5360 C.ar  1 <1>   0.0830 
 23 C       -0.8420    -6.1270    -2.4710 C.ar  1 <1>  -0.1500 
 24 O       -3.4790    -9.5860    -1.2930 O.3   1 <1>  -0.6800 
 25 O        0.9850    -7.7730     0.2380 O.3   1 <1>  -0.3630 
 26 C        0.2300    -6.6150    -1.7430 C.ar  1 <1>   0.0830 
 27 C        0.9630    -9.1560     0.5270 C.3   1 <1>   0.0400 
 28 O        1.4550    -6.3600    -2.2790 O.3   1 <1>  -0.3630 
 29 C        2.5530    -7.2150    -2.0530 C.3   1 <1>   0.0400 
 30 H        1.6140    -5.7960     3.5220 H     1 <1>   0.1500 
 31 H        0.3780    -2.9950    -0.9650 H     1 <1>   0.4500 
 32 H       -1.0980    -5.8300     3.2460 H     1 <1>   0.1500 
 33 H       -3.4710    -3.2040    -1.2640 H     1 <1>   0.0800 
 34 H       -2.1060    -3.2940    -2.3490 H     1 <1>   0.0800 
 35 H       -2.3300    -1.8860    -1.3390 H     1 <1>   0.0800 
 36 H       -3.7530    -7.5050     0.7200 H     1 <1>   0.0800 
 37 H       -5.9320    -5.7160     1.3560 H     1 <1>   0.0800 
 38 H       -5.7930    -4.2060     0.5010 H     1 <1>   0.0800 
 39 H       -4.6490    -7.2460    -2.1410 H     1 <1>   0.0800 
 40 H       -6.1370    -5.3880    -1.6620 H     1 <1>   0.0800 
 41 H       -7.4510    -5.7320    -0.5550 H     1 <1>   0.0800 
 42 H       -1.5020    -7.9100     0.8570 H     1 <1>   0.1500 
 43 H       -2.9440    -5.8360    -2.5810 H     1 <1>   0.1500 
 44 H       -5.4160    -9.5280    -1.8180 H     1 <1>   0.0800 
 45 H       -5.0720    -9.4410    -0.1010 H     1 <1>   0.0800 
 46 H       -0.6500    -5.6440    -3.4130 H     1 <1>   0.1500 
 47 H       -3.2270    -9.5150    -2.2360 H     1 <1>   0.4000 
 48 H        1.9120    -9.4260     0.9540 H     1 <1>   0.0800 
 49 H        0.8030    -9.7030    -0.3860 H     1 <1>   0.0800 
 50 H        0.1760    -9.3630     1.2300 H     1 <1>   0.0800 
 51 H        3.3050    -6.9970    -2.7900 H     1 <1>   0.0800 
 52 H        2.2300    -8.2370    -2.1520 H     1 <1>   0.0800 
 53 H        2.9460    -7.0300    -1.0700 H     1 <1>   0.0800 
@<TRIPOS>BOND
  1   1   2  1   
  2   1   3  1   
  3   2   4  ar  
  4   2   5  ar  
  5   3   6  2   
  6   3  30  1   
  7   4   7  1   
  8   4  31  1   
  9   5   6  1   
 10   5   8  1   
 11   6  32  1   
 12   7   8  2   
 13   7   9  1   
 14   8  10  1   
 15   9  33  1   
 16   9  34  1   
 17   9  35  1   
 18  10  11  2   
 19  10  12  am  
 20  12  13  1   
 21  12  14  1   
 22  13  15  1   
 23  13  16  1   
 24  13  36  1   
 25  14  17  1   
 26  14  37  1   
 27  14  38  1   
 28  15  18  ar  
 29  15  19  ar  
 30  16  20  1   
 31  16  21  1   
 32  16  39  1   
 33  17  20  1   
 34  17  40  1   
 35  17  41  1   
 36  18  22  ar  
 37  18  42  1   
 38  19  23  ar  
 39  19  43  1   
 40  21  24  1   
 41  21  44  1   
 42  21  45  1   
 43  22  25  1   
 44  22  26  ar  
 45  23  26  ar  
 46  23  46  1   
 47  24  47  1   
 48  25  27  1   
 49  26  28  1   
 50  27  48  1   
 51  27  49  1   
 52  27  50  1   
 53  28  29  1   
 54  29  51  1   
 55  29  52  1   
 56  29  53  1   
@<TRIPOS>SUBSTRUCTURE
  1 ****  15 GROUP 4 **** **** 0

# MOE 2024.06 (io_trps.svl 2023.06)
