@<TRIPOS>MOLECULE
NONAME
60 62 1 0 0 
SMALL
USER_CHARGES


@<TRIPOS>ATOM
  1 O       -4.2270     2.8390     0.5060 O.2   1 <1>  -0.5700 
  2 C       -3.8320     2.1950    -0.4390 C.2   1 <1>   0.5690 
  3 N       -4.6530     1.2200    -0.9690 N.am  1 <1>  -0.6600 
  4 C       -2.4100     2.4420    -0.9850 C.3   1 <1>   0.1250 
  5 C       -4.2270     0.1780    -1.9440 C.3   1 <1>   0.3200 
  6 C       -6.1070     1.1610    -0.5770 C.3   1 <1>   0.1400 
  7 C       -1.4540     1.3540    -0.4820 C.ar  1 <1>  -0.1440 
  8 C       -1.7940     3.8540    -0.7960 C.3   1 <1>  -0.0800 
  9 C       -4.0590    -1.1020    -1.1620 C.2   1 <1>  -0.3320 
 10 C       -6.3340     0.9060     0.9300 C.3   1 <1>   0.3430 
 11 C       -1.3550     1.0640     0.8720 C.ar  1 <1>  -0.1500 
 12 C       -0.6790     0.6340    -1.3810 C.ar  1 <1>  -0.1500 
 13 C       -1.4370     4.3030     0.6250 C.3   1 <1>  -0.1600 
 14 C       -2.6520     5.0020    -1.3330 C.3   1 <1>  -0.1600 
 15 N       -2.9700    -1.3900    -0.4210 N.pl3 1 <1>   0.0330 
 16 C       -4.9010    -2.1480    -1.0250 C.2   1 <1>   0.0770 
 17 N       -5.4800    -0.2110     1.4410 N.4   1 <1>  -0.9590 
 18 C       -0.5130     0.0620     1.3200 C.ar  1 <1>  -0.1500 
 19 C        0.1610    -0.3720    -0.9360 C.ar  1 <1>  -0.1500 
 20 C       -1.3110     5.8270     0.5450 C.3   1 <1>  -0.1600 
 21 C       -2.0180     6.2610    -0.7450 C.3   1 <1>  -0.1600 
 22 C       -3.2430    -2.5770     0.1580 C.2   1 <1>   0.0060 
 23 N       -4.4020    -3.0510    -0.1630 N.2   1 <1>  -0.5650 
 24 C       -6.2610    -1.4140     1.8570 C.3   1 <1>   0.2630 
 25 C       -4.5820     0.2670     2.5280 C.3   1 <1>   0.2630 
 26 C        0.2430    -0.6600     0.4140 C.ar  1 <1>  -0.1500 
 27 C       -2.2690    -3.2780     1.0800 C.3   1 <1>  -0.0600 
 28 H       -2.4900     2.3420    -2.0500 H     1 <1>   0.0800 
 29 H       -3.3090     0.4280    -2.4430 H     1 <1>   0.0800 
 30 H       -4.9860     0.0570    -2.7000 H     1 <1>   0.0800 
 31 H       -6.6090     0.3900    -1.1360 H     1 <1>   0.0800 
 32 H       -6.5710     2.0970    -0.8370 H     1 <1>   0.0800 
 33 H       -0.8730     3.8690    -1.3560 H     1 <1>   0.0800 
 34 H       -7.3750     0.6920     1.1040 H     1 <1>   0.0800 
 35 H       -6.0980     1.8140     1.4610 H     1 <1>   0.0800 
 36 H       -1.9260     1.6300     1.5880 H     1 <1>   0.1500 
 37 H       -0.7160     0.8500    -2.4360 H     1 <1>   0.1500 
 38 H       -0.5230     3.8520     0.9690 H     1 <1>   0.0800 
 39 H       -2.2270     4.0630     1.3120 H     1 <1>   0.0800 
 40 H       -3.6610     4.9230    -0.9670 H     1 <1>   0.0800 
 41 H       -2.6680     5.0310    -2.4080 H     1 <1>   0.0800 
 42 H       -2.1020    -0.8390    -0.3180 H     1 <1>   0.2700 
 43 H       -5.8620    -2.3010    -1.4920 H     1 <1>   0.1500 
 44 H       -4.8780    -0.5000     0.6430 H     1 <1>   0.4500 
 45 H       -0.4320    -0.1480     2.3730 H     1 <1>   0.1500 
 46 H        0.7600    -0.9250    -1.6400 H     1 <1>   0.1500 
 47 H       -0.2740     6.1120     0.5040 H     1 <1>   0.0800 
 48 H       -1.7620     6.2880     1.4070 H     1 <1>   0.0800 
 49 H       -2.7600     7.0180    -0.5540 H     1 <1>   0.0800 
 50 H       -1.2910     6.6560    -1.4340 H     1 <1>   0.0800 
 51 H       -6.8900    -1.1850     2.7010 H     1 <1>   0.0800 
 52 H       -5.5900    -2.2140     2.1250 H     1 <1>   0.0800 
 53 H       -6.8770    -1.7580     1.0420 H     1 <1>   0.0800 
 54 H       -5.1590     0.5560     3.3910 H     1 <1>   0.0800 
 55 H       -4.0180     1.1220     2.1910 H     1 <1>   0.0800 
 56 H       -3.8940    -0.5120     2.8120 H     1 <1>   0.0800 
 57 H        0.9060    -1.4360     0.7600 H     1 <1>   0.1500 
 58 H       -2.0470    -2.6600     1.9300 H     1 <1>   0.0800 
 59 H       -1.3580    -3.4950     0.5520 H     1 <1>   0.0800 
 60 H       -2.6920    -4.2050     1.4230 H     1 <1>   0.0800 
@<TRIPOS>BOND
  1   1   2  2   
  2   2   3  am  
  3   2   4  1   
  4   3   5  1   
  5   3   6  1   
  6   4   7  1   
  7   4   8  1   
  8   4  28  1   
  9   5   9  1   
 10   5  29  1   
 11   5  30  1   
 12   6  10  1   
 13   6  31  1   
 14   6  32  1   
 15   7  11  ar  
 16   7  12  ar  
 17   8  13  1   
 18   8  14  1   
 19   8  33  1   
 20   9  15  1   
 21   9  16  2   
 22  10  17  1   
 23  10  34  1   
 24  10  35  1   
 25  11  18  ar  
 26  11  36  1   
 27  12  19  ar  
 28  12  37  1   
 29  13  20  1   
 30  13  38  1   
 31  13  39  1   
 32  14  21  1   
 33  14  40  1   
 34  14  41  1   
 35  15  22  1   
 36  15  42  1   
 37  16  23  1   
 38  16  43  1   
 39  17  24  1   
 40  17  25  1   
 41  17  44  1   
 42  18  26  ar  
 43  18  45  1   
 44  19  26  ar  
 45  19  46  1   
 46  20  21  1   
 47  20  47  1   
 48  20  48  1   
 49  21  49  1   
 50  21  50  1   
 51  22  23  2   
 52  22  27  1   
 53  24  51  1   
 54  24  52  1   
 55  24  53  1   
 56  25  54  1   
 57  25  55  1   
 58  25  56  1   
 59  26  57  1   
 60  27  58  1   
 61  27  59  1   
 62  27  60  1   
@<TRIPOS>SUBSTRUCTURE
  1 ****   2 GROUP 4 **** **** 0

# MOE 2024.06 (io_trps.svl 2023.06)
