@<TRIPOS>MOLECULE
NONAME
56 60 1 0 0 
SMALL
USER_CHARGES


@<TRIPOS>ATOM
  1 O       -1.5440     1.5440    -1.9190 O.2   1 <1>  -0.5700 
  2 C       -2.1440     1.3270    -0.8810 C.2   1 <1>   0.7160 
  3 N       -2.9230     0.2000    -0.7980 N.am  1 <1>  -0.6600 
  4 C       -2.0040     2.2150     0.2260 C.2   1 <1>  -0.0860 
  5 C       -3.0150    -0.8280    -1.8610 C.3   1 <1>   0.1400 
  6 C       -3.6460    -0.2440     0.4200 C.3   1 <1>   0.1400 
  7 C       -3.0040     3.0430     0.7490 C.2   1 <1>   0.3720 
  8 C       -0.9270     2.4650     1.0180 C.2   1 <1>   0.0870 
  9 C       -3.4800    -2.0830    -1.1190 C.3   1 <1>  -0.0800 
 10 C       -4.3930    -1.4980    -0.0310 C.3   1 <1>  -0.0800 
 11 N       -2.5660     3.6990     1.7660 N.2   1 <1>  -0.4100 
 12 N       -4.3160     3.1450     0.2550 N.pl3 1 <1>  -0.8210 
 13 O       -1.3160     3.3450     1.9060 O.3   1 <1>  -0.0190 
 14 C        0.4240     1.9580     1.0430 C.ar  1 <1>   0.0530 
 15 C       -2.2540    -2.8380    -0.5540 C.3   1 <1>  -0.0220 
 16 C       -4.7740    -2.4680     1.1020 C.3   1 <1>  -0.0220 
 17 C       -4.4640     3.3940    -1.2050 C.3   1 <1>   0.2090 
 18 C       -5.2690     4.0150     0.9940 C.3   1 <1>   0.2090 
 19 C        0.7810     0.7480     0.4430 C.ar  1 <1>  -0.1500 
 20 C        1.4400     2.6700     1.6840 C.ar  1 <1>  -0.1500 
 21 C       -2.5690    -3.6210     0.7060 C.2   1 <1>  -0.2880 
 22 C       -3.6750    -3.4580     1.4330 C.2   1 <1>  -0.2880 
 23 C       -5.5130     4.4920    -1.3410 C.3   1 <1>  -0.1600 
 24 C       -6.3020     4.4330    -0.0400 C.3   1 <1>  -0.1600 
 25 C        2.0790     0.2730     0.4750 C.ar  1 <1>  -0.1500 
 26 C        2.7400     2.2020     1.7230 C.ar  1 <1>  -0.1500 
 27 C        3.0740     1.0020     1.1200 C.ar  1 <1>   0.0830 
 28 O        4.3670     0.6120     1.1990 O.3   1 <1>  -0.3630 
 29 C        4.8170    -0.5810     0.5950 C.3   1 <1>   0.0400 
 30 H       -3.7520    -0.5190    -2.5820 H     1 <1>   0.0800 
 31 H       -2.0680    -0.9680    -2.3560 H     1 <1>   0.0800 
 32 H       -2.9340    -0.4810     1.1930 H     1 <1>   0.0800 
 33 H       -4.3270     0.5140     0.7690 H     1 <1>   0.0800 
 34 H       -4.0350    -2.7380    -1.7670 H     1 <1>   0.0800 
 35 H       -5.3050    -1.1620    -0.4930 H     1 <1>   0.0800 
 36 H       -1.8830    -3.5090    -1.3090 H     1 <1>   0.0800 
 37 H       -1.4620    -2.1480    -0.3150 H     1 <1>   0.0800 
 38 H       -5.0370    -1.9080     1.9820 H     1 <1>   0.0800 
 39 H       -5.6420    -3.0290     0.8020 H     1 <1>   0.0800 
 40 H       -3.5310     3.6990    -1.6510 H     1 <1>   0.0800 
 41 H       -4.8060     2.4900    -1.6780 H     1 <1>   0.0800 
 42 H       -5.7180     3.4780     1.8120 H     1 <1>   0.0800 
 43 H       -4.7610     4.8870     1.3710 H     1 <1>   0.0800 
 44 H        0.0350     0.1600    -0.0580 H     1 <1>   0.1500 
 45 H        1.2100     3.6070     2.1600 H     1 <1>   0.1500 
 46 H       -1.7980    -4.3270     0.9690 H     1 <1>   0.1500 
 47 H       -3.8770    -4.0330     2.3220 H     1 <1>   0.1500 
 48 H       -5.0120     5.4410    -1.4220 H     1 <1>   0.0800 
 49 H       -6.1330     4.3460    -2.2070 H     1 <1>   0.0800 
 50 H       -7.0610     3.6730    -0.1030 H     1 <1>   0.0800 
 51 H       -6.7600     5.3730     0.2090 H     1 <1>   0.0800 
 52 H        2.2990    -0.6610    -0.0040 H     1 <1>   0.1500 
 53 H        3.5080     2.7650     2.2220 H     1 <1>   0.1500 
 54 H        5.8720    -0.6710     0.7810 H     1 <1>   0.0800 
 55 H        4.6360    -0.5250    -0.4640 H     1 <1>   0.0800 
 56 H        4.2960    -1.4120     1.0340 H     1 <1>   0.0800 
@<TRIPOS>BOND
  1   1   2  2   
  2   2   3  am  
  3   2   4  1   
  4   3   5  1   
  5   3   6  1   
  6   4   7  1   
  7   4   8  2   
  8   5   9  1   
  9   5  30  1   
 10   5  31  1   
 11   6  10  1   
 12   6  32  1   
 13   6  33  1   
 14   7  11  2   
 15   7  12  1   
 16   8  13  1   
 17   8  14  1   
 18   9  10  1   
 19   9  15  1   
 20   9  34  1   
 21  10  16  1   
 22  10  35  1   
 23  11  13  1   
 24  12  17  1   
 25  12  18  1   
 26  14  19  ar  
 27  14  20  ar  
 28  15  21  1   
 29  15  36  1   
 30  15  37  1   
 31  16  22  1   
 32  16  38  1   
 33  16  39  1   
 34  17  23  1   
 35  17  40  1   
 36  17  41  1   
 37  18  24  1   
 38  18  42  1   
 39  18  43  1   
 40  19  25  ar  
 41  19  44  1   
 42  20  26  ar  
 43  20  45  1   
 44  21  22  2   
 45  21  46  1   
 46  22  47  1   
 47  23  24  1   
 48  23  48  1   
 49  23  49  1   
 50  24  50  1   
 51  24  51  1   
 52  25  27  ar  
 53  25  52  1   
 54  26  27  ar  
 55  26  53  1   
 56  27  28  1   
 57  28  29  1   
 58  29  54  1   
 59  29  55  1   
 60  29  56  1   
@<TRIPOS>SUBSTRUCTURE
  1 ****   4 GROUP 4 **** **** 0

# MOE 2024.06 (io_trps.svl 2023.06)
