@<TRIPOS>MOLECULE
NONAME
61 64 1 0 0 
SMALL
USER_CHARGES


@<TRIPOS>ATOM
  1 O        1.7900    -3.6420    -3.5690 O.2   1 <1>  -0.5700 
  2 C        1.6260    -3.3140    -2.4100 C.2   1 <1>   0.5440 
  3 N        2.7840    -3.1430    -1.7020 N.am  1 <1>  -0.7300 
  4 C        0.2690    -3.1430    -1.8870 C.ar  1 <1>   0.3960 
  5 C        3.1020    -2.9720    -0.2640 C.3   1 <1>   0.3000 
  6 N       -0.0400    -2.0650    -1.1470 N.ar  1 <1>  -0.6200 
  7 C       -0.6880    -4.1140    -2.1840 C.ar  1 <1>  -0.1500 
  8 C        2.9850    -1.4830     0.1530 C.3   1 <1>   0.2000 
  9 C        4.5750    -3.3940    -0.0950 C.3   1 <1>  -0.1600 
 10 C        2.2190    -3.9110     0.5750 C.3   1 <1>  -0.2400 
 11 C       -1.2750    -1.9670    -0.6980 C.ar  1 <1>   0.1670 
 12 C       -1.9780    -4.0060    -1.7150 C.ar  1 <1>  -0.1500 
 13 O        3.2870    -1.3240     1.5100 O.3   1 <1>  -0.6800 
 14 C        3.9500    -0.6020    -0.6660 C.3   1 <1>   0.1200 
 15 C        5.6140    -2.3840    -0.6630 C.3   1 <1>   0.2800 
 16 C       -2.2680    -2.9000    -0.9490 C.ar  1 <1>  -0.1500 
 17 C       -1.5760    -0.7430     0.1410 C.3   1 <1>  -0.0970 
 18 O        4.9680    -1.3320    -1.3160 O.3   1 <1>  -0.5600 
 19 C        6.4770    -3.0440    -1.7500 C.3   1 <1>  -0.1600 
 20 C        6.5410    -1.7770     0.4100 C.3   1 <1>  -0.1600 
 21 C        7.4740    -4.0570    -1.1800 C.3   1 <1>   0.1400 
 22 C        7.5370    -2.7990     0.9670 C.3   1 <1>   0.1400 
 23 N        8.3220    -3.3910    -0.1510 N.am  1 <1>  -0.6600 
 24 C        9.6920    -3.3430    -0.2950 C.2   1 <1>   0.5690 
 25 O       10.2390    -3.9160    -1.2080 O.2   1 <1>  -0.5700 
 26 C       10.5650    -2.5570     0.6890 C.3   1 <1>  -0.0190 
 27 C       10.4330    -1.0260     0.5290 C.3   1 <1>  -0.0220 
 28 C       12.0840    -2.8560     0.6450 C.3   1 <1>  -0.0220 
 29 C       11.8070    -0.5300     0.9020 C.2   1 <1>  -0.2880 
 30 C       12.6940    -1.5140     0.9680 C.2   1 <1>  -0.2880 
 31 H        3.6010    -2.9750    -2.2950 H     1 <1>   0.3700 
 32 H       -0.4040    -4.9530    -2.7930 H     1 <1>   0.1500 
 33 H        1.9790    -1.1300     0.0280 H     1 <1>   0.0800 
 34 H        4.7030    -4.3650    -0.5380 H     1 <1>   0.0800 
 35 H        4.7730    -3.5340     0.9510 H     1 <1>   0.0800 
 36 H        2.5640    -3.9400     1.5920 H     1 <1>   0.0800 
 37 H        2.2460    -4.9100     0.1800 H     1 <1>   0.0800 
 38 H        1.2040    -3.5660     0.6050 H     1 <1>   0.0800 
 39 H       -2.7240    -4.7500    -1.9370 H     1 <1>   0.1500 
 40 H        4.2050    -1.5990     1.6790 H     1 <1>   0.4000 
 41 H        4.4030     0.1570    -0.0540 H     1 <1>   0.0800 
 42 H        3.3910    -0.1150    -1.4450 H     1 <1>   0.0800 
 43 H       -3.2590    -2.7630    -0.5550 H     1 <1>   0.1500 
 44 H       -2.5980    -0.7370     0.4690 H     1 <1>   0.0800 
 45 H       -1.3910     0.1430    -0.4380 H     1 <1>   0.0800 
 46 H       -0.9340    -0.7320     1.0030 H     1 <1>   0.0800 
 47 H        5.8480    -3.5350    -2.4710 H     1 <1>   0.0800 
 48 H        7.0370    -2.2870    -2.2700 H     1 <1>   0.0800 
 49 H        7.1020    -0.9720    -0.0300 H     1 <1>   0.0800 
 50 H        5.9710    -1.3720     1.2230 H     1 <1>   0.0800 
 51 H        8.0770    -4.4450    -1.9840 H     1 <1>   0.0800 
 52 H        6.9590    -4.8870    -0.7300 H     1 <1>   0.0800 
 53 H        7.0160    -3.5900     1.4790 H     1 <1>   0.0800 
 54 H        8.1720    -2.3160     1.6850 H     1 <1>   0.0800 
 55 H       10.2560    -2.8100     1.6850 H     1 <1>   0.0800 
 56 H       10.2150    -0.7580    -0.4910 H     1 <1>   0.0800 
 57 H        9.6810    -0.6240     1.1830 H     1 <1>   0.0800 
 58 H       12.3520    -3.6030     1.3710 H     1 <1>   0.0800 
 59 H       12.4170    -3.1650    -0.3310 H     1 <1>   0.0800 
 60 H       11.9550     0.5250     1.0610 H     1 <1>   0.1500 
 61 H       13.7460    -1.4630     1.1960 H     1 <1>   0.1500 
@<TRIPOS>BOND
  1   1   2  2   
  2   2   3  am  
  3   2   4  1   
  4   3   5  1   
  5   3  31  1   
  6   4   6  ar  
  7   4   7  ar  
  8   5   8  1   
  9   5   9  1   
 10   5  10  1   
 11   6  11  ar  
 12   7  12  ar  
 13   7  32  1   
 14   8  13  1   
 15   8  14  1   
 16   8  33  1   
 17   9  15  1   
 18   9  34  1   
 19   9  35  1   
 20  10  36  1   
 21  10  37  1   
 22  10  38  1   
 23  11  16  ar  
 24  11  17  1   
 25  12  16  ar  
 26  12  39  1   
 27  13  40  1   
 28  14  18  1   
 29  14  41  1   
 30  14  42  1   
 31  15  18  1   
 32  15  19  1   
 33  15  20  1   
 34  16  43  1   
 35  17  44  1   
 36  17  45  1   
 37  17  46  1   
 38  19  21  1   
 39  19  47  1   
 40  19  48  1   
 41  20  22  1   
 42  20  49  1   
 43  20  50  1   
 44  21  23  1   
 45  21  51  1   
 46  21  52  1   
 47  22  23  1   
 48  22  53  1   
 49  22  54  1   
 50  23  24  am  
 51  24  25  2   
 52  24  26  1   
 53  26  27  1   
 54  26  28  1   
 55  26  55  1   
 56  27  29  1   
 57  27  56  1   
 58  27  57  1   
 59  28  30  1   
 60  28  58  1   
 61  28  59  1   
 62  29  30  2   
 63  29  60  1   
 64  30  61  1   
@<TRIPOS>SUBSTRUCTURE
  1 ****  15 GROUP 4 **** **** 0

# MOE 2024.06 (io_trps.svl 2023.06)
