@<TRIPOS>MOLECULE
NONAME
45 47 1 0 0 
SMALL
USER_CHARGES


@<TRIPOS>ATOM
  1 O       -1.4330    -2.0170     1.4300 O.co2 1 <1>  -0.9000 
  2 C       -1.5280    -1.6620     0.2530 C.2   1 <1>   0.9060 
  3 O       -0.7910    -0.8230    -0.2740 O.co2 1 <1>  -0.9000 
  4 C       -2.7160    -2.1840    -0.5630 C.3   1 <1>   0.2370 
  5 N       -3.9520    -1.3020    -0.5130 N.4   1 <1>  -0.9590 
  6 C       -4.4740    -1.2410     0.8860 C.3   1 <1>   0.3430 
  7 C       -3.6240     0.0630    -1.0130 C.3   1 <1>   0.3430 
  8 C       -5.9420    -0.7470     0.8940 C.3   1 <1>   0.1900 
  9 C       -4.8560     0.9800    -1.1640 C.3   1 <1>  -0.0800 
 10 N       -6.5500    -0.8220    -0.4850 N.3   1 <1>  -0.8100 
 11 C       -6.0510     0.6420     1.5490 C.3   1 <1>   0.1200 
 12 C       -4.9520     2.0240    -0.0380 C.3   1 <1>   0.1200 
 13 C       -6.2120     0.2840    -1.4100 C.3   1 <1>   0.1100 
 14 C       -8.0060    -1.0930    -0.4850 C.3   1 <1>   0.2900 
 15 O       -4.9560     1.4440     1.2230 O.3   1 <1>  -0.5600 
 16 C       -8.3230    -2.4670     0.0750 C.2   1 <1>  -0.0400 
 17 O       -8.5520    -2.6170     1.3530 O.3   1 <1>  -0.0190 
 18 C       -8.4430    -3.6700    -0.5070 C.2   1 <1>  -0.1500 
 19 N       -8.8070    -3.8550     1.6590 N.2   1 <1>  -0.4100 
 20 C       -8.7530    -4.5140     0.5560 C.2   1 <1>   0.1080 
 21 C       -8.9950    -6.0080     0.4430 C.3   1 <1>   0.0210 
 22 C      -10.3700    -6.3040    -0.1640 C.3   1 <1>  -0.2400 
 23 H       -2.9510    -3.1620    -0.1860 H     1 <1>   0.0800 
 24 H       -2.3800    -2.2820    -1.5780 H     1 <1>   0.0800 
 25 H       -4.7480    -1.6650    -1.0590 H     1 <1>   0.4500 
 26 H       -4.4430    -2.2260     1.3210 H     1 <1>   0.0800 
 27 H       -3.8500    -0.6050     1.4950 H     1 <1>   0.0800 
 28 H       -2.9050     0.5260    -0.3530 H     1 <1>   0.0800 
 29 H       -3.1490    -0.0350    -1.9750 H     1 <1>   0.0800 
 30 H       -6.4670    -1.4210     1.5440 H     1 <1>   0.0800 
 31 H       -4.6690     1.5660    -2.0450 H     1 <1>   0.0800 
 32 H       -6.0260     0.5230     2.6180 H     1 <1>   0.0800 
 33 H       -6.9660     1.1440     1.2880 H     1 <1>   0.0800 
 34 H       -5.8340     2.6340    -0.1380 H     1 <1>   0.0800 
 35 H       -4.0930     2.6730    -0.0740 H     1 <1>   0.0800 
 36 H       -6.2170    -0.1130    -2.4120 H     1 <1>   0.0800 
 37 H       -6.9860     1.0330    -1.3660 H     1 <1>   0.0800 
 38 H       -8.5310    -0.3390     0.0770 H     1 <1>   0.0800 
 39 H       -8.3660    -1.0640    -1.4990 H     1 <1>   0.0800 
 40 H       -8.3350    -3.9530    -1.5370 H     1 <1>   0.1500 
 41 H       -8.2250    -6.4470    -0.1650 H     1 <1>   0.0800 
 42 H       -8.9350    -6.4480     1.4240 H     1 <1>   0.0800 
 43 H      -10.4400    -5.8930    -1.1550 H     1 <1>   0.0800 
 44 H      -11.1420    -5.8670     0.4460 H     1 <1>   0.0800 
 45 H      -10.5310    -7.3660    -0.2170 H     1 <1>   0.0800 
@<TRIPOS>BOND
  1   1   2  ar  
  2   2   3  ar  
  3   2   4  1   
  4   4   5  1   
  5   4  23  1   
  6   4  24  1   
  7   5   6  1   
  8   5   7  1   
  9   5  25  1   
 10   6   8  1   
 11   6  26  1   
 12   6  27  1   
 13   7   9  1   
 14   7  28  1   
 15   7  29  1   
 16   8  10  1   
 17   8  11  1   
 18   8  30  1   
 19   9  12  1   
 20   9  13  1   
 21   9  31  1   
 22  10  13  1   
 23  10  14  1   
 24  11  15  1   
 25  11  32  1   
 26  11  33  1   
 27  12  15  1   
 28  12  34  1   
 29  12  35  1   
 30  13  36  1   
 31  13  37  1   
 32  14  16  1   
 33  14  38  1   
 34  14  39  1   
 35  16  17  1   
 36  16  18  2   
 37  17  19  1   
 38  18  20  1   
 39  18  40  1   
 40  19  20  2   
 41  20  21  1   
 42  21  22  1   
 43  21  41  1   
 44  21  42  1   
 45  22  43  1   
 46  22  44  1   
 47  22  45  1   
@<TRIPOS>SUBSTRUCTURE
  1 ****   8 GROUP 4 **** **** 0

# MOE 2024.06 (io_trps.svl 2023.06)
