@<TRIPOS>MOLECULE
NONAME
43 46 1 0 0 
SMALL
USER_CHARGES


@<TRIPOS>ATOM
  1 O        0.6060    -0.1620     1.7950 O.3   1 <1>  -0.0190 
  2 N        1.0110     0.9760     1.3200 N.2   1 <1>  -0.4100 
  3 C        0.9640    -1.0300     0.8800 C.2   1 <1>   0.2980 
  4 C        1.5630     0.7400     0.1970 C.2   1 <1>   0.4300 
  5 N        1.5600    -0.5430    -0.1360 N.2   1 <1>  -0.5650 
  6 C        0.6490    -2.5050     1.1060 C.3   1 <1>   0.2900 
  7 C        2.1830     1.7830    -0.7200 C.3   1 <1>  -0.0140 
  8 N       -0.8020    -2.8020     1.0850 N.3   1 <1>  -0.8100 
  9 C        3.6710     1.9620    -0.7670 C.3   1 <1>  -0.2000 
 10 C        2.8060     3.0360    -0.1800 C.3   1 <1>  -0.2000 
 11 C       -1.4560    -2.3870    -0.1680 C.3   1 <1>   0.1100 
 12 C       -1.0960    -4.2360     1.2770 C.3   1 <1>   0.1100 
 13 C       -2.6730    -3.2960    -0.2900 C.3   1 <1>   0.2000 
 14 C       -2.1480    -4.6310     0.2270 C.3   1 <1>  -0.0800 
 15 O       -3.6280    -2.8350     0.5950 O.3   1 <1>  -0.6800 
 16 C       -1.5400    -5.4670    -0.9170 C.3   1 <1>   0.0210 
 17 C       -0.8940    -6.7470    -0.4190 C.2   1 <1>   0.1080 
 18 N       -1.5040    -7.6000     0.3440 N.2   1 <1>  -0.7070 
 19 C        0.4060    -7.1440    -0.7130 C.2   1 <1>  -0.1500 
 20 N       -0.6030    -8.5770     0.5550 N.pl3 1 <1>   0.3000 
 21 C        0.5650    -8.3220    -0.0730 C.2   1 <1>  -0.3320 
 22 C        1.7750    -9.2360    -0.0240 C.3   1 <1>  -0.0600 
 23 H        1.0520    -2.7960     2.0600 H     1 <1>   0.0800 
 24 H        1.1450    -3.0800     0.3440 H     1 <1>   0.0800 
 25 H        1.6480     1.8580    -1.6490 H     1 <1>   0.1000 
 26 H        4.2790     1.3680    -0.1050 H     1 <1>   0.1000 
 27 H        4.1380     2.1270    -1.7220 H     1 <1>   0.1000 
 28 H        2.6690     3.9530    -0.7260 H     1 <1>   0.1000 
 29 H        2.8170     3.1880     0.8860 H     1 <1>   0.1000 
 30 H       -1.7350    -1.3460    -0.1420 H     1 <1>   0.0800 
 31 H       -0.7980    -2.5540    -1.0050 H     1 <1>   0.0800 
 32 H       -0.2070    -4.8390     1.1930 H     1 <1>   0.0800 
 33 H       -1.5020    -4.3760     2.2650 H     1 <1>   0.0800 
 34 H       -3.1010    -3.3340    -1.2770 H     1 <1>   0.0800 
 35 H       -2.9360    -5.2090     0.6800 H     1 <1>   0.0800 
 36 H       -3.1570    -2.6220     1.4290 H     1 <1>   0.4000 
 37 H       -0.8040    -4.8920    -1.4490 H     1 <1>   0.0800 
 38 H       -2.3170    -5.7350    -1.6100 H     1 <1>   0.0800 
 39 H        1.1120    -6.6110    -1.3240 H     1 <1>   0.1500 
 40 H       -0.8170    -9.4020     1.1270 H     1 <1>   0.2700 
 41 H        2.5790    -8.8160    -0.6030 H     1 <1>   0.0800 
 42 H        1.5290   -10.2010    -0.4310 H     1 <1>   0.0800 
 43 H        2.1100    -9.3580     0.9900 H     1 <1>   0.0800 
@<TRIPOS>BOND
  1   1   2  1   
  2   1   3  1   
  3   2   4  2   
  4   3   5  2   
  5   3   6  1   
  6   4   5  1   
  7   4   7  1   
  8   6   8  1   
  9   6  23  1   
 10   6  24  1   
 11   7   9  1   
 12   7  10  1   
 13   7  25  1   
 14   8  11  1   
 15   8  12  1   
 16   9  10  1   
 17   9  26  1   
 18   9  27  1   
 19  10  28  1   
 20  10  29  1   
 21  11  13  1   
 22  11  30  1   
 23  11  31  1   
 24  12  14  1   
 25  12  32  1   
 26  12  33  1   
 27  13  14  1   
 28  13  15  1   
 29  13  34  1   
 30  14  16  1   
 31  14  35  1   
 32  15  36  1   
 33  16  17  1   
 34  16  37  1   
 35  16  38  1   
 36  17  18  2   
 37  17  19  1   
 38  18  20  1   
 39  19  21  2   
 40  19  39  1   
 41  20  21  1   
 42  20  40  1   
 43  21  22  1   
 44  22  41  1   
 45  22  42  1   
 46  22  43  1   
@<TRIPOS>SUBSTRUCTURE
  1 ****   6 GROUP 4 **** **** 0

# MOE 2024.06 (io_trps.svl 2023.06)
