@<TRIPOS>MOLECULE
NONAME
49 52 1 0 0 
SMALL
USER_CHARGES


@<TRIPOS>ATOM
  1 S        1.3980     1.9360     1.4230 S.3   1 <1>  -0.2820 
  2 C        2.1670     1.9970    -0.1390 C.2   1 <1>   0.6510 
  3 C        1.0660     0.2210     1.1900 C.2   1 <1>   0.5300 
  4 N        2.6900     3.0760    -0.6320 N.2   1 <1>  -0.6210 
  5 N        2.1140     0.7470    -0.6940 N.am  1 <1>  -0.0580 
  6 N        1.4850    -0.2380     0.0840 N.2   1 <1>  -0.5120 
  7 C        0.3340    -0.4760     2.3260 C.3   1 <1>  -0.0990 
  8 C        3.2500     2.9440    -1.8750 C.2   1 <1>   0.0330 
  9 C        2.6930     0.5920    -1.9440 C.2   1 <1>   0.6160 
 10 C        0.0760    -1.9700     2.0680 C.3   1 <1>  -0.2400 
 11 C        3.2660     1.7520    -2.5280 C.2   1 <1>  -0.1360 
 12 C        3.8520     4.2170    -2.4730 C.3   1 <1>   0.4810 
 13 O        2.7260    -0.4810    -2.5260 O.2   1 <1>  -0.5700 
 14 N        4.5940     4.9350    -1.4020 N.4   1 <1>  -0.9590 
 15 C        4.7560     6.3880    -1.7180 C.3   1 <1>   0.3430 
 16 C        5.8840     4.2700    -1.0660 C.3   1 <1>   0.3430 
 17 C        5.4100     7.1460    -0.5540 C.3   1 <1>  -0.0190 
 18 C        6.5290     4.9760     0.1270 C.3   1 <1>  -0.1600 
 19 C        5.6380     8.6000    -0.9700 C.2   1 <1>   0.4230 
 20 C        6.7330     6.4750    -0.1380 C.3   1 <1>  -0.1600 
 21 O        5.7510     8.8050    -2.1550 O.2   1 <1>  -0.5700 
 22 C        5.7100     9.6430     0.0430 C.ar  1 <1>   0.3960 
 23 N        5.5370     9.3130     1.3330 N.ar  1 <1>  -0.6200 
 24 C        5.9550    10.9640    -0.3400 C.ar  1 <1>  -0.1500 
 25 C        5.6080    10.2890     2.2200 C.ar  1 <1>   0.1600 
 26 C        6.0270    11.9740     0.5930 C.ar  1 <1>  -0.1500 
 27 C        5.8470    11.6160     1.9100 C.ar  1 <1>  -0.1500 
 28 H       -0.6060     0.0220     2.4820 H     1 <1>   0.0800 
 29 H        0.9180    -0.3700     3.2230 H     1 <1>   0.0800 
 30 H       -0.5240    -2.0990     1.1840 H     1 <1>   0.0800 
 31 H       -0.4420    -2.4080     2.9030 H     1 <1>   0.0800 
 32 H        1.0070    -2.4930     1.9280 H     1 <1>   0.0800 
 33 H        3.6990     1.6150    -3.5030 H     1 <1>   0.1500 
 34 H        3.0450     4.8370    -2.8290 H     1 <1>   0.0800 
 35 H        4.5010     3.9850    -3.3010 H     1 <1>   0.0800 
 36 H        3.9800     4.8320    -0.5760 H     1 <1>   0.4500 
 37 H        3.7970     6.8320    -1.9300 H     1 <1>   0.0800 
 38 H        5.3740     6.5000    -2.5950 H     1 <1>   0.0800 
 39 H        6.5510     4.3150    -1.9120 H     1 <1>   0.0800 
 40 H        5.7130     3.2340    -0.8190 H     1 <1>   0.0800 
 41 H        4.7220     7.1240     0.2720 H     1 <1>   0.0800 
 42 H        7.4820     4.5190     0.3310 H     1 <1>   0.0800 
 43 H        5.9140     4.8360     1.0000 H     1 <1>   0.0800 
 44 H        7.1180     6.9490     0.7500 H     1 <1>   0.0800 
 45 H        7.4630     6.6040    -0.9200 H     1 <1>   0.0800 
 46 H        6.0900    11.1950    -1.3830 H     1 <1>   0.1500 
 47 H        5.4700    10.0230     3.2550 H     1 <1>   0.1500 
 48 H        6.2160    12.9950     0.3070 H     1 <1>   0.1500 
 49 H        5.8910    12.3550     2.6900 H     1 <1>   0.1500 
@<TRIPOS>BOND
  1   1   2  1   
  2   1   3  1   
  3   2   4  2   
  4   2   5  1   
  5   3   6  2   
  6   3   7  1   
  7   4   8  1   
  8   5   6  1   
  9   5   9  am  
 10   7  10  1   
 11   7  28  1   
 12   7  29  1   
 13   8  11  2   
 14   8  12  1   
 15   9  11  1   
 16   9  13  2   
 17  10  30  1   
 18  10  31  1   
 19  10  32  1   
 20  11  33  1   
 21  12  14  1   
 22  12  34  1   
 23  12  35  1   
 24  14  15  1   
 25  14  16  1   
 26  14  36  1   
 27  15  17  1   
 28  15  37  1   
 29  15  38  1   
 30  16  18  1   
 31  16  39  1   
 32  16  40  1   
 33  17  19  1   
 34  17  20  1   
 35  17  41  1   
 36  18  20  1   
 37  18  42  1   
 38  18  43  1   
 39  19  21  2   
 40  19  22  1   
 41  20  44  1   
 42  20  45  1   
 43  22  23  ar  
 44  22  24  ar  
 45  23  25  ar  
 46  24  26  ar  
 47  24  46  1   
 48  25  27  ar  
 49  25  47  1   
 50  26  27  ar  
 51  26  48  1   
 52  27  49  1   
@<TRIPOS>SUBSTRUCTURE
  1 ****  14 GROUP 4 **** **** 0

# MOE 2024.06 (io_trps.svl 2023.06)
