@<TRIPOS>MOLECULE
NONAME
51 54 1 0 0 
SMALL
USER_CHARGES


@<TRIPOS>ATOM
  1 O        1.0010    -0.7100     1.7620 O.3   1 <1>  -0.0190 
  2 N        1.0990     0.5860     1.8440 N.2   1 <1>  -0.4100 
  3 C        1.4540    -1.1600     0.6230 C.2   1 <1>  -0.0400 
  4 C        1.6240     0.9790     0.7360 C.2   1 <1>   0.1080 
  5 C        1.8780    -0.1100    -0.0960 C.2   1 <1>  -0.1500 
  6 C        1.4360    -2.6500     0.3280 C.3   1 <1>   0.2900 
  7 C        1.9260     2.4300     0.3760 C.3   1 <1>   0.1010 
  8 N        0.0600    -3.1650     0.2390 N.3   1 <1>  -0.8100 
  9 C        2.9250     3.0410     1.3670 C.3   1 <1>  -0.2400 
 10 C        0.6370     3.2600     0.3360 C.3   1 <1>  -0.2400 
 11 C       -0.7660    -2.5050    -0.7800 C.3   1 <1>   0.1100 
 12 C       -0.0170    -4.6090    -0.0260 C.3   1 <1>   0.1100 
 13 C       -1.9400    -3.4580    -0.9600 C.3   1 <1>   0.2000 
 14 C       -1.2540    -4.8280    -0.9170 C.3   1 <1>  -0.0800 
 15 O       -2.7550    -3.3060     0.1470 O.3   1 <1>  -0.6800 
 16 C       -2.1570    -5.9910    -0.4520 C.3   1 <1>  -0.0170 
 17 C       -1.5510    -7.4000    -0.5160 C.ar  1 <1>  -0.1430 
 18 C       -2.2200    -8.4810     0.1100 C.ar  1 <1>   0.0000 
 19 C       -0.3820    -7.6890    -1.1640 C.ar  1 <1>  -0.1500 
 20 C       -1.6190    -9.7630     0.0470 C.ar  1 <1>   0.3100 
 21 C       -3.4550    -8.3690     0.7920 C.ar  1 <1>  -0.1500 
 22 C        0.1220    -8.9950    -1.1730 C.ar  1 <1>   0.1600 
 23 N       -0.4490   -10.0020    -0.5960 N.ar  1 <1>  -0.6200 
 24 C       -2.2550   -10.8470     0.6710 C.ar  1 <1>  -0.1500 
 25 C       -4.0510    -9.4470     1.3880 C.ar  1 <1>  -0.1500 
 26 C       -3.4450   -10.7040     1.3310 C.ar  1 <1>  -0.1500 
 27 H        2.3130    -0.0760    -1.0770 H     1 <1>   0.1500 
 28 H        1.9560    -3.1650     1.1170 H     1 <1>   0.0800 
 29 H        1.9530    -2.8350    -0.5980 H     1 <1>   0.0800 
 30 H        2.3700     2.4500    -0.6040 H     1 <1>   0.0800 
 31 H        2.5080     3.0460     2.3590 H     1 <1>   0.0800 
 32 H        3.1670     4.0500     1.0860 H     1 <1>   0.0800 
 33 H        3.8290     2.4600     1.3830 H     1 <1>   0.0800 
 34 H        0.1710     3.2690     1.3060 H     1 <1>   0.0800 
 35 H       -0.0530     2.8320    -0.3680 H     1 <1>   0.0800 
 36 H        0.8480     4.2720     0.0420 H     1 <1>   0.0800 
 37 H       -1.0880    -1.5270    -0.4600 H     1 <1>   0.0800 
 38 H       -0.2210    -2.4210    -1.7040 H     1 <1>   0.0800 
 39 H        0.8670    -4.9570    -0.5320 H     1 <1>   0.0800 
 40 H       -0.1130    -5.1340     0.9100 H     1 <1>   0.0800 
 41 H       -2.5170    -3.2820    -1.8510 H     1 <1>   0.0800 
 42 H       -0.9160    -5.0320    -1.9170 H     1 <1>   0.0800 
 43 H       -2.1520    -3.1880     0.9140 H     1 <1>   0.4000 
 44 H       -3.0570    -5.9830    -1.0420 H     1 <1>   0.0800 
 45 H       -2.4380    -5.7970     0.5680 H     1 <1>   0.0800 
 46 H        0.1930    -6.9500    -1.6860 H     1 <1>   0.1500 
 47 H       -3.9480    -7.4160     0.8460 H     1 <1>   0.1500 
 48 H        1.0470    -9.1730    -1.6940 H     1 <1>   0.1500 
 49 H       -1.7700   -11.8040     0.6110 H     1 <1>   0.1500 
 50 H       -4.9900    -9.3430     1.9040 H     1 <1>   0.1500 
 51 H       -3.9220   -11.5450     1.8040 H     1 <1>   0.1500 
@<TRIPOS>BOND
  1   1   2  1   
  2   1   3  1   
  3   2   4  2   
  4   3   5  2   
  5   3   6  1   
  6   4   5  1   
  7   4   7  1   
  8   5  27  1   
  9   6   8  1   
 10   6  28  1   
 11   6  29  1   
 12   7   9  1   
 13   7  10  1   
 14   7  30  1   
 15   8  11  1   
 16   8  12  1   
 17   9  31  1   
 18   9  32  1   
 19   9  33  1   
 20  10  34  1   
 21  10  35  1   
 22  10  36  1   
 23  11  13  1   
 24  11  37  1   
 25  11  38  1   
 26  12  14  1   
 27  12  39  1   
 28  12  40  1   
 29  13  14  1   
 30  13  15  1   
 31  13  41  1   
 32  14  16  1   
 33  14  42  1   
 34  15  43  1   
 35  16  17  1   
 36  16  44  1   
 37  16  45  1   
 38  17  18  ar  
 39  17  19  ar  
 40  18  20  ar  
 41  18  21  ar  
 42  19  22  ar  
 43  19  46  1   
 44  20  23  ar  
 45  20  24  ar  
 46  21  25  ar  
 47  21  47  1   
 48  22  23  ar  
 49  22  48  1   
 50  24  26  ar  
 51  24  49  1   
 52  25  26  ar  
 53  25  50  1   
 54  26  51  1   
@<TRIPOS>SUBSTRUCTURE
  1 ****  12 GROUP 4 **** **** 0

# MOE 2024.06 (io_trps.svl 2023.06)
