@<TRIPOS>MOLECULE
NONAME
41 43 1 0 0 
SMALL
USER_CHARGES


@<TRIPOS>ATOM
  1 S       -5.1180    -1.8180     3.0950 S.3   1 <1>  -0.4600 
  2 C       -4.3450    -0.5190     2.0770 C.3   1 <1>   0.2510 
  3 C       -5.0470    -3.1900     1.9040 C.3   1 <1>   0.2510 
  4 C       -4.0560    -1.2290     0.7750 C.2   1 <1>   0.1080 
  5 C       -4.4060    -2.5590     0.6900 C.2   1 <1>  -0.1810 
  6 N       -3.5160    -0.7760    -0.3100 N.2   1 <1>  -0.7070 
  7 C       -4.0440    -2.9530    -0.5520 C.2   1 <1>  -0.0880 
  8 N       -3.5020    -1.8450    -1.1470 N.pl3 1 <1>   0.3140 
  9 N       -4.2300    -4.2530    -1.0800 N.am  1 <1>  -0.4940 
 10 C       -3.0180    -1.6770    -2.5230 C.3   1 <1>   0.0160 
 11 C       -3.5720    -4.9760    -2.0390 C.2   1 <1>   0.5690 
 12 O       -2.6610    -4.5410    -2.7020 O.2   1 <1>  -0.5700 
 13 C       -4.0060    -6.4140    -2.2760 C.3   1 <1>   0.0440 
 14 C       -5.0200    -6.8940    -1.2410 C.ar  1 <1>  -0.1440 
 15 C       -4.5880    -7.3510    -0.0050 C.ar  1 <1>  -0.1500 
 16 C       -6.3800    -6.8480    -1.5130 C.ar  1 <1>  -0.1500 
 17 C       -5.5060    -7.7500     0.9490 C.ar  1 <1>  -0.1500 
 18 C       -7.3000    -7.2490    -0.5600 C.ar  1 <1>  -0.1500 
 19 C       -6.8640    -7.7010     0.6820 C.ar  1 <1>   0.0820 
 20 O       -7.6940    -8.1070     1.6740 O.3   1 <1>  -0.3630 
 21 C       -9.0860    -8.1920     1.4760 C.3   1 <1>   0.1200 
 22 C       -9.7120    -8.7350     2.7570 C.3   1 <1>  -0.2400 
 23 H       -3.4470    -0.1900     2.5650 H     1 <1>   0.0800 
 24 H       -5.0490     0.2830     1.9520 H     1 <1>   0.0800 
 25 H       -6.0520    -3.5230     1.7140 H     1 <1>   0.0800 
 26 H       -4.4420    -3.9720     2.3270 H     1 <1>   0.0800 
 27 H       -4.9280    -4.8130    -0.5820 H     1 <1>   0.3700 
 28 H       -3.0130    -0.6320    -2.7710 H     1 <1>   0.0800 
 29 H       -3.6680    -2.2030    -3.1960 H     1 <1>   0.0800 
 30 H       -2.0210    -2.0680    -2.5940 H     1 <1>   0.0800 
 31 H       -3.1340    -7.0410    -2.2460 H     1 <1>   0.0800 
 32 H       -4.4210    -6.4850    -3.2640 H     1 <1>   0.0800 
 33 H       -3.5360    -7.3970     0.2230 H     1 <1>   0.1500 
 34 H       -6.7320    -6.4990    -2.4690 H     1 <1>   0.1500 
 35 H       -5.1760    -8.1060     1.9090 H     1 <1>   0.1500 
 36 H       -8.3450    -7.2010    -0.8000 H     1 <1>   0.1500 
 37 H       -9.2740    -8.8560     0.6500 H     1 <1>   0.0800 
 38 H       -9.4610    -7.2070     1.2580 H     1 <1>   0.0800 
 39 H       -9.3180    -9.7120     2.9750 H     1 <1>   0.0800 
 40 H      -10.7770    -8.8130     2.6380 H     1 <1>   0.0800 
 41 H       -9.5060    -8.0730     3.5790 H     1 <1>   0.0800 
@<TRIPOS>BOND
  1   1   2  1   
  2   1   3  1   
  3   2   4  1   
  4   2  23  1   
  5   2  24  1   
  6   3   5  1   
  7   3  25  1   
  8   3  26  1   
  9   4   5  1   
 10   4   6  2   
 11   5   7  2   
 12   6   8  1   
 13   7   8  1   
 14   7   9  1   
 15   8  10  1   
 16   9  11  am  
 17   9  27  1   
 18  10  28  1   
 19  10  29  1   
 20  10  30  1   
 21  11  12  2   
 22  11  13  1   
 23  13  14  1   
 24  13  31  1   
 25  13  32  1   
 26  14  15  ar  
 27  14  16  ar  
 28  15  17  ar  
 29  15  33  1   
 30  16  18  ar  
 31  16  34  1   
 32  17  19  ar  
 33  17  35  1   
 34  18  19  ar  
 35  18  36  1   
 36  19  20  1   
 37  20  21  1   
 38  21  22  1   
 39  21  37  1   
 40  21  38  1   
 41  22  39  1   
 42  22  40  1   
 43  22  41  1   
@<TRIPOS>SUBSTRUCTURE
  1 ****   9 GROUP 4 **** **** 0

# MOE 2024.06 (io_trps.svl 2023.06)
