@<TRIPOS>MOLECULE
NONAME
50 53 1 0 0 
SMALL
USER_CHARGES


@<TRIPOS>ATOM
  1 O       -0.9580     3.2210    -2.2700 O.2   1 <1>  -0.5700 
  2 C       -0.8040     2.8760    -1.1200 C.2   1 <1>   0.5770 
  3 N       -1.8770     2.8530    -0.2550 N.am  1 <1>  -0.6600 
  4 C        0.6000     2.4120    -0.7150 C.3   1 <1>   0.0530 
  5 C       -3.1930     3.4230    -0.7160 C.3   1 <1>   0.1400 
  6 C       -1.8680     2.2500     1.1150 C.3   1 <1>   0.1400 
  7 C        1.1710     3.0670     0.5560 C.3   1 <1>   0.2580 
  8 C        1.7050     3.2520    -1.3860 C.3   1 <1>   0.2580 
  9 C        0.8450     0.8930    -0.8480 C.3   1 <1>  -0.2400 
 10 C       -4.0370     3.9690     0.4520 C.3   1 <1>   0.1440 
 11 C       -3.2580     1.7330     1.4960 C.3   1 <1>  -0.1600 
 12 O        1.6710     4.1140    -0.2560 O.3   1 <1>  -0.5160 
 13 C       -5.3050     4.5840    -0.1210 C.ar  1 <1>   0.1660 
 14 C       -4.3340     2.8380     1.4730 C.3   1 <1>  -0.1600 
 15 C       -3.3450     5.2020     1.1050 C.3   1 <1>  -0.1600 
 16 N       -6.3270     3.9150    -0.5970 N.ar  1 <1>  -0.6200 
 17 C       -5.2560     5.9450    -0.1070 C.ar  1 <1>  -0.1430 
 18 C       -3.9600     6.4580     0.4650 C.3   1 <1>  -0.0170 
 19 C       -7.3350     4.6600    -1.0560 C.ar  1 <1>   0.7200 
 20 C       -6.3370     6.6290    -0.6010 C.ar  1 <1>   0.1600 
 21 N       -7.3840     5.9970    -1.0750 N.ar  1 <1>  -0.6200 
 22 N       -8.4300     3.9850    -1.5600 N.pl3 1 <1>  -0.8380 
 23 C       -9.7250     4.6690    -1.8260 C.3   1 <1>   0.1290 
 24 C       -8.3770     2.5370    -1.9020 C.3   1 <1>   0.1290 
 25 H       -3.7480     2.6510    -1.2210 H     1 <1>   0.0800 
 26 H       -3.0210     4.2150    -1.4250 H     1 <1>   0.0800 
 27 H       -1.5690     2.9970     1.8290 H     1 <1>   0.0800 
 28 H       -1.1680     1.4370     1.1610 H     1 <1>   0.0800 
 29 H        1.9910     2.5360     1.0100 H     1 <1>   0.0000 
 30 H        0.4640     3.4650     1.2590 H     1 <1>   0.0000 
 31 H        1.4340     3.7930    -2.2750 H     1 <1>   0.0000 
 32 H        2.6670     2.7720    -1.4430 H     1 <1>   0.0000 
 33 H        0.1730     0.3390    -0.2190 H     1 <1>   0.0800 
 34 H        1.8550     0.6420    -0.5770 H     1 <1>   0.0800 
 35 H        0.6790     0.5910    -1.8670 H     1 <1>   0.0800 
 36 H       -3.2240     1.2860     2.4740 H     1 <1>   0.0800 
 37 H       -3.5290     0.9580     0.8000 H     1 <1>   0.0800 
 38 H       -5.2700     2.3670     1.2270 H     1 <1>   0.0800 
 39 H       -4.4550     3.2500     2.4580 H     1 <1>   0.0800 
 40 H       -2.2760     5.1940     0.9830 H     1 <1>   0.0800 
 41 H       -3.5610     5.2320     2.1580 H     1 <1>   0.0800 
 42 H       -3.3340     6.8230    -0.3310 H     1 <1>   0.0800 
 43 H       -4.1230     7.2350     1.1910 H     1 <1>   0.0800 
 44 H       -6.3430     7.7040    -0.6100 H     1 <1>   0.1500 
 45 H       -9.8600     5.4970    -1.1510 H     1 <1>   0.0800 
 46 H      -10.5420     3.9830    -1.6850 H     1 <1>   0.0800 
 47 H       -9.7360     5.0360    -2.8370 H     1 <1>   0.0800 
 48 H       -7.3760     2.2510    -2.1790 H     1 <1>   0.0800 
 49 H       -9.0290     2.3280    -2.7310 H     1 <1>   0.0800 
 50 H       -8.6830     1.9560    -1.0500 H     1 <1>   0.0800 
@<TRIPOS>BOND
  1   1   2  2   
  2   2   3  am  
  3   2   4  1   
  4   3   5  1   
  5   3   6  1   
  6   4   7  1   
  7   4   8  1   
  8   4   9  1   
  9   5  10  1   
 10   5  25  1   
 11   5  26  1   
 12   6  11  1   
 13   6  27  1   
 14   6  28  1   
 15   7  12  1   
 16   7  29  1   
 17   7  30  1   
 18   8  12  1   
 19   8  31  1   
 20   8  32  1   
 21   9  33  1   
 22   9  34  1   
 23   9  35  1   
 24  10  13  1   
 25  10  14  1   
 26  10  15  1   
 27  11  14  1   
 28  11  36  1   
 29  11  37  1   
 30  13  16  ar  
 31  13  17  ar  
 32  14  38  1   
 33  14  39  1   
 34  15  18  1   
 35  15  40  1   
 36  15  41  1   
 37  16  19  ar  
 38  17  18  1   
 39  17  20  ar  
 40  18  42  1   
 41  18  43  1   
 42  19  21  ar  
 43  19  22  1   
 44  20  21  ar  
 45  20  44  1   
 46  22  23  1   
 47  22  24  1   
 48  23  45  1   
 49  23  46  1   
 50  23  47  1   
 51  24  48  1   
 52  24  49  1   
 53  24  50  1   
@<TRIPOS>SUBSTRUCTURE
  1 ****   5 GROUP 4 **** **** 0

# MOE 2024.06 (io_trps.svl 2023.06)
