@<TRIPOS>MOLECULE
NONAME
49 51 1 0 0 
SMALL
USER_CHARGES


@<TRIPOS>ATOM
  1 O        0.0170     0.3630     0.2030 O.2   1 <1>  -0.5700 
  2 C        0.2760     1.4950    -0.1380 C.2   1 <1>   0.5690 
  3 N       -0.5920     2.5320     0.1210 N.am  1 <1>  -0.6600 
  4 C        1.5830     1.7110    -0.8960 C.3   1 <1>   0.0440 
  5 C       -1.7750     2.3200     1.0070 C.3   1 <1>   0.1400 
  6 C       -0.5420     3.8720    -0.5430 C.3   1 <1>   0.1400 
  7 C        2.8230     1.3610    -0.0700 C.ar  1 <1>  -0.1440 
  8 C       -3.0890     2.4270     0.2030 C.3   1 <1>   0.0000 
  9 C       -1.9010     4.5910    -0.5090 C.3   1 <1>  -0.1600 
 10 C        3.3780     2.2380     0.8590 C.ar  1 <1>  -0.1430 
 11 C        3.4090     0.1180    -0.2640 C.ar  1 <1>  -0.1500 
 12 C       -4.2810     2.5090     1.1730 C.3   1 <1>   0.2000 
 13 C       -3.0490     3.6170    -0.8090 C.3   1 <1>  -0.1600 
 14 C       -3.4100     1.1230    -0.5460 C.3   1 <1>  -0.1600 
 15 C        4.5140     1.8610     1.5610 C.ar  1 <1>  -0.1500 
 16 C        2.7700     3.6030     1.1440 C.3   1 <1>  -0.0970 
 17 C        4.5410    -0.2510     0.4400 C.ar  1 <1>  -0.1500 
 18 O       -4.4640     3.8080     1.6560 O.3   1 <1>  -0.5600 
 19 C       -5.4950     2.0170     0.3770 C.3   1 <1>  -0.1600 
 20 C       -4.9290     1.1370    -0.7470 C.3   1 <1>  -0.1600 
 21 C        5.0960     0.6240     1.3530 C.ar  1 <1>  -0.1500 
 22 C       -5.3290     3.9150     2.7420 C.3   1 <1>   0.0400 
 23 H        1.5500     1.0850    -1.7680 H     1 <1>   0.0800 
 24 H        1.6760     2.7160    -1.2490 H     1 <1>   0.0800 
 25 H       -1.7180     1.3680     1.5050 H     1 <1>   0.0800 
 26 H       -1.7650     3.0760     1.7730 H     1 <1>   0.0800 
 27 H        0.2010     4.4860    -0.0650 H     1 <1>   0.0800 
 28 H       -0.2640     3.7360    -1.5740 H     1 <1>   0.0800 
 29 H       -2.0510     5.0360     0.4590 H     1 <1>   0.0800 
 30 H       -1.9000     5.3890    -1.2300 H     1 <1>   0.0800 
 31 H        2.9820    -0.5780    -0.9640 H     1 <1>   0.1500 
 32 H       -4.1030     1.8490     2.0060 H     1 <1>   0.0800 
 33 H       -2.9040     3.2460    -1.8080 H     1 <1>   0.0800 
 34 H       -3.9820     4.1520    -0.8100 H     1 <1>   0.0800 
 35 H       -2.8710     1.0280    -1.4730 H     1 <1>   0.0800 
 36 H       -3.1500     0.2800     0.0720 H     1 <1>   0.0800 
 37 H        4.9540     2.5280     2.2800 H     1 <1>   0.1500 
 38 H        3.3400     4.1320     1.8860 H     1 <1>   0.0800 
 39 H        1.7690     3.4850     1.5170 H     1 <1>   0.0800 
 40 H        2.7520     4.1980     0.2500 H     1 <1>   0.0800 
 41 H        4.9840    -1.2170     0.2790 H     1 <1>   0.1500 
 42 H       -6.1560     1.4530     1.0100 H     1 <1>   0.0800 
 43 H       -6.0240     2.8520    -0.0500 H     1 <1>   0.0800 
 44 H       -5.3320     0.1390    -0.7120 H     1 <1>   0.0800 
 45 H       -5.1660     1.5750    -1.7010 H     1 <1>   0.0800 
 46 H        5.9760     0.3430     1.9040 H     1 <1>   0.1500 
 47 H       -5.3680     4.9490     3.0360 H     1 <1>   0.0800 
 48 H       -4.9540     3.3210     3.5570 H     1 <1>   0.0800 
 49 H       -6.3120     3.5850     2.4530 H     1 <1>   0.0800 
@<TRIPOS>BOND
  1   1   2  2   
  2   2   3  am  
  3   2   4  1   
  4   3   5  1   
  5   3   6  1   
  6   4   7  1   
  7   4  23  1   
  8   4  24  1   
  9   5   8  1   
 10   5  25  1   
 11   5  26  1   
 12   6   9  1   
 13   6  27  1   
 14   6  28  1   
 15   7  10  ar  
 16   7  11  ar  
 17   8  12  1   
 18   8  13  1   
 19   8  14  1   
 20   9  13  1   
 21   9  29  1   
 22   9  30  1   
 23  10  15  ar  
 24  10  16  1   
 25  11  17  ar  
 26  11  31  1   
 27  12  18  1   
 28  12  19  1   
 29  12  32  1   
 30  13  33  1   
 31  13  34  1   
 32  14  20  1   
 33  14  35  1   
 34  14  36  1   
 35  15  21  ar  
 36  15  37  1   
 37  16  38  1   
 38  16  39  1   
 39  16  40  1   
 40  17  21  ar  
 41  17  41  1   
 42  18  22  1   
 43  19  20  1   
 44  19  42  1   
 45  19  43  1   
 46  20  44  1   
 47  20  45  1   
 48  21  46  1   
 49  22  47  1   
 50  22  48  1   
 51  22  49  1   
@<TRIPOS>SUBSTRUCTURE
  1 ****   3 GROUP 4 **** **** 0

# MOE 2024.06 (io_trps.svl 2023.06)
