@<TRIPOS>MOLECULE
NONAME
45 46 1 0 0 
SMALL
USER_CHARGES


@<TRIPOS>ATOM
  1 S        0.2890    -0.2610    -0.4510 S.o2  1 <1>   1.3330 
  2 O        0.4140    -1.4770     0.3210 O.2   1 <1>  -0.6500 
  3 O       -0.6400    -0.2130    -1.5570 O.2   1 <1>  -0.6500 
  4 N       -0.1320     0.9870     0.6200 N.am  1 <1>  -0.8490 
  5 C        1.9210     0.1930    -1.0400 C.3   1 <1>  -0.0550 
  6 C       -1.2860     0.6220     1.4440 C.3   1 <1>   0.1160 
  7 C       -0.3810     2.2710    -0.0480 C.3   1 <1>   0.1160 
  8 C        2.9460     0.4460     0.0800 C.3   1 <1>  -0.0800 
  9 C        4.2460     1.0210    -0.4760 C.3   1 <1>   0.2200 
 10 C        3.3850    -0.8160     0.8270 C.3   1 <1>   0.1200 
 11 N        4.5080     2.3310     0.1580 N.am  1 <1>  -0.7300 
 12 C        5.2960    -0.0110    -0.0720 C.3   1 <1>   0.1200 
 13 O        4.7560    -0.6760     1.0210 O.3   1 <1>  -0.5600 
 14 C        3.9210     3.5020    -0.2290 C.2   1 <1>   0.5440 
 15 O        3.1610     3.4750    -1.1790 O.2   1 <1>  -0.5700 
 16 C        4.1930     4.7430     0.4760 C.ar  1 <1>   0.0860 
 17 C        4.1640     5.9660    -0.1920 C.ar  1 <1>  -0.1500 
 18 C        4.4920     4.7670     1.8400 C.ar  1 <1>  -0.1500 
 19 C        4.4340     7.1610     0.4530 C.ar  1 <1>   0.0820 
 20 C        4.7570     5.9540     2.5000 C.ar  1 <1>  -0.1500 
 21 O        4.3950     8.2850    -0.3050 O.3   1 <1>  -0.3630 
 22 C        4.7290     7.1530     1.8130 C.ar  1 <1>  -0.1500 
 23 C        4.9300     9.4990     0.1680 C.3   1 <1>   0.8800 
 24 F        4.0450    10.0660     0.9790 F     1 <1>  -0.3400 
 25 F        5.0570    10.3210    -0.8630 F     1 <1>  -0.3400 
 26 H        2.2860    -0.5760    -1.6930 H     1 <1>   0.0800 
 27 H        1.8320     1.0900    -1.6230 H     1 <1>   0.0800 
 28 H       -1.5120     1.4110     2.1400 H     1 <1>   0.0800 
 29 H       -1.0680    -0.2710     2.0070 H     1 <1>   0.0800 
 30 H       -2.1470     0.4370     0.8230 H     1 <1>   0.0800 
 31 H       -0.6150     3.0270     0.6820 H     1 <1>   0.0800 
 32 H       -1.2020     2.1850    -0.7400 H     1 <1>   0.0800 
 33 H        0.4960     2.5900    -0.5850 H     1 <1>   0.0800 
 34 H        2.5190     1.1270     0.7950 H     1 <1>   0.0800 
 35 H        4.2280     1.1390    -1.5470 H     1 <1>   0.0800 
 36 H        3.2200    -1.7070     0.2450 H     1 <1>   0.0800 
 37 H        2.9000    -0.9140     1.7840 H     1 <1>   0.0800 
 38 H        5.0640     2.2890     1.0140 H     1 <1>   0.3700 
 39 H        6.2390     0.4290     0.1990 H     1 <1>   0.0800 
 40 H        5.4380    -0.7340    -0.8570 H     1 <1>   0.0800 
 41 H        3.9260     5.9830    -1.2410 H     1 <1>   0.1500 
 42 H        4.5070     3.8470     2.3980 H     1 <1>   0.1500 
 43 H        4.9800     5.9450     3.5540 H     1 <1>   0.1500 
 44 H        4.9240     8.0570     2.3600 H     1 <1>   0.1500 
 45 H        5.8770     9.3820     0.6640 H     1 <1>   0.0800 
@<TRIPOS>BOND
  1   1   2  2   
  2   1   3  2   
  3   1   4  am  
  4   1   5  1   
  5   4   6  1   
  6   4   7  1   
  7   5   8  1   
  8   5  26  1   
  9   5  27  1   
 10   6  28  1   
 11   6  29  1   
 12   6  30  1   
 13   7  31  1   
 14   7  32  1   
 15   7  33  1   
 16   8   9  1   
 17   8  10  1   
 18   8  34  1   
 19   9  11  1   
 20   9  12  1   
 21   9  35  1   
 22  10  13  1   
 23  10  36  1   
 24  10  37  1   
 25  11  14  am  
 26  11  38  1   
 27  12  13  1   
 28  12  39  1   
 29  12  40  1   
 30  14  15  2   
 31  14  16  1   
 32  16  17  ar  
 33  16  18  ar  
 34  17  19  ar  
 35  17  41  1   
 36  18  20  ar  
 37  18  42  1   
 38  19  21  1   
 39  19  22  ar  
 40  20  22  ar  
 41  20  43  1   
 42  21  23  1   
 43  22  44  1   
 44  23  24  1   
 45  23  25  1   
 46  23  45  1   
@<TRIPOS>SUBSTRUCTURE
  1 ****  14 GROUP 4 **** **** 0

# MOE 2024.06 (io_trps.svl 2023.06)
