@<TRIPOS>MOLECULE
NONAME
54 57 1 0 0 
SMALL
USER_CHARGES


@<TRIPOS>ATOM
  1 O        2.1540    -2.1650     2.2210 O.2   1 <1>  -0.5700 
  2 C        2.7160    -2.2250     1.1490 C.2   1 <1>   0.5690 
  3 N        4.0650    -1.9560     1.0460 N.am  1 <1>  -0.6600 
  4 C        1.8780    -2.6030    -0.0730 C.3   1 <1>   0.2370 
  5 C        4.8240    -1.8070    -0.2290 C.3   1 <1>   0.1400 
  6 C        4.8580    -1.5510     2.2380 C.3   1 <1>   0.1400 
  7 N        1.4490    -1.3580    -0.7480 N.pl3 1 <1>   0.3140 
  8 C        0.6670    -3.5090     0.2390 C.3   1 <1>  -0.2400 
  9 C        5.1600    -0.3300    -0.4310 C.3   1 <1>  -0.1600 
 10 C        5.1800    -0.0610     2.1250 C.3   1 <1>  -0.1600 
 11 N        1.9380    -0.9980    -1.9550 N.2   1 <1>  -0.7070 
 12 C        0.5110    -0.4810    -0.3300 C.2   1 <1>  -0.3020 
 13 C        5.8830     0.2640     0.7940 C.3   1 <1>   0.1000 
 14 C        1.2860     0.0780    -2.2740 C.2   1 <1>   0.1390 
 15 C        0.3720     0.4510    -1.2940 C.2   1 <1>  -0.1810 
 16 C        6.1400     1.7590     0.6360 C.2   1 <1>   0.0060 
 17 C       -0.5800     1.6290    -1.3310 C.3   1 <1>  -0.0590 
 18 N        7.3340     2.2430     0.6100 N.2   1 <1>  -0.3380 
 19 N        5.2180     2.7280     0.5030 N.pl3 1 <1>   0.0480 
 20 N        7.2250     3.5590     0.4500 N.2   1 <1>  -0.3380 
 21 C        5.9680     3.8270     0.3830 C.2   1 <1>   0.0060 
 22 C        3.7380     2.6780     0.4790 C.3   1 <1>   0.0960 
 23 C        5.4100     5.2230     0.1800 C.3   1 <1>   0.0200 
 24 C        3.1830     3.1670    -0.8640 C.3   1 <1>  -0.1600 
 25 C        4.5880     5.3300    -1.1120 C.3   1 <1>  -0.1600 
 26 C        3.1900     4.6960    -1.0240 C.3   1 <1>  -0.1600 
 27 H        2.4990    -3.1450    -0.7570 H     1 <1>   0.0800 
 28 H        4.2680    -2.1600    -1.0770 H     1 <1>   0.0800 
 29 H        5.7320    -2.3840    -0.1680 H     1 <1>   0.0800 
 30 H        5.7670    -2.1270     2.2720 H     1 <1>   0.0800 
 31 H        4.3130    -1.7400     3.1480 H     1 <1>   0.0800 
 32 H       -0.0060    -3.0270     0.9260 H     1 <1>   0.0800 
 33 H        1.0060    -4.4240     0.6910 H     1 <1>   0.0800 
 34 H        0.1400    -3.7490    -0.6670 H     1 <1>   0.0800 
 35 H        4.2470     0.1920    -0.6400 H     1 <1>   0.0800 
 36 H        5.7900    -0.2250    -1.2960 H     1 <1>   0.0800 
 37 H        5.8190     0.2270     2.9400 H     1 <1>   0.0800 
 38 H        4.2640     0.4880     2.2250 H     1 <1>   0.0800 
 39 H       -0.0030    -0.5810     0.6090 H     1 <1>   0.1500 
 40 H        6.8490    -0.2120     0.8360 H     1 <1>   0.0800 
 41 H        1.4390     0.6100    -3.1980 H     1 <1>   0.1500 
 42 H       -1.0160     1.7820    -0.3600 H     1 <1>   0.0800 
 43 H       -1.3680     1.4350    -2.0360 H     1 <1>   0.0800 
 44 H       -0.0640     2.5230    -1.6260 H     1 <1>   0.0800 
 45 H        3.3580     3.2820     1.2830 H     1 <1>   0.0800 
 46 H        3.4090     1.6710     0.6460 H     1 <1>   0.0800 
 47 H        6.2400     5.9060     0.1190 H     1 <1>   0.0800 
 48 H        4.8190     5.5080     1.0320 H     1 <1>   0.0800 
 49 H        2.1630     2.8360    -0.9280 H     1 <1>   0.0800 
 50 H        3.7180     2.6990    -1.6730 H     1 <1>   0.0800 
 51 H        5.1420     4.8870    -1.9230 H     1 <1>   0.0800 
 52 H        4.4660     6.3740    -1.3420 H     1 <1>   0.0800 
 53 H        2.6420     5.1470    -0.2130 H     1 <1>   0.0800 
 54 H        2.6620     4.9360    -1.9320 H     1 <1>   0.0800 
@<TRIPOS>BOND
  1   1   2  2   
  2   2   3  am  
  3   2   4  1   
  4   3   5  1   
  5   3   6  1   
  6   4   7  1   
  7   4   8  1   
  8   4  27  1   
  9   5   9  1   
 10   5  28  1   
 11   5  29  1   
 12   6  10  1   
 13   6  30  1   
 14   6  31  1   
 15   7  11  1   
 16   7  12  1   
 17   8  32  1   
 18   8  33  1   
 19   8  34  1   
 20   9  13  1   
 21   9  35  1   
 22   9  36  1   
 23  10  13  1   
 24  10  37  1   
 25  10  38  1   
 26  11  14  2   
 27  12  15  2   
 28  12  39  1   
 29  13  16  1   
 30  13  40  1   
 31  14  15  1   
 32  14  41  1   
 33  15  17  1   
 34  16  18  2   
 35  16  19  1   
 36  17  42  1   
 37  17  43  1   
 38  17  44  1   
 39  18  20  1   
 40  19  21  1   
 41  19  22  1   
 42  20  21  2   
 43  21  23  1   
 44  22  24  1   
 45  22  45  1   
 46  22  46  1   
 47  23  25  1   
 48  23  47  1   
 49  23  48  1   
 50  24  26  1   
 51  24  49  1   
 52  24  50  1   
 53  25  26  1   
 54  25  51  1   
 55  25  52  1   
 56  26  53  1   
 57  26  54  1   
@<TRIPOS>SUBSTRUCTURE
  1 ****   9 GROUP 4 **** **** 0

# MOE 2024.06 (io_trps.svl 2023.06)
