@<TRIPOS>MOLECULE
NONAME
49 52 1 0 0 
SMALL
USER_CHARGES


@<TRIPOS>ATOM
  1 O       -1.9660    -3.9400     1.0740 O.2   1 <1>  -0.5700 
  2 C       -0.9050    -3.3640     1.0350 C.2   1 <1>   0.5690 
  3 N       -0.1590    -3.1790    -0.0740 N.am  1 <1>  -0.6600 
  4 C       -0.2120    -2.8070     2.2460 C.3   1 <1>  -0.0990 
  5 C        1.1500    -2.5670     0.2080 C.3   1 <1>   0.1400 
  6 C       -0.5090    -3.6630    -1.4500 C.3   1 <1>   0.2010 
  7 C        1.2120    -2.5130     1.7420 C.3   1 <1>  -0.1600 
  8 C       -0.3910    -5.1800    -1.6150 C.2   1 <1>   0.5690 
  9 O        0.1400    -5.6350    -2.6000 O.2   1 <1>  -0.5700 
 10 N       -0.8980    -5.9770    -0.6440 N.am  1 <1>  -0.7300 
 11 C       -0.8660    -7.4520    -0.5980 C.3   1 <1>   0.2200 
 12 C       -2.1160    -8.0000     0.0770 C.3   1 <1>  -0.0800 
 13 C        0.2180    -7.9070     0.3730 C.3   1 <1>   0.1200 
 14 C       -1.7570    -7.8870     1.5620 C.3   1 <1>   0.1200 
 15 C       -3.4350    -7.2890    -0.2960 C.3   1 <1>  -0.0170 
 16 O       -0.3630    -7.9180     1.6450 O.3   1 <1>  -0.5600 
 17 C       -4.7230    -7.8920     0.2760 C.ar  1 <1>  -0.1440 
 18 C       -5.9380    -7.1660     0.1880 C.ar  1 <1>   0.0000 
 19 C       -4.7800    -9.1210     0.8740 C.ar  1 <1>  -0.1500 
 20 C       -7.1040    -7.7510     0.7390 C.ar  1 <1>   0.3100 
 21 C       -6.0670    -5.8930    -0.4190 C.ar  1 <1>  -0.1500 
 22 C       -5.9900    -9.6090     1.3830 C.ar  1 <1>   0.1600 
 23 N       -7.1130    -8.9700     1.3320 N.ar  1 <1>  -0.6200 
 24 C       -8.3190    -7.0500     0.6700 C.ar  1 <1>  -0.1500 
 25 C       -7.2660    -5.2360    -0.4710 C.ar  1 <1>  -0.1500 
 26 C       -8.4090    -5.8190     0.0810 C.ar  1 <1>  -0.1500 
 27 H       -0.7120    -1.9070     2.5530 H     1 <1>   0.0800 
 28 H       -0.2140    -3.5240     3.0470 H     1 <1>   0.0800 
 29 H        1.9470    -3.1690    -0.1950 H     1 <1>   0.0800 
 30 H        1.1840    -1.5770    -0.2160 H     1 <1>   0.0800 
 31 H       -1.5250    -3.3850    -1.6650 H     1 <1>   0.0800 
 32 H        0.1270    -3.1850    -2.1720 H     1 <1>   0.0800 
 33 H        1.8840    -3.2790     2.0890 H     1 <1>   0.0800 
 34 H        1.5710    -1.5590     2.0860 H     1 <1>   0.0800 
 35 H       -1.2830    -5.5140     0.1930 H     1 <1>   0.3700 
 36 H       -0.7130    -7.8520    -1.5860 H     1 <1>   0.0800 
 37 H       -2.1850    -9.0400    -0.1820 H     1 <1>   0.0800 
 38 H        1.0730    -7.2540     0.3710 H     1 <1>   0.0800 
 39 H        0.5260    -8.9130     0.1490 H     1 <1>   0.0800 
 40 H       -2.1610    -8.6940     2.1480 H     1 <1>   0.0800 
 41 H       -2.0830    -6.9450     1.9710 H     1 <1>   0.0800 
 42 H       -3.5220    -7.2660    -1.3680 H     1 <1>   0.0800 
 43 H       -3.3710    -6.2710     0.0470 H     1 <1>   0.0800 
 44 H       -3.9250    -9.7580     0.9800 H     1 <1>   0.1500 
 45 H       -5.2060    -5.4220    -0.8540 H     1 <1>   0.1500 
 46 H       -5.9830   -10.5800     1.8480 H     1 <1>   0.1500 
 47 H       -9.1840    -7.5190     1.1010 H     1 <1>   0.1500 
 48 H       -7.3440    -4.2680    -0.9340 H     1 <1>   0.1500 
 49 H       -9.3470    -5.2920     0.0360 H     1 <1>   0.1500 
@<TRIPOS>BOND
  1   1   2  2   
  2   2   3  am  
  3   2   4  1   
  4   3   5  1   
  5   3   6  1   
  6   4   7  1   
  7   4  27  1   
  8   4  28  1   
  9   5   7  1   
 10   5  29  1   
 11   5  30  1   
 12   6   8  1   
 13   6  31  1   
 14   6  32  1   
 15   7  33  1   
 16   7  34  1   
 17   8   9  2   
 18   8  10  am  
 19  10  11  1   
 20  10  35  1   
 21  11  12  1   
 22  11  13  1   
 23  11  36  1   
 24  12  14  1   
 25  12  15  1   
 26  12  37  1   
 27  13  16  1   
 28  13  38  1   
 29  13  39  1   
 30  14  16  1   
 31  14  40  1   
 32  14  41  1   
 33  15  17  1   
 34  15  42  1   
 35  15  43  1   
 36  17  18  ar  
 37  17  19  ar  
 38  18  20  ar  
 39  18  21  ar  
 40  19  22  ar  
 41  19  44  1   
 42  20  23  ar  
 43  20  24  ar  
 44  21  25  ar  
 45  21  45  1   
 46  22  23  ar  
 47  22  46  1   
 48  24  26  ar  
 49  24  47  1   
 50  25  26  ar  
 51  25  48  1   
 52  26  49  1   
@<TRIPOS>SUBSTRUCTURE
  1 ****  15 GROUP 4 **** **** 0

# MOE 2024.06 (io_trps.svl 2023.06)
