@<TRIPOS>MOLECULE
NONAME
60 63 1 0 0 
SMALL
USER_CHARGES


@<TRIPOS>ATOM
  1 O       -1.1340    -0.1890    -3.2730 O.2   1 <1>  -0.5700 
  2 C       -1.3930     0.6270    -2.4180 C.2   1 <1>   0.5690 
  3 N       -1.9830     0.2550    -1.2380 N.am  1 <1>  -0.6600 
  4 C       -1.0500     2.0990    -2.7000 C.3   1 <1>   0.1710 
  5 C       -2.2630     1.1550    -0.0920 C.3   1 <1>   0.1400 
  6 C       -2.2650    -1.1550    -0.8830 C.3   1 <1>   0.1400 
  7 N       -0.0960     2.7330    -1.7460 N.3   1 <1>  -0.8100 
  8 C       -2.9300     0.2590     0.9510 C.3   1 <1>   0.2000 
  9 C       -2.4420    -1.1530     0.6350 C.3   1 <1>  -0.0800 
 10 C        0.1350     4.1520    -2.1010 C.3   1 <1>   0.1100 
 11 C        1.2000     2.0090    -1.7420 C.3   1 <1>   0.1100 
 12 O       -2.5690     0.6160     2.2400 O.3   1 <1>  -0.6800 
 13 C       -3.3850    -2.2520     1.1480 C.3   1 <1>   0.0210 
 14 C        1.1340     4.8350    -1.1480 C.3   1 <1>   0.2090 
 15 C        2.2260     2.6500    -0.7900 C.3   1 <1>   0.2090 
 16 C       -2.9110    -3.6230     0.7060 C.2   1 <1>   0.1080 
 17 N        2.4270     4.0940    -1.1080 N.pl3 1 <1>  -0.8380 
 18 N       -1.7540    -4.1070     1.0330 N.2   1 <1>  -0.7070 
 19 C       -3.6400    -4.4970    -0.0930 C.2   1 <1>  -0.1500 
 20 C        3.4770     4.7210    -0.4490 C.ar  1 <1>   0.1000 
 21 N       -1.7130    -5.3180     0.4460 N.pl3 1 <1>   0.3000 
 22 C       -2.8440    -5.5760    -0.2440 C.2   1 <1>  -0.3320 
 23 C        3.4310     4.9880     0.9160 C.ar  1 <1>  -0.1500 
 24 C        4.6060     5.0920    -1.1630 C.ar  1 <1>  -0.1500 
 25 C       -3.0980    -6.8570    -1.0170 C.3   1 <1>  -0.0600 
 26 C        4.4880     5.6130     1.5570 C.ar  1 <1>  -0.1440 
 27 C        5.6670     5.7160    -0.5340 C.ar  1 <1>  -0.1500 
 28 C        5.6070     5.9770     0.8250 C.ar  1 <1>  -0.1500 
 29 C        4.4340     5.9040     3.0450 C.3   1 <1>  -0.0970 
 30 H       -1.9710     2.6520    -2.6910 H     1 <1>   0.0800 
 31 H       -0.6460     2.1580    -3.6950 H     1 <1>   0.0800 
 32 H       -1.3350     1.5520     0.2820 H     1 <1>   0.0800 
 33 H       -2.9170     1.9560    -0.3900 H     1 <1>   0.0800 
 34 H       -3.1680    -1.4670    -1.3800 H     1 <1>   0.0800 
 35 H       -1.4540    -1.8000    -1.1820 H     1 <1>   0.0800 
 36 H       -4.0000     0.3360     0.8630 H     1 <1>   0.0800 
 37 H       -1.4660    -1.3010     1.0640 H     1 <1>   0.0800 
 38 H        0.5210     4.2200    -3.1040 H     1 <1>   0.0800 
 39 H       -0.7990     4.6860    -2.0630 H     1 <1>   0.0800 
 40 H        1.0430     0.9890    -1.4350 H     1 <1>   0.0800 
 41 H        1.6150     1.9960    -2.7360 H     1 <1>   0.0800 
 42 H       -1.6190     0.4410     2.3820 H     1 <1>   0.4000 
 43 H       -4.3820    -2.0850     0.7840 H     1 <1>   0.0800 
 44 H       -3.4130    -2.2270     2.2230 H     1 <1>   0.0800 
 45 H        0.7090     4.8770    -0.1610 H     1 <1>   0.0800 
 46 H        1.3170     5.8430    -1.4800 H     1 <1>   0.0800 
 47 H        3.1670     2.1360    -0.8780 H     1 <1>   0.0800 
 48 H        1.8800     2.5490     0.2230 H     1 <1>   0.0800 
 49 H       -4.6230    -4.3240    -0.4930 H     1 <1>   0.1500 
 50 H       -0.9020    -5.9410     0.5330 H     1 <1>   0.2700 
 51 H        2.5580     4.6990     1.4670 H     1 <1>   0.1500 
 52 H        4.6390     4.8840    -2.2160 H     1 <1>   0.1500 
 53 H       -4.0680    -6.8240    -1.4800 H     1 <1>   0.0800 
 54 H       -3.0630    -7.7040    -0.3560 H     1 <1>   0.0800 
 55 H       -2.3560    -6.9800    -1.7860 H     1 <1>   0.0800 
 56 H        6.5360     5.9990    -1.0990 H     1 <1>   0.1500 
 57 H        6.4350     6.4640     1.3100 H     1 <1>   0.1500 
 58 H        4.4020     6.9670     3.2060 H     1 <1>   0.0800 
 59 H        5.3070     5.5040     3.5290 H     1 <1>   0.0800 
 60 H        3.5620     5.4620     3.4920 H     1 <1>   0.0800 
@<TRIPOS>BOND
  1   1   2  2   
  2   2   3  am  
  3   2   4  1   
  4   3   5  1   
  5   3   6  1   
  6   4   7  1   
  7   4  30  1   
  8   4  31  1   
  9   5   8  1   
 10   5  32  1   
 11   5  33  1   
 12   6   9  1   
 13   6  34  1   
 14   6  35  1   
 15   7  10  1   
 16   7  11  1   
 17   8   9  1   
 18   8  12  1   
 19   8  36  1   
 20   9  13  1   
 21   9  37  1   
 22  10  14  1   
 23  10  38  1   
 24  10  39  1   
 25  11  15  1   
 26  11  40  1   
 27  11  41  1   
 28  12  42  1   
 29  13  16  1   
 30  13  43  1   
 31  13  44  1   
 32  14  17  1   
 33  14  45  1   
 34  14  46  1   
 35  15  17  1   
 36  15  47  1   
 37  15  48  1   
 38  16  18  2   
 39  16  19  1   
 40  17  20  1   
 41  18  21  1   
 42  19  22  2   
 43  19  49  1   
 44  20  23  ar  
 45  20  24  ar  
 46  21  22  1   
 47  21  50  1   
 48  22  25  1   
 49  23  26  ar  
 50  23  51  1   
 51  24  27  ar  
 52  24  52  1   
 53  25  53  1   
 54  25  54  1   
 55  25  55  1   
 56  26  28  ar  
 57  26  29  1   
 58  27  28  ar  
 59  27  56  1   
 60  28  57  1   
 61  29  58  1   
 62  29  59  1   
 63  29  60  1   
@<TRIPOS>SUBSTRUCTURE
  1 ****  11 GROUP 4 **** **** 0

# MOE 2024.06 (io_trps.svl 2023.06)
