@<TRIPOS>MOLECULE
NONAME
48 50 1 0 0 
SMALL
USER_CHARGES


@<TRIPOS>ATOM
  1 O       -0.2590     2.9440     2.8830 O.co2 1 <1>  -0.9000 
  2 C       -1.1250     3.0120     2.0100 C.2   1 <1>   0.9060 
  3 O       -2.0840     3.7860     2.1000 O.co2 1 <1>  -0.9000 
  4 C       -0.8260     2.3250     0.7030 C.3   1 <1>  -0.1860 
  5 C       -1.8680     2.4380    -0.4330 C.3   1 <1>   0.2000 
  6 C        0.4960     2.9350     0.2550 C.3   1 <1>   0.3430 
  7 O       -3.1270     2.5550     0.1010 O.3   1 <1>  -0.6800 
  8 C       -1.6370     3.6350    -1.3650 C.3   1 <1>  -0.1600 
  9 N        0.3520     4.3900    -0.0930 N.4   1 <1>  -0.9590 
 10 C       -1.0010     4.7900    -0.6020 C.3   1 <1>   0.3430 
 11 C        0.6900     5.2310     1.0920 C.3   1 <1>   0.4860 
 12 C        0.8460     6.6660     0.6280 C.ar  1 <1>  -0.1430 
 13 C        1.8120     7.0090    -0.3190 C.ar  1 <1>   0.0830 
 14 C        0.0060     7.6370     1.1530 C.ar  1 <1>  -0.1500 
 15 O        2.5930     6.0080    -0.8100 O.3   1 <1>  -0.3620 
 16 C        1.9350     8.3340    -0.7340 C.ar  1 <1>  -0.1500 
 17 C        0.1400     8.9440     0.7290 C.ar  1 <1>  -0.1430 
 18 C        3.7430     6.2900    -1.5750 C.3   1 <1>   0.1200 
 19 C        1.0900     9.2870    -0.1990 C.ar  1 <1>  -0.1430 
 20 C       -0.6610    10.1440     1.1670 C.3   1 <1>  -0.0170 
 21 C        4.4570     4.9710    -1.8530 C.3   1 <1>  -0.2400 
 22 C        1.0480    10.7650    -0.5030 C.3   1 <1>  -0.0170 
 23 C        0.1360    11.3310     0.5980 C.3   1 <1>  -0.1600 
 24 H       -0.6710     1.2880     0.9250 H     1 <1>   0.0800 
 25 H       -1.8690     1.5360    -1.0230 H     1 <1>   0.0800 
 26 H        0.8440     2.3970    -0.6100 H     1 <1>   0.0800 
 27 H        1.2280     2.8140     1.0390 H     1 <1>   0.0800 
 28 H       -3.0430     3.0990     0.9430 H     1 <1>   0.4000 
 29 H       -0.9850     3.3520    -2.1710 H     1 <1>   0.0800 
 30 H       -2.5700     3.9490    -1.7990 H     1 <1>   0.0800 
 31 H        1.0700     4.6600    -0.7800 H     1 <1>   0.4500 
 32 H       -1.6420     5.0420     0.2300 H     1 <1>   0.0800 
 33 H       -0.9140     5.6610    -1.2310 H     1 <1>   0.0800 
 34 H       -0.0860     5.1660     1.8390 H     1 <1>   0.0800 
 35 H        1.6120     4.8940     1.5360 H     1 <1>   0.0800 
 36 H       -0.7440     7.3840     1.8850 H     1 <1>   0.1500 
 37 H        2.6640     8.6410    -1.4600 H     1 <1>   0.1500 
 38 H        3.4390     6.7590    -2.4960 H     1 <1>   0.0800 
 39 H        4.3760     6.9540    -1.0110 H     1 <1>   0.0800 
 40 H       -1.6430    10.1000     0.7300 H     1 <1>   0.0800 
 41 H       -0.7390    10.1980     2.2390 H     1 <1>   0.0800 
 42 H        3.8200     4.3120    -2.4150 H     1 <1>   0.0800 
 43 H        4.7430     4.5020    -0.9290 H     1 <1>   0.0800 
 44 H        5.3460     5.1570    -2.4290 H     1 <1>   0.0800 
 45 H        2.0290    11.2050    -0.4680 H     1 <1>   0.0800 
 46 H        0.6120    10.9200    -1.4740 H     1 <1>   0.0800 
 47 H        0.7510    11.7400     1.3810 H     1 <1>   0.0800 
 48 H       -0.5120    12.1040     0.2230 H     1 <1>   0.0800 
@<TRIPOS>BOND
  1   1   2  ar  
  2   2   3  ar  
  3   2   4  1   
  4   4   5  1   
  5   4   6  1   
  6   4  24  1   
  7   5   7  1   
  8   5   8  1   
  9   5  25  1   
 10   6   9  1   
 11   6  26  1   
 12   6  27  1   
 13   7  28  1   
 14   8  10  1   
 15   8  29  1   
 16   8  30  1   
 17   9  10  1   
 18   9  11  1   
 19   9  31  1   
 20  10  32  1   
 21  10  33  1   
 22  11  12  1   
 23  11  34  1   
 24  11  35  1   
 25  12  13  ar  
 26  12  14  ar  
 27  13  15  1   
 28  13  16  ar  
 29  14  17  ar  
 30  14  36  1   
 31  15  18  1   
 32  16  19  ar  
 33  16  37  1   
 34  17  19  ar  
 35  17  20  1   
 36  18  21  1   
 37  18  38  1   
 38  18  39  1   
 39  19  22  1   
 40  20  23  1   
 41  20  40  1   
 42  20  41  1   
 43  21  42  1   
 44  21  43  1   
 45  21  44  1   
 46  22  23  1   
 47  22  45  1   
 48  22  46  1   
 49  23  47  1   
 50  23  48  1   
@<TRIPOS>SUBSTRUCTURE
  1 ****  12 GROUP 4 **** **** 0

# MOE 2024.06 (io_trps.svl 2023.06)
