@<TRIPOS>MOLECULE
NONAME
39 40 1 0 0 
SMALL
USER_CHARGES


@<TRIPOS>ATOM
  1 O        1.6240    -0.6070     2.6890 O.co2 1 <1>  -0.9000 
  2 C        2.6190    -0.7280     1.9740 C.2   1 <1>   0.9060 
  3 O        3.7520    -0.7740     2.4900 O.co2 1 <1>  -0.9000 
  4 C        2.5310    -0.5720     0.4160 C.3   1 <1>   0.2630 
  5 N        3.0760     0.7270    -0.1470 N.pl3 1 <1>  -0.8690 
  6 C        1.1040    -0.7110    -0.1280 C.3   1 <1>  -0.1600 
  7 C        3.2520    -1.7040    -0.3240 C.3   1 <1>  -0.1600 
  8 C        3.8370     1.6980     0.3770 C.ar  1 <1>   0.7710 
  9 C        1.2350    -1.1430    -1.5940 C.3   1 <1>  -0.1600 
 10 C        2.6270    -1.7730    -1.7240 C.3   1 <1>  -0.1600 
 11 N        4.0170     2.7560    -0.3910 N.ar  1 <1>  -0.6200 
 12 N        4.3870     1.5990     1.5960 N.ar  1 <1>  -0.1790 
 13 C        4.7320     3.7570     0.0920 C.ar  1 <1>   0.4100 
 14 C        5.1470     2.5800     2.1170 C.ar  1 <1>   0.2110 
 15 N        4.8490     4.8500    -0.7070 N.pl3 1 <1>  -0.8380 
 16 C        5.3480     3.6950     1.3710 C.ar  1 <1>  -0.1430 
 17 C        5.0430     4.7100    -2.1780 C.3   1 <1>   0.1290 
 18 C        4.3720     6.1950    -0.2830 C.3   1 <1>   0.1290 
 19 C        6.2420     4.8180     1.8930 C.3   1 <1>  -0.0970 
 20 H        2.7340     0.9110    -1.0900 H     1 <1>   0.4000 
 21 H        0.5360     0.1940    -0.0020 H     1 <1>   0.0800 
 22 H        0.6050    -1.4930     0.4180 H     1 <1>   0.0800 
 23 H        3.0530    -2.6280     0.1910 H     1 <1>   0.0800 
 24 H        4.3170    -1.5550    -0.3480 H     1 <1>   0.0800 
 25 H        1.1580    -0.2870    -2.2420 H     1 <1>   0.0800 
 26 H        0.4610    -1.8450    -1.8530 H     1 <1>   0.0800 
 27 H        2.5700    -2.7910    -2.0690 H     1 <1>   0.0800 
 28 H        3.2210    -1.2020    -2.4180 H     1 <1>   0.0800 
 29 H        4.2160     0.7140     2.1060 H     1 <1>   0.4570 
 30 H        5.5670     2.4310     3.0980 H     1 <1>   0.1500 
 31 H        5.4550     3.7420    -2.4080 H     1 <1>   0.0800 
 32 H        5.7200     5.4660    -2.5340 H     1 <1>   0.0800 
 33 H        4.0970     4.8120    -2.6810 H     1 <1>   0.0800 
 34 H        3.9270     6.1440     0.6950 H     1 <1>   0.0800 
 35 H        3.6280     6.5540    -0.9730 H     1 <1>   0.0800 
 36 H        5.1970     6.8850    -0.2640 H     1 <1>   0.0800 
 37 H        6.9140     5.1430     1.1180 H     1 <1>   0.0800 
 38 H        6.8320     4.4880     2.7290 H     1 <1>   0.0800 
 39 H        5.6470     5.6550     2.2090 H     1 <1>   0.0800 
@<TRIPOS>BOND
  1   1   2  ar  
  2   2   3  ar  
  3   2   4  1   
  4   4   5  1   
  5   4   6  1   
  6   4   7  1   
  7   5   8  1   
  8   5  20  1   
  9   6   9  1   
 10   6  21  1   
 11   6  22  1   
 12   7  10  1   
 13   7  23  1   
 14   7  24  1   
 15   8  11  ar  
 16   8  12  ar  
 17   9  10  1   
 18   9  25  1   
 19   9  26  1   
 20  10  27  1   
 21  10  28  1   
 22  11  13  ar  
 23  12  14  ar  
 24  12  29  1   
 25  13  15  1   
 26  13  16  ar  
 27  14  16  ar  
 28  14  30  1   
 29  15  17  1   
 30  15  18  1   
 31  16  19  1   
 32  17  31  1   
 33  17  32  1   
 34  17  33  1   
 35  18  34  1   
 36  18  35  1   
 37  18  36  1   
 38  19  37  1   
 39  19  38  1   
 40  19  39  1   
@<TRIPOS>SUBSTRUCTURE
  1 ****   8 GROUP 4 **** **** 0

# MOE 2024.06 (io_trps.svl 2023.06)
