@<TRIPOS>MOLECULE
NONAME
42 43 1 0 0 
SMALL
USER_CHARGES


@<TRIPOS>ATOM
  1 O       -1.4010    -0.2120    -0.2660 O.2   1 <1>  -0.5700 
  2 C       -2.0900     0.6200     0.2810 C.2   1 <1>   0.6300 
  3 N       -3.0020     0.2580     1.2370 N.am  1 <1>  -0.6600 
  4 C       -1.9640     2.0770    -0.1660 C.3   1 <1>  -0.1000 
  5 C       -3.0320    -1.1460     1.7400 C.3   1 <1>   0.3200 
  6 C       -4.1380     1.1190     1.6820 C.3   1 <1>   0.1400 
  7 C       -0.6500     2.8130    -0.3020 C.3   1 <1>  -0.1900 
  8 C       -1.5910     3.1620     0.8080 C.3   1 <1>  -0.2000 
  9 C       -3.8520    -2.0220     0.8090 C.2   1 <1>   0.0060 
 10 C       -5.3200     1.0060     0.7120 C.3   1 <1>   0.1200 
 11 C        0.6530     2.0640     0.0530 C.3   1 <1>  -0.0650 
 12 C       -0.5320     3.7490    -1.5270 C.3   1 <1>  -0.0650 
 13 N       -4.9650    -2.6090     1.1210 N.2   1 <1>  -0.5650 
 14 N       -3.4580    -2.2480    -0.4610 N.pl3 1 <1>   0.0330 
 15 O       -6.3440     1.8350     1.1440 O.3   1 <1>  -0.6800 
 16 C        1.8150     2.9850     0.4350 C.3   1 <1>  -0.2400 
 17 C       -0.2230     5.2070    -1.1600 C.3   1 <1>  -0.2400 
 18 C       -5.3120    -3.2540    -0.0110 C.2   1 <1>   0.0770 
 19 C       -4.4040    -3.0440    -0.9880 C.2   1 <1>  -0.3020 
 20 H       -2.7410     2.3130    -0.8700 H     1 <1>   0.1000 
 21 H       -3.4560    -1.1770     2.7280 H     1 <1>   0.0800 
 22 H       -2.0300    -1.5330     1.8000 H     1 <1>   0.0800 
 23 H       -3.8260     2.1450     1.7340 H     1 <1>   0.0800 
 24 H       -4.4520     0.8170     2.6650 H     1 <1>   0.0800 
 25 H       -1.3160     2.8900     1.8120 H     1 <1>   0.1000 
 26 H       -2.1470     4.0810     0.7740 H     1 <1>   0.1000 
 27 H       -5.6990    -0.0010     0.6640 H     1 <1>   0.0800 
 28 H       -5.0300     1.3300    -0.2720 H     1 <1>   0.0800 
 29 H        0.9460     1.4490    -0.7810 H     1 <1>   0.0800 
 30 H        0.4730     1.4030     0.8820 H     1 <1>   0.0800 
 31 H       -1.4530     3.7420    -2.0830 H     1 <1>   0.0800 
 32 H        0.2310     3.3760    -2.1890 H     1 <1>   0.0800 
 33 H       -2.6130    -1.8470    -0.8940 H     1 <1>   0.2700 
 34 H       -6.8410     1.4140     1.8730 H     1 <1>   0.4000 
 35 H        2.1550     3.5410    -0.4190 H     1 <1>   0.0800 
 36 H        2.6390     2.3980     0.8000 H     1 <1>   0.0800 
 37 H        1.5110     3.6680     1.2070 H     1 <1>   0.0800 
 38 H       -1.0310     5.6320    -0.5930 H     1 <1>   0.0800 
 39 H       -0.1000     5.7880    -2.0560 H     1 <1>   0.0800 
 40 H        0.6770     5.2840    -0.5810 H     1 <1>   0.0800 
 41 H       -6.2120    -3.8450    -0.0630 H     1 <1>   0.1500 
 42 H       -4.3790    -3.4050    -2.0000 H     1 <1>   0.1500 
@<TRIPOS>BOND
  1   1   2  2   
  2   2   3  am  
  3   2   4  1   
  4   3   5  1   
  5   3   6  1   
  6   4   7  1   
  7   4   8  1   
  8   4  20  1   
  9   5   9  1   
 10   5  21  1   
 11   5  22  1   
 12   6  10  1   
 13   6  23  1   
 14   6  24  1   
 15   7   8  1   
 16   7  11  1   
 17   7  12  1   
 18   8  25  1   
 19   8  26  1   
 20   9  13  2   
 21   9  14  1   
 22  10  15  1   
 23  10  27  1   
 24  10  28  1   
 25  11  16  1   
 26  11  29  1   
 27  11  30  1   
 28  12  17  1   
 29  12  31  1   
 30  12  32  1   
 31  13  18  1   
 32  14  19  1   
 33  14  33  1   
 34  15  34  1   
 35  16  35  1   
 36  16  36  1   
 37  16  37  1   
 38  17  38  1   
 39  17  39  1   
 40  17  40  1   
 41  18  19  2   
 42  18  41  1   
 43  19  42  1   
@<TRIPOS>SUBSTRUCTURE
  1 ****   2 GROUP 4 **** **** 0

# MOE 2024.06 (io_trps.svl 2023.06)
