@<TRIPOS>MOLECULE
NONAME
45 47 1 0 0 
SMALL
USER_CHARGES


@<TRIPOS>ATOM
  1 O        0.1060     0.4600    -0.0420 O.2   1 <1>  -0.5700 
  2 C       -0.0020     1.6770    -0.0970 C.2   1 <1>   0.7160 
  3 N       -1.2840     2.1920    -0.2250 N.am  1 <1>  -0.6600 
  4 C        1.2160     2.4870    -0.0170 C.2   1 <1>   0.1410 
  5 C       -2.4250     1.3090    -0.5990 C.3   1 <1>   0.1400 
  6 C       -1.6090     3.6260     0.0180 C.3   1 <1>   0.1400 
  7 N        1.3310     3.8180    -0.3270 N.2   1 <1>  -0.5650 
  8 C        2.4490     2.0390     0.3640 C.2   1 <1>  -0.3020 
  9 C       -3.4640     2.1020    -1.3950 C.3   1 <1>  -0.1600 
 10 C       -3.0630     3.7660     0.4690 C.3   1 <1>  -0.1600 
 11 C        2.5730     4.1030    -0.1280 C.2   1 <1>   0.0360 
 12 N        3.3110     3.0580     0.2970 N.pl3 1 <1>   0.0480 
 13 C       -4.0810     3.2970    -0.6080 C.3   1 <1>   0.2800 
 14 C        4.7500     3.0370     0.6060 C.3   1 <1>   0.0160 
 15 O       -4.2580     4.3040    -1.5840 O.3   1 <1>  -0.5600 
 16 C       -5.4870     2.9600    -0.0010 C.3   1 <1>   0.2000 
 17 C       -4.8580     5.5170    -1.2100 C.3   1 <1>   0.1200 
 18 O       -6.2730     2.3340    -0.9800 O.3   1 <1>  -0.6800 
 19 C       -6.2550     4.2260     0.4840 C.3   1 <1>   0.2800 
 20 C       -6.2570     5.2830    -0.6280 C.3   1 <1>  -0.1600 
 21 O       -5.6290     4.7740     1.5870 O.3   1 <1>  -0.6800 
 22 C       -7.6820     3.9220     0.9570 C.3   1 <1>  -0.2400 
 23 H       -2.0670     0.4900    -1.2010 H     1 <1>   0.0800 
 24 H       -2.8680     0.9010     0.2930 H     1 <1>   0.0800 
 25 H       -0.9660     4.0180     0.7880 H     1 <1>   0.0800 
 26 H       -1.4460     4.1890    -0.8860 H     1 <1>   0.0800 
 27 H        2.7180     1.0430     0.6660 H     1 <1>   0.1500 
 28 H       -4.2060     1.4070    -1.7360 H     1 <1>   0.0800 
 29 H       -2.9660     2.4730    -2.2740 H     1 <1>   0.0800 
 30 H       -3.2270     4.7770     0.7770 H     1 <1>   0.0800 
 31 H       -3.1860     3.1660     1.3530 H     1 <1>   0.0800 
 32 H        3.0030     5.0780    -0.2820 H     1 <1>   0.1500 
 33 H        5.0070     2.0970     1.0570 H     1 <1>   0.0800 
 34 H        4.9800     3.8360     1.2870 H     1 <1>   0.0800 
 35 H        5.3100     3.1640    -0.3030 H     1 <1>   0.0800 
 36 H       -5.3890     2.2640     0.8120 H     1 <1>   0.0800 
 37 H       -4.2250     6.0320    -0.5110 H     1 <1>   0.0800 
 38 H       -4.9270     6.1240    -2.0950 H     1 <1>   0.0800 
 39 H       -6.1160     2.8060    -1.8240 H     1 <1>   0.4000 
 40 H       -6.8960     4.9560    -1.4280 H     1 <1>   0.0800 
 41 H       -6.6590     6.2100    -0.2630 H     1 <1>   0.0800 
 42 H       -6.1920     5.4730     1.9650 H     1 <1>   0.4000 
 43 H       -8.2710     3.5320     0.1460 H     1 <1>   0.0800 
 44 H       -8.1690     4.8090     1.3200 H     1 <1>   0.0800 
 45 H       -7.6630     3.1790     1.7360 H     1 <1>   0.0800 
@<TRIPOS>BOND
  1   1   2  2   
  2   2   3  am  
  3   2   4  1   
  4   3   5  1   
  5   3   6  1   
  6   4   7  1   
  7   4   8  2   
  8   5   9  1   
  9   5  23  1   
 10   5  24  1   
 11   6  10  1   
 12   6  25  1   
 13   6  26  1   
 14   7  11  2   
 15   8  12  1   
 16   8  27  1   
 17   9  13  1   
 18   9  28  1   
 19   9  29  1   
 20  10  13  1   
 21  10  30  1   
 22  10  31  1   
 23  11  12  1   
 24  11  32  1   
 25  12  14  1   
 26  13  15  1   
 27  13  16  1   
 28  14  33  1   
 29  14  34  1   
 30  14  35  1   
 31  15  17  1   
 32  16  18  1   
 33  16  19  1   
 34  16  36  1   
 35  17  20  1   
 36  17  37  1   
 37  17  38  1   
 38  18  39  1   
 39  19  20  1   
 40  19  21  1   
 41  19  22  1   
 42  20  40  1   
 43  20  41  1   
 44  21  42  1   
 45  22  43  1   
 46  22  44  1   
 47  22  45  1   
@<TRIPOS>SUBSTRUCTURE
  1 ****   6 GROUP 4 **** **** 0

# MOE 2024.06 (io_trps.svl 2023.06)
