@<TRIPOS>MOLECULE
NONAME
56 59 1 0 0 
SMALL
USER_CHARGES


@<TRIPOS>ATOM
  1 O       -2.7780    -0.4380     1.4450 O.2   1 <1>  -0.5700 
  2 C       -2.7640     0.3030     0.4890 C.2   1 <1>   0.5690 
  3 N       -2.0050     1.4410     0.4860 N.am  1 <1>  -0.6600 
  4 C       -3.6370    -0.0630    -0.7160 C.3   1 <1>  -0.0190 
  5 C       -1.1590     1.8110     1.6420 C.3   1 <1>   0.1400 
  6 C       -1.9390     2.4790    -0.5690 C.3   1 <1>   0.1400 
  7 C       -5.0780     0.4480    -0.5050 C.3   1 <1>  -0.1600 
  8 C       -3.6200    -1.5850    -0.9880 C.3   1 <1>  -0.1600 
  9 C       -0.3570     3.0190     1.1720 C.3   1 <1>  -0.1600 
 10 C       -1.2200     3.6530     0.0850 C.3   1 <1>  -0.1600 
 11 C       -6.0320    -0.0210    -1.6060 C.3   1 <1>   0.2090 
 12 C       -4.6110    -1.9740    -2.0830 C.3   1 <1>   0.2090 
 13 N       -5.9680    -1.5150    -1.6660 N.pl3 1 <1>  -0.8380 
 14 C       -7.0020    -2.2890    -1.2670 C.ar  1 <1>   0.7710 
 15 N       -8.2140    -1.7540    -1.1380 N.ar  1 <1>  -0.6200 
 16 N       -6.7830    -3.5760    -0.9900 N.ar  1 <1>  -0.1790 
 17 C       -9.1980    -2.5120    -0.7460 C.ar  1 <1>   0.4100 
 18 C       -7.7700    -4.4290    -0.5690 C.ar  1 <1>   0.3610 
 19 N      -10.3770    -1.8890    -0.6520 N.pl3 1 <1>  -0.9000 
 20 C       -9.0510    -3.9000    -0.4350 C.ar  1 <1>   0.0000 
 21 C       -7.5240    -5.7660    -0.2810 C.ar  1 <1>  -0.1500 
 22 C      -10.0780    -4.7570    -0.0080 C.ar  1 <1>  -0.1500 
 23 C       -8.5310    -6.6040     0.1370 C.ar  1 <1>   0.0820 
 24 C       -9.8440    -6.0910     0.2780 C.ar  1 <1>   0.0820 
 25 O       -8.1220    -7.8760     0.3730 O.3   1 <1>  -0.3620 
 26 O      -10.8500    -6.9130     0.6910 O.3   1 <1>  -0.3620 
 27 C       -8.9590    -8.9260     0.8090 C.3   1 <1>   0.0400 
 28 C      -12.1860    -6.4800     0.8410 C.3   1 <1>   0.0400 
 29 H       -3.2370     0.4160    -1.5900 H     1 <1>   0.0800 
 30 H       -0.5200     0.9920     1.9270 H     1 <1>   0.0800 
 31 H       -1.7950     2.0740     2.4700 H     1 <1>   0.0800 
 32 H       -2.9220     2.7620    -0.9020 H     1 <1>   0.0800 
 33 H       -1.3610     2.1040    -1.3960 H     1 <1>   0.0800 
 34 H       -5.0780     1.5230    -0.4700 H     1 <1>   0.0800 
 35 H       -5.4470     0.0980     0.4440 H     1 <1>   0.0800 
 36 H       -3.8680    -2.1210    -0.0890 H     1 <1>   0.0800 
 37 H       -2.6260    -1.8800    -1.2770 H     1 <1>   0.0800 
 38 H        0.5730     2.6770     0.7510 H     1 <1>   0.0800 
 39 H       -0.1480     3.6970     1.9800 H     1 <1>   0.0800 
 40 H       -1.9490     4.3050     0.5330 H     1 <1>   0.0800 
 41 H       -0.6380     4.2130    -0.6260 H     1 <1>   0.0800 
 42 H       -5.7370     0.3930    -2.5560 H     1 <1>   0.0800 
 43 H       -7.0250     0.3360    -1.3900 H     1 <1>   0.0800 
 44 H       -4.5790    -3.0350    -2.2570 H     1 <1>   0.0800 
 45 H       -4.3390    -1.4880    -3.0070 H     1 <1>   0.0800 
 46 H       -5.8230    -3.8870    -1.0380 H     1 <1>   0.4570 
 47 H      -11.2580    -2.3140    -0.3620 H     1 <1>   0.4000 
 48 H      -10.4430    -0.8930    -0.8840 H     1 <1>   0.4000 
 49 H       -6.5340    -6.1740    -0.3820 H     1 <1>   0.1500 
 50 H      -11.0610    -4.3410     0.0910 H     1 <1>   0.1500 
 51 H       -8.3600    -9.8130     0.9090 H     1 <1>   0.0800 
 52 H       -9.7290    -9.0870     0.0760 H     1 <1>   0.0800 
 53 H       -9.3830    -8.6640     1.7610 H     1 <1>   0.0800 
 54 H      -12.7730    -7.3200     1.1680 H     1 <1>   0.0800 
 55 H      -12.5520    -6.1320    -0.1090 H     1 <1>   0.0800 
 56 H      -12.2240    -5.7020     1.5830 H     1 <1>   0.0800 
@<TRIPOS>BOND
  1   1   2  2   
  2   2   3  am  
  3   2   4  1   
  4   3   5  1   
  5   3   6  1   
  6   4   7  1   
  7   4   8  1   
  8   4  29  1   
  9   5   9  1   
 10   5  30  1   
 11   5  31  1   
 12   6  10  1   
 13   6  32  1   
 14   6  33  1   
 15   7  11  1   
 16   7  34  1   
 17   7  35  1   
 18   8  12  1   
 19   8  36  1   
 20   8  37  1   
 21   9  10  1   
 22   9  38  1   
 23   9  39  1   
 24  10  40  1   
 25  10  41  1   
 26  11  13  1   
 27  11  42  1   
 28  11  43  1   
 29  12  13  1   
 30  12  44  1   
 31  12  45  1   
 32  13  14  1   
 33  14  15  ar  
 34  14  16  ar  
 35  15  17  ar  
 36  16  18  ar  
 37  16  46  1   
 38  17  19  1   
 39  17  20  ar  
 40  18  20  ar  
 41  18  21  ar  
 42  19  47  1   
 43  19  48  1   
 44  20  22  ar  
 45  21  23  ar  
 46  21  49  1   
 47  22  24  ar  
 48  22  50  1   
 49  23  24  ar  
 50  23  25  1   
 51  24  26  1   
 52  25  27  1   
 53  26  28  1   
 54  27  51  1   
 55  27  52  1   
 56  27  53  1   
 57  28  54  1   
 58  28  55  1   
 59  28  56  1   
@<TRIPOS>SUBSTRUCTURE
  1 ****  14 GROUP 4 **** **** 0

# MOE 2024.06 (io_trps.svl 2023.06)
