@<TRIPOS>MOLECULE
NONAME
45 47 1 0 0 
SMALL
USER_CHARGES


@<TRIPOS>ATOM
  1 S       -0.7640     1.6190     0.8210 S.3   1 <1>  -0.0800 
  2 C        0.9510     1.8560     0.9310 C.2   1 <1>   0.4420 
  3 C       -0.5190     0.0670     1.5410 C.2   1 <1>   0.2280 
  4 N        1.5460     0.8460     1.4540 N.2   1 <1>  -0.3380 
  5 N        1.4390     3.0570     0.4580 N.am  1 <1>  -0.4940 
  6 N        0.7010    -0.1730     1.8010 N.2   1 <1>  -0.3380 
  7 C        2.7240     3.5140     0.4230 C.2   1 <1>   0.5690 
  8 O        3.6660     2.8890     0.8360 O.2   1 <1>  -0.5700 
  9 C        2.9420     4.8930    -0.1730 C.3   1 <1>  -0.0990 
 10 C        4.4300     5.2670    -0.3410 C.3   1 <1>  -0.0990 
 11 C        4.6560     6.6420    -0.9550 C.2   1 <1>   0.5690 
 12 O        3.6840     7.2950    -1.2590 O.2   1 <1>  -0.5700 
 13 N        5.9300     7.1120    -1.1450 N.am  1 <1>  -0.6600 
 14 C        6.1790     8.4730    -1.7060 C.3   1 <1>   0.1400 
 15 C        7.1820     6.3940    -0.7700 C.3   1 <1>   0.1400 
 16 C        6.9120     9.3360    -0.6660 C.3   1 <1>  -0.0190 
 17 C        7.9380     7.2140     0.2810 C.3   1 <1>  -0.1600 
 18 C        7.2020    10.7340    -1.2210 C.2   1 <1>   0.4230 
 19 C        8.2120     8.6470    -0.2050 C.3   1 <1>  -0.1600 
 20 O        7.5070    10.8140    -2.3890 O.2   1 <1>  -0.5700 
 21 C        7.1180    11.8950    -0.3450 C.ar  1 <1>   0.3960 
 22 N        6.9630    11.7250     0.9790 N.ar  1 <1>  -0.6200 
 23 C        7.2070    13.1750    -0.8980 C.ar  1 <1>  -0.1500 
 24 C        6.8940    12.8110     1.7270 C.ar  1 <1>   0.1600 
 25 C        7.1340    14.3020    -0.1100 C.ar  1 <1>  -0.1500 
 26 C        6.9720    14.1040     1.2420 C.ar  1 <1>  -0.1500 
 27 H       -1.3790    -0.5560     1.7100 H     1 <1>   0.1500 
 28 H        0.7360     3.6870     0.0850 H     1 <1>   0.3700 
 29 H        2.4700     5.6180     0.4650 H     1 <1>   0.0800 
 30 H        2.4650     4.9310    -1.1350 H     1 <1>   0.0800 
 31 H        4.9040     4.5340    -0.9680 H     1 <1>   0.0800 
 32 H        4.9030     5.2460     0.6240 H     1 <1>   0.0800 
 33 H        5.2530     8.9500    -1.9800 H     1 <1>   0.0800 
 34 H        6.7760     8.3800    -2.5960 H     1 <1>   0.0800 
 35 H        7.7930     6.2800    -1.6500 H     1 <1>   0.0800 
 36 H        6.9770     5.4130    -0.3820 H     1 <1>   0.0800 
 37 H        6.2480     9.4250     0.1760 H     1 <1>   0.0800 
 38 H        8.8700     6.7270     0.5080 H     1 <1>   0.0800 
 39 H        7.3560     7.2430     1.1850 H     1 <1>   0.0800 
 40 H        8.6620     9.2170     0.5900 H     1 <1>   0.0800 
 41 H        8.9070     8.6170    -1.0270 H     1 <1>   0.0800 
 42 H        7.3340    13.2790    -1.9610 H     1 <1>   0.1500 
 43 H        6.7680    12.6670     2.7870 H     1 <1>   0.1500 
 44 H        7.2010    15.2910    -0.5310 H     1 <1>   0.1500 
 45 H        6.9080    14.9390     1.9160 H     1 <1>   0.1500 
@<TRIPOS>BOND
  1   1   2  1   
  2   1   3  1   
  3   2   4  2   
  4   2   5  1   
  5   3   6  2   
  6   3  27  1   
  7   4   6  1   
  8   5   7  am  
  9   5  28  1   
 10   7   8  2   
 11   7   9  1   
 12   9  10  1   
 13   9  29  1   
 14   9  30  1   
 15  10  11  1   
 16  10  31  1   
 17  10  32  1   
 18  11  12  2   
 19  11  13  am  
 20  13  14  1   
 21  13  15  1   
 22  14  16  1   
 23  14  33  1   
 24  14  34  1   
 25  15  17  1   
 26  15  35  1   
 27  15  36  1   
 28  16  18  1   
 29  16  19  1   
 30  16  37  1   
 31  17  19  1   
 32  17  38  1   
 33  17  39  1   
 34  18  20  2   
 35  18  21  1   
 36  19  40  1   
 37  19  41  1   
 38  21  22  ar  
 39  21  23  ar  
 40  22  24  ar  
 41  23  25  ar  
 42  23  42  1   
 43  24  26  ar  
 44  24  43  1   
 45  25  26  ar  
 46  25  44  1   
 47  26  45  1   
@<TRIPOS>SUBSTRUCTURE
  1 ****  11 GROUP 4 **** **** 0

# MOE 2024.06 (io_trps.svl 2023.06)
