@<TRIPOS>MOLECULE
NONAME
44 46 1 0 0 
SMALL
USER_CHARGES


@<TRIPOS>ATOM
  1 O       -0.5730     1.1860     1.0860 O.2   1 <1>  -0.5700 
  2 C       -0.2470     2.2830     0.6660 C.2   1 <1>   0.7150 
  3 N       -1.2320     3.1970     0.3550 N.am  1 <1>  -0.6600 
  4 C        1.1500     2.5920     0.4910 C.2   1 <1>  -0.2370 
  5 C       -2.6410     3.0310     0.8310 C.3   1 <1>   0.1400 
  6 C       -1.0370     4.3360    -0.5810 C.3   1 <1>   0.1400 
  7 N        2.0700     1.7080    -0.0190 N.pl3 1 <1>   0.0480 
  8 C        1.8210     3.7520     0.7900 C.2   1 <1>  -0.1500 
  9 C       -3.6160     2.8450    -0.3590 C.3   1 <1>   0.0000 
 10 C       -1.9840     4.1970    -1.7790 C.3   1 <1>  -0.1600 
 11 C        3.2780     2.3220    -0.0440 C.2   1 <1>  -0.3020 
 12 C        1.8110     0.3270    -0.4670 C.3   1 <1>   0.0160 
 13 C        3.1590     3.5820     0.4480 C.2   1 <1>  -0.1500 
 14 C       -5.0700     2.7150     0.1260 C.3   1 <1>   0.2000 
 15 C       -3.4490     4.0230    -1.3430 C.3   1 <1>  -0.1600 
 16 C       -3.3920     1.4800    -1.0330 C.3   1 <1>  -0.1600 
 17 O       -5.3470     3.6040     1.1680 O.3   1 <1>  -0.5600 
 18 C       -5.2300     1.2590     0.5740 C.3   1 <1>  -0.1600 
 19 C       -4.1420     0.4670    -0.1630 C.3   1 <1>  -0.1600 
 20 C       -6.6990     3.7660     1.4590 C.3   1 <1>   0.0400 
 21 H       -2.7150     2.1980     1.5080 H     1 <1>   0.0800 
 22 H       -2.9120     3.9130     1.3830 H     1 <1>   0.0800 
 23 H       -1.2410     5.2550    -0.0580 H     1 <1>   0.0800 
 24 H       -0.0250     4.3690    -0.9430 H     1 <1>   0.0800 
 25 H        1.4010     4.6440     1.2200 H     1 <1>   0.1500 
 26 H       -1.8970     5.0720    -2.3990 H     1 <1>   0.0800 
 27 H       -1.6740     3.3520    -2.3690 H     1 <1>   0.0800 
 28 H        4.1660     1.8360    -0.4060 H     1 <1>   0.1500 
 29 H        2.6850    -0.0690    -0.9500 H     1 <1>   0.0800 
 30 H        0.9850     0.3240    -1.1530 H     1 <1>   0.0800 
 31 H        1.5660    -0.2780     0.3870 H     1 <1>   0.0800 
 32 H        3.9340     4.3200     0.5650 H     1 <1>   0.1500 
 33 H       -5.7350     2.9210    -0.6970 H     1 <1>   0.0800 
 34 H       -4.0680     3.8750    -2.2100 H     1 <1>   0.0800 
 35 H       -3.7770     4.9260    -0.8580 H     1 <1>   0.0800 
 36 H       -3.8310     1.4850    -2.0150 H     1 <1>   0.0800 
 37 H       -2.3510     1.2250    -1.1260 H     1 <1>   0.0800 
 38 H       -5.0750     1.1760     1.6360 H     1 <1>   0.0800 
 39 H       -6.2090     0.8920     0.3200 H     1 <1>   0.0800 
 40 H       -3.4610     0.0360     0.5540 H     1 <1>   0.0800 
 41 H       -4.5590    -0.3240    -0.7620 H     1 <1>   0.0800 
 42 H       -6.7840     4.4830     2.2560 H     1 <1>   0.0800 
 43 H       -7.1150     2.8260     1.7740 H     1 <1>   0.0800 
 44 H       -7.2090     4.1340     0.5850 H     1 <1>   0.0800 
@<TRIPOS>BOND
  1   1   2  2   
  2   2   3  am  
  3   2   4  1   
  4   3   5  1   
  5   3   6  1   
  6   4   7  1   
  7   4   8  2   
  8   5   9  1   
  9   5  21  1   
 10   5  22  1   
 11   6  10  1   
 12   6  23  1   
 13   6  24  1   
 14   7  11  1   
 15   7  12  1   
 16   8  13  1   
 17   8  25  1   
 18   9  14  1   
 19   9  15  1   
 20   9  16  1   
 21  10  15  1   
 22  10  26  1   
 23  10  27  1   
 24  11  13  2   
 25  11  28  1   
 26  12  29  1   
 27  12  30  1   
 28  12  31  1   
 29  13  32  1   
 30  14  17  1   
 31  14  18  1   
 32  14  33  1   
 33  15  34  1   
 34  15  35  1   
 35  16  19  1   
 36  16  36  1   
 37  16  37  1   
 38  17  20  1   
 39  18  19  1   
 40  18  38  1   
 41  18  39  1   
 42  19  40  1   
 43  19  41  1   
 44  20  42  1   
 45  20  43  1   
 46  20  44  1   
@<TRIPOS>SUBSTRUCTURE
  1 ****   3 GROUP 4 **** **** 0

# MOE 2024.06 (io_trps.svl 2023.06)
