@<TRIPOS>MOLECULE
NONAME
52 55 1 0 0 
SMALL
USER_CHARGES


@<TRIPOS>ATOM
  1 O        0.5460    -0.1310     0.3770 O.2   1 <1>  -0.5700 
  2 C        1.7480    -0.2110     0.2530 C.2   1 <1>   0.7150 
  3 N        2.2640    -1.4410     0.5120 N.am  1 <1>  -0.7300 
  4 C        2.5040     0.9410    -0.1420 C.2   1 <1>  -0.2370 
  5 C        3.6340    -1.9410     0.8140 C.3   1 <1>   0.1400 
  6 N        3.7860     0.9620    -0.5720 N.pl3 1 <1>   0.3140 
  7 C        2.1000     2.2370    -0.1950 C.2   1 <1>  -0.1500 
  8 C        4.7730    -0.9280     0.6210 C.3   1 <1>   0.2000 
  9 N        4.2060     2.1920    -0.8780 N.2   1 <1>  -0.7070 
 10 C        4.7010    -0.1790    -0.7060 C.3   1 <1>   0.0960 
 11 C        3.1770     2.9940    -0.6510 C.2   1 <1>   0.2030 
 12 O        5.9770    -1.6200     0.6740 O.3   1 <1>  -0.6800 
 13 C        3.1080     4.4430    -0.8490 C.2   1 <1>   0.7160 
 14 O        2.0130     4.9620    -1.0070 O.2   1 <1>  -0.5700 
 15 N        4.2200     5.2760    -0.8720 N.am  1 <1>  -0.6600 
 16 C        4.1740     6.6100    -1.5380 C.3   1 <1>   0.1400 
 17 C        5.5460     4.8860    -0.3110 C.3   1 <1>   0.1400 
 18 C        4.6930     7.6940    -0.5940 C.3   1 <1>  -0.1600 
 19 C        6.0780     5.9830     0.6130 C.3   1 <1>  -0.1600 
 20 C        6.0950     7.3390    -0.0900 C.3   1 <1>   0.2000 
 21 O        6.5140     8.3020     0.8520 O.3   1 <1>  -0.3630 
 22 C        6.9720     9.5330     0.5050 C.ar  1 <1>   0.0820 
 23 C        7.2160    10.4150     1.5450 C.ar  1 <1>  -0.1500 
 24 C        7.2050     9.9430    -0.8050 C.ar  1 <1>  -0.1500 
 25 C        7.6840    11.6950     1.2980 C.ar  1 <1>  -0.1430 
 26 C        7.6730    11.2200    -1.0570 C.ar  1 <1>  -0.1500 
 27 C        7.9120    12.0930    -0.0090 C.ar  1 <1>  -0.1500 
 28 C        7.9490    12.6560     2.4430 C.3   1 <1>  -0.0970 
 29 H        1.5220    -2.1080     0.7370 H     1 <1>   0.3700 
 30 H        3.8140    -2.7910     0.1790 H     1 <1>   0.0800 
 31 H        3.6530    -2.2800     1.8360 H     1 <1>   0.0800 
 32 H        1.1290     2.6300     0.0560 H     1 <1>   0.1500 
 33 H        4.7880    -0.2280     1.4400 H     1 <1>   0.0800 
 34 H        5.6710     0.2080    -0.9610 H     1 <1>   0.0800 
 35 H        4.3480    -0.8140    -1.4970 H     1 <1>   0.0800 
 36 H        6.0710    -2.2470    -0.0710 H     1 <1>   0.4000 
 37 H        3.1700     6.8530    -1.8420 H     1 <1>   0.0800 
 38 H        4.7850     6.5740    -2.4230 H     1 <1>   0.0800 
 39 H        6.2330     4.7130    -1.1220 H     1 <1>   0.0800 
 40 H        5.4670     3.9790     0.2620 H     1 <1>   0.0800 
 41 H        4.0170     7.7830     0.2380 H     1 <1>   0.0800 
 42 H        4.7100     8.6320    -1.1160 H     1 <1>   0.0800 
 43 H        7.0740     5.7280     0.9260 H     1 <1>   0.0800 
 44 H        5.4500     6.0360     1.4850 H     1 <1>   0.0800 
 45 H        6.8080     7.3060    -0.8950 H     1 <1>   0.0800 
 46 H        7.0350    10.0850     2.5520 H     1 <1>   0.1500 
 47 H        7.0320     9.2900    -1.6380 H     1 <1>   0.1500 
 48 H        7.8540    11.5390    -2.0680 H     1 <1>   0.1500 
 49 H        8.2770    13.0840    -0.2150 H     1 <1>   0.1500 
 50 H        7.4350    12.3380     3.3330 H     1 <1>   0.0800 
 51 H        7.6070    13.6420     2.1880 H     1 <1>   0.0800 
 52 H        9.0040    12.6940     2.6480 H     1 <1>   0.0800 
@<TRIPOS>BOND
  1   1   2  2   
  2   2   3  am  
  3   2   4  1   
  4   3   5  1   
  5   3  29  1   
  6   4   6  1   
  7   4   7  2   
  8   5   8  1   
  9   5  30  1   
 10   5  31  1   
 11   6   9  1   
 12   6  10  1   
 13   7  11  1   
 14   7  32  1   
 15   8  10  1   
 16   8  12  1   
 17   8  33  1   
 18   9  11  2   
 19  10  34  1   
 20  10  35  1   
 21  11  13  1   
 22  12  36  1   
 23  13  14  2   
 24  13  15  am  
 25  15  16  1   
 26  15  17  1   
 27  16  18  1   
 28  16  37  1   
 29  16  38  1   
 30  17  19  1   
 31  17  39  1   
 32  17  40  1   
 33  18  20  1   
 34  18  41  1   
 35  18  42  1   
 36  19  20  1   
 37  19  43  1   
 38  19  44  1   
 39  20  21  1   
 40  20  45  1   
 41  21  22  1   
 42  22  23  ar  
 43  22  24  ar  
 44  23  25  ar  
 45  23  46  1   
 46  24  26  ar  
 47  24  47  1   
 48  25  27  ar  
 49  25  28  1   
 50  26  27  ar  
 51  26  48  1   
 52  27  49  1   
 53  28  50  1   
 54  28  51  1   
 55  28  52  1   
@<TRIPOS>SUBSTRUCTURE
  1 ****  17 GROUP 4 **** **** 0

# MOE 2024.06 (io_trps.svl 2023.06)
