@<TRIPOS>MOLECULE
NONAME
55 59 1 0 0 
SMALL
USER_CHARGES


@<TRIPOS>ATOM
  1 S        0.2130     0.0920     2.6780 S.3   1 <1>  -0.0800 
  2 C        0.1660    -0.0830     0.9360 C.2   1 <1>  -0.1400 
  3 C        1.9590     0.2660     2.6390 C.2   1 <1>  -0.1100 
  4 C        1.3960    -0.0170     0.4030 C.2   1 <1>  -0.1810 
  5 C       -1.1530    -0.2710     0.2200 C.3   1 <1>   0.0200 
  6 C        2.4300     0.1880     1.3780 C.2   1 <1>  -0.1810 
  7 C        1.6170    -0.1410    -1.0980 C.3   1 <1>   0.0210 
  8 C       -0.9450    -0.0320    -1.2860 C.3   1 <1>  -0.1600 
  9 C        3.8960     0.3020     1.0050 C.3   1 <1>   0.3210 
 10 C        0.3550    -0.6840    -1.8010 C.3   1 <1>  -0.1600 
 11 N        4.1040     1.6010     0.3520 N.am  1 <1>  -0.7300 
 12 C        5.1240     2.4570     0.6120 C.2   1 <1>   0.7160 
 13 O        6.0580     2.0420     1.2710 O.2   1 <1>  -0.5700 
 14 C        5.0820     3.8050     0.1310 C.2   1 <1>  -0.0860 
 15 C        3.9580     4.4690    -0.3840 C.2   1 <1>   0.3720 
 16 C        6.0570     4.7560     0.0690 C.2   1 <1>   0.0870 
 17 N        4.2410     5.6820    -0.7030 N.2   1 <1>  -0.4100 
 18 N        2.6720     3.9230    -0.5320 N.pl3 1 <1>  -0.8210 
 19 O        5.5040     5.8360    -0.4210 O.3   1 <1>  -0.0190 
 20 C        7.4590     4.7810     0.4050 C.ar  1 <1>   0.0530 
 21 C        1.8330     4.0890     0.6990 C.3   1 <1>   0.2090 
 22 C        1.9250     4.4460    -1.7230 C.3   1 <1>   0.2090 
 23 C        8.0220     5.9090     1.0040 C.ar  1 <1>  -0.1500 
 24 C        8.3070     3.7080     0.1340 C.ar  1 <1>  -0.1500 
 25 C        0.4180     3.5150     0.5030 C.3   1 <1>   0.1200 
 26 C        0.5160     3.8390    -1.8160 C.3   1 <1>   0.1200 
 27 C        9.3670     5.9620     1.3230 C.ar  1 <1>  -0.1500 
 28 C        9.6520     3.7530     0.4530 C.ar  1 <1>  -0.1500 
 29 O       -0.1980     4.0570    -0.6330 O.3   1 <1>  -0.5600 
 30 C       10.1860     4.8810     1.0490 C.ar  1 <1>  -0.1500 
 31 H        2.4570     0.4110     3.5810 H     1 <1>   0.1500 
 32 H       -1.8840     0.4200     0.6030 H     1 <1>   0.0800 
 33 H       -1.5020    -1.2730     0.3940 H     1 <1>   0.0800 
 34 H        2.4410    -0.8020    -1.2970 H     1 <1>   0.0800 
 35 H        1.8620     0.8290    -1.4910 H     1 <1>   0.0800 
 36 H       -0.9000     1.0280    -1.4630 H     1 <1>   0.0800 
 37 H       -1.7900    -0.4190    -1.8280 H     1 <1>   0.0800 
 38 H        4.1750    -0.4920     0.3350 H     1 <1>   0.0800 
 39 H        4.5050     0.2290     1.8910 H     1 <1>   0.0800 
 40 H        0.2970    -1.7450    -1.6280 H     1 <1>   0.0800 
 41 H        0.4450    -0.5310    -2.8630 H     1 <1>   0.0800 
 42 H        3.2680     2.0230    -0.0720 H     1 <1>   0.3700 
 43 H        1.7570     5.1350     0.9460 H     1 <1>   0.0800 
 44 H        2.3030     3.5860     1.5260 H     1 <1>   0.0800 
 45 H        2.4760     4.2130    -2.6180 H     1 <1>   0.0800 
 46 H        1.8330     5.5180    -1.6600 H     1 <1>   0.0800 
 47 H        7.3950     6.7550     1.2210 H     1 <1>   0.1500 
 48 H        7.9090     2.8250    -0.3320 H     1 <1>   0.1500 
 49 H       -0.1980     3.7440     1.3540 H     1 <1>   0.0800 
 50 H        0.4610     2.4500     0.3890 H     1 <1>   0.0800 
 51 H        0.5740     2.7810    -1.9960 H     1 <1>   0.0800 
 52 H       -0.0330     4.2980    -2.6190 H     1 <1>   0.0800 
 53 H        9.7770     6.8420     1.7860 H     1 <1>   0.1500 
 54 H       10.2840     2.9090     0.2380 H     1 <1>   0.1500 
 55 H       11.2320     4.9180     1.2980 H     1 <1>   0.1500 
@<TRIPOS>BOND
  1   1   2  1   
  2   1   3  1   
  3   2   4  2   
  4   2   5  1   
  5   3   6  2   
  6   3  31  1   
  7   4   6  1   
  8   4   7  1   
  9   5   8  1   
 10   5  32  1   
 11   5  33  1   
 12   6   9  1   
 13   7  10  1   
 14   7  34  1   
 15   7  35  1   
 16   8  10  1   
 17   8  36  1   
 18   8  37  1   
 19   9  11  1   
 20   9  38  1   
 21   9  39  1   
 22  10  40  1   
 23  10  41  1   
 24  11  12  am  
 25  11  42  1   
 26  12  13  2   
 27  12  14  1   
 28  14  15  1   
 29  14  16  2   
 30  15  17  2   
 31  15  18  1   
 32  16  19  1   
 33  16  20  1   
 34  17  19  1   
 35  18  21  1   
 36  18  22  1   
 37  20  23  ar  
 38  20  24  ar  
 39  21  25  1   
 40  21  43  1   
 41  21  44  1   
 42  22  26  1   
 43  22  45  1   
 44  22  46  1   
 45  23  27  ar  
 46  23  47  1   
 47  24  28  ar  
 48  24  48  1   
 49  25  29  1   
 50  25  49  1   
 51  25  50  1   
 52  26  29  1   
 53  26  51  1   
 54  26  52  1   
 55  27  30  ar  
 56  27  53  1   
 57  28  30  ar  
 58  28  54  1   
 59  30  55  1   
@<TRIPOS>SUBSTRUCTURE
  1 ****  11 GROUP 4 **** **** 0

# MOE 2024.06 (io_trps.svl 2023.06)
