@<TRIPOS>MOLECULE
NONAME
52 56 1 0 0 
SMALL
USER_CHARGES


@<TRIPOS>ATOM
  1 S        0.8270    -0.1490     0.5850 S.3   1 <1>  -0.0800 
  2 C       -0.0940    -1.4040     1.3720 C.2   1 <1>  -0.1400 
  3 C        2.2450    -1.1660     0.6880 C.2   1 <1>   0.2280 
  4 C        0.7220    -2.4390     1.6350 C.2   1 <1>   0.0460 
  5 C       -1.5620    -1.1430     1.6090 C.3   1 <1>   0.5230 
  6 N        2.0360    -2.2950     1.2380 N.2   1 <1>  -0.5650 
  7 C        0.3810    -3.7490     2.3160 C.3   1 <1>  -0.0590 
  8 N       -2.2260    -0.9590     0.2910 N.4   1 <1>  -0.9590 
  9 C       -3.6330    -0.4600     0.4550 C.3   1 <1>   0.3430 
 10 C       -2.1740    -2.2090    -0.5280 C.3   1 <1>   0.3430 
 11 C       -4.3070    -0.1690    -0.8990 C.3   1 <1>   0.1430 
 12 C       -2.7800    -1.9510    -1.9100 C.3   1 <1>  -0.1600 
 13 C       -5.7530     0.1850    -0.6430 C.ar  1 <1>   0.1670 
 14 C       -4.2160    -1.4030    -1.8200 C.3   1 <1>  -0.1600 
 15 C       -3.7670     1.1140    -1.5880 C.3   1 <1>  -0.1600 
 16 N       -6.5520    -0.4890     0.1450 N.ar  1 <1>  -0.6200 
 17 C       -6.1290     1.3040    -1.3170 C.ar  1 <1>  -0.1440 
 18 C       -4.9940     1.8720    -2.1320 C.3   1 <1>  -0.0170 
 19 C       -7.8020    -0.0080     0.2440 C.ar  1 <1>   0.6200 
 20 C       -7.4210     1.7340    -1.1590 C.ar  1 <1>   0.1600 
 21 N       -8.2580     1.0860    -0.3800 N.ar  1 <1>  -0.6200 
 22 C       -8.7280    -0.7270     1.1050 C.ar  1 <1>   0.0000 
 23 C       -9.7020    -0.0570     1.8510 C.ar  1 <1>  -0.1500 
 24 C       -8.6860    -2.1190     1.2250 C.ar  1 <1>  -0.1500 
 25 C      -10.5810    -0.7350     2.6750 C.ar  1 <1>  -0.1500 
 26 C       -9.5620    -2.8040     2.0480 C.ar  1 <1>  -0.1500 
 27 C      -10.5120    -2.1120     2.7770 C.ar  1 <1>  -0.1500 
 28 H        3.1670    -0.7770     0.2900 H     1 <1>   0.1500 
 29 H       -1.6700    -0.2540     2.2090 H     1 <1>   0.0800 
 30 H       -2.0050    -1.9710     2.1390 H     1 <1>   0.0800 
 31 H       -0.6520    -3.7900     2.6010 H     1 <1>   0.0800 
 32 H        0.9880    -3.8620     3.1970 H     1 <1>   0.0800 
 33 H        0.5950    -4.5670     1.6520 H     1 <1>   0.0800 
 34 H       -1.6760    -0.2480    -0.2080 H     1 <1>   0.4500 
 35 H       -3.6470     0.4380     1.0500 H     1 <1>   0.0800 
 36 H       -4.2210    -1.2040     0.9690 H     1 <1>   0.0800 
 37 H       -2.7290    -2.9920    -0.0350 H     1 <1>   0.0800 
 38 H       -1.1520    -2.5380    -0.6410 H     1 <1>   0.0800 
 39 H       -2.7910    -2.8760    -2.4600 H     1 <1>   0.0800 
 40 H       -2.1490    -1.2700    -2.4540 H     1 <1>   0.0800 
 41 H       -4.5810    -1.1600    -2.8040 H     1 <1>   0.0800 
 42 H       -4.8560    -2.1770    -1.4290 H     1 <1>   0.0800 
 43 H       -3.0630     0.9080    -2.3740 H     1 <1>   0.0800 
 44 H       -3.2880     1.7440    -0.8580 H     1 <1>   0.0800 
 45 H       -5.1530     1.6500    -3.1740 H     1 <1>   0.0800 
 46 H       -4.8990     2.9370    -1.9980 H     1 <1>   0.0800 
 47 H       -7.7750     2.6140    -1.6710 H     1 <1>   0.1500 
 48 H       -9.7710     1.0150     1.7810 H     1 <1>   0.1500 
 49 H       -7.9580    -2.6740     0.6610 H     1 <1>   0.1500 
 50 H      -11.3200    -0.1910     3.2380 H     1 <1>   0.1500 
 51 H       -9.5080    -3.8760     2.1210 H     1 <1>   0.1500 
 52 H      -11.1950    -2.6430     3.4180 H     1 <1>   0.1500 
@<TRIPOS>BOND
  1   1   2  1   
  2   1   3  1   
  3   2   4  2   
  4   2   5  1   
  5   3   6  2   
  6   3  28  1   
  7   4   6  1   
  8   4   7  1   
  9   5   8  1   
 10   5  29  1   
 11   5  30  1   
 12   7  31  1   
 13   7  32  1   
 14   7  33  1   
 15   8   9  1   
 16   8  10  1   
 17   8  34  1   
 18   9  11  1   
 19   9  35  1   
 20   9  36  1   
 21  10  12  1   
 22  10  37  1   
 23  10  38  1   
 24  11  13  1   
 25  11  14  1   
 26  11  15  1   
 27  12  14  1   
 28  12  39  1   
 29  12  40  1   
 30  13  16  ar  
 31  13  17  ar  
 32  14  41  1   
 33  14  42  1   
 34  15  18  1   
 35  15  43  1   
 36  15  44  1   
 37  16  19  ar  
 38  17  18  1   
 39  17  20  ar  
 40  18  45  1   
 41  18  46  1   
 42  19  21  ar  
 43  19  22  1   
 44  20  21  ar  
 45  20  47  1   
 46  22  23  ar  
 47  22  24  ar  
 48  23  25  ar  
 49  23  48  1   
 50  24  26  ar  
 51  24  49  1   
 52  25  27  ar  
 53  25  50  1   
 54  26  27  ar  
 55  26  51  1   
 56  27  52  1   
@<TRIPOS>SUBSTRUCTURE
  1 ****   9 GROUP 4 **** **** 0

# MOE 2024.06 (io_trps.svl 2023.06)
