@<TRIPOS>MOLECULE
NONAME
44 46 1 0 0 
SMALL
USER_CHARGES


@<TRIPOS>ATOM
  1 F       -0.7280     0.0060    -0.1030 F     1 <1>  -0.1900 
  2 C       -1.9730     0.3940     0.0120 C.ar  1 <1>   0.1900 
  3 C       -2.3130     1.6880     0.4190 C.ar  1 <1>   0.0830 
  4 C       -2.9400    -0.5450    -0.2890 C.ar  1 <1>  -0.1500 
  5 O       -1.4550     2.6990     0.7430 O.3   1 <1>  -0.3630 
  6 C       -3.6590     2.0000     0.5110 C.ar  1 <1>  -0.1500 
  7 C       -4.2750    -0.2010    -0.1860 C.ar  1 <1>  -0.1500 
  8 C       -0.0530     2.5730     0.6680 C.3   1 <1>   0.0400 
  9 C       -4.6690     1.0800     0.2140 C.ar  1 <1>   0.0530 
 10 C       -6.0600     1.4530     0.3280 C.2   1 <1>   0.0870 
 11 O       -6.4100     2.4730     1.0710 O.3   1 <1>  -0.0190 
 12 C       -7.2060     0.9450    -0.1970 C.2   1 <1>  -0.0860 
 13 N       -7.7000     2.6840     1.0790 N.2   1 <1>  -0.4100 
 14 C       -8.2040     1.7810     0.3120 C.2   1 <1>   0.3720 
 15 C       -7.4080    -0.1680    -1.0660 C.2   1 <1>   0.7160 
 16 N       -9.5760     1.6700     0.0330 N.pl3 1 <1>  -0.8210 
 17 O       -7.0260    -0.1100    -2.2210 O.2   1 <1>  -0.5700 
 18 N       -7.9730    -1.3380    -0.6170 N.am  1 <1>  -0.6600 
 19 C      -10.4890     2.3370     1.0040 C.3   1 <1>   0.1290 
 20 C       -9.9440     1.9720    -1.3770 C.3   1 <1>   0.1290 
 21 C       -8.1760    -2.5240    -1.4720 C.3   1 <1>   0.1400 
 22 C       -8.5160    -1.5510     0.7420 C.3   1 <1>   0.1400 
 23 C       -8.5980    -3.6230    -0.5050 C.3   1 <1>  -0.1600 
 24 C       -9.2530    -2.8830     0.6590 C.3   1 <1>  -0.1600 
 25 H       -2.6480    -1.5320    -0.6010 H     1 <1>   0.1500 
 26 H       -3.9260     2.9950     0.8210 H     1 <1>   0.1500 
 27 H       -5.0140    -0.9450    -0.4190 H     1 <1>   0.1500 
 28 H        0.3830     3.5130     0.9540 H     1 <1>   0.0800 
 29 H        0.2250     2.3350    -0.3430 H     1 <1>   0.0800 
 30 H        0.2660     1.8020     1.3480 H     1 <1>   0.0800 
 31 H      -10.2100     2.0720     2.0090 H     1 <1>   0.0800 
 32 H      -11.5030     2.0210     0.8320 H     1 <1>   0.0800 
 33 H      -10.4250     3.4070     0.8970 H     1 <1>   0.0800 
 34 H       -9.2570     1.5030    -2.0590 H     1 <1>   0.0800 
 35 H       -9.9220     3.0360    -1.5430 H     1 <1>   0.0800 
 36 H      -10.9330     1.6020    -1.5830 H     1 <1>   0.0800 
 37 H       -7.2730    -2.7780    -2.0010 H     1 <1>   0.0800 
 38 H       -8.9630    -2.3150    -2.1780 H     1 <1>   0.0800 
 39 H       -9.1850    -0.7550     1.0260 H     1 <1>   0.0800 
 40 H       -7.7020    -1.6100     1.4440 H     1 <1>   0.0800 
 41 H       -7.7200    -4.1420    -0.1620 H     1 <1>   0.0800 
 42 H       -9.2630    -4.3300    -0.9700 H     1 <1>   0.0800 
 43 H      -10.2880    -2.6920     0.4330 H     1 <1>   0.0800 
 44 H       -9.1930    -3.4320     1.5820 H     1 <1>   0.0800 
@<TRIPOS>BOND
  1   1   2  1   
  2   2   3  ar  
  3   2   4  ar  
  4   3   5  1   
  5   3   6  ar  
  6   4   7  ar  
  7   4  25  1   
  8   5   8  1   
  9   6   9  ar  
 10   6  26  1   
 11   7   9  ar  
 12   7  27  1   
 13   8  28  1   
 14   8  29  1   
 15   8  30  1   
 16   9  10  1   
 17  10  11  1   
 18  10  12  2   
 19  11  13  1   
 20  12  14  1   
 21  12  15  1   
 22  13  14  2   
 23  14  16  1   
 24  15  17  2   
 25  15  18  am  
 26  16  19  1   
 27  16  20  1   
 28  18  21  1   
 29  18  22  1   
 30  19  31  1   
 31  19  32  1   
 32  19  33  1   
 33  20  34  1   
 34  20  35  1   
 35  20  36  1   
 36  21  23  1   
 37  21  37  1   
 38  21  38  1   
 39  22  24  1   
 40  22  39  1   
 41  22  40  1   
 42  23  24  1   
 43  23  41  1   
 44  23  42  1   
 45  24  43  1   
 46  24  44  1   
@<TRIPOS>SUBSTRUCTURE
  1 ****  10 GROUP 4 **** **** 0

# MOE 2024.06 (io_trps.svl 2023.06)
