@<TRIPOS>MOLECULE
NONAME
54 57 1 0 0 
SMALL
USER_CHARGES


@<TRIPOS>ATOM
  1 S        0.0160     0.7930    -1.0860 S.o2  1 <1>   1.3330 
  2 O        0.1090     2.0330    -1.8240 O.2   1 <1>  -0.6500 
  3 O       -0.6940    -0.3370    -1.6280 O.2   1 <1>  -0.6500 
  4 N        1.5990     0.3000    -0.7240 N.am  1 <1>  -0.8490 
  5 C       -0.6630     1.2020     0.5300 C.3   1 <1>  -0.0550 
  6 C        1.6680    -1.0830    -0.2240 C.3   1 <1>   0.1160 
  7 C        2.4740     0.4030    -1.9020 C.3   1 <1>   0.1160 
  8 C       -0.2810     2.5870     1.1130 C.3   1 <1>  -0.0800 
  9 C       -0.9280     3.7630     0.3610 C.3   1 <1>   0.2000 
 10 C        1.2320     2.8830     1.1240 C.3   1 <1>   0.3430 
 11 O       -1.5740     4.5680     1.2940 O.3   1 <1>  -0.6800 
 12 C        0.2450     4.5510    -0.2350 C.3   1 <1>   0.3430 
 13 N        1.4020     4.2900     0.6730 N.4   1 <1>  -0.9590 
 14 C        1.4150     5.2540     1.8090 C.3   1 <1>   0.4860 
 15 C        1.7340     6.6310     1.2630 C.ar  1 <1>  -0.1440 
 16 C        3.0310     6.9510     0.8780 C.ar  1 <1>  -0.1500 
 17 C        0.7230     7.5780     1.1400 C.ar  1 <1>  -0.1500 
 18 C        3.2890     8.2070     0.3640 C.ar  1 <1>  -0.1440 
 19 C        0.9930     8.8340     0.6260 C.ar  1 <1>  -0.1500 
 20 C        2.2850     9.1490     0.2320 C.ar  1 <1>   0.0000 
 21 C        4.6140     8.7800    -0.1210 C.3   1 <1>   0.1270 
 22 C        2.8320    10.3510    -0.3270 C.ar  1 <1>   0.0000 
 23 C        4.1860    10.1750    -0.5490 C.ar  1 <1>  -0.1440 
 24 C        2.2360    11.5630    -0.6490 C.ar  1 <1>  -0.1500 
 25 C        4.9630    11.1830    -1.0880 C.ar  1 <1>  -0.1500 
 26 C        3.0060    12.5790    -1.1900 C.ar  1 <1>  -0.1500 
 27 C        4.3630    12.3910    -1.4090 C.ar  1 <1>  -0.1500 
 28 H       -1.7340     1.1610     0.4610 H     1 <1>   0.0800 
 29 H       -0.3770     0.4400     1.2280 H     1 <1>   0.0800 
 30 H        2.6810    -1.3320     0.0440 H     1 <1>   0.0800 
 31 H        1.3320    -1.7770    -0.9790 H     1 <1>   0.0800 
 32 H        1.0500    -1.2050     0.6480 H     1 <1>   0.0800 
 33 H        3.4750     0.0900    -1.6560 H     1 <1>   0.0800 
 34 H        2.5160     1.4210    -2.2510 H     1 <1>   0.0800 
 35 H        2.1000    -0.2170    -2.7020 H     1 <1>   0.0800 
 36 H       -0.6180     2.5920     2.1360 H     1 <1>   0.0800 
 37 H       -1.6380     3.4780    -0.3980 H     1 <1>   0.0800 
 38 H        1.7450     2.2400     0.4320 H     1 <1>   0.0800 
 39 H        1.6530     2.7310     2.1040 H     1 <1>   0.0800 
 40 H       -2.4790     4.2390     1.4810 H     1 <1>   0.4000 
 41 H        0.0130     5.5990    -0.3190 H     1 <1>   0.0800 
 42 H        0.4690     4.1670    -1.2160 H     1 <1>   0.0800 
 43 H        2.2730     4.4210     0.1440 H     1 <1>   0.4500 
 44 H        0.4580     5.2670     2.3040 H     1 <1>   0.0800 
 45 H        2.1680     4.9740     2.5270 H     1 <1>   0.0800 
 46 H        3.8370     6.2440     0.9750 H     1 <1>   0.1500 
 47 H       -0.2850     7.3450     1.4430 H     1 <1>   0.1500 
 48 H        0.2140     9.5700     0.5290 H     1 <1>   0.1500 
 49 H        5.3340     8.8260     0.6760 H     1 <1>   0.0800 
 50 H        4.9990     8.2220    -0.9560 H     1 <1>   0.0800 
 51 H        1.1850    11.7060    -0.4790 H     1 <1>   0.1500 
 52 H        6.0150    11.0360    -1.2560 H     1 <1>   0.1500 
 53 H        2.5500    13.5210    -1.4420 H     1 <1>   0.1500 
 54 H        4.9540    13.1870    -1.8290 H     1 <1>   0.1500 
@<TRIPOS>BOND
  1   1   2  2   
  2   1   3  2   
  3   1   4  am  
  4   1   5  1   
  5   4   6  1   
  6   4   7  1   
  7   5   8  1   
  8   5  28  1   
  9   5  29  1   
 10   6  30  1   
 11   6  31  1   
 12   6  32  1   
 13   7  33  1   
 14   7  34  1   
 15   7  35  1   
 16   8   9  1   
 17   8  10  1   
 18   8  36  1   
 19   9  11  1   
 20   9  12  1   
 21   9  37  1   
 22  10  13  1   
 23  10  38  1   
 24  10  39  1   
 25  11  40  1   
 26  12  13  1   
 27  12  41  1   
 28  12  42  1   
 29  13  14  1   
 30  13  43  1   
 31  14  15  1   
 32  14  44  1   
 33  14  45  1   
 34  15  16  ar  
 35  15  17  ar  
 36  16  18  ar  
 37  16  46  1   
 38  17  19  ar  
 39  17  47  1   
 40  18  20  ar  
 41  18  21  1   
 42  19  20  ar  
 43  19  48  1   
 44  20  22  1   
 45  21  23  1   
 46  21  49  1   
 47  21  50  1   
 48  22  23  ar  
 49  22  24  ar  
 50  23  25  ar  
 51  24  26  ar  
 52  24  51  1   
 53  25  27  ar  
 54  25  52  1   
 55  26  27  ar  
 56  26  53  1   
 57  27  54  1   
@<TRIPOS>SUBSTRUCTURE
  1 ****  15 GROUP 4 **** **** 0

# MOE 2024.06 (io_trps.svl 2023.06)
