@<TRIPOS>MOLECULE
NONAME
52 55 1 0 0 
SMALL
USER_CHARGES


@<TRIPOS>ATOM
  1 O        0.1680     0.6920     0.1080 O.2   1 <1>  -0.5700 
  2 C       -0.5060     1.7130     0.1150 C.2   1 <1>   0.7160 
  3 N       -1.8860     1.5610     0.0730 N.am  1 <1>  -0.6600 
  4 C        0.1830     3.0030     0.1850 C.2   1 <1>   0.2030 
  5 C       -2.8660     2.6340     0.4320 C.3   1 <1>   0.1400 
  6 C       -2.5310     0.2560    -0.2520 C.3   1 <1>   0.1400 
  7 N       -0.2350     4.1870    -0.2410 N.2   1 <1>  -0.7070 
  8 C        1.4650     3.1350     0.7340 C.2   1 <1>  -0.1500 
  9 C       -3.8630     2.8770    -0.7160 C.3   1 <1>   0.1430 
 10 C       -3.5430     0.4410    -1.3910 C.3   1 <1>  -0.1600 
 11 N        0.7480     5.0480     0.0400 N.pl3 1 <1>   0.3140 
 12 C        1.7930     4.4360     0.6320 C.2   1 <1>  -0.3320 
 13 C       -4.8390     3.9530    -0.2780 C.ar  1 <1>   0.1670 
 14 C       -4.5640     1.5500    -1.0790 C.3   1 <1>  -0.1600 
 15 C       -3.1830     3.5300    -1.9500 C.3   1 <1>  -0.1600 
 16 C        0.6340     6.4750    -0.2850 C.3   1 <1>   0.0160 
 17 C        3.0730     5.1240     1.0760 C.3   1 <1>  -0.0600 
 18 N       -5.8080     3.7950     0.5890 N.ar  1 <1>  -0.6200 
 19 C       -4.5760     5.1420    -0.8880 C.ar  1 <1>  -0.1430 
 20 C       -3.3930     5.0470    -1.8190 C.3   1 <1>  -0.0160 
 21 C       -6.5370     4.8870     0.8330 C.ar  1 <1>   0.7200 
 22 C       -5.3800     6.2090    -0.5770 C.ar  1 <1>   0.1600 
 23 N       -6.3650     6.0930     0.2820 N.ar  1 <1>  -0.6200 
 24 N       -7.5650     4.7570     1.7470 N.pl3 1 <1>  -0.8380 
 25 C       -8.2520     5.9390     2.3360 C.3   1 <1>   0.1290 
 26 C       -8.0690     3.4270     2.1880 C.3   1 <1>   0.1290 
 27 H       -2.3770     3.5520     0.6940 H     1 <1>   0.0800 
 28 H       -3.4150     2.3170     1.3020 H     1 <1>   0.0800 
 29 H       -3.0310    -0.1130     0.6270 H     1 <1>   0.0800 
 30 H       -1.7950    -0.4730    -0.5470 H     1 <1>   0.0800 
 31 H        2.0390     2.3230     1.1450 H     1 <1>   0.1500 
 32 H       -4.0610    -0.4880    -1.5550 H     1 <1>   0.0800 
 33 H       -3.0070     0.6760    -2.2940 H     1 <1>   0.0800 
 34 H       -5.2250     1.6960    -1.9150 H     1 <1>   0.0800 
 35 H       -5.1680     1.2380    -0.2440 H     1 <1>   0.0800 
 36 H       -3.6770     3.2020    -2.8470 H     1 <1>   0.0800 
 37 H       -2.1410     3.2790    -2.0300 H     1 <1>   0.0800 
 38 H       -0.2850     6.6450    -0.8130 H     1 <1>   0.0800 
 39 H        1.4630     6.7630    -0.9030 H     1 <1>   0.0800 
 40 H        0.6370     7.0430     0.6250 H     1 <1>   0.0800 
 41 H        3.7410     4.4080     1.5210 H     1 <1>   0.0800 
 42 H        2.8550     5.8850     1.8040 H     1 <1>   0.0800 
 43 H        3.5680     5.5730     0.2330 H     1 <1>   0.0800 
 44 H       -3.5920     5.5040    -2.7730 H     1 <1>   0.0800 
 45 H       -2.5340     5.5060    -1.3620 H     1 <1>   0.0800 
 46 H       -5.2120     7.1680    -1.0360 H     1 <1>   0.1500 
 47 H       -7.5840     6.7810     2.3800 H     1 <1>   0.0800 
 48 H       -8.5800     5.7160     3.3360 H     1 <1>   0.0800 
 49 H       -9.1030     6.1980     1.7310 H     1 <1>   0.0800 
 50 H       -7.9220     2.6920     1.4140 H     1 <1>   0.0800 
 51 H       -9.1210     3.4820     2.4050 H     1 <1>   0.0800 
 52 H       -7.5370     3.1170     3.0700 H     1 <1>   0.0800 
@<TRIPOS>BOND
  1   1   2  2   
  2   2   3  am  
  3   2   4  1   
  4   3   5  1   
  5   3   6  1   
  6   4   7  2   
  7   4   8  1   
  8   5   9  1   
  9   5  27  1   
 10   5  28  1   
 11   6  10  1   
 12   6  29  1   
 13   6  30  1   
 14   7  11  1   
 15   8  12  2   
 16   8  31  1   
 17   9  13  1   
 18   9  14  1   
 19   9  15  1   
 20  10  14  1   
 21  10  32  1   
 22  10  33  1   
 23  11  12  1   
 24  11  16  1   
 25  12  17  1   
 26  13  18  ar  
 27  13  19  ar  
 28  14  34  1   
 29  14  35  1   
 30  15  20  1   
 31  15  36  1   
 32  15  37  1   
 33  16  38  1   
 34  16  39  1   
 35  16  40  1   
 36  17  41  1   
 37  17  42  1   
 38  17  43  1   
 39  18  21  ar  
 40  19  20  1   
 41  19  22  ar  
 42  20  44  1   
 43  20  45  1   
 44  21  23  ar  
 45  21  24  1   
 46  22  23  ar  
 47  22  46  1   
 48  24  25  1   
 49  24  26  1   
 50  25  47  1   
 51  25  48  1   
 52  25  49  1   
 53  26  50  1   
 54  26  51  1   
 55  26  52  1   
@<TRIPOS>SUBSTRUCTURE
  1 ****   5 GROUP 4 **** **** 0

# MOE 2024.06 (io_trps.svl 2023.06)
