@<TRIPOS>MOLECULE
NONAME
41 42 1 0 0 
SMALL
USER_CHARGES


@<TRIPOS>ATOM
  1 F       10.9810     2.5320    -1.7180 F     1 <1>  -0.3400 
  2 C       11.2210     2.6000    -0.4140 C.3   1 <1>   1.1640 
  3 F       10.1050     3.0620     0.1480 F     1 <1>  -0.3400 
  4 F       12.1250     3.5610    -0.2600 F     1 <1>  -0.3400 
  5 C       11.6590     1.2580     0.1870 C.ar  1 <1>  -0.1440 
  6 C       10.8040     0.1610     0.1320 C.ar  1 <1>   0.0830 
  7 C       12.8980     1.1050     0.8040 C.ar  1 <1>  -0.1500 
  8 O        9.5970     0.2970    -0.4610 O.3   1 <1>  -0.3630 
  9 C       11.1880    -1.0630     0.6660 C.ar  1 <1>  -0.1500 
 10 C       13.2740    -0.1110     1.3480 C.ar  1 <1>  -0.1500 
 11 C        8.4340    -0.0460     0.2590 C.3   1 <1>   0.3440 
 12 C       12.4190    -1.1960     1.2770 C.ar  1 <1>  -0.1500 
 13 C        8.0100    -1.4740    -0.0710 C.ar  1 <1>  -0.1440 
 14 C        7.3560     0.9580    -0.1600 C.3   1 <1>  -0.1600 
 15 C        7.9840    -1.9240    -1.3840 C.ar  1 <1>  -0.1500 
 16 C        7.6300    -2.3370     0.9480 C.ar  1 <1>  -0.1500 
 17 C        5.9820     0.5540     0.3760 C.3   1 <1>   0.3430 
 18 C        7.5700    -3.2110    -1.6750 C.ar  1 <1>  -0.1500 
 19 C        7.2150    -3.6240     0.6570 C.ar  1 <1>  -0.1500 
 20 N        4.9320     1.4730    -0.1440 N.4   1 <1>  -0.9060 
 21 C        7.1820    -4.0610    -0.6550 C.ar  1 <1>  -0.1500 
 22 C        5.0040     2.8600     0.4140 C.3   1 <1>   0.2630 
 23 H       13.5890     1.9300     0.8700 H     1 <1>   0.1500 
 24 H       10.5400    -1.9180     0.5980 H     1 <1>   0.1500 
 25 H       14.2350    -0.2160     1.8230 H     1 <1>   0.1500 
 26 H        8.6480     0.0540     1.3110 H     1 <1>   0.0800 
 27 H       12.7160    -2.1440     1.6930 H     1 <1>   0.1500 
 28 H        7.3220     0.9860    -1.2340 H     1 <1>   0.0800 
 29 H        7.6360     1.9250     0.2150 H     1 <1>   0.0800 
 30 H        8.2960    -1.2770    -2.1880 H     1 <1>   0.1500 
 31 H        7.6590    -2.0220     1.9780 H     1 <1>   0.1500 
 32 H        5.9880     0.5660     1.4550 H     1 <1>   0.0800 
 33 H        5.7620    -0.4530     0.0550 H     1 <1>   0.0800 
 34 H        7.5550    -3.5550    -2.6960 H     1 <1>   0.1500 
 35 H        6.9230    -4.2930     1.4490 H     1 <1>   0.1500 
 36 H        4.0070     1.0710     0.0660 H     1 <1>   0.4500 
 37 H        5.0000     1.5070    -1.1710 H     1 <1>   0.4500 
 38 H        6.8630    -5.0640    -0.8830 H     1 <1>   0.1500 
 39 H        4.9250     2.8370     1.4890 H     1 <1>   0.0800 
 40 H        4.1980     3.4620     0.0230 H     1 <1>   0.0800 
 41 H        5.9380     3.3270     0.1450 H     1 <1>   0.0800 
@<TRIPOS>BOND
  1   1   2  1   
  2   2   3  1   
  3   2   4  1   
  4   2   5  1   
  5   5   6  ar  
  6   5   7  ar  
  7   6   8  1   
  8   6   9  ar  
  9   7  10  ar  
 10   7  23  1   
 11   8  11  1   
 12   9  12  ar  
 13   9  24  1   
 14  10  12  ar  
 15  10  25  1   
 16  11  13  1   
 17  11  14  1   
 18  11  26  1   
 19  12  27  1   
 20  13  15  ar  
 21  13  16  ar  
 22  14  17  1   
 23  14  28  1   
 24  14  29  1   
 25  15  18  ar  
 26  15  30  1   
 27  16  19  ar  
 28  16  31  1   
 29  17  20  1   
 30  17  32  1   
 31  17  33  1   
 32  18  21  ar  
 33  18  34  1   
 34  19  21  ar  
 35  19  35  1   
 36  20  22  1   
 37  20  36  1   
 38  20  37  1   
 39  21  38  1   
 40  22  39  1   
 41  22  40  1   
 42  22  41  1   
@<TRIPOS>SUBSTRUCTURE
  1 ****   8 GROUP 4 **** **** 0

# MOE 2024.06 (io_trps.svl 2023.06)
