@<TRIPOS>MOLECULE
NONAME
56 59 1 0 0 
SMALL
USER_CHARGES


@<TRIPOS>ATOM
  1 S       -1.1420     0.6120     1.6320 S.3   1 <1>  -0.0800 
  2 C       -0.4060     1.6080     0.3940 C.2   1 <1>  -0.1400 
  3 C        0.0710     1.1300     2.7940 C.2   1 <1>  -0.1100 
  4 C        0.6730     2.2570     0.8480 C.2   1 <1>  -0.1810 
  5 C       -0.9550     1.7010    -1.0040 C.3   1 <1>   0.0200 
  6 C        0.9450     1.9870     2.2310 C.2   1 <1>  -0.1500 
  7 C        1.4870     3.1740    -0.0690 C.3   1 <1>   0.4610 
  8 C       -0.3550     2.9630    -1.6440 C.3   1 <1>   0.1200 
  9 O        1.0310     3.0470    -1.4050 O.3   1 <1>  -0.5600 
 10 C        1.3590     4.6420     0.3670 C.3   1 <1>  -0.1600 
 11 C        2.9580     2.7460    -0.0810 C.3   1 <1>  -0.1600 
 12 C        2.2430     5.5660    -0.4730 C.3   1 <1>   0.1400 
 13 C        3.8170     3.6970    -0.9140 C.3   1 <1>   0.1400 
 14 N        3.6500     5.0840    -0.3970 N.am  1 <1>  -0.6600 
 15 C        4.7190     5.7780     0.1160 C.2   1 <1>   0.5690 
 16 O        5.7670     5.2230     0.3580 O.2   1 <1>  -0.5700 
 17 C        4.6050     7.2560     0.4570 C.3   1 <1>  -0.0990 
 18 C        5.9460     7.9980     0.3230 C.3   1 <1>   0.2510 
 19 N        5.9640     9.2940     1.0860 N.3   1 <1>  -0.8100 
 20 C        6.4260     8.1590    -1.1380 C.2   1 <1>   0.5690 
 21 C        4.8060    10.2060     0.9450 C.3   1 <1>   0.1900 
 22 C        7.3290     9.8800     1.0090 C.3   1 <1>   0.1100 
 23 O        5.9120     7.5650    -2.0570 O.2   1 <1>  -0.5700 
 24 N        7.4330     9.0330    -1.3890 N.am  1 <1>  -0.7300 
 25 C        4.7470    10.9500    -0.3890 C.3   1 <1>  -0.2400 
 26 C        4.7820    11.1890     2.1140 C.3   1 <1>  -0.2400 
 27 C        7.8970    10.0660    -0.4220 C.3   1 <1>   0.1400 
 28 H        0.0000     0.7310     3.7900 H     1 <1>   0.1500 
 29 H       -2.0270     1.7750    -0.9840 H     1 <1>   0.0800 
 30 H       -0.6770     0.8280    -1.5670 H     1 <1>   0.0800 
 31 H        1.7780     2.4440     2.7370 H     1 <1>   0.1500 
 32 H       -0.8240     3.8440    -1.2440 H     1 <1>   0.0800 
 33 H       -0.5050     2.9460    -2.7090 H     1 <1>   0.0800 
 34 H        1.6610     4.7280     1.3940 H     1 <1>   0.0800 
 35 H        0.3350     4.9570     0.3110 H     1 <1>   0.0800 
 36 H        3.0330     1.7470    -0.4710 H     1 <1>   0.0800 
 37 H        3.3460     2.7350     0.9200 H     1 <1>   0.0800 
 38 H        2.1470     6.5690    -0.1040 H     1 <1>   0.0800 
 39 H        1.9230     5.5520    -1.5020 H     1 <1>   0.0800 
 40 H        3.5100     3.6660    -1.9460 H     1 <1>   0.0800 
 41 H        4.8490     3.3920    -0.8680 H     1 <1>   0.0800 
 42 H        4.2580     7.3270     1.4700 H     1 <1>   0.0800 
 43 H        3.9060     7.7250    -0.2050 H     1 <1>   0.0800 
 44 H        6.6890     7.3800     0.7950 H     1 <1>   0.0800 
 45 H        3.9040     9.6260     1.0330 H     1 <1>   0.0800 
 46 H        7.9940     9.2140     1.5330 H     1 <1>   0.0800 
 47 H        7.3720    10.8160     1.5340 H     1 <1>   0.0800 
 48 H        7.7180     9.1260    -2.3650 H     1 <1>   0.3700 
 49 H        5.5490    11.6560    -0.4770 H     1 <1>   0.0800 
 50 H        3.8240    11.4990    -0.4470 H     1 <1>   0.0800 
 51 H        4.7680    10.2650    -1.2150 H     1 <1>   0.0800 
 52 H        5.5660    11.9170     2.0340 H     1 <1>   0.0800 
 53 H        4.8800    10.6560     3.0430 H     1 <1>   0.0800 
 54 H        3.8440    11.7140     2.1250 H     1 <1>   0.0800 
 55 H        8.9720    10.0450    -0.3740 H     1 <1>   0.0800 
 56 H        7.6160    11.0340    -0.7920 H     1 <1>   0.0800 
@<TRIPOS>BOND
  1   1   2  1   
  2   1   3  1   
  3   2   4  2   
  4   2   5  1   
  5   3   6  2   
  6   3  28  1   
  7   4   6  1   
  8   4   7  1   
  9   5   8  1   
 10   5  29  1   
 11   5  30  1   
 12   6  31  1   
 13   7   9  1   
 14   7  10  1   
 15   7  11  1   
 16   8   9  1   
 17   8  32  1   
 18   8  33  1   
 19  10  12  1   
 20  10  34  1   
 21  10  35  1   
 22  11  13  1   
 23  11  36  1   
 24  11  37  1   
 25  12  14  1   
 26  12  38  1   
 27  12  39  1   
 28  13  14  1   
 29  13  40  1   
 30  13  41  1   
 31  14  15  am  
 32  15  16  2   
 33  15  17  1   
 34  17  18  1   
 35  17  42  1   
 36  17  43  1   
 37  18  19  1   
 38  18  20  1   
 39  18  44  1   
 40  19  21  1   
 41  19  22  1   
 42  20  23  2   
 43  20  24  am  
 44  21  25  1   
 45  21  26  1   
 46  21  45  1   
 47  22  27  1   
 48  22  46  1   
 49  22  47  1   
 50  24  27  1   
 51  24  48  1   
 52  25  49  1   
 53  25  50  1   
 54  25  51  1   
 55  26  52  1   
 56  26  53  1   
 57  26  54  1   
 58  27  55  1   
 59  27  56  1   
@<TRIPOS>SUBSTRUCTURE
  1 ****  14 GROUP 4 **** **** 0

# MOE 2024.06 (io_trps.svl 2023.06)
