@<TRIPOS>MOLECULE
NONAME
41 43 1 0 0 
SMALL
USER_CHARGES


@<TRIPOS>ATOM
  1 O        0.3880     0.5340    -0.0410 O.3   1 <1>  -0.0190 
  2 N        1.3190    -0.3600    -0.2110 N.2   1 <1>  -0.4100 
  3 C        0.8350     1.7480    -0.2260 C.2   1 <1>  -0.0400 
  4 C        2.3850     0.2900    -0.5130 C.2   1 <1>   0.1080 
  5 C        2.1380     1.6590    -0.5410 C.2   1 <1>  -0.1500 
  6 C       -0.1200     2.9200    -0.0690 C.3   1 <1>   0.0200 
  7 C        3.7240    -0.3520    -0.7990 C.3   1 <1>  -0.0590 
  8 C        0.6020     4.2770    -0.1150 C.3   1 <1>  -0.0800 
  9 C       -0.3090     5.5020    -0.1420 C.3   1 <1>   0.2000 
 10 C        1.4950     4.5340     1.0960 C.3   1 <1>   0.2090 
 11 O       -1.3760     5.2900     0.7430 O.3   1 <1>  -0.5600 
 12 C        0.5990     6.6360     0.3650 C.3   1 <1>   0.2090 
 13 N        1.7300     6.0000     1.1030 N.pl3 1 <1>  -0.8380 
 14 C       -2.4770     6.1220     0.5530 C.3   1 <1>   0.0400 
 15 C        3.0000     6.4180     0.7450 C.ar  1 <1>   0.4100 
 16 N        3.4980     6.0130    -0.4310 N.ar  1 <1>  -0.3100 
 17 C        3.7100     7.2400     1.5970 C.ar  1 <1>  -0.1500 
 18 N        4.6970     6.3930    -0.8080 N.ar  1 <1>  -0.3100 
 19 C        4.9640     7.6390     1.2040 C.ar  1 <1>  -0.1500 
 20 C        5.4140     7.1840    -0.0170 C.ar  1 <1>   0.1670 
 21 C        6.7850     7.5780    -0.5260 C.3   1 <1>  -0.0970 
 22 H        2.8540     2.4280    -0.7690 H     1 <1>   0.1500 
 23 H       -0.8490     2.8730    -0.8580 H     1 <1>   0.0800 
 24 H       -0.6440     2.8170     0.8660 H     1 <1>   0.0800 
 25 H        4.0650    -0.0630    -1.7760 H     1 <1>   0.0800 
 26 H        3.6320    -1.4230    -0.7640 H     1 <1>   0.0800 
 27 H        4.4410    -0.0380    -0.0640 H     1 <1>   0.0800 
 28 H        1.2200     4.3130    -0.9940 H     1 <1>   0.0800 
 29 H       -0.6960     5.6910    -1.1280 H     1 <1>   0.0800 
 30 H        2.4200     3.9860     1.0350 H     1 <1>   0.0800 
 31 H        0.9840     4.2620     2.0040 H     1 <1>   0.0800 
 32 H        0.0650     7.3080     1.0120 H     1 <1>   0.0800 
 33 H        0.9850     7.1880    -0.4760 H     1 <1>   0.0800 
 34 H       -3.2170     5.8670     1.2910 H     1 <1>   0.0800 
 35 H       -2.8800     5.9610    -0.4320 H     1 <1>   0.0800 
 36 H       -2.1820     7.1490     0.6800 H     1 <1>   0.0800 
 37 H        3.2760     7.5410     2.5310 H     1 <1>   0.1500 
 38 H        5.5630     8.2780     1.8260 H     1 <1>   0.1500 
 39 H        7.2910     8.2140     0.1750 H     1 <1>   0.0800 
 40 H        6.6860     8.1000    -1.4610 H     1 <1>   0.0800 
 41 H        7.3770     6.6950    -0.6850 H     1 <1>   0.0800 
@<TRIPOS>BOND
  1   1   2  1   
  2   1   3  1   
  3   2   4  2   
  4   3   5  2   
  5   3   6  1   
  6   4   5  1   
  7   4   7  1   
  8   5  22  1   
  9   6   8  1   
 10   6  23  1   
 11   6  24  1   
 12   7  25  1   
 13   7  26  1   
 14   7  27  1   
 15   8   9  1   
 16   8  10  1   
 17   8  28  1   
 18   9  11  1   
 19   9  12  1   
 20   9  29  1   
 21  10  13  1   
 22  10  30  1   
 23  10  31  1   
 24  11  14  1   
 25  12  13  1   
 26  12  32  1   
 27  12  33  1   
 28  13  15  1   
 29  14  34  1   
 30  14  35  1   
 31  14  36  1   
 32  15  16  ar  
 33  15  17  ar  
 34  16  18  ar  
 35  17  19  ar  
 36  17  37  1   
 37  18  20  ar  
 38  19  20  ar  
 39  19  38  1   
 40  20  21  1   
 41  21  39  1   
 42  21  40  1   
 43  21  41  1   
@<TRIPOS>SUBSTRUCTURE
  1 ****  10 GROUP 4 **** **** 0

# MOE 2024.06 (io_trps.svl 2023.06)
