@<TRIPOS>MOLECULE
NONAME
54 56 1 0 0 
SMALL
USER_CHARGES


@<TRIPOS>ATOM
  1 S       -1.3300    -0.8910     1.8160 S.o2  1 <1>   1.2040 
  2 O       -1.4000     0.4220     1.2150 O.2   1 <1>  -0.6500 
  3 O       -1.7880    -1.0940     3.1720 O.2   1 <1>  -0.6500 
  4 C       -2.1490    -2.0840     0.7270 C.ar  1 <1>  -0.0090 
  5 C        0.3710    -1.4170     1.7450 C.3   1 <1>  -0.1350 
  6 C       -2.3180    -1.8230    -0.6270 C.ar  1 <1>  -0.1500 
  7 C       -2.6090    -3.3020     1.2110 C.ar  1 <1>  -0.1500 
  8 C       -2.9320    -2.7360    -1.4670 C.ar  1 <1>  -0.1500 
  9 C       -3.2220    -4.2230     0.3800 C.ar  1 <1>  -0.1500 
 10 C       -3.3970    -3.9420    -0.9660 C.ar  1 <1>  -0.1430 
 11 C       -4.1000    -4.9310    -1.8810 C.3   1 <1>   0.4860 
 12 N       -5.5240    -5.0510    -1.4720 N.4   1 <1>  -0.9590 
 13 C       -6.2610    -6.1340    -2.2020 C.3   1 <1>   0.3430 
 14 C       -6.2580    -3.7570    -1.4310 C.3   1 <1>   0.3430 
 15 C       -7.6630    -6.3940    -1.6020 C.3   1 <1>   0.1400 
 16 C       -6.9720    -3.6320    -0.0820 C.3   1 <1>  -0.1600 
 17 N       -7.7120    -6.0450    -0.1510 N.am  1 <1>  -0.6600 
 18 C       -8.1010    -4.6450     0.1730 C.3   1 <1>   0.1400 
 19 C       -6.9760    -6.7990     0.7290 C.2   1 <1>   0.7160 
 20 O       -5.8930    -6.3410     1.0540 O.2   1 <1>  -0.5700 
 21 C       -7.3750    -8.1280     1.1170 C.2   1 <1>  -0.0860 
 22 C       -8.6540    -8.7050     1.1170 C.2   1 <1>   0.1080 
 23 C       -6.5870    -9.1430     1.5700 C.2   1 <1>  -0.3020 
 24 N       -8.6440    -9.9380     1.5030 N.2   1 <1>  -0.7070 
 25 C       -9.9570    -8.0280     0.7450 C.3   1 <1>  -0.0590 
 26 N       -7.3660   -10.2080     1.7920 N.pl3 1 <1>   0.3140 
 27 C       -6.9600   -11.5250     2.2950 C.3   1 <1>   0.0160 
 28 H        0.9760    -0.7770     2.3570 H     1 <1>   0.0800 
 29 H        0.7360    -1.3710     0.7380 H     1 <1>   0.0800 
 30 H        0.4680    -2.4230     2.1060 H     1 <1>   0.0800 
 31 H       -1.9680    -0.8850    -1.0280 H     1 <1>   0.1500 
 32 H       -2.4910    -3.5320     2.2590 H     1 <1>   0.1500 
 33 H       -3.0430    -2.4880    -2.5100 H     1 <1>   0.1500 
 34 H       -3.5630    -5.1550     0.8030 H     1 <1>   0.1500 
 35 H       -3.6130    -5.8900    -1.8040 H     1 <1>   0.0800 
 36 H       -4.0350    -4.5950    -2.9030 H     1 <1>   0.0800 
 37 H       -5.5070    -5.3640    -0.4770 H     1 <1>   0.4500 
 38 H       -5.6960    -7.0500    -2.1310 H     1 <1>   0.0800 
 39 H       -6.3560    -5.8900    -3.2470 H     1 <1>   0.0800 
 40 H       -6.9690    -3.6960    -2.2390 H     1 <1>   0.0800 
 41 H       -5.5670    -2.9350    -1.5290 H     1 <1>   0.0800 
 42 H       -7.9170    -7.4330    -1.7330 H     1 <1>   0.0800 
 43 H       -8.3960    -5.8160    -2.1370 H     1 <1>   0.0800 
 44 H       -7.3970    -2.6460    -0.0190 H     1 <1>   0.0800 
 45 H       -6.2470    -3.6950     0.7110 H     1 <1>   0.0800 
 46 H       -8.9680    -4.3790    -0.4090 H     1 <1>   0.0800 
 47 H       -8.3870    -4.5930     1.2120 H     1 <1>   0.0800 
 48 H       -5.5260    -9.1400     1.7430 H     1 <1>   0.1500 
 49 H      -10.0120    -7.0540     1.1930 H     1 <1>   0.0800 
 50 H      -10.7840    -8.6150     1.1030 H     1 <1>   0.0800 
 51 H      -10.0350    -7.9420    -0.3220 H     1 <1>   0.0800 
 52 H       -5.8950   -11.5540     2.4210 H     1 <1>   0.0800 
 53 H       -7.2670   -12.2760     1.5920 H     1 <1>   0.0800 
 54 H       -7.4440   -11.6990     3.2380 H     1 <1>   0.0800 
@<TRIPOS>BOND
  1   1   2  2   
  2   1   3  2   
  3   1   4  1   
  4   1   5  1   
  5   4   6  ar  
  6   4   7  ar  
  7   5  28  1   
  8   5  29  1   
  9   5  30  1   
 10   6   8  ar  
 11   6  31  1   
 12   7   9  ar  
 13   7  32  1   
 14   8  10  ar  
 15   8  33  1   
 16   9  10  ar  
 17   9  34  1   
 18  10  11  1   
 19  11  12  1   
 20  11  35  1   
 21  11  36  1   
 22  12  13  1   
 23  12  14  1   
 24  12  37  1   
 25  13  15  1   
 26  13  38  1   
 27  13  39  1   
 28  14  16  1   
 29  14  40  1   
 30  14  41  1   
 31  15  17  1   
 32  15  42  1   
 33  15  43  1   
 34  16  18  1   
 35  16  44  1   
 36  16  45  1   
 37  17  18  1   
 38  17  19  am  
 39  18  46  1   
 40  18  47  1   
 41  19  20  2   
 42  19  21  1   
 43  21  22  1   
 44  21  23  2   
 45  22  24  2   
 46  22  25  1   
 47  23  26  1   
 48  23  48  1   
 49  24  26  1   
 50  25  49  1   
 51  25  50  1   
 52  25  51  1   
 53  26  27  1   
 54  27  52  1   
 55  27  53  1   
 56  27  54  1   
@<TRIPOS>SUBSTRUCTURE
  1 ****  20 GROUP 4 **** **** 0

# MOE 2024.06 (io_trps.svl 2023.06)
