@<TRIPOS>MOLECULE
NONAME
51 55 1 0 0 
SMALL
USER_CHARGES


@<TRIPOS>ATOM
  1 S       -2.1960     2.4400    -1.0460 S.3   1 <1>  -0.0800 
  2 C       -0.9500     3.0620     0.0160 C.2   1 <1>  -0.1400 
  3 C       -1.0940     2.5150    -2.4130 C.2   1 <1>  -0.1100 
  4 C        0.1970     3.2860    -0.6360 C.2   1 <1>  -0.1810 
  5 C       -1.1830     3.3070     1.4820 C.3   1 <1>   0.0200 
  6 C        0.1140     2.9780    -2.0360 C.2   1 <1>  -0.1500 
  7 C        1.4310     3.8160     0.1000 C.3   1 <1>   0.4610 
  8 C       -0.0650     4.2440     1.9670 C.3   1 <1>   0.1200 
  9 O        1.1940     3.8220     1.4960 O.3   1 <1>  -0.5600 
 10 C        1.7790     5.2410    -0.3550 C.3   1 <1>  -0.1600 
 11 C        2.6260     2.8810    -0.1190 C.3   1 <1>  -0.1600 
 12 C        3.0520     5.7480     0.3240 C.3   1 <1>   0.1400 
 13 C        3.8980     3.4150     0.5420 C.3   1 <1>   0.1400 
 14 N        4.1610     4.7950     0.0480 N.am  1 <1>  -0.6600 
 15 C        5.4090     5.1800    -0.4000 C.2   1 <1>   0.7160 
 16 O        6.3620     4.4510    -0.1940 O.2   1 <1>  -0.5700 
 17 C        5.6110     6.4190    -1.1080 C.2   1 <1>  -0.0860 
 18 C        4.8240     6.9180    -2.1480 C.2   1 <1>   0.1390 
 19 C        6.5760     7.3700    -0.9730 C.2   1 <1>  -0.3020 
 20 N        5.2380     8.0600    -2.5990 N.2   1 <1>  -0.7070 
 21 N        6.3340     8.3420    -1.8660 N.pl3 1 <1>   0.3140 
 22 C        7.1320     9.5660    -2.0970 C.3   1 <1>   0.2390 
 23 C        7.4900    10.2520    -0.7840 C.ar  1 <1>  -0.1440 
 24 C        8.7850    10.2000    -0.2900 C.ar  1 <1>  -0.1500 
 25 C        6.5160    10.9330    -0.0700 C.ar  1 <1>  -0.1500 
 26 C        9.1020    10.8240     0.9050 C.ar  1 <1>  -0.1500 
 27 C        6.8320    11.5570     1.1240 C.ar  1 <1>  -0.1500 
 28 C        8.1260    11.5030     1.6120 C.ar  1 <1>  -0.1500 
 29 H       -1.4740     2.1990    -3.3690 H     1 <1>   0.1500 
 30 H       -1.1510     2.3770     2.0200 H     1 <1>   0.0800 
 31 H       -2.1400     3.7680     1.6400 H     1 <1>   0.0800 
 32 H        0.9560     3.1150    -2.6910 H     1 <1>   0.1500 
 33 H       -0.0280     4.2520     3.0420 H     1 <1>   0.0800 
 34 H       -0.2410     5.2470     1.6210 H     1 <1>   0.0800 
 35 H        0.9610     5.9050    -0.1510 H     1 <1>   0.0800 
 36 H        1.9300     5.2460    -1.4180 H     1 <1>   0.0800 
 37 H        2.8140     2.7670    -1.1700 H     1 <1>   0.0800 
 38 H        2.3900     1.9090     0.2750 H     1 <1>   0.0800 
 39 H        2.8980     5.8030     1.3890 H     1 <1>   0.0800 
 40 H        3.2890     6.7390    -0.0220 H     1 <1>   0.0800 
 41 H        4.7230     2.7630     0.3120 H     1 <1>   0.0800 
 42 H        3.7780     3.4390     1.6130 H     1 <1>   0.0800 
 43 H        3.9610     6.4060    -2.5400 H     1 <1>   0.1500 
 44 H        7.4040     7.3860    -0.2870 H     1 <1>   0.1500 
 45 H        6.5560    10.2340    -2.7110 H     1 <1>   0.0800 
 46 H        8.0190     9.2920    -2.6350 H     1 <1>   0.0800 
 47 H        9.5550     9.6740    -0.8280 H     1 <1>   0.1500 
 48 H        5.5050    10.9780    -0.4400 H     1 <1>   0.1500 
 49 H       10.1070    10.7800     1.2850 H     1 <1>   0.1500 
 50 H        6.0720    12.0840     1.6740 H     1 <1>   0.1500 
 51 H        8.3720    11.9870     2.5410 H     1 <1>   0.1500 
@<TRIPOS>BOND
  1   1   2  1   
  2   1   3  1   
  3   2   4  2   
  4   2   5  1   
  5   3   6  2   
  6   3  29  1   
  7   4   6  1   
  8   4   7  1   
  9   5   8  1   
 10   5  30  1   
 11   5  31  1   
 12   6  32  1   
 13   7   9  1   
 14   7  10  1   
 15   7  11  1   
 16   8   9  1   
 17   8  33  1   
 18   8  34  1   
 19  10  12  1   
 20  10  35  1   
 21  10  36  1   
 22  11  13  1   
 23  11  37  1   
 24  11  38  1   
 25  12  14  1   
 26  12  39  1   
 27  12  40  1   
 28  13  14  1   
 29  13  41  1   
 30  13  42  1   
 31  14  15  am  
 32  15  16  2   
 33  15  17  1   
 34  17  18  1   
 35  17  19  2   
 36  18  20  2   
 37  18  43  1   
 38  19  21  1   
 39  19  44  1   
 40  20  21  1   
 41  21  22  1   
 42  22  23  1   
 43  22  45  1   
 44  22  46  1   
 45  23  24  ar  
 46  23  25  ar  
 47  24  26  ar  
 48  24  47  1   
 49  25  27  ar  
 50  25  48  1   
 51  26  28  ar  
 52  26  49  1   
 53  27  28  ar  
 54  27  50  1   
 55  28  51  1   
@<TRIPOS>SUBSTRUCTURE
  1 ****  12 GROUP 4 **** **** 0

# MOE 2024.06 (io_trps.svl 2023.06)
