@<TRIPOS>MOLECULE
NONAME
52 54 1 0 0 
SMALL
USER_CHARGES


@<TRIPOS>ATOM
  1 O       -1.2460     0.2240     2.0550 O.2   1 <1>  -0.5700 
  2 C       -0.9080     1.2750     1.5580 C.2   1 <1>   0.5690 
  3 N       -1.8050     2.0500     0.8570 N.am  1 <1>  -0.6600 
  4 C        0.5360     1.7160     1.7890 C.3   1 <1>   0.1810 
  5 C       -1.4680     3.3800     0.2640 C.3   1 <1>   0.1400 
  6 C       -3.1790     1.5290     0.5920 C.3   1 <1>   0.1400 
  7 O        1.1980     2.0190     0.5690 O.3   1 <1>  -0.3620 
  8 C       -2.6860     4.2970     0.3640 C.3   1 <1>  -0.1600 
  9 C       -3.7980     2.2260    -0.6210 C.3   1 <1>  -0.1600 
 10 C        2.4240     2.5960     0.5630 C.ar  1 <1>   0.0820 
 11 C       -3.9040     3.7560    -0.4330 C.3   1 <1>   0.2800 
 12 C        2.9030     3.0260    -0.6640 C.ar  1 <1>  -0.1500 
 13 C        3.2010     2.7750     1.7040 C.ar  1 <1>  -0.1500 
 14 O       -3.8160     4.2590    -1.7340 O.3   1 <1>  -0.5600 
 15 C       -5.2680     4.1210     0.2320 C.3   1 <1>  -0.1600 
 16 C        4.1410     3.6390    -0.7670 C.ar  1 <1>  -0.1440 
 17 C        4.4370     3.3900     1.6050 C.ar  1 <1>  -0.1500 
 18 C       -4.1330     5.5980    -2.0460 C.3   1 <1>   0.1200 
 19 C       -6.0990     5.1900    -0.4970 C.3   1 <1>   0.2800 
 20 C        4.9040     3.8210     0.3750 C.ar  1 <1>  -0.1500 
 21 C        4.6590     4.1100    -2.1130 C.3   1 <1>  -0.0970 
 22 C       -5.1610     6.2530    -1.1060 C.3   1 <1>   0.2000 
 23 O       -6.7970     4.5770    -1.5210 O.3   1 <1>  -0.6800 
 24 C       -7.1700     5.7920     0.4190 C.3   1 <1>  -0.2400 
 25 O       -4.4770     6.9390    -0.0970 O.3   1 <1>  -0.6800 
 26 H        1.0780     0.9240     2.2730 H     1 <1>   0.0800 
 27 H        0.5410     2.5930     2.4090 H     1 <1>   0.0800 
 28 H       -0.6430     3.8310     0.7870 H     1 <1>   0.0800 
 29 H       -1.1840     3.2500    -0.7670 H     1 <1>   0.0800 
 30 H       -3.1300     0.4690     0.4080 H     1 <1>   0.0800 
 31 H       -3.7890     1.6900     1.4640 H     1 <1>   0.0800 
 32 H       -2.4040     5.2730     0.0200 H     1 <1>   0.0800 
 33 H       -2.9200     4.3780     1.4100 H     1 <1>   0.0800 
 34 H       -4.7600     1.7990    -0.8330 H     1 <1>   0.0800 
 35 H       -3.1720     2.0070    -1.4700 H     1 <1>   0.0800 
 36 H        2.2950     2.8750    -1.5370 H     1 <1>   0.1500 
 37 H        2.8690     2.4440     2.6690 H     1 <1>   0.1500 
 38 H       -5.8760     3.2480     0.3760 H     1 <1>   0.0800 
 39 H       -5.0740     4.4790     1.2250 H     1 <1>   0.0800 
 40 H        5.0400     3.5320     2.4850 H     1 <1>   0.1500 
 41 H       -3.2240     6.1710    -2.0800 H     1 <1>   0.0800 
 42 H       -4.5490     5.5760    -3.0380 H     1 <1>   0.0800 
 43 H        5.8660     4.2980     0.3100 H     1 <1>   0.1500 
 44 H        5.7160     3.9280    -2.1890 H     1 <1>   0.0800 
 45 H        4.4780     5.1640    -2.2250 H     1 <1>   0.0800 
 46 H        4.1680     3.5860    -2.9130 H     1 <1>   0.0800 
 47 H       -5.7350     6.9890    -1.6420 H     1 <1>   0.0800 
 48 H       -7.3650     3.8730    -1.1610 H     1 <1>   0.4000 
 49 H       -6.7090     6.3040     1.2450 H     1 <1>   0.0800 
 50 H       -7.8120     5.0270     0.8150 H     1 <1>   0.0800 
 51 H       -7.7600     6.5090    -0.1240 H     1 <1>   0.0800 
 52 H       -3.8940     6.3160     0.3740 H     1 <1>   0.4000 
@<TRIPOS>BOND
  1   1   2  2   
  2   2   3  am  
  3   2   4  1   
  4   3   5  1   
  5   3   6  1   
  6   4   7  1   
  7   4  26  1   
  8   4  27  1   
  9   5   8  1   
 10   5  28  1   
 11   5  29  1   
 12   6   9  1   
 13   6  30  1   
 14   6  31  1   
 15   7  10  1   
 16   8  11  1   
 17   8  32  1   
 18   8  33  1   
 19   9  11  1   
 20   9  34  1   
 21   9  35  1   
 22  10  12  ar  
 23  10  13  ar  
 24  11  14  1   
 25  11  15  1   
 26  12  16  ar  
 27  12  36  1   
 28  13  17  ar  
 29  13  37  1   
 30  14  18  1   
 31  15  19  1   
 32  15  38  1   
 33  15  39  1   
 34  16  20  ar  
 35  16  21  1   
 36  17  20  ar  
 37  17  40  1   
 38  18  22  1   
 39  18  41  1   
 40  18  42  1   
 41  19  22  1   
 42  19  23  1   
 43  19  24  1   
 44  20  43  1   
 45  21  44  1   
 46  21  45  1   
 47  21  46  1   
 48  22  25  1   
 49  22  47  1   
 50  23  48  1   
 51  24  49  1   
 52  24  50  1   
 53  24  51  1   
 54  25  52  1   
@<TRIPOS>SUBSTRUCTURE
  1 ****   5 GROUP 4 **** **** 0

# MOE 2024.06 (io_trps.svl 2023.06)
