@<TRIPOS>MOLECULE
NONAME
52 53 1 0 0 
SMALL
USER_CHARGES


@<TRIPOS>ATOM
  1 S        0.1640     0.3970     1.9160 S.o2  1 <1>   1.4470 
  2 O       -0.0430     1.7090     2.4950 O.2   1 <1>  -0.6500 
  3 O        1.0930    -0.4900     2.5860 O.2   1 <1>  -0.6500 
  4 N       -1.3340    -0.3980     1.9090 N.am  1 <1>  -0.8490 
  5 C        0.6840     0.5410     0.1810 C.ar  1 <1>  -0.0090 
  6 C       -1.3480    -1.8010     1.4220 C.3   1 <1>   0.1960 
  7 C       -2.5160     0.4140     1.6030 C.3   1 <1>   0.1960 
  8 C        0.1700     1.5070    -0.6820 C.ar  1 <1>   0.0820 
  9 C        1.6260    -0.3420    -0.3400 C.ar  1 <1>  -0.1500 
 10 C       -2.2040    -1.9860     0.1520 C.3   1 <1>   0.2000 
 11 C       -3.7650    -0.4650     1.5270 C.3   1 <1>  -0.1600 
 12 O       -0.7630     2.3810    -0.2620 O.3   1 <1>  -0.3630 
 13 C        0.5800     1.5810    -2.0050 C.ar  1 <1>  -0.1500 
 14 C        2.0490    -0.2730    -1.6570 C.ar  1 <1>  -0.1430 
 15 O       -1.6180    -1.2460    -0.8710 O.3   1 <1>  -0.6800 
 16 C       -3.6890    -1.5670     0.4220 C.3   1 <1>  -0.1060 
 17 C       -0.3240     3.6890     0.0180 C.3   1 <1>   0.1200 
 18 C        1.5200     0.6960    -2.4910 C.ar  1 <1>  -0.1500 
 19 C        3.0740    -1.2640    -2.1780 C.3   1 <1>  -0.0970 
 20 C       -4.4050    -2.8080     1.0110 C.2   1 <1>   0.9060 
 21 C       -4.4410    -1.1280    -0.8830 C.3   1 <1>  -0.1600 
 22 C       -1.4960     4.4580     0.6190 C.3   1 <1>  -0.2400 
 23 O       -5.6250    -2.7570     1.2150 O.co2 1 <1>  -0.9000 
 24 O       -3.7570    -3.8160     1.3240 O.co2 1 <1>  -0.9000 
 25 C       -4.2190     0.3060    -1.4150 C.3   1 <1>  -0.1600 
 26 C       -5.0260     0.5360    -2.6950 C.3   1 <1>  -0.2400 
 27 H       -0.3500    -2.1570     1.2360 H     1 <1>   0.0800 
 28 H       -1.7620    -2.4240     2.1980 H     1 <1>   0.0800 
 29 H       -2.6400     1.1600     2.3710 H     1 <1>   0.0800 
 30 H       -2.3910     0.9180     0.6650 H     1 <1>   0.0800 
 31 H        2.0350    -1.1040     0.3020 H     1 <1>   0.1500 
 32 H       -2.1530    -3.0120    -0.1700 H     1 <1>   0.0800 
 33 H       -3.8760    -0.9320     2.4910 H     1 <1>   0.0800 
 34 H       -4.6450     0.1360     1.3940 H     1 <1>   0.0800 
 35 H        0.1540     2.3270    -2.6510 H     1 <1>   0.1500 
 36 H       -1.7270    -0.3000    -0.6640 H     1 <1>   0.4000 
 37 H        0.4930     3.6340     0.7180 H     1 <1>   0.0800 
 38 H        0.0090     4.1450    -0.8980 H     1 <1>   0.0800 
 39 H        1.8320     0.7580    -3.5200 H     1 <1>   0.1500 
 40 H        3.5700    -0.8770    -3.0490 H     1 <1>   0.0800 
 41 H        2.5850    -2.1860    -2.4390 H     1 <1>   0.0800 
 42 H        3.8150    -1.4650    -1.4250 H     1 <1>   0.0800 
 43 H       -4.2020    -1.8360    -1.6580 H     1 <1>   0.0800 
 44 H       -5.4990    -1.2250    -0.7060 H     1 <1>   0.0800 
 45 H       -1.8060     3.9880     1.5360 H     1 <1>   0.0800 
 46 H       -2.3190     4.4830    -0.0720 H     1 <1>   0.0800 
 47 H       -1.1950     5.4660     0.8370 H     1 <1>   0.0800 
 48 H       -4.5340     1.0270    -0.6830 H     1 <1>   0.0800 
 49 H       -3.1850     0.4880    -1.6360 H     1 <1>   0.0800 
 50 H       -6.0760     0.3940    -2.5060 H     1 <1>   0.0800 
 51 H       -4.7150    -0.1540    -3.4590 H     1 <1>   0.0800 
 52 H       -4.8730     1.5390    -3.0530 H     1 <1>   0.0800 
@<TRIPOS>BOND
  1   1   2  2   
  2   1   3  2   
  3   1   4  am  
  4   1   5  1   
  5   4   6  1   
  6   4   7  1   
  7   5   8  ar  
  8   5   9  ar  
  9   6  10  1   
 10   6  27  1   
 11   6  28  1   
 12   7  11  1   
 13   7  29  1   
 14   7  30  1   
 15   8  12  1   
 16   8  13  ar  
 17   9  14  ar  
 18   9  31  1   
 19  10  15  1   
 20  10  16  1   
 21  10  32  1   
 22  11  16  1   
 23  11  33  1   
 24  11  34  1   
 25  12  17  1   
 26  13  18  ar  
 27  13  35  1   
 28  14  18  ar  
 29  14  19  1   
 30  15  36  1   
 31  16  20  1   
 32  16  21  1   
 33  17  22  1   
 34  17  37  1   
 35  17  38  1   
 36  18  39  1   
 37  19  40  1   
 38  19  41  1   
 39  19  42  1   
 40  20  23  ar  
 41  20  24  ar  
 42  21  25  1   
 43  21  43  1   
 44  21  44  1   
 45  22  45  1   
 46  22  46  1   
 47  22  47  1   
 48  25  26  1   
 49  25  48  1   
 50  25  49  1   
 51  26  50  1   
 52  26  51  1   
 53  26  52  1   
@<TRIPOS>SUBSTRUCTURE
  1 ****  15 GROUP 4 **** **** 0

# MOE 2024.06 (io_trps.svl 2023.06)
