@<TRIPOS>MOLECULE
NONAME
41 43 1 0 0 
SMALL
USER_CHARGES


@<TRIPOS>ATOM
  1 S        1.4350     0.0060    -1.0060 S.o2  1 <1>   1.3330 
  2 O        1.2830     0.1950    -2.4310 O.2   1 <1>  -0.6500 
  3 O        2.3370    -1.0110    -0.5130 O.2   1 <1>  -0.6500 
  4 N       -0.1120    -0.3270    -0.3860 N.am  1 <1>  -0.8490 
  5 C        1.8530     1.5830    -0.2470 C.3   1 <1>  -0.0550 
  6 C       -0.3830    -1.7660    -0.3110 C.3   1 <1>   0.1160 
  7 C       -1.1930     0.3400    -1.1220 C.3   1 <1>   0.1160 
  8 C        2.3910     1.5550     1.2020 C.3   1 <1>  -0.0800 
  9 C        3.7760     0.9140     1.3310 C.3   1 <1>   0.2890 
 10 C        1.5420     0.8140     2.2410 C.3   1 <1>   0.1200 
 11 N        4.7520     1.9360     1.7650 N.pl3 1 <1>  -0.8530 
 12 C        3.5730    -0.1390     2.4200 C.3   1 <1>   0.1200 
 13 O        2.4580     0.2820     3.1400 O.3   1 <1>  -0.5600 
 14 C        5.3110     2.8310     0.9080 C.2   1 <1>   0.5620 
 15 O        6.0220     3.8250     1.4200 O.3   1 <1>  -0.2800 
 16 N        5.2040     2.8270    -0.3750 N.2   1 <1>  -0.5650 
 17 C        6.4220     4.5280     0.3780 C.ar  1 <1>   0.1400 
 18 C        5.9210     3.9160    -0.7440 C.ar  1 <1>   0.2270 
 19 C        7.1980     5.6750     0.3180 C.ar  1 <1>  -0.1500 
 20 C        6.1920     4.4510    -1.9990 C.ar  1 <1>  -0.1500 
 21 C        7.4650     6.2070    -0.9310 C.ar  1 <1>  -0.1500 
 22 C        6.9640     5.5960    -2.0840 C.ar  1 <1>  -0.1500 
 23 H        2.6030     2.0530    -0.8540 H     1 <1>   0.0800 
 24 H        0.9910     2.2190    -0.2790 H     1 <1>   0.0800 
 25 H       -1.3660    -1.9420     0.0930 H     1 <1>   0.0800 
 26 H        0.3340    -2.2440     0.3350 H     1 <1>   0.0800 
 27 H       -0.3170    -2.2110    -1.2900 H     1 <1>   0.0800 
 28 H       -2.1350     0.1720    -0.6290 H     1 <1>   0.0800 
 29 H       -1.2530    -0.0390    -2.1300 H     1 <1>   0.0800 
 30 H       -1.0170     1.4010    -1.1650 H     1 <1>   0.0800 
 31 H        2.4510     2.5780     1.5300 H     1 <1>   0.0800 
 32 H        4.1230     0.4520     0.4210 H     1 <1>   0.0800 
 33 H        0.9940    -0.0110     1.8270 H     1 <1>   0.0800 
 34 H        0.8710     1.4690     2.7700 H     1 <1>   0.0800 
 35 H        4.7210     2.1870     2.7550 H     1 <1>   0.4000 
 36 H        4.4190    -0.2290     3.0770 H     1 <1>   0.0800 
 37 H        3.3420    -1.0940     1.9800 H     1 <1>   0.0800 
 38 H        7.5710     6.1230     1.2210 H     1 <1>   0.1500 
 39 H        5.7970     3.9640    -2.8730 H     1 <1>   0.1500 
 40 H        8.0640     7.0970    -1.0210 H     1 <1>   0.1500 
 41 H        7.1850     6.0250    -3.0470 H     1 <1>   0.1500 
@<TRIPOS>BOND
  1   1   2  2   
  2   1   3  2   
  3   1   4  am  
  4   1   5  1   
  5   4   6  1   
  6   4   7  1   
  7   5   8  1   
  8   5  23  1   
  9   5  24  1   
 10   6  25  1   
 11   6  26  1   
 12   6  27  1   
 13   7  28  1   
 14   7  29  1   
 15   7  30  1   
 16   8   9  1   
 17   8  10  1   
 18   8  31  1   
 19   9  11  1   
 20   9  12  1   
 21   9  32  1   
 22  10  13  1   
 23  10  33  1   
 24  10  34  1   
 25  11  14  1   
 26  11  35  1   
 27  12  13  1   
 28  12  36  1   
 29  12  37  1   
 30  14  15  1   
 31  14  16  2   
 32  15  17  1   
 33  16  18  1   
 34  17  18  ar  
 35  17  19  ar  
 36  18  20  ar  
 37  19  21  ar  
 38  19  38  1   
 39  20  22  ar  
 40  20  39  1   
 41  21  22  ar  
 42  21  40  1   
 43  22  41  1   
@<TRIPOS>SUBSTRUCTURE
  1 ****   9 GROUP 4 **** **** 0

# MOE 2024.06 (io_trps.svl 2023.06)
