@<TRIPOS>MOLECULE
NONAME
55 57 1 0 0 
SMALL
USER_CHARGES


@<TRIPOS>ATOM
  1 O       -0.6400     0.9080    -2.2250 O.2   1 <1>  -0.5700 
  2 C       -1.6110     1.1330    -1.5410 C.2   1 <1>   0.5690 
  3 N       -2.8190     0.5280    -1.7830 N.am  1 <1>  -0.6600 
  4 C       -1.4670     2.1190    -0.3890 C.3   1 <1>  -0.0990 
  5 C       -4.0780     0.7670    -1.0240 C.3   1 <1>   0.1400 
  6 C       -2.9720    -0.4990    -2.8510 C.3   1 <1>   0.1400 
  7 C       -0.0160     2.5490    -0.1070 C.3   1 <1>  -0.0990 
  8 C       -4.5010    -0.5380    -0.3470 C.3   1 <1>  -0.1600 
  9 C       -3.3900    -1.8250    -2.2100 C.3   1 <1>  -0.1600 
 10 C        0.0470     3.5580     1.0180 C.2   1 <1>   0.5690 
 11 C       -4.6670    -1.6800    -1.3670 C.3   1 <1>   0.4240 
 12 O       -0.3010     3.2230     2.1230 O.2   1 <1>  -0.5700 
 13 N        0.4830     4.8140     0.7410 N.am  1 <1>  -0.7300 
 14 O       -5.6710    -1.3030    -2.2800 O.3   1 <1>  -0.5600 
 15 C       -5.0010    -3.0120    -0.6630 C.ar  1 <1>  -0.1440 
 16 C        0.6010     5.9140     1.7310 C.3   1 <1>   0.0600 
 17 C       -6.9970    -1.5430    -1.9220 C.3   1 <1>   0.1200 
 18 C       -6.2110    -3.6610    -0.8860 C.ar  1 <1>  -0.1440 
 19 C       -4.0900    -3.5910     0.2160 C.ar  1 <1>  -0.1500 
 20 C       -7.2200    -3.0500    -1.8360 C.3   1 <1>  -0.0170 
 21 C       -6.5020    -4.8540    -0.2430 C.ar  1 <1>  -0.1500 
 22 C       -4.3670    -4.7890     0.8520 C.ar  1 <1>   0.0820 
 23 C       -5.5970    -5.4170     0.6380 C.ar  1 <1>   0.0820 
 24 O       -3.4080    -5.3020     1.6610 O.3   1 <1>  -0.3630 
 25 O       -5.9610    -6.5650     1.2620 O.3   1 <1>  -0.3620 
 26 C       -2.8180    -6.5110     1.2360 C.3   1 <1>   0.0400 
 27 C       -6.1240    -6.4930     2.6610 C.3   1 <1>   0.0400 
 28 H       -1.8590     1.6640     0.5020 H     1 <1>   0.0800 
 29 H       -2.0550     2.9890    -0.6150 H     1 <1>   0.0800 
 30 H       -4.8440     1.0870    -1.7110 H     1 <1>   0.0800 
 31 H       -3.9580     1.5370    -0.2850 H     1 <1>   0.0800 
 32 H       -2.0490    -0.6340    -3.3900 H     1 <1>   0.0800 
 33 H       -3.7210    -0.1730    -3.5520 H     1 <1>   0.0800 
 34 H        0.4190     2.9690    -0.9960 H     1 <1>   0.0800 
 35 H        0.5660     1.6900     0.1720 H     1 <1>   0.0800 
 36 H       -5.4150    -0.3940     0.1960 H     1 <1>   0.0800 
 37 H       -3.7470    -0.8040     0.3710 H     1 <1>   0.0800 
 38 H       -2.5770    -2.1680    -1.6000 H     1 <1>   0.0800 
 39 H       -3.5550    -2.5630    -2.9730 H     1 <1>   0.0800 
 40 H        0.7760     5.0390    -0.2120 H     1 <1>   0.3700 
 41 H        0.2760     5.5800     2.7030 H     1 <1>   0.0800 
 42 H       -0.0120     6.7450     1.4280 H     1 <1>   0.0800 
 43 H        1.6260     6.2340     1.8000 H     1 <1>   0.0800 
 44 H       -7.6270    -1.1120    -2.6800 H     1 <1>   0.0800 
 45 H       -7.2020    -1.0680    -0.9790 H     1 <1>   0.0800 
 46 H       -3.1450    -3.1220     0.4190 H     1 <1>   0.1500 
 47 H       -7.1080    -3.4850    -2.8130 H     1 <1>   0.0800 
 48 H       -8.2200    -3.2410    -1.4920 H     1 <1>   0.0800 
 49 H       -7.4360    -5.3570    -0.4150 H     1 <1>   0.1500 
 50 H       -2.0150    -6.7480     1.9090 H     1 <1>   0.0800 
 51 H       -2.4390    -6.3800     0.2380 H     1 <1>   0.0800 
 52 H       -3.5550    -7.2940     1.2540 H     1 <1>   0.0800 
 53 H       -6.5250    -7.4300     3.0010 H     1 <1>   0.0800 
 54 H       -6.8060    -5.6930     2.8900 H     1 <1>   0.0800 
 55 H       -5.1700    -6.3140     3.1230 H     1 <1>   0.0800 
@<TRIPOS>BOND
  1   1   2  2   
  2   2   3  am  
  3   2   4  1   
  4   3   5  1   
  5   3   6  1   
  6   4   7  1   
  7   4  28  1   
  8   4  29  1   
  9   5   8  1   
 10   5  30  1   
 11   5  31  1   
 12   6   9  1   
 13   6  32  1   
 14   6  33  1   
 15   7  10  1   
 16   7  34  1   
 17   7  35  1   
 18   8  11  1   
 19   8  36  1   
 20   8  37  1   
 21   9  11  1   
 22   9  38  1   
 23   9  39  1   
 24  10  12  2   
 25  10  13  am  
 26  11  14  1   
 27  11  15  1   
 28  13  16  1   
 29  13  40  1   
 30  14  17  1   
 31  15  18  ar  
 32  15  19  ar  
 33  16  41  1   
 34  16  42  1   
 35  16  43  1   
 36  17  20  1   
 37  17  44  1   
 38  17  45  1   
 39  18  20  1   
 40  18  21  ar  
 41  19  22  ar  
 42  19  46  1   
 43  20  47  1   
 44  20  48  1   
 45  21  23  ar  
 46  21  49  1   
 47  22  23  ar  
 48  22  24  1   
 49  23  25  1   
 50  24  26  1   
 51  25  27  1   
 52  26  50  1   
 53  26  51  1   
 54  26  52  1   
 55  27  53  1   
 56  27  54  1   
 57  27  55  1   
@<TRIPOS>SUBSTRUCTURE
  1 ****   8 GROUP 4 **** **** 0

# MOE 2024.06 (io_trps.svl 2023.06)
