@<TRIPOS>MOLECULE
NONAME
53 56 1 0 0 
SMALL
USER_CHARGES


@<TRIPOS>ATOM
  1 O        0.8570    -0.1820    -0.8460 O.2   1 <1>  -0.5700 
  2 C        1.8960    -0.7910    -0.9610 C.2   1 <1>   0.5690 
  3 N        3.0450    -0.1370    -1.3660 N.am  1 <1>  -0.6600 
  4 C        1.8970    -2.2980    -0.6370 C.3   1 <1>   0.1250 
  5 C        4.4040    -0.7580    -1.4450 C.3   1 <1>   0.1400 
  6 C        2.9500     1.2880    -1.8130 C.3   1 <1>   0.1400 
  7 C        0.5470    -2.9960    -0.6380 C.ar  1 <1>  -0.1440 
  8 C        2.4350    -2.6120     0.7770 C.3   1 <1>  -0.1600 
  9 C        5.2320    -0.4720    -0.1800 C.3   1 <1>   0.1100 
 10 C        4.1930     2.1370    -1.5190 C.3   1 <1>  -0.1600 
 11 C        0.4360    -3.8660     0.4200 C.ar  1 <1>  -0.1440 
 12 C       -0.4910    -2.8620    -1.5440 C.ar  1 <1>  -0.1500 
 13 C        1.6730    -3.8500     1.2790 C.3   1 <1>  -0.0170 
 14 N        5.8040     0.8890    -0.1330 N.3   1 <1>  -0.8100 
 15 C        4.7650     1.9360    -0.1140 C.3   1 <1>   0.1100 
 16 C       -0.7060    -4.6250     0.6000 C.ar  1 <1>  -0.1500 
 17 C       -1.6400    -3.6180    -1.3730 C.ar  1 <1>  -0.1500 
 18 C        6.7020     1.0210     1.0380 C.3   1 <1>   0.2480 
 19 C       -1.7470    -4.4970    -0.3050 C.ar  1 <1>  -0.1500 
 20 C        7.5980     2.2480     0.9000 C.2   1 <1>  -0.0380 
 21 N        8.0170     2.5900    -0.3560 N.pl3 1 <1>  -0.5500 
 22 C        8.0180     3.0400     1.9110 C.2   1 <1>  -0.1360 
 23 C        8.8140     3.6710    -0.5810 C.2   1 <1>   0.4390 
 24 C        8.8550     4.1540     1.6360 C.2   1 <1>   0.7670 
 25 N        9.2370     4.4410     0.3510 N.2   1 <1>  -0.6610 
 26 C        9.1910     3.9450    -2.0150 C.3   1 <1>  -0.1790 
 27 O        9.2440     4.8740     2.5410 O.2   1 <1>  -0.5700 
 28 H        2.4830    -2.8150    -1.3700 H     1 <1>   0.0800 
 29 H        4.9290    -0.3950    -2.3120 H     1 <1>   0.0800 
 30 H        4.3200    -1.8210    -1.5610 H     1 <1>   0.0800 
 31 H        2.1140     1.7570    -1.3220 H     1 <1>   0.0800 
 32 H        2.7480     1.3060    -2.8700 H     1 <1>   0.0800 
 33 H        2.2020    -1.7850     1.4260 H     1 <1>   0.0800 
 34 H        3.4960    -2.7760     0.7790 H     1 <1>   0.0800 
 35 H        6.0450    -1.1780    -0.1660 H     1 <1>   0.0800 
 36 H        4.6280    -0.6480     0.6930 H     1 <1>   0.0800 
 37 H        3.8980     3.1660    -1.6150 H     1 <1>   0.0800 
 38 H        4.9530     1.9650    -2.2580 H     1 <1>   0.0800 
 39 H       -0.4080    -2.1740    -2.3670 H     1 <1>   0.1500 
 40 H        1.4260    -3.7660     2.3230 H     1 <1>   0.0800 
 41 H        2.2400    -4.7470     1.1060 H     1 <1>   0.0800 
 42 H        3.9840     1.6930     0.5890 H     1 <1>   0.0800 
 43 H        5.2020     2.8710     0.1920 H     1 <1>   0.0800 
 44 H       -0.7860    -5.3030     1.4310 H     1 <1>   0.1500 
 45 H       -2.4530    -3.5180    -2.0700 H     1 <1>   0.1500 
 46 H        7.3420     0.1580     1.0920 H     1 <1>   0.0800 
 47 H        6.1270     1.0730     1.9470 H     1 <1>   0.0800 
 48 H       -2.6430    -5.0790    -0.1780 H     1 <1>   0.1500 
 49 H        7.6380     2.0400    -1.1350 H     1 <1>   0.4000 
 50 H        7.7560     2.8790     2.9380 H     1 <1>   0.1500 
 51 H        9.7370     3.1110    -2.4150 H     1 <1>   0.0800 
 52 H        9.8110     4.8220    -2.0700 H     1 <1>   0.0800 
 53 H        8.3060     4.1110    -2.6000 H     1 <1>   0.0800 
@<TRIPOS>BOND
  1   1   2  2   
  2   2   3  am  
  3   2   4  1   
  4   3   5  1   
  5   3   6  1   
  6   4   7  1   
  7   4   8  1   
  8   4  28  1   
  9   5   9  1   
 10   5  29  1   
 11   5  30  1   
 12   6  10  1   
 13   6  31  1   
 14   6  32  1   
 15   7  11  ar  
 16   7  12  ar  
 17   8  13  1   
 18   8  33  1   
 19   8  34  1   
 20   9  14  1   
 21   9  35  1   
 22   9  36  1   
 23  10  15  1   
 24  10  37  1   
 25  10  38  1   
 26  11  13  1   
 27  11  16  ar  
 28  12  17  ar  
 29  12  39  1   
 30  13  40  1   
 31  13  41  1   
 32  14  15  1   
 33  14  18  1   
 34  15  42  1   
 35  15  43  1   
 36  16  19  ar  
 37  16  44  1   
 38  17  19  ar  
 39  17  45  1   
 40  18  20  1   
 41  18  46  1   
 42  18  47  1   
 43  19  48  1   
 44  20  21  1   
 45  20  22  2   
 46  21  23  1   
 47  21  49  1   
 48  22  24  1   
 49  22  50  1   
 50  23  25  2   
 51  23  26  1   
 52  24  25  1   
 53  24  27  2   
 54  26  51  1   
 55  26  52  1   
 56  26  53  1   
@<TRIPOS>SUBSTRUCTURE
  1 ****   9 GROUP 4 **** **** 0

# MOE 2024.06 (io_trps.svl 2023.06)
