@<TRIPOS>MOLECULE
NONAME
50 52 1 0 0 
SMALL
USER_CHARGES


@<TRIPOS>ATOM
  1 O        1.1070    -0.3760     0.2240 O.2   1 <1>  -0.5700 
  2 C        1.4980    -0.7870    -0.8560 C.2   1 <1>   0.7150 
  3 N        2.0570     0.1070    -1.7230 N.am  1 <1>  -0.7300 
  4 C        1.3880    -2.1850    -1.2120 C.2   1 <1>   0.0550 
  5 C        2.1570     1.5670    -1.4910 C.3   1 <1>   0.2780 
  6 O        0.9030    -3.0680    -0.3440 O.3   1 <1>  -0.2800 
  7 C        1.6980    -2.8530    -2.3600 C.2   1 <1>  -0.1500 
  8 C        3.3480     1.8720    -0.5920 C.2   1 <1>  -0.0380 
  9 C        0.8840    -4.2610    -0.8940 C.2   1 <1>  -0.0400 
 10 C        1.3720    -4.1950    -2.1530 C.2   1 <1>  -0.1500 
 11 N        3.3380     1.3730     0.6830 N.pl3 1 <1>  -0.5500 
 12 C        4.4270     2.6060    -0.9440 C.2   1 <1>  -0.1360 
 13 C        0.3550    -5.4400    -0.0930 C.3   1 <1>   0.5230 
 14 C        4.3620     1.6060     1.5520 C.2   1 <1>   0.4390 
 15 C        5.4720     2.8220    -0.0080 C.2   1 <1>   0.7670 
 16 N       -1.0820    -5.2190     0.2380 N.4   1 <1>  -0.9590 
 17 N        5.3990     2.2960     1.2550 N.2   1 <1>  -0.6610 
 18 C        4.2300     0.9990     2.9260 C.3   1 <1>  -0.1790 
 19 O        6.4520     3.4800    -0.3180 O.2   1 <1>  -0.5700 
 20 C       -1.2440    -4.2690     1.3810 C.3   1 <1>   0.3430 
 21 C       -1.7970    -6.5040     0.4760 C.3   1 <1>   0.3430 
 22 C       -2.7280    -3.9640     1.5890 C.3   1 <1>  -0.1600 
 23 C       -3.2910    -6.2350     0.6650 C.3   1 <1>  -0.1600 
 24 C       -3.5470    -5.2440     1.8090 C.3   1 <1>  -0.0800 
 25 C       -5.0400    -4.9160     1.9150 C.3   1 <1>  -0.2400 
 26 H        2.5810    -0.2450    -2.5230 H     1 <1>   0.3700 
 27 H        1.2550     1.9210    -1.0190 H     1 <1>   0.0800 
 28 H        2.2620     2.0730    -2.4350 H     1 <1>   0.0800 
 29 H        2.1110    -2.4560    -3.2710 H     1 <1>   0.1500 
 30 H        1.5000    -4.9800    -2.8800 H     1 <1>   0.1500 
 31 H        2.5440     0.7820     0.9780 H     1 <1>   0.4000 
 32 H        4.5540     3.0510    -1.9110 H     1 <1>   0.1500 
 33 H        0.9340    -5.5600     0.8070 H     1 <1>   0.0800 
 34 H        0.4610    -6.3320    -0.6890 H     1 <1>   0.0800 
 35 H       -1.5000    -4.7620    -0.5810 H     1 <1>   0.4500 
 36 H        3.3440     1.3710     3.4070 H     1 <1>   0.0800 
 37 H        5.0840     1.2580     3.5270 H     1 <1>   0.0800 
 38 H        4.1740    -0.0700     2.8490 H     1 <1>   0.0800 
 39 H       -0.7220    -3.3460     1.1850 H     1 <1>   0.0800 
 40 H       -0.8370    -4.7030     2.2800 H     1 <1>   0.0800 
 41 H       -1.4060    -6.9830     1.3590 H     1 <1>   0.0800 
 42 H       -1.6590    -7.1680    -0.3620 H     1 <1>   0.0800 
 43 H       -3.1000    -3.4220     0.7370 H     1 <1>   0.0800 
 44 H       -2.8310    -3.3210     2.4470 H     1 <1>   0.0800 
 45 H       -3.7870    -7.1660     0.8820 H     1 <1>   0.0800 
 46 H       -3.7030    -5.8580    -0.2550 H     1 <1>   0.0800 
 47 H       -3.2370    -5.6980     2.7370 H     1 <1>   0.0800 
 48 H       -5.4010    -4.4560     1.0110 H     1 <1>   0.0800 
 49 H       -5.2190    -4.2410     2.7340 H     1 <1>   0.0800 
 50 H       -5.6100    -5.8120     2.0920 H     1 <1>   0.0800 
@<TRIPOS>BOND
  1   1   2  2   
  2   2   3  am  
  3   2   4  1   
  4   3   5  1   
  5   3  26  1   
  6   4   6  1   
  7   4   7  2   
  8   5   8  1   
  9   5  27  1   
 10   5  28  1   
 11   6   9  1   
 12   7  10  1   
 13   7  29  1   
 14   8  11  1   
 15   8  12  2   
 16   9  10  2   
 17   9  13  1   
 18  10  30  1   
 19  11  14  1   
 20  11  31  1   
 21  12  15  1   
 22  12  32  1   
 23  13  16  1   
 24  13  33  1   
 25  13  34  1   
 26  14  17  2   
 27  14  18  1   
 28  15  17  1   
 29  15  19  2   
 30  16  20  1   
 31  16  21  1   
 32  16  35  1   
 33  18  36  1   
 34  18  37  1   
 35  18  38  1   
 36  20  22  1   
 37  20  39  1   
 38  20  40  1   
 39  21  23  1   
 40  21  41  1   
 41  21  42  1   
 42  22  24  1   
 43  22  43  1   
 44  22  44  1   
 45  23  24  1   
 46  23  45  1   
 47  23  46  1   
 48  24  25  1   
 49  24  47  1   
 50  25  48  1   
 51  25  49  1   
 52  25  50  1   
@<TRIPOS>SUBSTRUCTURE
  1 ****   2 GROUP 4 **** **** 0

# MOE 2024.06 (io_trps.svl 2023.06)
