@<TRIPOS>MOLECULE
NONAME
49 52 1 0 0 
SMALL
USER_CHARGES


@<TRIPOS>ATOM
  1 S       -1.0940    -0.6350    -1.4060 S.3   1 <1>  -0.2820 
  2 C       -1.9780    -1.4120    -0.1220 C.2   1 <1>   0.6510 
  3 C       -1.4380     0.9370    -0.6870 C.2   1 <1>   0.5300 
  4 N       -2.1330    -2.6960    -0.0450 N.2   1 <1>  -0.6210 
  5 N       -2.4510    -0.4450     0.7230 N.am  1 <1>  -0.0580 
  6 N       -2.1290     0.8770     0.3750 N.2   1 <1>  -0.5120 
  7 C       -0.8730     2.1430    -1.4210 C.3   1 <1>  -0.0990 
  8 C       -2.8570    -3.1350     1.0330 C.2   1 <1>   0.0330 
  9 C       -3.1990    -0.8730     1.8090 C.2   1 <1>   0.6160 
 10 C       -1.2090     3.4850    -0.7510 C.3   1 <1>  -0.2400 
 11 C       -3.3860    -2.2730     1.9400 C.2   1 <1>  -0.1360 
 12 C       -3.0390    -4.6470     1.1460 C.3   1 <1>   0.4810 
 13 O       -3.6860    -0.0970     2.6170 O.2   1 <1>  -0.5700 
 14 N       -3.4240    -5.1860    -0.1880 N.4   1 <1>  -0.9590 
 15 C       -4.8290    -4.8280    -0.5400 C.3   1 <1>   0.3430 
 16 C       -3.3460    -6.6750    -0.1920 C.3   1 <1>   0.3430 
 17 C       -5.6800    -5.9980    -0.0390 C.3   1 <1>   0.2000 
 18 C       -4.7810    -7.2070    -0.3180 C.3   1 <1>  -0.0800 
 19 O       -5.8710    -5.8400     1.3320 O.3   1 <1>  -0.6800 
 20 C       -5.0290    -8.4540     0.5550 C.3   1 <1>   0.0210 
 21 C       -4.0720    -9.5740     0.1940 C.2   1 <1>   0.1080 
 22 N       -2.7850    -9.4690     0.3300 N.2   1 <1>  -0.7070 
 23 C       -4.4490   -10.8150    -0.3070 C.2   1 <1>  -0.1500 
 24 N       -2.3030   -10.6630    -0.0760 N.pl3 1 <1>   0.3000 
 25 C       -3.2920   -11.4900    -0.4710 C.2   1 <1>  -0.3320 
 26 C       -3.0690   -12.9010    -0.9830 C.3   1 <1>  -0.0600 
 27 H        0.1950     2.0360    -1.4790 H     1 <1>   0.0800 
 28 H       -1.2610     2.1430    -2.4240 H     1 <1>   0.0800 
 29 H       -0.8120     3.5150     0.2500 H     1 <1>   0.0800 
 30 H       -2.2750     3.6220    -0.6990 H     1 <1>   0.0800 
 31 H       -0.7850     4.2980    -1.3130 H     1 <1>   0.0800 
 32 H       -3.9610    -2.5910     2.7900 H     1 <1>   0.1500 
 33 H       -3.7870    -4.8850     1.8850 H     1 <1>   0.0800 
 34 H       -2.1030    -5.0830     1.4530 H     1 <1>   0.0800 
 35 H       -2.7620    -4.7490    -0.8500 H     1 <1>   0.4500 
 36 H       -5.1400    -3.8960    -0.0970 H     1 <1>   0.0800 
 37 H       -4.9220    -4.7600    -1.6110 H     1 <1>   0.0800 
 38 H       -2.7470    -7.0330    -1.0140 H     1 <1>   0.0800 
 39 H       -2.9040    -7.0300     0.7250 H     1 <1>   0.0800 
 40 H       -6.6400    -6.0470    -0.5240 H     1 <1>   0.0800 
 41 H       -4.9160    -7.4940    -1.3460 H     1 <1>   0.0800 
 42 H       -6.5790    -6.4340     1.6610 H     1 <1>   0.4000 
 43 H       -6.0390    -8.7980     0.4250 H     1 <1>   0.0800 
 44 H       -4.8840    -8.2260     1.5960 H     1 <1>   0.0800 
 45 H       -5.4520   -11.1470    -0.5100 H     1 <1>   0.1500 
 46 H       -1.2990   -10.8870    -0.0680 H     1 <1>   0.2700 
 47 H       -4.0110   -13.3590    -1.2310 H     1 <1>   0.0800 
 48 H       -2.5880   -13.4990    -0.2290 H     1 <1>   0.0800 
 49 H       -2.4540   -12.8870    -1.8650 H     1 <1>   0.0800 
@<TRIPOS>BOND
  1   1   2  1   
  2   1   3  1   
  3   2   4  2   
  4   2   5  1   
  5   3   6  2   
  6   3   7  1   
  7   4   8  1   
  8   5   6  1   
  9   5   9  am  
 10   7  10  1   
 11   7  27  1   
 12   7  28  1   
 13   8  11  2   
 14   8  12  1   
 15   9  11  1   
 16   9  13  2   
 17  10  29  1   
 18  10  30  1   
 19  10  31  1   
 20  11  32  1   
 21  12  14  1   
 22  12  33  1   
 23  12  34  1   
 24  14  15  1   
 25  14  16  1   
 26  14  35  1   
 27  15  17  1   
 28  15  36  1   
 29  15  37  1   
 30  16  18  1   
 31  16  38  1   
 32  16  39  1   
 33  17  18  1   
 34  17  19  1   
 35  17  40  1   
 36  18  20  1   
 37  18  41  1   
 38  19  42  1   
 39  20  21  1   
 40  20  43  1   
 41  20  44  1   
 42  21  22  2   
 43  21  23  1   
 44  22  24  1   
 45  23  25  2   
 46  23  45  1   
 47  24  25  1   
 48  24  46  1   
 49  25  26  1   
 50  26  47  1   
 51  26  48  1   
 52  26  49  1   
@<TRIPOS>SUBSTRUCTURE
  1 ****  14 GROUP 4 **** **** 0

# MOE 2024.06 (io_trps.svl 2023.06)
