@<TRIPOS>MOLECULE
NONAME
46 48 1 0 0 
SMALL
USER_CHARGES


@<TRIPOS>ATOM
  1 O        0.2410     0.8040     1.1340 O.2   1 <1>  -0.5700 
  2 C        0.0740     1.9460     0.7740 C.2   1 <1>   0.5690 
  3 N       -1.1010     2.6140     1.0080 N.am  1 <1>  -0.6600 
  4 C        1.2070     2.6410     0.0320 C.3   1 <1>  -0.0990 
  5 C       -2.2620     1.9380     1.6550 C.3   1 <1>   0.1400 
  6 C       -1.3900     4.0260     0.6330 C.3   1 <1>   0.1400 
  7 C        2.3990     1.7280    -0.2900 C.3   1 <1>  -0.0160 
  8 C       -3.4450     1.9390     0.6840 C.3   1 <1>  -0.1600 
  9 C       -2.5470     4.0430    -0.3670 C.3   1 <1>  -0.1600 
 10 C        3.4430     2.4980    -1.0820 C.ar  1 <1>  -0.1440 
 11 C       -3.7920     3.3530     0.2080 C.3   1 <1>   0.4180 
 12 C        3.3570     2.5880    -2.4640 C.ar  1 <1>   0.1600 
 13 C        4.4880     3.1310    -0.4390 C.ar  1 <1>  -0.1500 
 14 O       -4.2240     4.0550     1.3500 O.3   1 <1>  -0.5600 
 15 C       -4.9080     3.2850    -0.8310 C.2   1 <1>  -0.2880 
 16 N        4.2040     3.2480    -3.2370 N.ar  1 <1>  -0.6200 
 17 C        5.3830     3.8200    -1.2290 C.ar  1 <1>  -0.1500 
 18 C       -5.0040     5.2000     1.1500 C.3   1 <1>   0.1200 
 19 C       -6.0680     3.9390    -0.7300 C.2   1 <1>  -0.2760 
 20 C        5.1970     3.8470    -2.6010 C.ar  1 <1>   0.1600 
 21 C       -6.3280     4.8410     0.4610 C.3   1 <1>  -0.0220 
 22 C       -7.2000     3.8450    -1.7380 C.3   1 <1>  -0.1020 
 23 H        1.5510     3.4630     0.6310 H     1 <1>   0.0800 
 24 H        0.8170     3.0290    -0.8900 H     1 <1>   0.0800 
 25 H       -2.5230     2.4690     2.5550 H     1 <1>   0.0800 
 26 H       -2.0160     0.9260     1.9250 H     1 <1>   0.0800 
 27 H       -0.5310     4.5080     0.2030 H     1 <1>   0.0800 
 28 H       -1.6660     4.5740     1.5190 H     1 <1>   0.0800 
 29 H        2.0620     0.8790    -0.8610 H     1 <1>   0.0800 
 30 H        2.8290     1.3540     0.6230 H     1 <1>   0.0800 
 31 H       -4.3060     1.5050     1.1580 H     1 <1>   0.0800 
 32 H       -3.1930     1.3240    -0.1600 H     1 <1>   0.0800 
 33 H       -2.2390     3.5270    -1.2580 H     1 <1>   0.0800 
 34 H       -2.7790     5.0520    -0.6490 H     1 <1>   0.0800 
 35 H        2.5430     2.0910    -2.9630 H     1 <1>   0.1500 
 36 H        4.6030     3.0920     0.6300 H     1 <1>   0.1500 
 37 H       -4.6670     2.6420    -1.6580 H     1 <1>   0.1500 
 38 H        6.2190     4.3320    -0.7880 H     1 <1>   0.1500 
 39 H       -4.4470     5.8980     0.5530 H     1 <1>   0.0800 
 40 H       -5.1930     5.6420     2.1130 H     1 <1>   0.0800 
 41 H        5.9030     4.3890    -3.2060 H     1 <1>   0.1500 
 42 H       -6.8050     5.7510     0.1440 H     1 <1>   0.0800 
 43 H       -6.9790     4.3460     1.1590 H     1 <1>   0.0800 
 44 H       -8.0900     3.4750    -1.2610 H     1 <1>   0.0800 
 45 H       -6.9380     3.1750    -2.5370 H     1 <1>   0.0800 
 46 H       -7.4060     4.8130    -2.1580 H     1 <1>   0.0800 
@<TRIPOS>BOND
  1   1   2  2   
  2   2   3  am  
  3   2   4  1   
  4   3   5  1   
  5   3   6  1   
  6   4   7  1   
  7   4  23  1   
  8   4  24  1   
  9   5   8  1   
 10   5  25  1   
 11   5  26  1   
 12   6   9  1   
 13   6  27  1   
 14   6  28  1   
 15   7  10  1   
 16   7  29  1   
 17   7  30  1   
 18   8  11  1   
 19   8  31  1   
 20   8  32  1   
 21   9  11  1   
 22   9  33  1   
 23   9  34  1   
 24  10  12  ar  
 25  10  13  ar  
 26  11  14  1   
 27  11  15  1   
 28  12  16  ar  
 29  12  35  1   
 30  13  17  ar  
 31  13  36  1   
 32  14  18  1   
 33  15  19  2   
 34  15  37  1   
 35  16  20  ar  
 36  17  20  ar  
 37  17  38  1   
 38  18  21  1   
 39  18  39  1   
 40  18  40  1   
 41  19  21  1   
 42  19  22  1   
 43  20  41  1   
 44  21  42  1   
 45  21  43  1   
 46  22  44  1   
 47  22  45  1   
 48  22  46  1   
@<TRIPOS>SUBSTRUCTURE
  1 ****   6 GROUP 4 **** **** 0

# MOE 2024.06 (io_trps.svl 2023.06)
