@<TRIPOS>MOLECULE
NONAME
50 53 1 0 0 
SMALL
USER_CHARGES


@<TRIPOS>ATOM
  1 O       -1.7980     0.2470     2.0730 O.2   1 <1>  -0.5700 
  2 C       -2.3570     0.6280     1.0600 C.2   1 <1>   0.6160 
  3 N       -3.3430    -0.1700     0.5260 N.am  1 <1>  -0.6600 
  4 C       -2.0230     1.9120     0.5160 C.2   1 <1>   0.0290 
  5 C       -4.2250     0.1670    -0.6220 C.3   1 <1>   0.1400 
  6 C       -3.5780    -1.5680     0.9670 C.3   1 <1>   0.1400 
  7 C       -1.4990     1.9930    -0.8110 C.2   1 <1>   0.6160 
  8 C       -2.1710     3.0730     1.2360 C.2   1 <1>  -0.1500 
  9 C       -5.2450    -0.9700    -0.6690 C.3   1 <1>   0.2000 
 10 C       -4.4910    -2.1770    -0.1060 C.3   1 <1>  -0.0800 
 11 O       -1.3130     1.0350    -1.5480 O.2   1 <1>  -0.5700 
 12 N       -1.1880     3.2270    -1.3140 N.am  1 <1>  -0.5390 
 13 C       -1.8390     4.3250     0.6740 C.2   1 <1>  -0.1380 
 14 O       -6.2820    -0.6610     0.1970 O.3   1 <1>  -0.6800 
 15 C       -3.6710    -2.8750    -1.2080 C.3   1 <1>   0.0210 
 16 C       -1.3430     4.3830    -0.5970 C.2   1 <1>  -0.0290 
 17 C       -2.0370     5.5730     1.5250 C.3   1 <1>  -0.0220 
 18 C       -2.9180    -4.0730    -0.6650 C.2   1 <1>   0.1080 
 19 C       -0.9510     5.6830    -1.2840 C.3   1 <1>  -0.0220 
 20 C       -2.0190     6.8570     0.6830 C.3   1 <1>  -0.1600 
 21 N       -3.5080    -5.1610    -0.2770 N.2   1 <1>  -0.7070 
 22 C       -1.5370    -4.1410    -0.5140 C.2   1 <1>  -0.1500 
 23 C       -0.8380     6.8500    -0.2940 C.3   1 <1>  -0.1600 
 24 N       -2.5070    -5.9620     0.1330 N.pl3 1 <1>   0.3000 
 25 C       -1.3030    -5.3660     0.0010 C.2   1 <1>  -0.3320 
 26 C        0.0160    -6.0110     0.3820 C.3   1 <1>  -0.0600 
 27 H       -4.6980     1.1260    -0.4970 H     1 <1>   0.0800 
 28 H       -3.6470     0.1640    -1.5290 H     1 <1>   0.0800 
 29 H       -2.6460    -2.0970     1.0740 H     1 <1>   0.0800 
 30 H       -4.0770    -1.5540     1.9200 H     1 <1>   0.0800 
 31 H       -2.5430     3.0350     2.2460 H     1 <1>   0.1500 
 32 H       -5.6600    -1.1310    -1.6490 H     1 <1>   0.0800 
 33 H       -5.1660    -2.8980     0.3220 H     1 <1>   0.0800 
 34 H       -0.8080     3.2170    -2.2610 H     1 <1>   0.3700 
 35 H       -5.9060    -0.4490     1.0750 H     1 <1>   0.4000 
 36 H       -2.9680    -2.1900    -1.6480 H     1 <1>   0.0800 
 37 H       -4.3310    -3.2210    -1.9820 H     1 <1>   0.0800 
 38 H       -2.9730     5.5120     2.0520 H     1 <1>   0.0800 
 39 H       -1.2480     5.6150     2.2560 H     1 <1>   0.0800 
 40 H       -0.0080     5.5600    -1.7880 H     1 <1>   0.0800 
 41 H       -1.6970     5.9140    -2.0240 H     1 <1>   0.0800 
 42 H       -2.9390     6.9300     0.1280 H     1 <1>   0.0800 
 43 H       -1.9540     7.7120     1.3330 H     1 <1>   0.0800 
 44 H       -0.8340    -3.3650    -0.7620 H     1 <1>   0.1500 
 45 H        0.0790     6.7540     0.2620 H     1 <1>   0.0800 
 46 H       -0.8020     7.7800    -0.8350 H     1 <1>   0.0800 
 47 H       -2.6790    -6.9060     0.4990 H     1 <1>   0.2700 
 48 H        0.8280    -5.3310     0.1880 H     1 <1>   0.0800 
 49 H        0.1740    -6.9060    -0.1930 H     1 <1>   0.0800 
 50 H        0.0210    -6.2590     1.4290 H     1 <1>   0.0800 
@<TRIPOS>BOND
  1   1   2  2   
  2   2   3  am  
  3   2   4  1   
  4   3   5  1   
  5   3   6  1   
  6   4   7  1   
  7   4   8  2   
  8   5   9  1   
  9   5  27  1   
 10   5  28  1   
 11   6  10  1   
 12   6  29  1   
 13   6  30  1   
 14   7  11  2   
 15   7  12  am  
 16   8  13  1   
 17   8  31  1   
 18   9  10  1   
 19   9  14  1   
 20   9  32  1   
 21  10  15  1   
 22  10  33  1   
 23  12  16  1   
 24  12  34  1   
 25  13  16  2   
 26  13  17  1   
 27  14  35  1   
 28  15  18  1   
 29  15  36  1   
 30  15  37  1   
 31  16  19  1   
 32  17  20  1   
 33  17  38  1   
 34  17  39  1   
 35  18  21  2   
 36  18  22  1   
 37  19  23  1   
 38  19  40  1   
 39  19  41  1   
 40  20  23  1   
 41  20  42  1   
 42  20  43  1   
 43  21  24  1   
 44  22  25  2   
 45  22  44  1   
 46  23  45  1   
 47  23  46  1   
 48  24  25  1   
 49  24  47  1   
 50  25  26  1   
 51  26  48  1   
 52  26  49  1   
 53  26  50  1   
@<TRIPOS>SUBSTRUCTURE
  1 ****   3 GROUP 4 **** **** 0

# MOE 2024.06 (io_trps.svl 2023.06)
