@<TRIPOS>MOLECULE
NONAME
37 39 1 0 0 
SMALL
USER_CHARGES


@<TRIPOS>ATOM
  1 F       -0.6440    -2.5620     1.1200 F     1 <1>  -0.1900 
  2 C        0.5040    -1.9420     1.0100 C.ar  1 <1>   0.1900 
  3 C        1.4210    -2.3590     0.0520 C.ar  1 <1>  -0.0230 
  4 C        0.7440    -0.8800     1.8610 C.ar  1 <1>  -0.1500 
  5 N        1.1580    -3.4660    -0.7930 N.pl3 1 <1>   0.5930 
  6 C        2.6150    -1.6490    -0.0460 C.ar  1 <1>  -0.1500 
  7 C        1.9430    -0.1960     1.7520 C.ar  1 <1>  -0.1500 
  8 N        1.3090    -3.4320    -2.1430 N.2   1 <1>  -0.7070 
  9 C        0.7540    -4.7040    -0.4190 C.2   1 <1>  -0.3020 
 10 C        2.8730    -0.5800     0.7980 C.ar  1 <1>  -0.1500 
 11 C        0.9870    -4.6100    -2.5690 C.2   1 <1>   0.1390 
 12 C        0.6200    -5.4590    -1.5320 C.2   1 <1>  -0.1810 
 13 C        0.1820    -6.9030    -1.6730 C.3   1 <1>   0.5240 
 14 N       -0.7040    -7.2210    -0.5450 N.4   1 <1>  -0.9590 
 15 C       -0.9600    -8.6320    -0.2130 C.3   1 <1>   0.3430 
 16 C       -1.9900    -6.4970    -0.4430 C.3   1 <1>   0.3430 
 17 C       -1.8870    -8.4860     0.9680 C.3   1 <1>  -0.1860 
 18 C       -2.7910    -7.3010     0.5800 C.3   1 <1>  -0.1600 
 19 C       -0.9790    -8.1880     2.1430 C.2   1 <1>   0.9060 
 20 O       -0.2600    -7.1780     2.0770 O.co2 1 <1>  -0.9000 
 21 O       -0.9170    -9.0040     3.0540 O.co2 1 <1>  -0.9000 
 22 H        0.0070    -0.5970     2.5910 H     1 <1>   0.1500 
 23 H        3.3420    -1.9350    -0.7870 H     1 <1>   0.1500 
 24 H        2.1510     0.6340     2.4060 H     1 <1>   0.1500 
 25 H        0.5910    -4.9540     0.6180 H     1 <1>   0.1500 
 26 H        3.8020    -0.0440     0.7110 H     1 <1>   0.1500 
 27 H        1.0090    -4.8790    -3.6130 H     1 <1>   0.1500 
 28 H        1.0500    -7.5420    -1.6510 H     1 <1>   0.0800 
 29 H       -0.3390    -7.0480    -2.6050 H     1 <1>   0.0800 
 30 H       -0.2040    -6.9060     0.3280 H     1 <1>   0.4500 
 31 H       -0.0550    -9.1510     0.0640 H     1 <1>   0.0800 
 32 H       -1.4550    -9.1340    -1.0280 H     1 <1>   0.0800 
 33 H       -2.4980    -6.4860    -1.3930 H     1 <1>   0.0800 
 34 H       -1.8290    -5.4860    -0.1020 H     1 <1>   0.0800 
 35 H       -2.4380    -9.3860     1.1680 H     1 <1>   0.0800 
 36 H       -3.7050    -7.6470     0.1320 H     1 <1>   0.0800 
 37 H       -3.0330    -6.6980     1.4400 H     1 <1>   0.0800 
@<TRIPOS>BOND
  1   1   2  1   
  2   2   3  ar  
  3   2   4  ar  
  4   3   5  1   
  5   3   6  ar  
  6   4   7  ar  
  7   4  22  1   
  8   5   8  1   
  9   5   9  1   
 10   6  10  ar  
 11   6  23  1   
 12   7  10  ar  
 13   7  24  1   
 14   8  11  2   
 15   9  12  2   
 16   9  25  1   
 17  10  26  1   
 18  11  12  1   
 19  11  27  1   
 20  12  13  1   
 21  13  14  1   
 22  13  28  1   
 23  13  29  1   
 24  14  15  1   
 25  14  16  1   
 26  14  30  1   
 27  15  17  1   
 28  15  31  1   
 29  15  32  1   
 30  16  18  1   
 31  16  33  1   
 32  16  34  1   
 33  17  18  1   
 34  17  19  1   
 35  17  35  1   
 36  18  36  1   
 37  18  37  1   
 38  19  20  ar  
 39  19  21  ar  
@<TRIPOS>SUBSTRUCTURE
  1 ****   9 GROUP 4 **** **** 0

# MOE 2024.06 (io_trps.svl 2023.06)
