@<TRIPOS>MOLECULE
NONAME
48 49 1 0 0 
SMALL
USER_CHARGES


@<TRIPOS>ATOM
  1 O        1.8780    -0.3350     1.9620 O.2   1 <1>  -0.5700 
  2 C        2.1420    -0.8590     0.9080 C.2   1 <1>   0.5690 
  3 N        2.3420    -0.1370    -0.2160 N.am  1 <1>  -0.7300 
  4 C        2.2380    -2.3700     0.8320 C.3   1 <1>  -0.0990 
  5 C        2.2260     1.3300    -0.2970 C.3   1 <1>   0.4000 
  6 C        1.1200    -2.9860    -0.0260 C.3   1 <1>  -0.1600 
  7 C        0.8870     1.6430    -0.9620 C.2   1 <1>   0.0060 
  8 C        3.4480     1.9290    -1.0400 C.3   1 <1>  -0.0800 
  9 C        1.1940    -4.5230    -0.0350 C.3   1 <1>  -0.0990 
 10 N        0.6830     1.7990    -2.2260 N.2   1 <1>  -0.5650 
 11 N       -0.2580     1.7630    -0.2720 N.pl3 1 <1>   0.3140 
 12 C        4.7880     1.4970    -0.4150 C.3   1 <1>  -0.2400 
 13 C        3.3950     3.4670    -1.0590 C.3   1 <1>  -0.2400 
 14 C        0.1260    -5.1520    -0.9260 C.2   1 <1>   0.4230 
 15 C       -0.6340     2.0290    -2.2600 C.2   1 <1>   0.3660 
 16 N       -1.2410     2.0190    -1.1210 N.2   1 <1>  -0.7070 
 17 C       -0.5130     1.6110     1.1700 C.3   1 <1>   0.0160 
 18 O        0.0320    -4.7290    -2.0490 O.2   1 <1>  -0.5700 
 19 C       -0.7310    -6.2050    -0.4180 C.ar  1 <1>   0.0860 
 20 C       -2.0270    -6.3490    -0.9190 C.ar  1 <1>  -0.1500 
 21 C       -0.3260    -7.1170     0.5620 C.ar  1 <1>  -0.1500 
 22 C       -2.8820    -7.3320    -0.4570 C.ar  1 <1>  -0.1500 
 23 C       -1.1770    -8.1020     1.0300 C.ar  1 <1>  -0.1500 
 24 C       -2.4580    -8.2100     0.5230 C.ar  1 <1>  -0.1500 
 25 H        2.4120    -0.5940    -1.1250 H     1 <1>   0.3700 
 26 H        2.1840    -2.7610     1.8320 H     1 <1>   0.0800 
 27 H        3.1990    -2.6300     0.4270 H     1 <1>   0.0800 
 28 H        2.2260     1.7390     0.6990 H     1 <1>   0.0800 
 29 H        1.1990    -2.6190    -1.0360 H     1 <1>   0.0800 
 30 H        0.1620    -2.6780     0.3590 H     1 <1>   0.0800 
 31 H        3.4210     1.5860    -2.0610 H     1 <1>   0.0800 
 32 H        1.0890    -4.8710     0.9760 H     1 <1>   0.0800 
 33 H        2.1560    -4.8360    -0.4010 H     1 <1>   0.0800 
 34 H        4.8330     1.7860     0.6210 H     1 <1>   0.0800 
 35 H        5.6100     1.9570    -0.9350 H     1 <1>   0.0800 
 36 H        4.9160     0.4310    -0.4770 H     1 <1>   0.0800 
 37 H        3.4100     3.8630    -0.0590 H     1 <1>   0.0800 
 38 H        2.5010     3.8110    -1.5510 H     1 <1>   0.0800 
 39 H        4.2380     3.8630    -1.5980 H     1 <1>   0.0800 
 40 H       -1.1380     2.2070    -3.1970 H     1 <1>   0.1500 
 41 H        0.2640     2.0920     1.7330 H     1 <1>   0.0800 
 42 H       -0.5430     0.5660     1.4120 H     1 <1>   0.0800 
 43 H       -1.4590     2.0600     1.4090 H     1 <1>   0.0800 
 44 H       -2.3640    -5.6730    -1.6860 H     1 <1>   0.1500 
 45 H        0.6700    -7.0710     0.9640 H     1 <1>   0.1500 
 46 H       -3.8770    -7.4150    -0.8610 H     1 <1>   0.1500 
 47 H       -0.8430    -8.7910     1.7880 H     1 <1>   0.1500 
 48 H       -3.1220    -8.9760     0.8860 H     1 <1>   0.1500 
@<TRIPOS>BOND
  1   1   2  2   
  2   2   3  am  
  3   2   4  1   
  4   3   5  1   
  5   3  25  1   
  6   4   6  1   
  7   4  26  1   
  8   4  27  1   
  9   5   7  1   
 10   5   8  1   
 11   5  28  1   
 12   6   9  1   
 13   6  29  1   
 14   6  30  1   
 15   7  10  2   
 16   7  11  1   
 17   8  12  1   
 18   8  13  1   
 19   8  31  1   
 20   9  14  1   
 21   9  32  1   
 22   9  33  1   
 23  10  15  1   
 24  11  16  1   
 25  11  17  1   
 26  12  34  1   
 27  12  35  1   
 28  12  36  1   
 29  13  37  1   
 30  13  38  1   
 31  13  39  1   
 32  14  18  2   
 33  14  19  1   
 34  15  16  2   
 35  15  40  1   
 36  17  41  1   
 37  17  42  1   
 38  17  43  1   
 39  19  20  ar  
 40  19  21  ar  
 41  20  22  ar  
 42  20  44  1   
 43  21  23  ar  
 44  21  45  1   
 45  22  24  ar  
 46  22  46  1   
 47  23  24  ar  
 48  23  47  1   
 49  24  48  1   
@<TRIPOS>SUBSTRUCTURE
  1 ****   6 GROUP 4 **** **** 0

# MOE 2024.06 (io_trps.svl 2023.06)
