@<TRIPOS>MOLECULE
NONAME
47 50 1 0 0 
SMALL
USER_CHARGES


@<TRIPOS>ATOM
  1 S        0.0160     0.8770    -2.3600 S.3   1 <1>  -0.0800 
  2 C       -0.0460     2.0950    -1.1050 C.2   1 <1>  -0.1400 
  3 C        1.6980     1.2720    -2.6870 C.2   1 <1>  -0.1100 
  4 C        1.1270     2.7250    -0.9590 C.2   1 <1>  -0.1810 
  5 C       -1.2900     2.3770    -0.3080 C.3   1 <1>   0.0200 
  6 C        2.1300     2.2560    -1.8730 C.2   1 <1>  -0.1500 
  7 C        1.3090     3.8200     0.0940 C.3   1 <1>   0.4610 
  8 C       -1.1090     3.7570     0.3440 C.3   1 <1>   0.1200 
  9 O        0.1660     3.8820     0.9300 O.3   1 <1>  -0.5600 
 10 C        2.4870     3.4840     1.0160 C.3   1 <1>  -0.1600 
 11 C        1.5190     5.1910    -0.5650 C.3   1 <1>  -0.1600 
 12 C        2.7490     4.5980     2.0310 C.3   1 <1>   0.1400 
 13 C        1.7820     6.2800     0.4780 C.3   1 <1>   0.1400 
 14 N        2.9570     5.8810     1.3030 N.am  1 <1>  -0.6600 
 15 C        4.1400     6.5710     1.3980 C.2   1 <1>   0.5690 
 16 O        5.0560     6.1680     2.0760 O.2   1 <1>  -0.5700 
 17 C        4.3260     7.8740     0.6330 C.3   1 <1>  -0.0990 
 18 C        5.7050     8.5230     0.8280 C.3   1 <1>  -0.0170 
 19 C        5.8000     9.8070     0.0180 C.ar  1 <1>  -0.1430 
 20 C        5.4080    11.0150     0.5820 C.ar  1 <1>  -0.1500 
 21 C        6.2750     9.7720    -1.2870 C.ar  1 <1>  -0.1500 
 22 C        5.4860    12.1860    -0.1520 C.ar  1 <1>  -0.1500 
 23 C        6.3580    10.9360    -2.0320 C.ar  1 <1>  -0.1500 
 24 C        5.9600    12.1240    -1.4480 C.ar  1 <1>   0.1900 
 25 F        6.0360    13.2250    -2.1460 F     1 <1>  -0.1900 
 26 H        2.1910     0.7180    -3.4640 H     1 <1>   0.1500 
 27 H       -1.4230     1.6220     0.4460 H     1 <1>   0.0800 
 28 H       -2.1540     2.3870    -0.9480 H     1 <1>   0.0800 
 29 H        3.1210     2.6730    -1.8800 H     1 <1>   0.1500 
 30 H       -1.8420     3.9010     1.1180 H     1 <1>   0.0800 
 31 H       -1.2250     4.5350    -0.3890 H     1 <1>   0.0800 
 32 H        3.3780     3.3420     0.4350 H     1 <1>   0.0800 
 33 H        2.2820     2.5620     1.5290 H     1 <1>   0.0800 
 34 H        0.6670     5.4480    -1.1630 H     1 <1>   0.0800 
 35 H        2.3650     5.1380    -1.2250 H     1 <1>   0.0800 
 36 H        3.6100     4.3480     2.6270 H     1 <1>   0.0800 
 37 H        1.9060     4.6990     2.6940 H     1 <1>   0.0800 
 38 H        0.9240     6.3860     1.1200 H     1 <1>   0.0800 
 39 H        1.9440     7.2200    -0.0160 H     1 <1>   0.0800 
 40 H        3.5720     8.5680     0.9550 H     1 <1>   0.0800 
 41 H        4.1860     7.6770    -0.4130 H     1 <1>   0.0800 
 42 H        6.4760     7.8380     0.5180 H     1 <1>   0.0800 
 43 H        5.8620     8.7360     1.8710 H     1 <1>   0.0800 
 44 H        5.0410    11.0460     1.5930 H     1 <1>   0.1500 
 45 H        6.5810     8.8380    -1.7260 H     1 <1>   0.1500 
 46 H        5.1870    13.1290     0.2680 H     1 <1>   0.1500 
 47 H        6.7230    10.9280    -3.0430 H     1 <1>   0.1500 
@<TRIPOS>BOND
  1   1   2  1   
  2   1   3  1   
  3   2   4  2   
  4   2   5  1   
  5   3   6  2   
  6   3  26  1   
  7   4   6  1   
  8   4   7  1   
  9   5   8  1   
 10   5  27  1   
 11   5  28  1   
 12   6  29  1   
 13   7   9  1   
 14   7  10  1   
 15   7  11  1   
 16   8   9  1   
 17   8  30  1   
 18   8  31  1   
 19  10  12  1   
 20  10  32  1   
 21  10  33  1   
 22  11  13  1   
 23  11  34  1   
 24  11  35  1   
 25  12  14  1   
 26  12  36  1   
 27  12  37  1   
 28  13  14  1   
 29  13  38  1   
 30  13  39  1   
 31  14  15  am  
 32  15  16  2   
 33  15  17  1   
 34  17  18  1   
 35  17  40  1   
 36  17  41  1   
 37  18  19  1   
 38  18  42  1   
 39  18  43  1   
 40  19  20  ar  
 41  19  21  ar  
 42  20  22  ar  
 43  20  44  1   
 44  21  23  ar  
 45  21  45  1   
 46  22  24  ar  
 47  22  46  1   
 48  23  24  ar  
 49  23  47  1   
 50  24  25  1   
@<TRIPOS>SUBSTRUCTURE
  1 ****  13 GROUP 4 **** **** 0

# MOE 2024.06 (io_trps.svl 2023.06)
