@<TRIPOS>MOLECULE
NONAME
42 43 1 0 0 
SMALL
USER_CHARGES


@<TRIPOS>ATOM
  1 CL      -0.9510    -0.1790    -0.3040 Cl    1 <1>  -0.1770 
  2 C       -0.6090    -1.8800    -0.4830 C.ar  1 <1>   0.1770 
  3 C       -1.5630    -2.8060    -0.1110 C.ar  1 <1>  -0.1500 
  4 C        0.6130    -2.2730    -0.9960 C.ar  1 <1>  -0.1500 
  5 C       -1.2950    -4.1580    -0.2520 C.ar  1 <1>   0.0830 
  6 C        0.8840    -3.6240    -1.1380 C.ar  1 <1>  -0.1500 
  7 O       -2.2740    -5.0160     0.1330 O.3   1 <1>  -0.3630 
  8 C       -0.0650    -4.5650    -0.7680 C.ar  1 <1>  -0.1500 
  9 C       -2.1040    -6.4100     0.0560 C.3   1 <1>   0.1200 
 10 C       -3.3970    -7.0530     0.5670 C.3   1 <1>   0.3430 
 11 N       -3.3700    -8.5550     0.5120 N.4   1 <1>  -0.9590 
 12 C       -4.7390    -9.1050     0.7600 C.3   1 <1>   0.3430 
 13 C       -2.3810    -9.1340     1.4800 C.3   1 <1>   0.2630 
 14 C       -5.0920   -10.1840    -0.2720 C.3   1 <1>  -0.0800 
 15 C       -6.5450   -10.6350    -0.0550 C.3   1 <1>   0.1200 
 16 C       -4.1580   -11.4110    -0.2310 C.3   1 <1>  -0.1600 
 17 O       -6.8750   -11.5730    -1.0250 O.3   1 <1>  -0.5600 
 18 C       -4.6790   -12.4950    -1.1850 C.3   1 <1>  -0.1600 
 19 C       -6.1690   -12.7730    -0.9530 C.3   1 <1>   0.1200 
 20 H       -2.5050    -2.4750     0.2850 H     1 <1>   0.1500 
 21 H        1.3380    -1.5300    -1.2770 H     1 <1>   0.1500 
 22 H        1.8340    -3.9390    -1.5370 H     1 <1>   0.1500 
 23 H        0.1800    -5.6020    -0.8940 H     1 <1>   0.1500 
 24 H       -1.2630    -6.6740     0.6720 H     1 <1>   0.0800 
 25 H       -1.9270    -6.6670    -0.9740 H     1 <1>   0.0800 
 26 H       -4.2090    -6.6910    -0.0430 H     1 <1>   0.0800 
 27 H       -3.5690    -6.7310     1.5810 H     1 <1>   0.0800 
 28 H       -3.1100    -8.8400    -0.4450 H     1 <1>   0.4500 
 29 H       -5.4670    -8.3130     0.6810 H     1 <1>   0.0800 
 30 H       -4.8030    -9.5140     1.7550 H     1 <1>   0.0800 
 31 H       -2.6220    -8.8330     2.4870 H     1 <1>   0.0800 
 32 H       -1.3840    -8.7960     1.2500 H     1 <1>   0.0800 
 33 H       -2.3940   -10.2110     1.4320 H     1 <1>   0.0800 
 34 H       -5.0510    -9.7380    -1.2510 H     1 <1>   0.0800 
 35 H       -7.2270    -9.8090    -0.1660 H     1 <1>   0.0800 
 36 H       -6.6890   -11.0820     0.9150 H     1 <1>   0.0800 
 37 H       -4.1310   -11.8150     0.7670 H     1 <1>   0.0800 
 38 H       -3.1560   -11.1490    -0.5210 H     1 <1>   0.0800 
 39 H       -4.1210   -13.4050    -1.0500 H     1 <1>   0.0800 
 40 H       -4.5480   -12.1820    -2.2060 H     1 <1>   0.0800 
 41 H       -6.5550   -13.4290    -1.7150 H     1 <1>   0.0800 
 42 H       -6.3430   -13.2190     0.0120 H     1 <1>   0.0800 
@<TRIPOS>BOND
  1   1   2  1   
  2   2   3  ar  
  3   2   4  ar  
  4   3   5  ar  
  5   3  20  1   
  6   4   6  ar  
  7   4  21  1   
  8   5   7  1   
  9   5   8  ar  
 10   6   8  ar  
 11   6  22  1   
 12   7   9  1   
 13   8  23  1   
 14   9  10  1   
 15   9  24  1   
 16   9  25  1   
 17  10  11  1   
 18  10  26  1   
 19  10  27  1   
 20  11  12  1   
 21  11  13  1   
 22  11  28  1   
 23  12  14  1   
 24  12  29  1   
 25  12  30  1   
 26  13  31  1   
 27  13  32  1   
 28  13  33  1   
 29  14  15  1   
 30  14  16  1   
 31  14  34  1   
 32  15  17  1   
 33  15  35  1   
 34  15  36  1   
 35  16  18  1   
 36  16  37  1   
 37  16  38  1   
 38  17  19  1   
 39  18  19  1   
 40  18  39  1   
 41  18  40  1   
 42  19  41  1   
 43  19  42  1   
@<TRIPOS>SUBSTRUCTURE
  1 ****  10 GROUP 4 **** **** 0

# MOE 2024.06 (io_trps.svl 2023.06)
