@<TRIPOS>MOLECULE
NONAME
49 51 1 0 0 
SMALL
USER_CHARGES


@<TRIPOS>ATOM
  1 O        0.8890    -0.2550     2.3550 O.2   1 <1>  -0.5700 
  2 C        1.6900    -0.2720     1.4460 C.2   1 <1>   0.7150 
  3 N        1.8960    -1.4970     0.8950 N.am  1 <1>  -0.7300 
  4 C        2.3280     0.9450     1.0360 C.2   1 <1>  -0.2370 
  5 C        2.9510    -2.0710     0.0160 C.3   1 <1>   0.1400 
  6 N        3.0420     1.1500    -0.0950 N.pl3 1 <1>   0.3140 
  7 C        2.3320     2.1450     1.6710 C.2   1 <1>  -0.1500 
  8 C        3.9760    -1.0690    -0.5360 C.3   1 <1>   0.2000 
  9 N        3.4970     2.4020    -0.1950 N.2   1 <1>  -0.7070 
 10 C        3.3400     0.1740    -1.1520 C.3   1 <1>   0.0960 
 11 C        3.0660     3.0330     0.8880 C.2   1 <1>   0.2030 
 12 O        4.7210    -1.7150    -1.5150 O.3   1 <1>  -0.6800 
 13 C        3.2750     4.4370     1.2490 C.2   1 <1>   0.7160 
 14 O        2.5800     4.9310     2.1240 O.2   1 <1>  -0.5700 
 15 N        4.2240     5.2480     0.6510 N.am  1 <1>  -0.6600 
 16 C        5.4370     4.6810    -0.0060 C.3   1 <1>   0.2840 
 17 C        4.0350     6.7330     0.5830 C.3   1 <1>   0.1400 
 18 C        6.6840     5.4840     0.3390 C.ar  1 <1>  -0.1430 
 19 C        3.7800     7.2170    -0.8580 C.3   1 <1>  -0.0800 
 20 C        7.1290     5.6050     1.6400 C.ar  1 <1>  -0.1500 
 21 C        7.4320     6.1330    -0.6240 C.ar  1 <1>  -0.1500 
 22 C        3.6170     8.7420    -0.8720 C.3   1 <1>  -0.2400 
 23 C        2.5360     6.5610    -1.4770 C.3   1 <1>  -0.2400 
 24 C        8.2650     6.3490     1.9100 C.ar  1 <1>   0.1600 
 25 C        8.5550     6.8510    -0.2480 C.ar  1 <1>   0.1600 
 26 N        8.9890     6.9750     0.9960 N.ar  1 <1>  -0.6200 
 27 H        1.2960    -2.2000     1.3340 H     1 <1>   0.3700 
 28 H        2.4560    -2.5530    -0.8090 H     1 <1>   0.0800 
 29 H        3.4810    -2.8250     0.5720 H     1 <1>   0.0800 
 30 H        1.8550     2.3910     2.6050 H     1 <1>   0.1500 
 31 H        4.6700    -0.7850     0.2370 H     1 <1>   0.0800 
 32 H        4.0300     0.6350    -1.8360 H     1 <1>   0.0800 
 33 H        2.4300    -0.0660    -1.6680 H     1 <1>   0.0800 
 34 H        4.1720    -1.9780    -2.2800 H     1 <1>   0.4000 
 35 H        5.2830     4.6590    -1.0700 H     1 <1>   0.0800 
 36 H        5.5990     3.6710     0.3260 H     1 <1>   0.0800 
 37 H        4.9020     7.2250     0.9860 H     1 <1>   0.0800 
 38 H        3.1980     7.0250     1.1940 H     1 <1>   0.0800 
 39 H        4.6380     6.9770    -1.4620 H     1 <1>   0.0800 
 40 H        6.5950     5.1310     2.4440 H     1 <1>   0.1500 
 41 H        7.1540     6.0880    -1.6610 H     1 <1>   0.1500 
 42 H        2.7650     9.0370    -0.2850 H     1 <1>   0.0800 
 43 H        3.4770     9.0940    -1.8790 H     1 <1>   0.0800 
 44 H        4.4940     9.2160    -0.4680 H     1 <1>   0.0800 
 45 H        1.6690     6.7500    -0.8690 H     1 <1>   0.0800 
 46 H        2.6690     5.4960    -1.5560 H     1 <1>   0.0800 
 47 H        2.3580     6.9490    -2.4640 H     1 <1>   0.0800 
 48 H        8.5950     6.4330     2.9310 H     1 <1>   0.1500 
 49 H        9.1260     7.3510    -1.0110 H     1 <1>   0.1500 
@<TRIPOS>BOND
  1   1   2  2   
  2   2   3  am  
  3   2   4  1   
  4   3   5  1   
  5   3  27  1   
  6   4   6  1   
  7   4   7  2   
  8   5   8  1   
  9   5  28  1   
 10   5  29  1   
 11   6   9  1   
 12   6  10  1   
 13   7  11  1   
 14   7  30  1   
 15   8  10  1   
 16   8  12  1   
 17   8  31  1   
 18   9  11  2   
 19  10  32  1   
 20  10  33  1   
 21  11  13  1   
 22  12  34  1   
 23  13  14  2   
 24  13  15  am  
 25  15  16  1   
 26  15  17  1   
 27  16  18  1   
 28  16  35  1   
 29  16  36  1   
 30  17  19  1   
 31  17  37  1   
 32  17  38  1   
 33  18  20  ar  
 34  18  21  ar  
 35  19  22  1   
 36  19  23  1   
 37  19  39  1   
 38  20  24  ar  
 39  20  40  1   
 40  21  25  ar  
 41  21  41  1   
 42  22  42  1   
 43  22  43  1   
 44  22  44  1   
 45  23  45  1   
 46  23  46  1   
 47  23  47  1   
 48  24  26  ar  
 49  24  48  1   
 50  25  26  ar  
 51  25  49  1   
@<TRIPOS>SUBSTRUCTURE
  1 ****  11 GROUP 4 **** **** 0

# MOE 2024.06 (io_trps.svl 2023.06)
