@<TRIPOS>MOLECULE
NONAME
51 53 1 0 0 
SMALL
USER_CHARGES


@<TRIPOS>ATOM
  1 O        0.1330    -0.2880     0.0350 O.2   1 <1>  -0.5700 
  2 C        1.0970    -0.9370    -0.2980 C.2   1 <1>   0.5690 
  3 N        2.3620    -0.4140    -0.3140 N.am  1 <1>  -0.7300 
  4 C        0.8660    -2.4080    -0.7410 C.3   1 <1>   0.4840 
  5 C        2.7770     0.9550     0.0770 C.3   1 <1>   0.2200 
  6 N       -0.4680    -2.6500    -1.4100 N.4   1 <1>  -0.9590 
  7 C        1.0100    -3.3360     0.4720 C.3   1 <1>  -0.2400 
  8 C        2.4760     1.2220     1.5580 C.3   1 <1>  -0.1600 
  9 C        2.1370     2.0110    -0.8330 C.3   1 <1>  -0.1600 
 10 C       -0.7440    -4.0510    -1.8350 C.3   1 <1>   0.5240 
 11 C       -0.8080    -1.6570    -2.4740 C.3   1 <1>   0.2630 
 12 C        2.9250     2.6350     1.9600 C.3   1 <1>  -0.1600 
 13 C        2.5870     3.4240    -0.4310 C.3   1 <1>  -0.1600 
 14 C       -1.7210    -4.6550    -0.8310 C.2   1 <1>   0.1080 
 15 C        2.2900     3.6970     1.0510 C.3   1 <1>  -0.1600 
 16 N       -2.3870    -3.9300     0.0240 N.2   1 <1>  -0.7070 
 17 C       -2.0040    -6.0110    -0.7020 C.2   1 <1>  -0.1500 
 18 N       -3.1240    -4.8230     0.7240 N.pl3 1 <1>   0.3000 
 19 C       -2.9030    -6.0840     0.3020 C.2   1 <1>  -0.2370 
 20 C       -3.5890    -7.2920     0.9060 C.3   1 <1>  -0.0150 
 21 C       -3.1240    -7.8140     2.2260 C.3   1 <1>  -0.2000 
 22 C       -2.8780    -8.6050     0.9750 C.3   1 <1>  -0.2000 
 23 H        3.1610    -1.0020    -0.5560 H     1 <1>   0.3700 
 24 H        1.6460    -2.6460    -1.4430 H     1 <1>   0.0800 
 25 H        3.8450     1.0210    -0.0520 H     1 <1>   0.0800 
 26 H       -1.1730    -2.5230    -0.6500 H     1 <1>   0.4500 
 27 H        0.2080    -3.1670     1.1690 H     1 <1>   0.0800 
 28 H        1.9350    -3.1240     0.9800 H     1 <1>   0.0800 
 29 H        1.0280    -4.3710     0.1880 H     1 <1>   0.0800 
 30 H        2.9870     0.5000     2.1690 H     1 <1>   0.0800 
 31 H        1.4190     1.1370     1.7390 H     1 <1>   0.0800 
 32 H        1.0660     1.9620    -0.7550 H     1 <1>   0.0800 
 33 H        2.4160     1.8280    -1.8550 H     1 <1>   0.0800 
 34 H        0.1630    -4.6300    -1.8650 H     1 <1>   0.0800 
 35 H       -1.1990    -4.0650    -2.8110 H     1 <1>   0.0800 
 36 H       -0.1110    -1.7250    -3.2930 H     1 <1>   0.0800 
 37 H       -0.7790    -0.6550    -2.0760 H     1 <1>   0.0800 
 38 H       -1.8030    -1.8380    -2.8460 H     1 <1>   0.0800 
 39 H        3.9980     2.7050     1.8950 H     1 <1>   0.0800 
 40 H        2.6440     2.8240     2.9820 H     1 <1>   0.0800 
 41 H        2.0780     4.1520    -1.0390 H     1 <1>   0.0800 
 42 H        3.6440     3.5290    -0.6070 H     1 <1>   0.0800 
 43 H        2.6630     4.6710     1.3190 H     1 <1>   0.0800 
 44 H        1.2240     3.7020     1.2030 H     1 <1>   0.0800 
 45 H       -1.5940    -6.8230    -1.2780 H     1 <1>   0.1500 
 46 H       -3.7640    -4.5530     1.4830 H     1 <1>   0.2700 
 47 H       -4.6470    -7.3200     0.7020 H     1 <1>   0.1000 
 48 H       -3.8550    -8.1770     2.9280 H     1 <1>   0.1000 
 49 H       -2.2820    -7.3490     2.7080 H     1 <1>   0.1000 
 50 H       -1.8690    -8.6800     0.6110 H     1 <1>   0.1000 
 51 H       -3.4430    -9.5060     0.8120 H     1 <1>   0.1000 
@<TRIPOS>BOND
  1   1   2  2   
  2   2   3  am  
  3   2   4  1   
  4   3   5  1   
  5   3  23  1   
  6   4   6  1   
  7   4   7  1   
  8   4  24  1   
  9   5   8  1   
 10   5   9  1   
 11   5  25  1   
 12   6  10  1   
 13   6  11  1   
 14   6  26  1   
 15   7  27  1   
 16   7  28  1   
 17   7  29  1   
 18   8  12  1   
 19   8  30  1   
 20   8  31  1   
 21   9  13  1   
 22   9  32  1   
 23   9  33  1   
 24  10  14  1   
 25  10  34  1   
 26  10  35  1   
 27  11  36  1   
 28  11  37  1   
 29  11  38  1   
 30  12  15  1   
 31  12  39  1   
 32  12  40  1   
 33  13  15  1   
 34  13  41  1   
 35  13  42  1   
 36  14  16  2   
 37  14  17  1   
 38  15  43  1   
 39  15  44  1   
 40  16  18  1   
 41  17  19  2   
 42  17  45  1   
 43  18  19  1   
 44  18  46  1   
 45  19  20  1   
 46  20  21  1   
 47  20  22  1   
 48  20  47  1   
 49  21  22  1   
 50  21  48  1   
 51  21  49  1   
 52  22  50  1   
 53  22  51  1   
@<TRIPOS>SUBSTRUCTURE
  1 ****   4 GROUP 4 **** **** 0

# MOE 2024.06 (io_trps.svl 2023.06)
