@<TRIPOS>MOLECULE
NONAME
43 45 1 0 0 
SMALL
USER_CHARGES


@<TRIPOS>ATOM
  1 F       -1.0540     1.3720     1.6870 F     1 <1>  -0.1900 
  2 C       -1.5720     1.3210     0.4890 C.ar  1 <1>   0.1900 
  3 C       -1.8450     2.5030    -0.2030 C.ar  1 <1>   0.0540 
  4 C       -1.8080     0.0640    -0.0350 C.ar  1 <1>  -0.1500 
  5 C       -1.6090     3.8230     0.3490 C.2   1 <1>   0.4620 
  6 C       -2.3690     2.3510    -1.4890 C.ar  1 <1>  -0.1500 
  7 C       -2.3340    -0.0470    -1.3090 C.ar  1 <1>  -0.1500 
  8 N       -1.7270     4.1760     1.5800 N.2   1 <1>  -0.4100 
  9 N       -1.2470     4.8510    -0.4250 N.2   1 <1>  -0.5650 
 10 C       -2.6120     1.1000    -2.0340 C.ar  1 <1>  -0.1500 
 11 O       -1.4420     5.4370     1.6630 O.3   1 <1>  -0.0190 
 12 C       -1.1640     5.7800     0.4330 C.2   1 <1>   0.2980 
 13 C       -0.7710     7.2160     0.1500 C.3   1 <1>   0.0200 
 14 C        0.6230     7.5270     0.7110 C.3   1 <1>  -0.0990 
 15 C        0.9890     8.9740     0.4770 C.2   1 <1>   0.5690 
 16 O        1.0540     9.3860    -0.6560 O.2   1 <1>  -0.5700 
 17 N        1.2390     9.7720     1.5450 N.am  1 <1>  -0.7300 
 18 C        1.5690    11.2130     1.4330 C.3   1 <1>   0.1400 
 19 C        3.0520    11.3960     1.1090 C.3   1 <1>   0.0200 
 20 C        3.2810    12.7770     0.5300 C.2   1 <1>   0.0060 
 21 N        3.6970    13.7780     1.2350 N.2   1 <1>  -0.5650 
 22 N        3.0570    13.0800    -0.7740 N.pl3 1 <1>   0.0480 
 23 C        3.7520    14.7910     0.3510 C.2   1 <1>   0.0770 
 24 C        3.3650    14.3850    -0.8760 C.2   1 <1>  -0.3020 
 25 C        2.5710    12.2010    -1.8570 C.3   1 <1>   0.0160 
 26 H       -1.5790    -0.8110     0.5460 H     1 <1>   0.1500 
 27 H       -2.5910     3.2300    -2.0710 H     1 <1>   0.1500 
 28 H       -2.5250    -1.0170    -1.7350 H     1 <1>   0.1500 
 29 H       -3.0180     1.0190    -3.0280 H     1 <1>   0.1500 
 30 H       -1.5020     7.8710     0.5880 H     1 <1>   0.0800 
 31 H       -0.7750     7.3760    -0.9150 H     1 <1>   0.0800 
 32 H        1.3510     6.9070     0.2210 H     1 <1>   0.0800 
 33 H        0.6500     7.3090     1.7630 H     1 <1>   0.0800 
 34 H        1.2240     9.3900     2.4930 H     1 <1>   0.3700 
 35 H        1.3260    11.7260     2.3480 H     1 <1>   0.0800 
 36 H        0.9740    11.6430     0.6450 H     1 <1>   0.0800 
 37 H        3.3780    10.6590     0.3990 H     1 <1>   0.0800 
 38 H        3.6340    11.2850     2.0070 H     1 <1>   0.0800 
 39 H        4.0720    15.7750     0.6510 H     1 <1>   0.1500 
 40 H        3.2950    14.9420    -1.7920 H     1 <1>   0.1500 
 41 H        3.2010    11.3330    -1.9240 H     1 <1>   0.0800 
 42 H        2.5940    12.7320    -2.7900 H     1 <1>   0.0800 
 43 H        1.5640    11.8940    -1.6450 H     1 <1>   0.0800 
@<TRIPOS>BOND
  1   1   2  1   
  2   2   3  ar  
  3   2   4  ar  
  4   3   5  1   
  5   3   6  ar  
  6   4   7  ar  
  7   4  26  1   
  8   5   8  2   
  9   5   9  1   
 10   6  10  ar  
 11   6  27  1   
 12   7  10  ar  
 13   7  28  1   
 14   8  11  1   
 15   9  12  2   
 16  10  29  1   
 17  11  12  1   
 18  12  13  1   
 19  13  14  1   
 20  13  30  1   
 21  13  31  1   
 22  14  15  1   
 23  14  32  1   
 24  14  33  1   
 25  15  16  2   
 26  15  17  am  
 27  17  18  1   
 28  17  34  1   
 29  18  19  1   
 30  18  35  1   
 31  18  36  1   
 32  19  20  1   
 33  19  37  1   
 34  19  38  1   
 35  20  21  2   
 36  20  22  1   
 37  21  23  1   
 38  22  24  1   
 39  22  25  1   
 40  23  24  2   
 41  23  39  1   
 42  24  40  1   
 43  25  41  1   
 44  25  42  1   
 45  25  43  1   
@<TRIPOS>SUBSTRUCTURE
  1 ****  14 GROUP 4 **** **** 0

# MOE 2024.06 (io_trps.svl 2023.06)
