@<TRIPOS>MOLECULE
NONAME
49 50 1 0 0 
SMALL
USER_CHARGES


@<TRIPOS>ATOM
  1 O       -0.7670    -3.4910    -0.1440 O.co2 1 <1>  -0.9000 
  2 C       -0.1100    -4.0600    -1.0240 C.2   1 <1>   1.0330 
  3 O       -0.7040    -4.9380    -1.6840 O.co2 1 <1>  -0.9000 
  4 C        1.3080    -3.9490    -1.0750 C.2   1 <1>  -0.2330 
  5 C        2.1150    -5.0730    -1.1970 C.2   1 <1>   0.3720 
  6 C        2.1960    -2.9310    -0.9260 C.2   1 <1>   0.0870 
  7 N        3.3580    -4.7820    -1.0920 N.2   1 <1>  -0.4100 
  8 N        1.6190    -6.3560    -1.3700 N.pl3 1 <1>  -0.8520 
  9 O        3.3910    -3.4820    -0.9420 O.3   1 <1>  -0.0190 
 10 C        2.0680    -1.4990    -0.7610 C.ar  1 <1>   0.0530 
 11 C        1.5670    -7.1630    -0.1260 C.3   1 <1>   0.2090 
 12 C        0.8570    -0.8310    -0.9540 C.ar  1 <1>  -0.1500 
 13 C        3.1700    -0.7160    -0.4050 C.ar  1 <1>  -0.1500 
 14 C        0.4210    -6.7620     0.8410 C.3   1 <1>   0.3430 
 15 C        0.7500     0.5390    -0.7980 C.ar  1 <1>  -0.1500 
 16 C        3.0710     0.6540    -0.2480 C.ar  1 <1>  -0.1500 
 17 N       -0.9900    -6.7920     0.2980 N.4   1 <1>  -0.9590 
 18 C        1.8570     1.2870    -0.4450 C.ar  1 <1>  -0.1500 
 19 C       -1.8840    -5.9640     1.1570 C.3   1 <1>   0.4230 
 20 C       -1.5680    -8.0840    -0.1550 C.3   1 <1>   0.4230 
 21 C       -2.1700    -6.6320     2.5020 C.3   1 <1>  -0.2400 
 22 C       -3.1920    -5.6430     0.4330 C.3   1 <1>  -0.2400 
 23 C       -1.0600    -9.2910     0.6380 C.3   1 <1>  -0.2400 
 24 C       -1.3090    -8.2530    -1.6470 C.3   1 <1>  -0.2400 
 25 H        0.6700    -6.2390    -1.7780 H     1 <1>   0.4000 
 26 H        2.5030    -7.0440     0.3930 H     1 <1>   0.0800 
 27 H        1.4910    -8.2000    -0.3910 H     1 <1>   0.0800 
 28 H       -0.0210    -1.3850    -1.2290 H     1 <1>   0.1500 
 29 H        4.1220    -1.1880    -0.2460 H     1 <1>   0.1500 
 30 H        0.6320    -5.7580     1.1740 H     1 <1>   0.0800 
 31 H        0.4740    -7.3970     1.7080 H     1 <1>   0.0800 
 32 H       -0.2010     1.0190    -0.9510 H     1 <1>   0.1500 
 33 H        3.9380     1.2290     0.0270 H     1 <1>   0.1500 
 34 H       -0.9600    -6.1890    -0.5630 H     1 <1>   0.4500 
 35 H        1.7740     2.3530    -0.3230 H     1 <1>   0.1500 
 36 H       -1.3890    -5.0240     1.3470 H     1 <1>   0.0800 
 37 H       -2.6360    -8.0420    -0.0270 H     1 <1>   0.0800 
 38 H       -2.7550    -7.5240     2.3800 H     1 <1>   0.0800 
 39 H       -2.7360    -5.9520     3.1140 H     1 <1>   0.0800 
 40 H       -1.2610    -6.8570     3.0260 H     1 <1>   0.0800 
 41 H       -3.8300    -6.4990     0.3300 H     1 <1>   0.0800 
 42 H       -2.9900    -5.2200    -0.5340 H     1 <1>   0.0800 
 43 H       -3.7260    -4.8990     0.9960 H     1 <1>   0.0800 
 44 H       -0.0330    -9.5130     0.4210 H     1 <1>   0.0800 
 45 H       -1.6380   -10.1540     0.3630 H     1 <1>   0.0800 
 46 H       -1.1810    -9.1420     1.6940 H     1 <1>   0.0800 
 47 H       -0.2650    -8.3750    -1.8630 H     1 <1>   0.0800 
 48 H       -1.6850    -7.4020    -2.1890 H     1 <1>   0.0800 
 49 H       -1.8260    -9.1240    -2.0060 H     1 <1>   0.0800 
@<TRIPOS>BOND
  1   1   2  ar  
  2   2   3  ar  
  3   2   4  1   
  4   4   5  1   
  5   4   6  2   
  6   5   7  2   
  7   5   8  1   
  8   6   9  1   
  9   6  10  1   
 10   7   9  1   
 11   8  11  1   
 12   8  25  1   
 13  10  12  ar  
 14  10  13  ar  
 15  11  14  1   
 16  11  26  1   
 17  11  27  1   
 18  12  15  ar  
 19  12  28  1   
 20  13  16  ar  
 21  13  29  1   
 22  14  17  1   
 23  14  30  1   
 24  14  31  1   
 25  15  18  ar  
 26  15  32  1   
 27  16  18  ar  
 28  16  33  1   
 29  17  19  1   
 30  17  20  1   
 31  17  34  1   
 32  18  35  1   
 33  19  21  1   
 34  19  22  1   
 35  19  36  1   
 36  20  23  1   
 37  20  24  1   
 38  20  37  1   
 39  21  38  1   
 40  21  39  1   
 41  21  40  1   
 42  22  41  1   
 43  22  42  1   
 44  22  43  1   
 45  23  44  1   
 46  23  45  1   
 47  23  46  1   
 48  24  47  1   
 49  24  48  1   
 50  24  49  1   
@<TRIPOS>SUBSTRUCTURE
  1 ****   2 GROUP 4 **** **** 0

# MOE 2024.06 (io_trps.svl 2023.06)
