@<TRIPOS>MOLECULE
NONAME
38 40 1 0 0 
SMALL
USER_CHARGES


@<TRIPOS>ATOM
  1 F        1.0540    -2.4910    -1.8930 F     1 <1>  -0.1900 
  2 C        1.7910    -1.7180    -1.1370 C.ar  1 <1>   0.1900 
  3 C        1.8930    -1.9800     0.2260 C.ar  1 <1>  -0.0230 
  4 C        2.4350    -0.6570    -1.7440 C.ar  1 <1>  -0.1500 
  5 N        1.2310    -3.0820     0.8290 N.pl3 1 <1>   0.5930 
  6 C        2.6710    -1.1100     0.9860 C.ar  1 <1>  -0.1500 
  7 C        3.2090     0.1890    -0.9670 C.ar  1 <1>  -0.1500 
  8 N        0.5600    -2.9860     2.0060 N.2   1 <1>  -0.7070 
  9 C        1.1830    -4.3650     0.3900 C.2   1 <1>  -0.3020 
 10 C        3.3230    -0.0380     0.3950 C.ar  1 <1>  -0.1500 
 11 C        0.1120    -4.1720     2.2630 C.2   1 <1>   0.1390 
 12 C        0.4670    -5.0870     1.2800 C.2   1 <1>  -0.1810 
 13 C        0.0920    -6.5530     1.2610 C.3   1 <1>   0.5240 
 14 N       -0.6070    -6.8390    -0.0010 N.4   1 <1>  -0.9590 
 15 C       -0.9340    -8.3070    -0.1370 C.3   1 <1>   0.3170 
 16 C       -1.8570    -6.0610    -0.2260 C.3   1 <1>   0.3430 
 17 C        0.0330    -8.9890    -1.1230 C.2   1 <1>   0.9060 
 18 C       -2.4000    -8.3590    -0.5800 C.3   1 <1>  -0.1600 
 19 C       -2.9970    -7.0670    -0.0500 C.3   1 <1>   0.2000 
 20 O        0.8140    -8.2250    -1.7130 O.co2 1 <1>  -0.9000 
 21 O        0.0110   -10.2100    -1.2720 O.co2 1 <1>  -0.9000 
 22 O       -3.2450    -7.2340     1.3090 O.3   1 <1>  -0.6800 
 23 H        2.3300    -0.4940    -2.8020 H     1 <1>   0.1500 
 24 H        2.7620    -1.2710     2.0480 H     1 <1>   0.1500 
 25 H        3.7190     1.0240    -1.4190 H     1 <1>   0.1500 
 26 H        1.6600    -4.6730    -0.5230 H     1 <1>   0.1500 
 27 H        3.9200     0.6230     1.0000 H     1 <1>   0.1500 
 28 H       -0.4680    -4.4030     3.1430 H     1 <1>   0.1500 
 29 H       -0.5530    -6.7810     2.0940 H     1 <1>   0.0800 
 30 H        0.9830    -7.1570     1.3300 H     1 <1>   0.0800 
 31 H        0.0790    -6.7110    -0.7810 H     1 <1>   0.4500 
 32 H       -0.8390    -8.7950     0.8160 H     1 <1>   0.0800 
 33 H       -1.9550    -5.2350     0.4580 H     1 <1>   0.0800 
 34 H       -1.8630    -5.6900    -1.2370 H     1 <1>   0.0800 
 35 H       -2.8950    -9.2440    -0.2200 H     1 <1>   0.0800 
 36 H       -2.4390    -8.3650    -1.6560 H     1 <1>   0.0800 
 37 H       -3.9060    -6.7660    -0.5430 H     1 <1>   0.0800 
 38 H       -3.9790    -7.8670     1.4480 H     1 <1>   0.4000 
@<TRIPOS>BOND
  1   1   2  1   
  2   2   3  ar  
  3   2   4  ar  
  4   3   5  1   
  5   3   6  ar  
  6   4   7  ar  
  7   4  23  1   
  8   5   8  1   
  9   5   9  1   
 10   6  10  ar  
 11   6  24  1   
 12   7  10  ar  
 13   7  25  1   
 14   8  11  2   
 15   9  12  2   
 16   9  26  1   
 17  10  27  1   
 18  11  12  1   
 19  11  28  1   
 20  12  13  1   
 21  13  14  1   
 22  13  29  1   
 23  13  30  1   
 24  14  15  1   
 25  14  16  1   
 26  14  31  1   
 27  15  17  1   
 28  15  18  1   
 29  15  32  1   
 30  16  19  1   
 31  16  33  1   
 32  16  34  1   
 33  17  20  ar  
 34  17  21  ar  
 35  18  19  1   
 36  18  35  1   
 37  18  36  1   
 38  19  22  1   
 39  19  37  1   
 40  22  38  1   
@<TRIPOS>SUBSTRUCTURE
  1 ****   9 GROUP 4 **** **** 0

# MOE 2024.06 (io_trps.svl 2023.06)
