@<TRIPOS>MOLECULE
NONAME
47 49 1 0 0 
SMALL
USER_CHARGES


@<TRIPOS>ATOM
  1 F        0.3650    -1.6170     1.8270 F     1 <1>  -0.1900 
  2 C        1.3750    -1.7470     1.0080 C.ar  1 <1>   0.1900 
  3 C        1.1760    -2.3490    -0.2300 C.ar  1 <1>  -0.1440 
  4 C        2.6040    -1.2700     1.4180 C.ar  1 <1>  -0.1500 
  5 C        2.2660    -2.4780    -1.0840 C.ar  1 <1>  -0.1500 
  6 C       -0.2020    -2.8640    -0.6460 C.3   1 <1>   0.0450 
  7 C        3.6590    -1.4130     0.5390 C.ar  1 <1>   0.1900 
  8 C        3.5140    -2.0080    -0.7020 C.ar  1 <1>  -0.1500 
  9 C       -0.5370    -4.2290    -0.0530 C.2   1 <1>   0.5690 
 10 F        4.8350    -0.9710     0.8920 F     1 <1>  -0.1900 
 11 O        0.3530    -5.0380     0.0770 O.2   1 <1>  -0.5700 
 12 N       -1.8250    -4.5570     0.2880 N.am  1 <1>  -0.6600 
 13 C       -2.1080    -5.7850     1.0900 C.3   1 <1>   0.1400 
 14 C       -3.0550    -3.9460    -0.2930 C.3   1 <1>   0.1400 
 15 C       -2.7420    -6.8520     0.1680 C.3   1 <1>   0.4230 
 16 C       -3.7340    -4.9870    -1.1970 C.3   1 <1>  -0.1600 
 17 N       -2.9810    -8.1810     0.8270 N.4   1 <1>  -0.9590 
 18 C       -4.0550    -6.3080    -0.4380 C.3   1 <1>  -0.1060 
 19 C       -3.4700    -9.1990    -0.1370 C.3   1 <1>   0.3430 
 20 C       -1.8600    -8.6830     1.6660 C.3   1 <1>   0.2630 
 21 C       -5.0570    -6.0470     0.7040 C.2   1 <1>   0.9060 
 22 C       -4.6250    -7.3370    -1.4430 C.3   1 <1>  -0.1600 
 23 C       -4.7660    -8.7280    -0.8040 C.3   1 <1>  -0.1600 
 24 O       -5.0220    -6.7720     1.7110 O.co2 1 <1>  -0.9000 
 25 O       -5.8600    -5.1200     0.6050 O.co2 1 <1>  -0.9000 
 26 H        2.7350    -0.8080     2.3780 H     1 <1>   0.1500 
 27 H        2.1510    -2.9490    -2.0460 H     1 <1>   0.1500 
 28 H       -0.2550    -2.9420    -1.7160 H     1 <1>   0.0800 
 29 H       -0.9350    -2.1450    -0.3330 H     1 <1>   0.0800 
 30 H        4.3650    -2.1030    -1.3530 H     1 <1>   0.1500 
 31 H       -1.1930    -6.1510     1.5150 H     1 <1>   0.0800 
 32 H       -2.7740    -5.5320     1.8980 H     1 <1>   0.0800 
 33 H       -3.7210    -3.6510     0.5030 H     1 <1>   0.0800 
 34 H       -2.8280    -3.0700    -0.8730 H     1 <1>   0.0800 
 35 H       -2.0450    -7.0070    -0.6370 H     1 <1>   0.0800 
 36 H       -4.6470    -4.5630    -1.5800 H     1 <1>   0.0800 
 37 H       -3.0930    -5.1820    -2.0380 H     1 <1>   0.0800 
 38 H       -3.8020    -7.9460     1.4480 H     1 <1>   0.4500 
 39 H       -2.7200    -9.3710    -0.8910 H     1 <1>   0.0800 
 40 H       -3.6580   -10.1270     0.3780 H     1 <1>   0.0800 
 41 H       -0.9740    -8.8150     1.0670 H     1 <1>   0.0800 
 42 H       -2.1270    -9.6270     2.1120 H     1 <1>   0.0800 
 43 H       -1.6470    -7.9840     2.4580 H     1 <1>   0.0800 
 44 H       -5.5900    -7.0020    -1.7860 H     1 <1>   0.0800 
 45 H       -3.9770    -7.4090    -2.2990 H     1 <1>   0.0800 
 46 H       -5.0540    -9.4390    -1.5570 H     1 <1>   0.0800 
 47 H       -5.5510    -8.7110    -0.0670 H     1 <1>   0.0800 
@<TRIPOS>BOND
  1   1   2  1   
  2   2   3  ar  
  3   2   4  ar  
  4   3   5  ar  
  5   3   6  1   
  6   4   7  ar  
  7   4  26  1   
  8   5   8  ar  
  9   5  27  1   
 10   6   9  1   
 11   6  28  1   
 12   6  29  1   
 13   7   8  ar  
 14   7  10  1   
 15   8  30  1   
 16   9  11  2   
 17   9  12  am  
 18  12  13  1   
 19  12  14  1   
 20  13  15  1   
 21  13  31  1   
 22  13  32  1   
 23  14  16  1   
 24  14  33  1   
 25  14  34  1   
 26  15  17  1   
 27  15  18  1   
 28  15  35  1   
 29  16  18  1   
 30  16  36  1   
 31  16  37  1   
 32  17  19  1   
 33  17  20  1   
 34  17  38  1   
 35  18  21  1   
 36  18  22  1   
 37  19  23  1   
 38  19  39  1   
 39  19  40  1   
 40  20  41  1   
 41  20  42  1   
 42  20  43  1   
 43  21  24  ar  
 44  21  25  ar  
 45  22  23  1   
 46  22  44  1   
 47  22  45  1   
 48  23  46  1   
 49  23  47  1   
@<TRIPOS>SUBSTRUCTURE
  1 ****  12 GROUP 4 **** **** 0

# MOE 2024.06 (io_trps.svl 2023.06)
