@<TRIPOS>MOLECULE
NONAME
52 54 1 0 0 
SMALL
USER_CHARGES


@<TRIPOS>ATOM
  1 CL       2.2640     3.4940     0.2200 Cl    1 <1>  -0.1770 
  2 C        0.5820     3.0190     0.3250 C.ar  1 <1>   0.1770 
  3 C       -0.3840     3.7750    -0.3290 C.ar  1 <1>   0.0820 
  4 C        0.2520     1.8950     1.0570 C.ar  1 <1>  -0.1500 
  5 O        0.0240     4.8680    -1.0310 O.3   1 <1>  -0.3630 
  6 C       -1.7150     3.3780    -0.2320 C.ar  1 <1>  -0.1500 
  7 C       -1.0740     1.5070     1.1490 C.ar  1 <1>  -0.1430 
  8 C       -0.8470     5.5180    -1.9370 C.3   1 <1>   0.1200 
  9 C       -2.0490     2.2520     0.5030 C.ar  1 <1>  -0.1500 
 10 C       -1.4620     0.2740     1.9470 C.3   1 <1>  -0.0960 
 11 C       -0.0740     6.6250    -2.6640 C.3   1 <1>   0.2090 
 12 N        0.2840     7.7680    -1.7580 N.pl3 1 <1>  -0.8380 
 13 C        1.4030     7.8460    -0.9840 C.ar  1 <1>   0.7710 
 14 C       -0.6080     8.9620    -1.9370 C.3   1 <1>   0.1290 
 15 N        1.8470     9.0410    -0.6180 N.ar  1 <1>  -0.6200 
 16 N        2.0290     6.7170    -0.6070 N.ar  1 <1>  -0.1790 
 17 C        2.9400     9.1160     0.1190 C.ar  1 <1>   0.4100 
 18 C        3.1650     6.7450     0.1260 C.ar  1 <1>   0.2110 
 19 N        3.3630    10.3500     0.4990 N.pl3 1 <1>  -0.8380 
 20 C        3.6440     7.9550     0.4950 C.ar  1 <1>  -0.1500 
 21 C        4.1040    10.6430     1.7700 C.3   1 <1>   0.2090 
 22 C        3.0570    11.5830    -0.2900 C.3   1 <1>   0.2090 
 23 C        5.4250    11.3670     1.4600 C.3   1 <1>   0.2000 
 24 C        4.3640    12.3160    -0.6230 C.3   1 <1>  -0.1600 
 25 O        6.0500    11.7230     2.6420 O.3   1 <1>  -0.6800 
 26 C        5.1940    12.6360     0.6330 C.3   1 <1>  -0.1600 
 27 H        1.0270     1.3320     1.5460 H     1 <1>   0.1500 
 28 H       -2.5050     3.9250    -0.7100 H     1 <1>   0.1500 
 29 H       -1.6780     5.9350    -1.3940 H     1 <1>   0.0800 
 30 H       -1.2010     4.7870    -2.6450 H     1 <1>   0.0800 
 31 H       -3.0820     1.9520     0.5710 H     1 <1>   0.1500 
 32 H       -0.7110     0.0420     2.6810 H     1 <1>   0.0800 
 33 H       -1.5710    -0.5680     1.2870 H     1 <1>   0.0800 
 34 H       -2.3940     0.4360     2.4580 H     1 <1>   0.0800 
 35 H       -0.6860     6.9940    -3.4720 H     1 <1>   0.0800 
 36 H        0.8130     6.2120    -3.1130 H     1 <1>   0.0800 
 37 H       -1.6360     8.6520    -2.0190 H     1 <1>   0.0800 
 38 H       -0.3290     9.4970    -2.8290 H     1 <1>   0.0800 
 39 H       -0.5340     9.6320    -1.0960 H     1 <1>   0.0800 
 40 H        1.5420     5.8480    -0.8410 H     1 <1>   0.4570 
 41 H        3.6490     5.8190     0.3910 H     1 <1>   0.1500 
 42 H        4.5520     8.0460     1.0580 H     1 <1>   0.1500 
 43 H        4.3040     9.7440     2.3220 H     1 <1>   0.0800 
 44 H        3.4870    11.2780     2.3820 H     1 <1>   0.0800 
 45 H        2.4110    12.2220     0.2880 H     1 <1>   0.0800 
 46 H        2.5500    11.3390    -1.2080 H     1 <1>   0.0800 
 47 H        6.0830    10.6930     0.9380 H     1 <1>   0.0800 
 48 H        4.1340    13.2280    -1.1430 H     1 <1>   0.0800 
 49 H        4.9410    11.6980    -1.2890 H     1 <1>   0.0800 
 50 H        5.6100    12.4970     3.0420 H     1 <1>   0.4000 
 51 H        6.1420    13.0530     0.3400 H     1 <1>   0.0800 
 52 H        4.6610    13.3630     1.2220 H     1 <1>   0.0800 
@<TRIPOS>BOND
  1   1   2  1   
  2   2   3  ar  
  3   2   4  ar  
  4   3   5  1   
  5   3   6  ar  
  6   4   7  ar  
  7   4  27  1   
  8   5   8  1   
  9   6   9  ar  
 10   6  28  1   
 11   7   9  ar  
 12   7  10  1   
 13   8  11  1   
 14   8  29  1   
 15   8  30  1   
 16   9  31  1   
 17  10  32  1   
 18  10  33  1   
 19  10  34  1   
 20  11  12  1   
 21  11  35  1   
 22  11  36  1   
 23  12  13  1   
 24  12  14  1   
 25  13  15  ar  
 26  13  16  ar  
 27  14  37  1   
 28  14  38  1   
 29  14  39  1   
 30  15  17  ar  
 31  16  18  ar  
 32  16  40  1   
 33  17  19  1   
 34  17  20  ar  
 35  18  20  ar  
 36  18  41  1   
 37  19  21  1   
 38  19  22  1   
 39  20  42  1   
 40  21  23  1   
 41  21  43  1   
 42  21  44  1   
 43  22  24  1   
 44  22  45  1   
 45  22  46  1   
 46  23  25  1   
 47  23  26  1   
 48  23  47  1   
 49  24  26  1   
 50  24  48  1   
 51  24  49  1   
 52  25  50  1   
 53  26  51  1   
 54  26  52  1   
@<TRIPOS>SUBSTRUCTURE
  1 ****  16 GROUP 4 **** **** 0

# MOE 2024.06 (io_trps.svl 2023.06)
