@<TRIPOS>MOLECULE
NONAME
51 52 1 0 0 
SMALL
USER_CHARGES


@<TRIPOS>ATOM
  1 O        2.9120    -2.3260     1.7910 O.2   1 <1>  -0.5700 
  2 C        2.6420    -2.0330     0.6450 C.2   1 <1>   0.5690 
  3 N        2.7620    -0.7260     0.2140 N.am  1 <1>  -0.6600 
  4 C        2.1740    -3.1700    -0.3170 C.3   1 <1>   0.2510 
  5 C        2.8900    -0.3180    -1.2120 C.3   1 <1>   0.1400 
  6 C        2.9210     0.3790     1.2020 C.3   1 <1>   0.1400 
  7 N        0.9050    -3.8800     0.0350 N.3   1 <1>  -0.8100 
  8 C        3.2850    -4.1990    -0.5610 C.3   1 <1>  -0.2400 
  9 C        1.5500     0.2220    -1.7200 C.3   1 <1>  -0.1600 
 10 C        1.8050     1.4240     1.0740 C.3   1 <1>  -0.1600 
 11 C       -0.2460    -2.9410    -0.0050 C.3   1 <1>   0.2530 
 12 C        0.9430    -4.5720     1.3400 C.3   1 <1>   0.0300 
 13 C        1.3100     1.7190    -1.4540 C.3   1 <1>  -0.1600 
 14 C        1.9350     2.3070    -0.1780 C.3   1 <1>  -0.1600 
 15 C       -1.6160    -3.6210     0.0130 C.ar  1 <1>   0.1670 
 16 N       -2.5880    -2.9690     0.6390 N.ar  1 <1>  -0.6200 
 17 C       -1.7970    -4.8440    -0.6170 C.ar  1 <1>  -0.1500 
 18 C       -3.7710    -3.5640     0.6420 C.ar  1 <1>   0.1600 
 19 C       -3.0360    -5.4480    -0.6070 C.ar  1 <1>  -0.1500 
 20 C       -4.0530    -4.7840     0.0450 C.ar  1 <1>  -0.1430 
 21 C       -5.4500    -5.3800     0.1080 C.3   1 <1>  -0.0170 
 22 C       -5.5950    -6.2800     1.3360 C.3   1 <1>  -0.2400 
 23 H        1.9860    -2.7250    -1.2740 H     1 <1>   0.0800 
 24 H        3.1960    -1.1580    -1.8090 H     1 <1>   0.0800 
 25 H        3.6590     0.4290    -1.3140 H     1 <1>   0.0800 
 26 H        3.8830     0.8410     1.0680 H     1 <1>   0.0800 
 27 H        2.8940    -0.0160     2.2040 H     1 <1>   0.0800 
 28 H        3.6230    -4.6210     0.3680 H     1 <1>   0.0800 
 29 H        4.1250    -3.7180    -1.0270 H     1 <1>   0.0800 
 30 H        2.9310    -4.9810    -1.2070 H     1 <1>   0.0800 
 31 H        0.7530    -0.3460    -1.2770 H     1 <1>   0.0800 
 32 H        1.4960     0.0630    -2.7820 H     1 <1>   0.0800 
 33 H        1.8750     2.0640     1.9350 H     1 <1>   0.0800 
 34 H        0.8410     0.9450     1.1130 H     1 <1>   0.0800 
 35 H       -0.2010    -2.3610    -0.9080 H     1 <1>   0.0800 
 36 H       -0.1810    -2.2600     0.8270 H     1 <1>   0.0800 
 37 H        1.7710    -5.2550     1.3870 H     1 <1>   0.0800 
 38 H        0.0410    -5.1410     1.4830 H     1 <1>   0.0800 
 39 H        1.0260    -3.8660     2.1480 H     1 <1>   0.0800 
 40 H        0.2460     1.8830    -1.4240 H     1 <1>   0.0800 
 41 H        1.6860     2.2830    -2.2910 H     1 <1>   0.0800 
 42 H        2.9740     2.5260    -0.3510 H     1 <1>   0.0800 
 43 H        1.4500     3.2490     0.0180 H     1 <1>   0.0800 
 44 H       -0.9680    -5.3180    -1.1110 H     1 <1>   0.1500 
 45 H       -4.5640    -3.0460     1.1530 H     1 <1>   0.1500 
 46 H       -3.1940    -6.3980    -1.0860 H     1 <1>   0.1500 
 47 H       -5.6400    -5.9520    -0.7840 H     1 <1>   0.0800 
 48 H       -6.1820    -4.5910     0.1490 H     1 <1>   0.0800 
 49 H       -4.8800    -7.0830     1.2940 H     1 <1>   0.0800 
 50 H       -6.5850    -6.7000     1.3730 H     1 <1>   0.0800 
 51 H       -5.4250    -5.7150     2.2350 H     1 <1>   0.0800 
@<TRIPOS>BOND
  1   1   2  2   
  2   2   3  am  
  3   2   4  1   
  4   3   5  1   
  5   3   6  1   
  6   4   7  1   
  7   4   8  1   
  8   4  23  1   
  9   5   9  1   
 10   5  24  1   
 11   5  25  1   
 12   6  10  1   
 13   6  26  1   
 14   6  27  1   
 15   7  11  1   
 16   7  12  1   
 17   8  28  1   
 18   8  29  1   
 19   8  30  1   
 20   9  13  1   
 21   9  31  1   
 22   9  32  1   
 23  10  14  1   
 24  10  33  1   
 25  10  34  1   
 26  11  15  1   
 27  11  35  1   
 28  11  36  1   
 29  12  37  1   
 30  12  38  1   
 31  12  39  1   
 32  13  14  1   
 33  13  40  1   
 34  13  41  1   
 35  14  42  1   
 36  14  43  1   
 37  15  16  ar  
 38  15  17  ar  
 39  16  18  ar  
 40  17  19  ar  
 41  17  44  1   
 42  18  20  ar  
 43  18  45  1   
 44  19  20  ar  
 45  19  46  1   
 46  20  21  1   
 47  21  22  1   
 48  21  47  1   
 49  21  48  1   
 50  22  49  1   
 51  22  50  1   
 52  22  51  1   
@<TRIPOS>SUBSTRUCTURE
  1 ****  11 GROUP 4 **** **** 0

# MOE 2024.06 (io_trps.svl 2023.06)
