@<TRIPOS>MOLECULE
NONAME
36 38 1 0 0 
SMALL
USER_CHARGES


@<TRIPOS>ATOM
  1 S       -2.2060     0.5560    -1.1320 S.3   1 <1>  -0.0800 
  2 C       -1.8850    -0.9260    -0.2230 C.2   1 <1>  -0.0450 
  3 C       -1.6080     1.5690     0.1630 C.2   1 <1>  -0.1100 
  4 C       -2.2020    -2.1970    -0.8260 C.2   1 <1>   0.7150 
  5 C       -1.3550    -0.5860     0.9810 C.2   1 <1>  -0.1500 
  6 C       -1.1990     0.8150     1.1980 C.2   1 <1>  -0.1500 
  7 O       -2.6360    -2.2900    -1.9580 O.2   1 <1>  -0.5700 
  8 N       -2.0270    -3.3430    -0.1110 N.am  1 <1>  -0.7300 
  9 C       -2.3340    -4.7060    -0.5960 C.3   1 <1>   0.2200 
 10 C       -3.7170    -5.1070    -0.1110 C.3   1 <1>  -0.0800 
 11 C       -1.4510    -5.7140     0.1270 C.3   1 <1>   0.1200 
 12 C       -3.4320    -5.6530     1.2950 C.3   1 <1>   0.1200 
 13 C       -4.3530    -6.1640    -1.0330 C.3   1 <1>  -0.0160 
 14 O       -2.0620    -5.9300     1.3620 O.3   1 <1>  -0.5600 
 15 C       -5.7520    -6.5390    -0.5670 C.ar  1 <1>  -0.1430 
 16 C       -6.8240    -5.6890    -0.7430 C.ar  1 <1>  -0.1500 
 17 C       -6.0240    -7.7430     0.0530 C.ar  1 <1>  -0.1500 
 18 C       -8.0800    -6.0690    -0.2990 C.ar  1 <1>   0.1600 
 19 C       -7.3170    -8.0260     0.4590 C.ar  1 <1>   0.1600 
 20 N       -8.3520    -7.2170     0.3000 N.ar  1 <1>  -0.6200 
 21 H       -1.6250     2.6340     0.0100 H     1 <1>   0.1500 
 22 H       -1.0580    -1.2840     1.7430 H     1 <1>   0.1500 
 23 H       -0.7890     1.1950     2.1180 H     1 <1>   0.1500 
 24 H       -1.7600    -3.2920     0.8720 H     1 <1>   0.3700 
 25 H       -2.2240    -4.7580    -1.6670 H     1 <1>   0.0800 
 26 H       -4.3730    -4.2550    -0.0650 H     1 <1>   0.0800 
 27 H       -0.4460    -5.3590     0.2750 H     1 <1>   0.0800 
 28 H       -1.4320    -6.6530    -0.3980 H     1 <1>   0.0800 
 29 H       -3.9780    -6.5530     1.5150 H     1 <1>   0.0800 
 30 H       -3.6510    -4.9120     2.0440 H     1 <1>   0.0800 
 31 H       -3.7370    -7.0460    -1.0730 H     1 <1>   0.0800 
 32 H       -4.4210    -5.7700    -2.0320 H     1 <1>   0.0800 
 33 H       -6.6960    -4.7350    -1.2210 H     1 <1>   0.1500 
 34 H       -5.2450    -8.4630     0.2240 H     1 <1>   0.1500 
 35 H       -8.9050    -5.3920    -0.4450 H     1 <1>   0.1500 
 36 H       -7.5110    -8.9690     0.9410 H     1 <1>   0.1500 
@<TRIPOS>BOND
  1   1   2  1   
  2   1   3  1   
  3   2   4  1   
  4   2   5  2   
  5   3   6  2   
  6   3  21  1   
  7   4   7  2   
  8   4   8  am  
  9   5   6  1   
 10   5  22  1   
 11   6  23  1   
 12   8   9  1   
 13   8  24  1   
 14   9  10  1   
 15   9  11  1   
 16   9  25  1   
 17  10  12  1   
 18  10  13  1   
 19  10  26  1   
 20  11  14  1   
 21  11  27  1   
 22  11  28  1   
 23  12  14  1   
 24  12  29  1   
 25  12  30  1   
 26  13  15  1   
 27  13  31  1   
 28  13  32  1   
 29  15  16  ar  
 30  15  17  ar  
 31  16  18  ar  
 32  16  33  1   
 33  17  19  ar  
 34  17  34  1   
 35  18  20  ar  
 36  18  35  1   
 37  19  20  ar  
 38  19  36  1   
@<TRIPOS>SUBSTRUCTURE
  1 ****  10 GROUP 4 **** **** 0

# MOE 2024.06 (io_trps.svl 2023.06)
