@<TRIPOS>MOLECULE
NONAME
41 42 1 0 0 
SMALL
USER_CHARGES


@<TRIPOS>ATOM
  1 S        0.4280     0.1270    -0.6590 S.o2  1 <1>   1.3330 
  2 O        1.8540     0.1810    -0.4240 O.2   1 <1>  -0.6500 
  3 O       -0.0710     0.2230    -2.0120 O.2   1 <1>  -0.6500 
  4 N       -0.1590    -1.3100     0.0270 N.am  1 <1>  -0.8490 
  5 C       -0.3770     1.4040     0.3050 C.3   1 <1>  -0.0550 
  6 C        0.5340    -1.6910     1.2620 C.3   1 <1>   0.1160 
  7 C       -0.1330    -2.4250    -0.9240 C.3   1 <1>   0.1160 
  8 C       -0.0740     2.8270    -0.2080 C.3   1 <1>  -0.0800 
  9 C       -0.8620     3.9350     0.4860 C.3   1 <1>   0.2000 
 10 C        1.3980     3.2520    -0.0580 C.3   1 <1>   0.1100 
 11 O       -0.8930     3.6870     1.8470 O.3   1 <1>  -0.6800 
 12 C        0.0360     5.1450     0.2700 C.3   1 <1>   0.1100 
 13 N        1.3940     4.6200     0.4960 N.3   1 <1>  -0.8100 
 14 C        2.4640     5.4540    -0.0660 C.3   1 <1>   0.1100 
 15 C        2.6470     6.7210     0.7730 C.3   1 <1>   0.0960 
 16 N        3.7520     7.5310     0.2300 N.pl3 1 <1>   0.0480 
 17 C        3.7140     8.4480    -0.7380 C.2   1 <1>   0.0370 
 18 C        5.0400     7.5250     0.5740 C.2   1 <1>   0.0370 
 19 N        4.8760     8.9540    -0.9650 N.2   1 <1>  -0.3380 
 20 N        5.7270     8.3630    -0.1240 N.2   1 <1>  -0.3380 
 21 H       -1.4380     1.2470     0.2660 H     1 <1>   0.0800 
 22 H       -0.0760     1.3200     1.3300 H     1 <1>   0.0800 
 23 H        0.0670    -2.5610     1.6930 H     1 <1>   0.0800 
 24 H        0.4840    -0.8900     1.9790 H     1 <1>   0.0800 
 25 H        1.5690    -1.9120     1.0610 H     1 <1>   0.0800 
 26 H       -0.5280    -3.3150    -0.4670 H     1 <1>   0.0800 
 27 H        0.8750    -2.6120    -1.2550 H     1 <1>   0.0800 
 28 H       -0.7410    -2.1910    -1.7830 H     1 <1>   0.0800 
 29 H       -0.3160     2.8650    -1.2560 H     1 <1>   0.0800 
 30 H       -1.8680     4.0570     0.1220 H     1 <1>   0.0800 
 31 H        1.8850     3.2180    -1.0190 H     1 <1>   0.0800 
 32 H        1.9290     2.6040     0.6200 H     1 <1>   0.0800 
 33 H        0.0250     3.8200     2.1690 H     1 <1>   0.4000 
 34 H       -0.2060     5.9440     0.9500 H     1 <1>   0.0800 
 35 H       -0.0670     5.4890    -0.7450 H     1 <1>   0.0800 
 36 H        3.3860     4.8950    -0.0460 H     1 <1>   0.0800 
 37 H        2.2370     5.7060    -1.0880 H     1 <1>   0.0800 
 38 H        2.8780     6.4530     1.7880 H     1 <1>   0.0800 
 39 H        1.7500     7.3120     0.7590 H     1 <1>   0.0800 
 40 H        2.8150     8.7230    -1.2590 H     1 <1>   0.1500 
 41 H        5.4450     6.8920     1.3430 H     1 <1>   0.1500 
@<TRIPOS>BOND
  1   1   2  2   
  2   1   3  2   
  3   1   4  am  
  4   1   5  1   
  5   4   6  1   
  6   4   7  1   
  7   5   8  1   
  8   5  21  1   
  9   5  22  1   
 10   6  23  1   
 11   6  24  1   
 12   6  25  1   
 13   7  26  1   
 14   7  27  1   
 15   7  28  1   
 16   8   9  1   
 17   8  10  1   
 18   8  29  1   
 19   9  11  1   
 20   9  12  1   
 21   9  30  1   
 22  10  13  1   
 23  10  31  1   
 24  10  32  1   
 25  11  33  1   
 26  12  13  1   
 27  12  34  1   
 28  12  35  1   
 29  13  14  1   
 30  14  15  1   
 31  14  36  1   
 32  14  37  1   
 33  15  16  1   
 34  15  38  1   
 35  15  39  1   
 36  16  17  1   
 37  16  18  1   
 38  17  19  2   
 39  17  40  1   
 40  18  20  2   
 41  18  41  1   
 42  19  20  1   
@<TRIPOS>SUBSTRUCTURE
  1 ****  10 GROUP 4 **** **** 0

# MOE 2024.06 (io_trps.svl 2023.06)
