@<TRIPOS>MOLECULE
NONAME
51 53 1 0 0 
SMALL
USER_CHARGES


@<TRIPOS>ATOM
  1 CL      -1.3710    -4.1090    -1.0410 Cl    1 <1>  -0.1770 
  2 C       -2.6640    -2.9370    -0.9660 C.ar  1 <1>   0.1770 
  3 C       -3.9750    -3.3720    -1.0260 C.ar  1 <1>  -0.1500 
  4 C       -2.3520    -1.5950    -0.8510 C.ar  1 <1>  -0.1500 
  5 C       -5.0100    -2.4500    -0.9680 C.ar  1 <1>  -0.1440 
  6 C       -3.3800    -0.6710    -0.7910 C.ar  1 <1>  -0.1500 
  7 C       -4.7020    -1.0970    -0.8410 C.ar  1 <1>   0.0830 
  8 C       -6.4520    -2.9280    -1.0360 C.3   1 <1>  -0.0960 
  9 O       -5.6900    -0.1780    -0.7850 O.3   1 <1>  -0.3630 
 10 C       -5.9040     0.4690     0.4620 C.3   1 <1>   0.2610 
 11 C       -6.9660    -0.2590     1.3130 C.2   1 <1>   0.5690 
 12 C       -6.2160     1.9450     0.1830 C.3   1 <1>  -0.2400 
 13 O       -6.5980    -0.6490     2.4000 O.2   1 <1>  -0.5700 
 14 N       -8.2730    -0.4550     0.9100 N.am  1 <1>  -0.6600 
 15 C       -9.2410    -1.1050     1.8490 C.3   1 <1>   0.1400 
 16 C       -8.8060    -0.0840    -0.4390 C.3   1 <1>   0.1400 
 17 C      -10.6660    -0.6110     1.5930 C.3   1 <1>  -0.1600 
 18 C       -9.9520    -1.0170    -0.8240 C.3   1 <1>  -0.1600 
 19 C      -11.1290    -0.8630     0.1460 C.3   1 <1>   0.4180 
 20 O      -11.8290     0.2740    -0.2900 O.3   1 <1>  -0.5600 
 21 C      -12.0230    -2.0990     0.0520 C.2   1 <1>  -0.2880 
 22 C      -13.1510     0.4120     0.1520 C.3   1 <1>   0.1200 
 23 C      -13.3320    -2.0570    -0.2110 C.2   1 <1>  -0.2760 
 24 C      -14.0230    -0.7200    -0.4070 C.3   1 <1>  -0.0220 
 25 C      -14.2240    -3.2780    -0.3440 C.3   1 <1>  -0.1020 
 26 H       -4.1740    -4.4240    -1.1170 H     1 <1>   0.1500 
 27 H       -1.3240    -1.2860    -0.8110 H     1 <1>   0.1500 
 28 H       -3.1600     0.3780    -0.7110 H     1 <1>   0.1500 
 29 H       -6.5030    -3.9570    -1.3400 H     1 <1>   0.0800 
 30 H       -7.0030    -2.3370    -1.7450 H     1 <1>   0.0800 
 31 H       -6.9130    -2.8320    -0.0690 H     1 <1>   0.0800 
 32 H       -4.9810     0.4300     1.0140 H     1 <1>   0.0800 
 33 H       -7.0860     2.0490    -0.4350 H     1 <1>   0.0800 
 34 H       -5.3780     2.4080    -0.3060 H     1 <1>   0.0800 
 35 H       -6.3930     2.4560     1.1130 H     1 <1>   0.0800 
 36 H       -8.9700    -0.8830     2.8680 H     1 <1>   0.0800 
 37 H       -9.1910    -2.1720     1.7180 H     1 <1>   0.0800 
 38 H       -8.0390    -0.1520    -1.1870 H     1 <1>   0.0800 
 39 H       -9.1680     0.9300    -0.4120 H     1 <1>   0.0800 
 40 H      -10.6880     0.4420     1.8060 H     1 <1>   0.0800 
 41 H      -11.3350    -1.1000     2.2770 H     1 <1>   0.0800 
 42 H       -9.5850    -2.0260    -0.8110 H     1 <1>   0.0800 
 43 H      -10.2860    -0.8080    -1.8250 H     1 <1>   0.0800 
 44 H      -11.4880    -3.0160     0.2170 H     1 <1>   0.1500 
 45 H      -13.5140     1.3670    -0.1850 H     1 <1>   0.0800 
 46 H      -13.1560     0.3970     1.2280 H     1 <1>   0.0800 
 47 H      -14.2050    -0.5540    -1.4540 H     1 <1>   0.0800 
 48 H      -14.9680    -0.7090     0.1050 H     1 <1>   0.0800 
 49 H      -14.6710    -3.3050    -1.3220 H     1 <1>   0.0800 
 50 H      -15.0040    -3.2520     0.3960 H     1 <1>   0.0800 
 51 H      -13.6530    -4.1790    -0.2050 H     1 <1>   0.0800 
@<TRIPOS>BOND
  1   1   2  1   
  2   2   3  ar  
  3   2   4  ar  
  4   3   5  ar  
  5   3  26  1   
  6   4   6  ar  
  7   4  27  1   
  8   5   7  ar  
  9   5   8  1   
 10   6   7  ar  
 11   6  28  1   
 12   7   9  1   
 13   8  29  1   
 14   8  30  1   
 15   8  31  1   
 16   9  10  1   
 17  10  11  1   
 18  10  12  1   
 19  10  32  1   
 20  11  13  2   
 21  11  14  am  
 22  12  33  1   
 23  12  34  1   
 24  12  35  1   
 25  14  15  1   
 26  14  16  1   
 27  15  17  1   
 28  15  36  1   
 29  15  37  1   
 30  16  18  1   
 31  16  38  1   
 32  16  39  1   
 33  17  19  1   
 34  17  40  1   
 35  17  41  1   
 36  18  19  1   
 37  18  42  1   
 38  18  43  1   
 39  19  20  1   
 40  19  21  1   
 41  20  22  1   
 42  21  23  2   
 43  21  44  1   
 44  22  24  1   
 45  22  45  1   
 46  22  46  1   
 47  23  24  1   
 48  23  25  1   
 49  24  47  1   
 50  24  48  1   
 51  25  49  1   
 52  25  50  1   
 53  25  51  1   
@<TRIPOS>SUBSTRUCTURE
  1 ****  14 GROUP 4 **** **** 0

# MOE 2024.06 (io_trps.svl 2023.06)
