@<TRIPOS>MOLECULE
NONAME
45 48 1 0 0 
SMALL
USER_CHARGES


@<TRIPOS>ATOM
  1 S       -0.1990     1.0700    -2.8380 S.3   1 <1>  -0.0800 
  2 C       -0.0930     2.0560    -1.3950 C.2   1 <1>  -0.1400 
  3 C        1.4140     1.5730    -3.3230 C.2   1 <1>  -0.1100 
  4 C        1.0830     2.6910    -1.3080 C.2   1 <1>  -0.1810 
  5 C       -1.2130     2.1580    -0.3960 C.3   1 <1>   0.0200 
  6 C        1.9480     2.4190    -2.4210 C.2   1 <1>  -0.1500 
  7 C        1.4040     3.5980    -0.1180 C.3   1 <1>   0.4610 
  8 C       -0.9530     3.4140     0.4510 C.3   1 <1>   0.1200 
  9 O        0.3910     3.4800     0.8670 O.3   1 <1>  -0.5600 
 10 C        1.5040     5.0670    -0.5570 C.3   1 <1>  -0.1600 
 11 C        2.7040     3.1480     0.5600 C.3   1 <1>  -0.1600 
 12 C        1.9100     5.9720     0.6070 C.3   1 <1>   0.1400 
 13 C        3.1050     4.0850     1.7010 C.3   1 <1>   0.1400 
 14 N        3.1930     5.4730     1.1700 N.am  1 <1>  -0.6600 
 15 C        4.3850     6.1690     1.1300 C.2   1 <1>   0.5440 
 16 O        5.3860     5.6700     1.6090 O.2   1 <1>  -0.5700 
 17 C        4.4810     7.4650     0.5170 C.ar  1 <1>   0.0860 
 18 C        4.3590     8.6470     1.2400 C.ar  1 <1>   0.1900 
 19 C        4.7010     7.6270    -0.8480 C.ar  1 <1>   0.1900 
 20 F        4.1300     8.5850     2.5240 F     1 <1>  -0.1900 
 21 C        4.4530     9.9000     0.6660 C.ar  1 <1>  -0.1500 
 22 F        4.8070     6.5660    -1.6020 F     1 <1>  -0.1900 
 23 C        4.8040     8.8590    -1.4650 C.ar  1 <1>  -0.1500 
 24 C        4.6780    10.0140    -0.6970 C.ar  1 <1>   0.0830 
 25 O        4.7610    11.2640    -1.2020 O.3   1 <1>  -0.3630 
 26 C        5.0410    11.5020    -2.5650 C.3   1 <1>   0.0400 
 27 H        1.7960     1.1760    -4.2460 H     1 <1>   0.1500 
 28 H       -1.2290     1.2830     0.2280 H     1 <1>   0.0800 
 29 H       -2.1590     2.2450    -0.8980 H     1 <1>   0.0800 
 30 H        2.9240     2.8670    -2.4930 H     1 <1>   0.1500 
 31 H       -1.5690     3.4020     1.3320 H     1 <1>   0.0800 
 32 H       -1.1790     4.3000    -0.1150 H     1 <1>   0.0800 
 33 H        0.5720     5.3940    -0.9750 H     1 <1>   0.0800 
 34 H        2.2450     5.1530    -1.3300 H     1 <1>   0.0800 
 35 H        3.5040     3.1320    -0.1570 H     1 <1>   0.0800 
 36 H        2.5810     2.1480     0.9320 H     1 <1>   0.0800 
 37 H        1.1560     5.9440     1.3760 H     1 <1>   0.0800 
 38 H        2.0000     6.9880     0.2670 H     1 <1>   0.0800 
 39 H        4.0470     3.7690     2.1160 H     1 <1>   0.0800 
 40 H        2.3680     4.0510     2.4850 H     1 <1>   0.0800 
 41 H        4.3520    10.7840     1.2700 H     1 <1>   0.1500 
 42 H        4.9770     8.8960    -2.5240 H     1 <1>   0.1500 
 43 H        5.0770    12.5660    -2.7170 H     1 <1>   0.0800 
 44 H        4.2570    11.0750    -3.1640 H     1 <1>   0.0800 
 45 H        5.9940    11.0670    -2.8080 H     1 <1>   0.0800 
@<TRIPOS>BOND
  1   1   2  1   
  2   1   3  1   
  3   2   4  2   
  4   2   5  1   
  5   3   6  2   
  6   3  27  1   
  7   4   6  1   
  8   4   7  1   
  9   5   8  1   
 10   5  28  1   
 11   5  29  1   
 12   6  30  1   
 13   7   9  1   
 14   7  10  1   
 15   7  11  1   
 16   8   9  1   
 17   8  31  1   
 18   8  32  1   
 19  10  12  1   
 20  10  33  1   
 21  10  34  1   
 22  11  13  1   
 23  11  35  1   
 24  11  36  1   
 25  12  14  1   
 26  12  37  1   
 27  12  38  1   
 28  13  14  1   
 29  13  39  1   
 30  13  40  1   
 31  14  15  am  
 32  15  16  2   
 33  15  17  1   
 34  17  18  ar  
 35  17  19  ar  
 36  18  20  1   
 37  18  21  ar  
 38  19  22  1   
 39  19  23  ar  
 40  21  24  ar  
 41  21  41  1   
 42  23  24  ar  
 43  23  42  1   
 44  24  25  1   
 45  25  26  1   
 46  26  43  1   
 47  26  44  1   
 48  26  45  1   
@<TRIPOS>SUBSTRUCTURE
  1 ****  12 GROUP 4 **** **** 0

# MOE 2024.06 (io_trps.svl 2023.06)
