@<TRIPOS>MOLECULE
NONAME
46 49 1 0 0 
SMALL
USER_CHARGES


@<TRIPOS>ATOM
  1 F       -0.2990    -0.2720    -0.5630 F     1 <1>  -0.1900 
  2 C       -0.0570    -1.4300    -1.1320 C.ar  1 <1>   0.1900 
  3 C       -0.9510    -2.5090    -0.9950 C.ar  1 <1>   0.4100 
  4 C        1.1100    -1.5360    -1.8490 C.ar  1 <1>  -0.1500 
  5 N       -0.6830    -3.6930    -1.5510 N.ar  1 <1>  -0.6200 
  6 N       -2.1510    -2.4290    -0.2800 N.pl3 1 <1>  -0.8380 
  7 C        1.3580    -2.7670    -2.4220 C.ar  1 <1>  -0.1500 
  8 C        0.4440    -3.7910    -2.2410 C.ar  1 <1>   0.1600 
  9 C       -3.1290    -1.3370    -0.5760 C.3   1 <1>   0.2090 
 10 C       -2.7850    -3.6810     0.2470 C.3   1 <1>   0.2090 
 11 C       -3.8530    -0.8800     0.7130 C.3   1 <1>   0.1430 
 12 C       -4.1530    -3.4130     0.9020 C.3   1 <1>  -0.1600 
 13 C       -5.0940    -0.1130     0.2870 C.ar  1 <1>   0.1670 
 14 C       -4.1700    -2.0730     1.6550 C.3   1 <1>  -0.1600 
 15 C       -3.0490     0.2130     1.4660 C.3   1 <1>  -0.1600 
 16 N       -6.2020    -0.6450    -0.1650 N.ar  1 <1>  -0.6200 
 17 C       -4.9170     1.2320     0.4150 C.ar  1 <1>  -0.1430 
 18 C       -3.5460     1.5700     0.9440 C.3   1 <1>  -0.0170 
 19 C       -7.1650     0.2240    -0.4840 C.ar  1 <1>   0.7200 
 20 C       -5.9590     2.0490     0.0590 C.ar  1 <1>   0.1600 
 21 N       -7.0890     1.5560    -0.3920 N.ar  1 <1>  -0.6200 
 22 N       -8.3520    -0.3050    -0.9570 N.pl3 1 <1>  -0.8380 
 23 C       -9.3960     0.5420    -1.5970 C.3   1 <1>   0.1290 
 24 C       -8.6720    -1.7540    -0.8420 C.3   1 <1>   0.1290 
 25 H        1.7870    -0.7070    -1.9510 H     1 <1>   0.1500 
 26 H        2.2500    -2.9330    -2.9990 H     1 <1>   0.1500 
 27 H        0.6490    -4.7480    -2.6890 H     1 <1>   0.1500 
 28 H       -3.8580    -1.7220    -1.2690 H     1 <1>   0.0800 
 29 H       -2.6540    -0.5010    -1.0540 H     1 <1>   0.0800 
 30 H       -2.1180    -4.1090     0.9750 H     1 <1>   0.0800 
 31 H       -2.9090    -4.3950    -0.5500 H     1 <1>   0.0800 
 32 H       -4.3840    -4.2190     1.5760 H     1 <1>   0.0800 
 33 H       -4.9140    -3.4040     0.1410 H     1 <1>   0.0800 
 34 H       -5.1240    -1.9250     2.1310 H     1 <1>   0.0800 
 35 H       -3.4220    -2.1310     2.4260 H     1 <1>   0.0800 
 36 H       -1.9870     0.0910     1.3490 H     1 <1>   0.0800 
 37 H       -3.2790     0.1640     2.5160 H     1 <1>   0.0800 
 38 H       -2.9220     1.9210     0.1400 H     1 <1>   0.0800 
 39 H       -3.5870     2.3060     1.7280 H     1 <1>   0.0800 
 40 H       -5.8670     3.1180     0.1440 H     1 <1>   0.1500 
 41 H       -8.9480     1.3890    -2.0870 H     1 <1>   0.0800 
 42 H      -10.0810     0.8950    -0.8460 H     1 <1>   0.0800 
 43 H       -9.9350    -0.0270    -2.3330 H     1 <1>   0.0800 
 44 H       -8.1930    -2.1790     0.0230 H     1 <1>   0.0800 
 45 H       -8.3260    -2.2690    -1.7210 H     1 <1>   0.0800 
 46 H       -9.7340    -1.8930    -0.7410 H     1 <1>   0.0800 
@<TRIPOS>BOND
  1   1   2  1   
  2   2   3  ar  
  3   2   4  ar  
  4   3   5  ar  
  5   3   6  1   
  6   4   7  ar  
  7   4  25  1   
  8   5   8  ar  
  9   6   9  1   
 10   6  10  1   
 11   7   8  ar  
 12   7  26  1   
 13   8  27  1   
 14   9  11  1   
 15   9  28  1   
 16   9  29  1   
 17  10  12  1   
 18  10  30  1   
 19  10  31  1   
 20  11  13  1   
 21  11  14  1   
 22  11  15  1   
 23  12  14  1   
 24  12  32  1   
 25  12  33  1   
 26  13  16  ar  
 27  13  17  ar  
 28  14  34  1   
 29  14  35  1   
 30  15  18  1   
 31  15  36  1   
 32  15  37  1   
 33  16  19  ar  
 34  17  18  1   
 35  17  20  ar  
 36  18  38  1   
 37  18  39  1   
 38  19  21  ar  
 39  19  22  1   
 40  20  21  ar  
 41  20  40  1   
 42  22  23  1   
 43  22  24  1   
 44  23  41  1   
 45  23  42  1   
 46  23  43  1   
 47  24  44  1   
 48  24  45  1   
 49  24  46  1   
@<TRIPOS>SUBSTRUCTURE
  1 ****   9 GROUP 4 **** **** 0

# MOE 2024.06 (io_trps.svl 2023.06)
