@<TRIPOS>MOLECULE
NONAME
46 48 1 0 0 
SMALL
USER_CHARGES


@<TRIPOS>ATOM
  1 O       -2.4590     0.9820    -2.1800 O.2   1 <1>  -0.5700 
  2 C       -2.1270     0.9720    -1.0090 C.2   1 <1>   0.5440 
  3 N       -1.9700    -0.2390    -0.4020 N.am  1 <1>  -0.7300 
  4 C       -1.9340     2.2010    -0.2560 C.ar  1 <1>   0.0860 
  5 C       -2.0300    -1.5570    -1.0720 C.3   1 <1>   0.2200 
  6 C       -0.7630     2.3980     0.4960 C.ar  1 <1>   0.0820 
  7 C       -2.9050     3.2160    -0.2430 C.ar  1 <1>  -0.1440 
  8 C       -3.2390    -2.3530    -0.6040 C.3   1 <1>  -0.0800 
  9 C       -0.8970    -2.4280    -0.5490 C.3   1 <1>   0.1200 
 10 O        0.1730     1.4140     0.4980 O.3   1 <1>  -0.3630 
 11 C       -0.5760     3.5750     1.2170 C.ar  1 <1>  -0.1500 
 12 C       -2.7000     4.3790     0.4790 C.ar  1 <1>  -0.1500 
 13 C       -4.2140     3.0750    -1.0130 C.3   1 <1>  -0.0970 
 14 C       -2.7430    -2.9900     0.6970 C.3   1 <1>   0.1200 
 15 C       -4.5470    -1.5520    -0.4630 C.3   1 <1>  -0.0170 
 16 O       -1.3450    -2.9330     0.6740 O.3   1 <1>  -0.5600 
 17 C        1.4180     1.5350     1.1510 C.3   1 <1>   0.0400 
 18 C       -1.5400     4.5610     1.2070 C.ar  1 <1>  -0.1500 
 19 C       -5.7030    -2.4630    -0.0790 C.ar  1 <1>  -0.1430 
 20 C       -6.1340    -2.5880     1.2260 C.ar  1 <1>  -0.1500 
 21 C       -6.3790    -3.2130    -1.0200 C.ar  1 <1>  -0.1500 
 22 C       -7.1880    -3.4380     1.5190 C.ar  1 <1>   0.1600 
 23 C       -7.4210    -4.0320    -0.6210 C.ar  1 <1>   0.1600 
 24 N       -7.8410    -4.1650     0.6270 N.ar  1 <1>  -0.6200 
 25 H       -1.5310    -0.2560     0.5220 H     1 <1>   0.3700 
 26 H       -1.9950    -1.4440    -2.1420 H     1 <1>   0.0800 
 27 H       -3.4030    -3.1470    -1.3110 H     1 <1>   0.0800 
 28 H        0.0170    -1.8790    -0.4050 H     1 <1>   0.0800 
 29 H       -0.7250    -3.2630    -1.2060 H     1 <1>   0.0800 
 30 H        0.3130     3.7440     1.7940 H     1 <1>   0.1500 
 31 H       -3.4430     5.1570     0.4820 H     1 <1>   0.1500 
 32 H       -4.9130     3.8450    -0.7430 H     1 <1>   0.0800 
 33 H       -4.6690     2.1220    -0.8070 H     1 <1>   0.0800 
 34 H       -4.0240     3.1440    -2.0700 H     1 <1>   0.0800 
 35 H       -3.0530    -4.0170     0.7840 H     1 <1>   0.0800 
 36 H       -3.0730    -2.4360     1.5580 H     1 <1>   0.0800 
 37 H       -4.7680    -1.0660    -1.3980 H     1 <1>   0.0800 
 38 H       -4.4390    -0.7820     0.2800 H     1 <1>   0.0800 
 39 H        1.9790     0.6350     0.9700 H     1 <1>   0.0800 
 40 H        1.2500     1.6530     2.2070 H     1 <1>   0.0800 
 41 H        1.9450     2.3800     0.7450 H     1 <1>   0.0800 
 42 H       -1.3920     5.4710     1.7630 H     1 <1>   0.1500 
 43 H       -5.6630    -2.0350     2.0170 H     1 <1>   0.1500 
 44 H       -6.1040    -3.1660    -2.0580 H     1 <1>   0.1500 
 45 H       -7.5110    -3.5240     2.5420 H     1 <1>   0.1500 
 46 H       -7.9370    -4.6100    -1.3690 H     1 <1>   0.1500 
@<TRIPOS>BOND
  1   1   2  2   
  2   2   3  am  
  3   2   4  1   
  4   3   5  1   
  5   3  25  1   
  6   4   6  ar  
  7   4   7  ar  
  8   5   8  1   
  9   5   9  1   
 10   5  26  1   
 11   6  10  1   
 12   6  11  ar  
 13   7  12  ar  
 14   7  13  1   
 15   8  14  1   
 16   8  15  1   
 17   8  27  1   
 18   9  16  1   
 19   9  28  1   
 20   9  29  1   
 21  10  17  1   
 22  11  18  ar  
 23  11  30  1   
 24  12  18  ar  
 25  12  31  1   
 26  13  32  1   
 27  13  33  1   
 28  13  34  1   
 29  14  16  1   
 30  14  35  1   
 31  14  36  1   
 32  15  19  1   
 33  15  37  1   
 34  15  38  1   
 35  17  39  1   
 36  17  40  1   
 37  17  41  1   
 38  18  42  1   
 39  19  20  ar  
 40  19  21  ar  
 41  20  22  ar  
 42  20  43  1   
 43  21  23  ar  
 44  21  44  1   
 45  22  24  ar  
 46  22  45  1   
 47  23  24  ar  
 48  23  46  1   
@<TRIPOS>SUBSTRUCTURE
  1 ****   3 GROUP 4 **** **** 0

# MOE 2024.06 (io_trps.svl 2023.06)
