@<TRIPOS>MOLECULE
NONAME
45 47 1 0 0 
SMALL
USER_CHARGES


@<TRIPOS>ATOM
  1 O       -1.0640     0.0150     0.8130 O.2   1 <1>  -0.5700 
  2 C       -1.7560     0.8540     0.2580 C.2   1 <1>   0.7160 
  3 N       -2.8760     0.3790    -0.4050 N.am  1 <1>  -0.6600 
  4 C       -1.3960     2.2640     0.3360 C.2   1 <1>   0.2030 
  5 C       -2.9530    -1.0450    -0.8220 C.3   1 <1>   0.1400 
  6 C       -4.1970     1.0610    -0.3290 C.3   1 <1>   0.1400 
  7 N       -1.9100     3.2540    -0.3340 N.2   1 <1>  -0.4100 
  8 C       -0.4030     2.7760     1.1590 C.2   1 <1>  -0.1500 
  9 C       -3.8090    -1.8270     0.1990 C.3   1 <1>   0.4230 
 10 C       -5.0740     0.3020     0.6780 C.3   1 <1>  -0.1600 
 11 O       -1.3290     4.3820    -0.0050 O.3   1 <1>  -0.0190 
 12 C       -0.4190     4.0840     0.8960 C.2   1 <1>  -0.0400 
 13 N       -3.8010    -3.3350    -0.0140 N.4   1 <1>  -0.9590 
 14 C       -5.2330    -1.2140     0.3590 C.3   1 <1>   0.0000 
 15 C        0.4290     5.2020     1.4670 C.3   1 <1>  -0.0600 
 16 C       -4.9190    -4.0560     0.6770 C.3   1 <1>   0.3430 
 17 C       -3.7060    -3.7880    -1.4410 C.3   1 <1>   0.2630 
 18 C       -5.9540    -1.9020     1.5570 C.3   1 <1>  -0.1600 
 19 C       -6.0510    -1.4050    -0.9510 C.3   1 <1>   0.1200 
 20 C       -5.3850    -3.2890     1.9130 C.3   1 <1>  -0.1600 
 21 O       -7.2480    -0.7100    -0.9150 O.3   1 <1>  -0.6800 
 22 H       -3.3760    -1.0890    -1.8090 H     1 <1>   0.0800 
 23 H       -1.9620    -1.4640    -0.8640 H     1 <1>   0.0800 
 24 H       -4.0910     2.0810    -0.0010 H     1 <1>   0.0800 
 25 H       -4.6570     1.0780    -1.3030 H     1 <1>   0.0800 
 26 H        0.2120     2.2080     1.8340 H     1 <1>   0.1500 
 27 H       -3.3230    -1.6580     1.1470 H     1 <1>   0.0800 
 28 H       -4.6220     0.4270     1.6470 H     1 <1>   0.0800 
 29 H       -6.0350     0.7840     0.7270 H     1 <1>   0.0800 
 30 H       -2.9350    -3.6490     0.4520 H     1 <1>   0.4500 
 31 H        1.1260     4.8120     2.1860 H     1 <1>   0.0800 
 32 H       -0.2010     5.9280     1.9480 H     1 <1>   0.0800 
 33 H        0.9760     5.6840     0.6760 H     1 <1>   0.0800 
 34 H       -5.7560    -4.1600     0.0060 H     1 <1>   0.0800 
 35 H       -4.5970    -5.0460     0.9610 H     1 <1>   0.0800 
 36 H       -4.5640    -3.4540    -2.0020 H     1 <1>   0.0800 
 37 H       -3.6640    -4.8650    -1.4890 H     1 <1>   0.0800 
 38 H       -2.8160    -3.3960    -1.9050 H     1 <1>   0.0800 
 39 H       -5.8860    -1.2920     2.4420 H     1 <1>   0.0800 
 40 H       -7.0050    -2.0010     1.3480 H     1 <1>   0.0800 
 41 H       -6.2880    -2.4390    -1.1220 H     1 <1>   0.0800 
 42 H       -5.5150    -1.0340    -1.8060 H     1 <1>   0.0800 
 43 H       -6.1430    -3.8610     2.4210 H     1 <1>   0.0800 
 44 H       -4.5590    -3.1870     2.5970 H     1 <1>   0.0800 
 45 H       -7.8350    -1.0150    -0.1960 H     1 <1>   0.4000 
@<TRIPOS>BOND
  1   1   2  2   
  2   2   3  am  
  3   2   4  1   
  4   3   5  1   
  5   3   6  1   
  6   4   7  2   
  7   4   8  1   
  8   5   9  1   
  9   5  22  1   
 10   5  23  1   
 11   6  10  1   
 12   6  24  1   
 13   6  25  1   
 14   7  11  1   
 15   8  12  2   
 16   8  26  1   
 17   9  13  1   
 18   9  14  1   
 19   9  27  1   
 20  10  14  1   
 21  10  28  1   
 22  10  29  1   
 23  11  12  1   
 24  12  15  1   
 25  13  16  1   
 26  13  17  1   
 27  13  30  1   
 28  14  18  1   
 29  14  19  1   
 30  15  31  1   
 31  15  32  1   
 32  15  33  1   
 33  16  20  1   
 34  16  34  1   
 35  16  35  1   
 36  17  36  1   
 37  17  37  1   
 38  17  38  1   
 39  18  20  1   
 40  18  39  1   
 41  18  40  1   
 42  19  21  1   
 43  19  41  1   
 44  19  42  1   
 45  20  43  1   
 46  20  44  1   
 47  21  45  1   
@<TRIPOS>SUBSTRUCTURE
  1 ****   3 GROUP 4 **** **** 0

# MOE 2024.06 (io_trps.svl 2023.06)
