@<TRIPOS>MOLECULE
NONAME
53 55 1 0 0 
SMALL
USER_CHARGES


@<TRIPOS>ATOM
  1 O       -0.1330    -2.6740    -1.3640 O.2   1 <1>  -0.5700 
  2 C        1.0530    -2.8570    -1.2760 C.2   1 <1>   0.5690 
  3 N        1.8460    -2.8940    -2.3660 N.am  1 <1>  -0.7300 
  4 C        1.7070    -3.0630     0.0730 C.3   1 <1>  -0.0990 
  5 C        3.3010    -3.1450    -2.3030 C.3   1 <1>   0.1400 
  6 C        3.0230    -2.2680     0.1560 C.3   1 <1>  -0.0800 
  7 C        3.9160    -2.3930    -1.1050 C.3   1 <1>  -0.0800 
  8 C        3.8960    -2.6740     1.3530 C.3   1 <1>  -0.1600 
  9 C        5.2270    -3.0180    -0.6180 C.3   1 <1>  -0.1600 
 10 C        5.3220    -2.5570     0.8330 C.3   1 <1>   0.2200 
 11 N        6.3080    -3.3040     1.6720 N.am  1 <1>  -0.6600 
 12 C        7.1970    -2.6810     2.5250 C.2   1 <1>   0.5690 
 13 C        6.3600    -4.7910     1.5150 C.3   1 <1>   0.0600 
 14 O        8.0700    -3.3110     3.0800 O.2   1 <1>  -0.5700 
 15 C        7.1040    -1.1910     2.8740 C.3   1 <1>   0.1810 
 16 O        7.9860    -0.3770     2.1090 O.3   1 <1>  -0.3630 
 17 C        7.6410    -0.0930     0.8320 C.ar  1 <1>   0.0820 
 18 C        8.2230    -0.8100    -0.2150 C.ar  1 <1>  -0.1430 
 19 C        6.7080     0.9120     0.5810 C.ar  1 <1>  -0.1430 
 20 C        7.8250    -0.5450    -1.5220 C.ar  1 <1>  -0.1440 
 21 C        9.2810    -1.8770     0.0700 C.3   1 <1>  -0.0970 
 22 C        6.3250     1.1590    -0.7240 C.ar  1 <1>  -0.1500 
 23 C        6.1050     1.7590     1.6940 C.3   1 <1>  -0.0970 
 24 C        6.8750     0.4340    -1.7640 C.ar  1 <1>  -0.1500 
 25 C        8.4060    -1.3020    -2.7100 C.3   1 <1>  -0.0970 
 26 H        1.3990    -2.7890    -3.2800 H     1 <1>   0.3700 
 27 H        1.0340    -2.7500     0.8500 H     1 <1>   0.0800 
 28 H        1.8920    -4.1150     0.1880 H     1 <1>   0.0800 
 29 H        3.4530    -4.2060    -2.1960 H     1 <1>   0.0800 
 30 H        3.7690    -2.8250    -3.2180 H     1 <1>   0.0800 
 31 H        2.7660    -1.2260     0.2590 H     1 <1>   0.0800 
 32 H        4.1420    -1.3920    -1.4360 H     1 <1>   0.0800 
 33 H        3.6920    -3.6910     1.6360 H     1 <1>   0.0800 
 34 H        3.7310    -2.0280     2.1970 H     1 <1>   0.0800 
 35 H        6.0680    -2.6790    -1.1940 H     1 <1>   0.0800 
 36 H        5.1520    -4.0870    -0.6770 H     1 <1>   0.0800 
 37 H        5.5710    -1.5150     0.8070 H     1 <1>   0.0800 
 38 H        5.3690    -5.1960     1.4220 H     1 <1>   0.0800 
 39 H        6.8280    -5.2480     2.3700 H     1 <1>   0.0800 
 40 H        6.9330    -5.0410     0.6390 H     1 <1>   0.0800 
 41 H        7.3890    -1.0710     3.9020 H     1 <1>   0.0800 
 42 H        6.1020    -0.8290     2.7620 H     1 <1>   0.0800 
 43 H       10.0880    -1.8090    -0.6350 H     1 <1>   0.0800 
 44 H        8.8390    -2.8540     0.0070 H     1 <1>   0.0800 
 45 H        9.7070    -1.7620     1.0500 H     1 <1>   0.0800 
 46 H        5.6000     1.9240    -0.9420 H     1 <1>   0.1500 
 47 H        5.8260     2.7270     1.3200 H     1 <1>   0.0800 
 48 H        6.8190     1.9040     2.4850 H     1 <1>   0.0800 
 49 H        5.2300     1.2780     2.0920 H     1 <1>   0.0800 
 50 H        6.5620     0.6490    -2.7710 H     1 <1>   0.1500 
 51 H        7.8580    -1.0880    -3.6100 H     1 <1>   0.0800 
 52 H        8.3630    -2.3610    -2.5350 H     1 <1>   0.0800 
 53 H        9.4300    -1.0110    -2.8600 H     1 <1>   0.0800 
@<TRIPOS>BOND
  1   1   2  2   
  2   2   3  am  
  3   2   4  1   
  4   3   5  1   
  5   3  26  1   
  6   4   6  1   
  7   4  27  1   
  8   4  28  1   
  9   5   7  1   
 10   5  29  1   
 11   5  30  1   
 12   6   7  1   
 13   6   8  1   
 14   6  31  1   
 15   7   9  1   
 16   7  32  1   
 17   8  10  1   
 18   8  33  1   
 19   8  34  1   
 20   9  10  1   
 21   9  35  1   
 22   9  36  1   
 23  10  11  1   
 24  10  37  1   
 25  11  12  am  
 26  11  13  1   
 27  12  14  2   
 28  12  15  1   
 29  13  38  1   
 30  13  39  1   
 31  13  40  1   
 32  15  16  1   
 33  15  41  1   
 34  15  42  1   
 35  16  17  1   
 36  17  18  ar  
 37  17  19  ar  
 38  18  20  ar  
 39  18  21  1   
 40  19  22  ar  
 41  19  23  1   
 42  20  24  ar  
 43  20  25  1   
 44  21  43  1   
 45  21  44  1   
 46  21  45  1   
 47  22  24  ar  
 48  22  46  1   
 49  23  47  1   
 50  23  48  1   
 51  23  49  1   
 52  24  50  1   
 53  25  51  1   
 54  25  52  1   
 55  25  53  1   
@<TRIPOS>SUBSTRUCTURE
  1 ****  10 GROUP 4 **** **** 0

# MOE 2024.06 (io_trps.svl 2023.06)
