@<TRIPOS>MOLECULE
NONAME
61 66 1 0 0 
SMALL
USER_CHARGES


@<TRIPOS>ATOM
  1 O       -1.6470     0.4130    -1.3150 O.2   1 <1>  -0.5700 
  2 C       -1.9530     0.9460    -0.2660 C.2   1 <1>   0.5440 
  3 N       -2.3910     0.1390     0.7630 N.am  1 <1>  -0.6600 
  4 C       -1.8950     2.3920    -0.1420 C.ar  1 <1>   0.0860 
  5 C       -3.6110     0.4570     1.5350 C.3   1 <1>   0.1400 
  6 C       -1.9760    -1.2810     0.8280 C.3   1 <1>   0.1400 
  7 C       -2.1330     3.2350    -1.2180 C.ar  1 <1>  -0.1500 
  8 C       -1.5910     3.0400     1.0480 C.ar  1 <1>  -0.1500 
  9 C       -4.7610    -0.3530     0.9350 C.3   1 <1>  -0.1600 
 10 C       -3.0870    -2.1400     0.2260 C.3   1 <1>  -0.1600 
 11 C       -2.0840     4.6060    -1.0580 C.ar  1 <1>   0.1600 
 12 C       -1.5660     4.4200     1.1070 C.ar  1 <1>   0.1600 
 13 C       -4.4410    -1.8530     0.8880 C.3   1 <1>   0.4230 
 14 N       -1.8130     5.2180     0.0830 N.ar  1 <1>  -0.6200 
 15 N       -5.5390    -2.5050     0.1330 N.4   1 <1>  -0.9060 
 16 C       -5.7860    -3.9590     0.2480 C.3   1 <1>   0.5030 
 17 C       -7.2960    -4.1500     0.0630 C.3   1 <1>  -0.1600 
 18 C       -5.0580    -4.7180    -0.8770 C.3   1 <1>  -0.1600 
 19 C       -5.3800    -4.5320     1.6230 C.3   1 <1>  -0.1600 
 20 C       -7.6840    -5.6480     0.1280 C.3   1 <1>   0.2560 
 21 C       -5.4040    -6.2180    -0.8110 C.3   1 <1>  -0.0800 
 22 C       -5.7300    -6.0300     1.6920 C.3   1 <1>  -0.0800 
 23 N       -9.1630    -5.8170    -0.0490 N.pl3 1 <1>   0.3140 
 24 C       -6.9230    -6.3980    -0.9890 C.3   1 <1>  -0.1600 
 25 C       -7.2470    -6.2080     1.5000 C.3   1 <1>  -0.1600 
 26 C       -4.9890    -6.7740     0.5650 C.3   1 <1>  -0.1600 
 27 N      -10.0140    -4.8040    -0.2050 N.2   1 <1>  -0.7070 
 28 C       -9.8640    -6.9570    -0.0770 C.2   1 <1>   0.0360 
 29 C      -11.1530    -5.4070    -0.3140 C.2   1 <1>   0.3660 
 30 N      -11.1180    -6.7420    -0.2420 N.2   1 <1>  -0.5650 
 31 H       -3.8370     1.5090     1.4740 H     1 <1>   0.0800 
 32 H       -3.4580     0.2040     2.5710 H     1 <1>   0.0800 
 33 H       -1.7920    -1.5530     1.8540 H     1 <1>   0.0800 
 34 H       -1.0590    -1.4230     0.2770 H     1 <1>   0.0800 
 35 H       -2.3540     2.8150    -2.1830 H     1 <1>   0.1500 
 36 H       -1.3670     2.4660     1.9290 H     1 <1>   0.1500 
 37 H       -4.9410     0.0210    -0.0580 H     1 <1>   0.0800 
 38 H       -5.6410    -0.1830     1.5290 H     1 <1>   0.0800 
 39 H       -2.8070    -3.1660     0.3670 H     1 <1>   0.0800 
 40 H       -3.1290    -1.9340    -0.8290 H     1 <1>   0.0800 
 41 H       -2.2750     5.2340    -1.9120 H     1 <1>   0.1500 
 42 H       -1.3280     4.8970     2.0430 H     1 <1>   0.1500 
 43 H       -4.4180    -2.2190     1.9020 H     1 <1>   0.0800 
 44 H       -5.4120    -2.2840    -0.8600 H     1 <1>   0.4500 
 45 H       -6.4110    -2.0430     0.4070 H     1 <1>   0.4500 
 46 H       -7.6000    -3.7550    -0.8920 H     1 <1>   0.0800 
 47 H       -7.8260    -3.6240     0.8380 H     1 <1>   0.0800 
 48 H       -3.9930    -4.6190    -0.7870 H     1 <1>   0.0800 
 49 H       -5.3480    -4.3350    -1.8410 H     1 <1>   0.0800 
 50 H       -5.8930    -4.0130     2.4140 H     1 <1>   0.0800 
 51 H       -4.3210    -4.4330     1.7800 H     1 <1>   0.0800 
 52 H       -4.8820    -6.7500    -1.5900 H     1 <1>   0.0800 
 53 H       -5.4350    -6.4330     2.6480 H     1 <1>   0.0800 
 54 H       -7.2230    -6.0250    -1.9530 H     1 <1>   0.0800 
 55 H       -7.1570    -7.4490    -0.9560 H     1 <1>   0.0800 
 56 H       -7.4880    -7.2560     1.5660 H     1 <1>   0.0800 
 57 H       -7.7760    -5.7010     2.2900 H     1 <1>   0.0800 
 58 H       -3.9240    -6.6750     0.6950 H     1 <1>   0.0800 
 59 H       -5.2140    -7.8270     0.6140 H     1 <1>   0.0800 
 60 H       -9.4170    -7.9290     0.0280 H     1 <1>   0.1500 
 61 H      -12.0890    -4.8890    -0.4560 H     1 <1>   0.1500 
@<TRIPOS>BOND
  1   1   2  2   
  2   2   3  am  
  3   2   4  1   
  4   3   5  1   
  5   3   6  1   
  6   4   7  ar  
  7   4   8  ar  
  8   5   9  1   
  9   5  31  1   
 10   5  32  1   
 11   6  10  1   
 12   6  33  1   
 13   6  34  1   
 14   7  11  ar  
 15   7  35  1   
 16   8  12  ar  
 17   8  36  1   
 18   9  13  1   
 19   9  37  1   
 20   9  38  1   
 21  10  13  1   
 22  10  39  1   
 23  10  40  1   
 24  11  14  ar  
 25  11  41  1   
 26  12  14  ar  
 27  12  42  1   
 28  13  15  1   
 29  13  43  1   
 30  15  16  1   
 31  15  44  1   
 32  15  45  1   
 33  16  17  1   
 34  16  18  1   
 35  16  19  1   
 36  17  20  1   
 37  17  46  1   
 38  17  47  1   
 39  18  21  1   
 40  18  48  1   
 41  18  49  1   
 42  19  22  1   
 43  19  50  1   
 44  19  51  1   
 45  20  23  1   
 46  20  24  1   
 47  20  25  1   
 48  21  24  1   
 49  21  26  1   
 50  21  52  1   
 51  22  25  1   
 52  22  26  1   
 53  22  53  1   
 54  23  27  1   
 55  23  28  1   
 56  24  54  1   
 57  24  55  1   
 58  25  56  1   
 59  25  57  1   
 60  26  58  1   
 61  26  59  1   
 62  27  29  2   
 63  28  30  2   
 64  28  60  1   
 65  29  30  1   
 66  29  61  1   
@<TRIPOS>SUBSTRUCTURE
  1 ****  15 GROUP 4 **** **** 0

# MOE 2024.06 (io_trps.svl 2023.06)
