@<TRIPOS>MOLECULE
NONAME
62 66 1 0 0 
SMALL
USER_CHARGES


@<TRIPOS>ATOM
  1 O        0.3320     0.8710     0.3870 O.2   1 <1>  -0.5700 
  2 C       -0.1800     1.8710    -0.0820 C.2   1 <1>   0.5440 
  3 N       -1.5210     1.8370    -0.4110 N.am  1 <1>  -0.6600 
  4 C        0.6350     3.0540    -0.2580 C.ar  1 <1>   0.0860 
  5 C       -2.3440     3.0540    -0.6950 C.3   1 <1>   0.1400 
  6 C       -2.2950     0.5570    -0.3240 C.3   1 <1>   0.1400 
  7 C        1.3570     3.5880     0.8100 C.ar  1 <1>  -0.1500 
  8 C        0.7480     3.7020    -1.4890 C.ar  1 <1>  -0.1500 
  9 C       -3.4110     3.2730     0.4010 C.3   1 <1>   0.1440 
 10 C       -3.8020     0.7980    -0.1210 C.3   1 <1>  -0.1600 
 11 C        2.1410     4.7150     0.6620 C.ar  1 <1>  -0.1500 
 12 C        1.5270     4.8320    -1.6390 C.ar  1 <1>  -0.1500 
 13 C       -4.4380     4.2440    -0.1570 C.ar  1 <1>   0.1670 
 14 C       -4.0440     1.9390     0.8800 C.3   1 <1>  -0.1600 
 15 C       -2.8260     4.0770     1.5930 C.3   1 <1>  -0.1600 
 16 C        2.2420     5.3590    -0.5690 C.ar  1 <1>   0.1000 
 17 N       -5.3750     3.9490    -1.0330 N.ar  1 <1>  -0.6200 
 18 C       -4.2680     5.4990     0.3470 C.ar  1 <1>  -0.1430 
 19 C       -3.1150     5.5620     1.3170 C.3   1 <1>  -0.0170 
 20 N        3.0410     6.4820    -0.7510 N.pl3 1 <1>  -0.8380 
 21 C       -6.1470     4.9710    -1.3750 C.ar  1 <1>   0.4770 
 22 C       -5.1230     6.4830    -0.0800 C.ar  1 <1>   0.1600 
 23 C        3.1290     7.5630     0.2780 C.3   1 <1>   0.2090 
 24 C        4.1460     6.4340    -1.7560 C.3   1 <1>   0.2090 
 25 N       -6.0780     6.2250    -0.9500 N.ar  1 <1>  -0.6200 
 26 C       -7.2440     4.6740    -2.3680 C.3   1 <1>  -0.0970 
 27 C        4.5360     7.6200     0.9150 C.3   1 <1>   0.3430 
 28 C        5.5270     6.5100    -1.0690 C.3   1 <1>   0.3430 
 29 N        5.6420     7.6730    -0.1120 N.4   1 <1>  -0.9590 
 30 C        6.9860     7.7060     0.5400 C.3   1 <1>   0.2630 
 31 H       -2.8350     2.9120    -1.6430 H     1 <1>   0.0800 
 32 H       -1.7360     3.9350    -0.7800 H     1 <1>   0.0800 
 33 H       -1.9260    -0.0180     0.5090 H     1 <1>   0.0800 
 34 H       -2.1320    -0.0170    -1.2190 H     1 <1>   0.0800 
 35 H        1.2970     3.0920     1.7640 H     1 <1>   0.1500 
 36 H        0.2120     3.3040    -2.3340 H     1 <1>   0.1500 
 37 H       -4.2590    -0.1070     0.2360 H     1 <1>   0.0800 
 38 H       -4.2600     1.0400    -1.0640 H     1 <1>   0.0800 
 39 H        2.6850     5.0860     1.5080 H     1 <1>   0.1500 
 40 H        1.5840     5.3180    -2.5960 H     1 <1>   0.1500 
 41 H       -5.0990     2.0670     1.0460 H     1 <1>   0.0800 
 42 H       -3.6010     1.6430     1.8160 H     1 <1>   0.0800 
 43 H       -1.7760     3.8880     1.7370 H     1 <1>   0.0800 
 44 H       -3.3450     3.8070     2.4960 H     1 <1>   0.0800 
 45 H       -2.2700     6.0350     0.8470 H     1 <1>   0.0800 
 46 H       -3.3780     6.0890     2.2180 H     1 <1>   0.0800 
 47 H       -5.0280     7.4890     0.2900 H     1 <1>   0.1500 
 48 H        2.3900     7.4020     1.0440 H     1 <1>   0.0800 
 49 H        2.9060     8.5070    -0.1880 H     1 <1>   0.0800 
 50 H        4.0340     7.2520    -2.4460 H     1 <1>   0.0800 
 51 H        4.0870     5.5190    -2.3200 H     1 <1>   0.0800 
 52 H       -7.0460     3.7510    -2.8810 H     1 <1>   0.0800 
 53 H       -7.3060     5.4670    -3.0890 H     1 <1>   0.0800 
 54 H       -8.1800     4.5950    -1.8490 H     1 <1>   0.0800 
 55 H        4.6590     6.7430     1.5280 H     1 <1>   0.0800 
 56 H        4.5920     8.4820     1.5600 H     1 <1>   0.0800 
 57 H        6.2900     6.5800    -1.8270 H     1 <1>   0.0800 
 58 H        5.6800     5.5880    -0.5330 H     1 <1>   0.0800 
 59 H        5.5140     8.5370    -0.6600 H     1 <1>   0.4500 
 60 H        7.1440     6.8100     1.1190 H     1 <1>   0.0800 
 61 H        7.0640     8.5580     1.1960 H     1 <1>   0.0800 
 62 H        7.7620     7.7760    -0.2050 H     1 <1>   0.0800 
@<TRIPOS>BOND
  1   1   2  2   
  2   2   3  am  
  3   2   4  1   
  4   3   5  1   
  5   3   6  1   
  6   4   7  ar  
  7   4   8  ar  
  8   5   9  1   
  9   5  31  1   
 10   5  32  1   
 11   6  10  1   
 12   6  33  1   
 13   6  34  1   
 14   7  11  ar  
 15   7  35  1   
 16   8  12  ar  
 17   8  36  1   
 18   9  13  1   
 19   9  14  1   
 20   9  15  1   
 21  10  14  1   
 22  10  37  1   
 23  10  38  1   
 24  11  16  ar  
 25  11  39  1   
 26  12  16  ar  
 27  12  40  1   
 28  13  17  ar  
 29  13  18  ar  
 30  14  41  1   
 31  14  42  1   
 32  15  19  1   
 33  15  43  1   
 34  15  44  1   
 35  16  20  1   
 36  17  21  ar  
 37  18  19  1   
 38  18  22  ar  
 39  19  45  1   
 40  19  46  1   
 41  20  23  1   
 42  20  24  1   
 43  21  25  ar  
 44  21  26  1   
 45  22  25  ar  
 46  22  47  1   
 47  23  27  1   
 48  23  48  1   
 49  23  49  1   
 50  24  28  1   
 51  24  50  1   
 52  24  51  1   
 53  26  52  1   
 54  26  53  1   
 55  26  54  1   
 56  27  29  1   
 57  27  55  1   
 58  27  56  1   
 59  28  29  1   
 60  28  57  1   
 61  28  58  1   
 62  29  30  1   
 63  29  59  1   
 64  30  60  1   
 65  30  61  1   
 66  30  62  1   
@<TRIPOS>SUBSTRUCTURE
  1 ****   4 GROUP 4 **** **** 0

# MOE 2024.06 (io_trps.svl 2023.06)
