@<TRIPOS>MOLECULE
NONAME
51 53 1 0 0 
SMALL
USER_CHARGES


@<TRIPOS>ATOM
  1 O        0.6800     1.0690     1.0500 O.3   1 <1>  -0.6800 
  2 C       -0.0280     1.5960    -0.0120 C.3   1 <1>   0.4240 
  3 C       -1.2630     0.7060    -0.1940 C.ar  1 <1>  -0.1440 
  4 C        0.9470     1.6390    -1.1980 C.3   1 <1>  -0.1600 
  5 C       -0.4290     3.0300     0.3700 C.3   1 <1>  -0.1600 
  6 C       -1.6090     0.1420    -1.4190 C.ar  1 <1>  -0.1500 
  7 C       -2.0820     0.4500     0.9020 C.ar  1 <1>  -0.1500 
  8 C        2.2170     2.4500    -0.9030 C.3   1 <1>   0.3430 
  9 C        0.6990     4.0570     0.2280 C.3   1 <1>   0.3430 
 10 C       -2.7340    -0.6550    -1.5390 C.ar  1 <1>  -0.1500 
 11 C       -3.2070    -0.3470     0.7820 C.ar  1 <1>  -0.1500 
 12 N        2.0190     3.3610     0.2730 N.4   1 <1>  -0.9590 
 13 C       -3.5340    -0.9020    -0.4400 C.ar  1 <1>  -0.1500 
 14 C        3.2060     4.2140     0.6590 C.3   1 <1>   0.3430 
 15 C        3.8070     5.1420    -0.4480 C.3   1 <1>   0.4230 
 16 N        4.9890     5.9510    -0.0150 N.4   1 <1>  -0.9590 
 17 C        2.8400     6.2030    -0.9690 C.3   1 <1>  -0.1600 
 18 C        5.1380     7.0340    -1.0310 C.3   1 <1>   0.3430 
 19 C        6.2510     5.1770     0.1640 C.3   1 <1>   0.3430 
 20 C        3.7210     7.3330    -1.5050 C.3   1 <1>  -0.1600 
 21 C        7.2730     6.0380     0.8960 C.3   1 <1>  -0.2400 
 22 H        0.3160     0.1710     1.2190 H     1 <1>   0.4000 
 23 H        0.4490     2.0840    -2.0410 H     1 <1>   0.0800 
 24 H        1.2220     0.6400    -1.4860 H     1 <1>   0.0800 
 25 H       -0.8110     3.0450     1.3760 H     1 <1>   0.0800 
 26 H       -1.2390     3.3440    -0.2660 H     1 <1>   0.0800 
 27 H       -1.0240     0.3030    -2.3050 H     1 <1>   0.1500 
 28 H       -1.8580     0.8690     1.8680 H     1 <1>   0.1500 
 29 H        2.4890     3.0120    -1.7810 H     1 <1>   0.0800 
 30 H        3.0160     1.7600    -0.6810 H     1 <1>   0.0800 
 31 H        0.6210     4.7770     1.0270 H     1 <1>   0.0800 
 32 H        0.5930     4.5750    -0.7110 H     1 <1>   0.0800 
 33 H       -2.9910    -1.0870    -2.4920 H     1 <1>   0.1500 
 34 H       -3.8300    -0.5370     1.6400 H     1 <1>   0.1500 
 35 H        1.8690     2.6740     1.0460 H     1 <1>   0.4500 
 36 H       -4.4080    -1.5220    -0.5350 H     1 <1>   0.1500 
 37 H        3.9910     3.5550     0.9910 H     1 <1>   0.0800 
 38 H        2.9240     4.8270     1.5000 H     1 <1>   0.0800 
 39 H        4.1160     4.5290    -1.2790 H     1 <1>   0.0800 
 40 H        4.7750     6.4280     0.8730 H     1 <1>   0.4500 
 41 H        2.2270     6.5780    -0.1670 H     1 <1>   0.0800 
 42 H        2.2000     5.8080    -1.7390 H     1 <1>   0.0800 
 43 H        5.7290     6.6840    -1.8630 H     1 <1>   0.0800 
 44 H        5.6070     7.9110    -0.6100 H     1 <1>   0.0800 
 45 H        6.6450     4.8730    -0.7940 H     1 <1>   0.0800 
 46 H        6.0650     4.2910     0.7500 H     1 <1>   0.0800 
 47 H        3.3940     8.2890    -1.1320 H     1 <1>   0.0800 
 48 H        3.7030     7.3710    -2.5820 H     1 <1>   0.0800 
 49 H        7.5570     6.8960     0.3130 H     1 <1>   0.0800 
 50 H        8.1620     5.4570     1.0690 H     1 <1>   0.0800 
 51 H        6.8990     6.3570     1.8520 H     1 <1>   0.0800 
@<TRIPOS>BOND
  1   1   2  1   
  2   1  22  1   
  3   2   3  1   
  4   2   4  1   
  5   2   5  1   
  6   3   6  ar  
  7   3   7  ar  
  8   4   8  1   
  9   4  23  1   
 10   4  24  1   
 11   5   9  1   
 12   5  25  1   
 13   5  26  1   
 14   6  10  ar  
 15   6  27  1   
 16   7  11  ar  
 17   7  28  1   
 18   8  12  1   
 19   8  29  1   
 20   8  30  1   
 21   9  12  1   
 22   9  31  1   
 23   9  32  1   
 24  10  13  ar  
 25  10  33  1   
 26  11  13  ar  
 27  11  34  1   
 28  12  14  1   
 29  12  35  1   
 30  13  36  1   
 31  14  15  1   
 32  14  37  1   
 33  14  38  1   
 34  15  16  1   
 35  15  17  1   
 36  15  39  1   
 37  16  18  1   
 38  16  19  1   
 39  16  40  1   
 40  17  20  1   
 41  17  41  1   
 42  17  42  1   
 43  18  20  1   
 44  18  43  1   
 45  18  44  1   
 46  19  21  1   
 47  19  45  1   
 48  19  46  1   
 49  20  47  1   
 50  20  48  1   
 51  21  49  1   
 52  21  50  1   
 53  21  51  1   
@<TRIPOS>SUBSTRUCTURE
  1 ****  12 GROUP 4 **** **** 0

# MOE 2024.06 (io_trps.svl 2023.06)
