@<TRIPOS>MOLECULE
NONAME
50 52 1 0 0 
SMALL
USER_CHARGES


@<TRIPOS>ATOM
  1 O       -2.4030     1.2560    -2.7860 O.2   1 <1>  -0.5700 
  2 C       -2.1890     1.6370    -1.6610 C.2   1 <1>   0.5690 
  3 N       -2.2790     0.8110    -0.5950 N.am  1 <1>  -0.7300 
  4 C       -1.8080     3.0850    -1.4070 C.3   1 <1>   0.0440 
  5 C       -2.4730    -0.6500    -0.6190 C.3   1 <1>   0.2200 
  6 C       -0.4390     3.2060    -0.7340 C.ar  1 <1>  -0.1440 
  7 C       -3.8040    -0.9820     0.0320 C.3   1 <1>  -0.0800 
  8 C       -1.4840    -1.2930     0.3480 C.3   1 <1>   0.1200 
  9 C       -0.2750     2.9960     0.6360 C.ar  1 <1>   0.0820 
 10 C        0.6660     3.5160    -1.5120 C.ar  1 <1>  -0.1500 
 11 C       -3.4430    -0.9650     1.5210 C.3   1 <1>   0.1200 
 12 C       -4.3310    -2.3550    -0.4270 C.3   1 <1>  -0.0160 
 13 O       -2.0700    -1.2190     1.6170 O.3   1 <1>  -0.5600 
 14 O       -1.3720     2.6740     1.3730 O.3   1 <1>  -0.3630 
 15 C        0.9910     3.1100     1.2020 C.ar  1 <1>  -0.1500 
 16 C        1.9230     3.6260    -0.9450 C.ar  1 <1>  -0.1500 
 17 C       -5.6690    -2.6820     0.2180 C.ar  1 <1>  -0.1430 
 18 C       -1.2440     2.1020     2.6590 C.3   1 <1>   0.0400 
 19 C        2.0890     3.4220     0.4210 C.ar  1 <1>   0.0820 
 20 C       -6.8370    -2.0640    -0.1810 C.ar  1 <1>  -0.1500 
 21 C       -5.7880    -3.6120     1.2310 C.ar  1 <1>  -0.1500 
 22 O        3.2840     3.5100     1.0570 O.3   1 <1>  -0.3630 
 23 C       -8.0310    -2.3910     0.4390 C.ar  1 <1>   0.1600 
 24 C       -7.0320    -3.8660     1.7850 C.ar  1 <1>   0.1600 
 25 C        4.4670     3.8200     0.3540 C.3   1 <1>   0.0400 
 26 N       -8.1560    -3.2760     1.4150 N.ar  1 <1>  -0.6200 
 27 H       -2.0160     1.1960     0.3220 H     1 <1>   0.3700 
 28 H       -1.8060     3.6100    -2.3440 H     1 <1>   0.0800 
 29 H       -2.5610     3.5370    -0.7880 H     1 <1>   0.0800 
 30 H       -2.3770    -1.0250    -1.6240 H     1 <1>   0.0800 
 31 H       -4.5430    -0.2340    -0.1950 H     1 <1>   0.0800 
 32 H       -0.5320    -0.7920     0.3590 H     1 <1>   0.0800 
 33 H       -1.3440    -2.3330     0.1130 H     1 <1>   0.0800 
 34 H        0.5530     3.6720    -2.5710 H     1 <1>   0.1500 
 35 H       -3.9770    -1.6990     2.0970 H     1 <1>   0.0800 
 36 H       -3.6200     0.0110     1.9380 H     1 <1>   0.0800 
 37 H       -3.6190    -3.1270    -0.1910 H     1 <1>   0.0800 
 38 H       -4.4580    -2.3480    -1.4960 H     1 <1>   0.0800 
 39 H        1.1550     2.9650     2.2510 H     1 <1>   0.1500 
 40 H        2.7540     3.8670    -1.5790 H     1 <1>   0.1500 
 41 H       -2.2220     1.8170     3.0000 H     1 <1>   0.0800 
 42 H       -0.8260     2.8330     3.3280 H     1 <1>   0.0800 
 43 H       -0.6130     1.2320     2.5960 H     1 <1>   0.0800 
 44 H       -6.8290    -1.3310    -0.9670 H     1 <1>   0.1500 
 45 H       -4.9270    -4.1400     1.5980 H     1 <1>   0.1500 
 46 H       -8.9320    -1.8970     0.1160 H     1 <1>   0.1500 
 47 H       -7.1050    -4.5940     2.5750 H     1 <1>   0.1500 
 48 H        5.2800     3.8320     1.0570 H     1 <1>   0.0800 
 49 H        4.3600     4.7890    -0.0990 H     1 <1>   0.0800 
 50 H        4.6390     3.0620    -0.3900 H     1 <1>   0.0800 
@<TRIPOS>BOND
  1   1   2  2   
  2   2   3  am  
  3   2   4  1   
  4   3   5  1   
  5   3  27  1   
  6   4   6  1   
  7   4  28  1   
  8   4  29  1   
  9   5   7  1   
 10   5   8  1   
 11   5  30  1   
 12   6   9  ar  
 13   6  10  ar  
 14   7  11  1   
 15   7  12  1   
 16   7  31  1   
 17   8  13  1   
 18   8  32  1   
 19   8  33  1   
 20   9  14  1   
 21   9  15  ar  
 22  10  16  ar  
 23  10  34  1   
 24  11  13  1   
 25  11  35  1   
 26  11  36  1   
 27  12  17  1   
 28  12  37  1   
 29  12  38  1   
 30  14  18  1   
 31  15  19  ar  
 32  15  39  1   
 33  16  19  ar  
 34  16  40  1   
 35  17  20  ar  
 36  17  21  ar  
 37  18  41  1   
 38  18  42  1   
 39  18  43  1   
 40  19  22  1   
 41  20  23  ar  
 42  20  44  1   
 43  21  24  ar  
 44  21  45  1   
 45  22  25  1   
 46  23  26  ar  
 47  23  46  1   
 48  24  26  ar  
 49  24  47  1   
 50  25  48  1   
 51  25  49  1   
 52  25  50  1   
@<TRIPOS>SUBSTRUCTURE
  1 ****   3 GROUP 4 **** **** 0

# MOE 2024.06 (io_trps.svl 2023.06)
