@<TRIPOS>MOLECULE
NONAME
50 53 1 0 0 
SMALL
USER_CHARGES


@<TRIPOS>ATOM
  1 O        0.5870    -0.3790     1.2130 O.3   1 <1>  -0.5600 
  2 C        1.6940    -0.8840     0.5000 C.3   1 <1>   0.4240 
  3 C       -0.6830    -0.7780     0.8020 C.3   1 <1>   0.1200 
  4 C        1.4910    -2.3650     0.1110 C.ar  1 <1>  -0.1440 
  5 C        1.9030    -0.0080    -0.7460 C.3   1 <1>  -0.1600 
  6 C        2.8910    -0.7360     1.4480 C.3   1 <1>  -0.1600 
  7 C       -0.8320    -2.2750     1.0540 C.3   1 <1>  -0.0160 
  8 C        0.2970    -3.0240     0.3730 C.ar  1 <1>  -0.1440 
  9 C        2.5050    -3.0720    -0.5220 C.ar  1 <1>  -0.1500 
 10 C        2.1680     1.4500    -0.3760 C.3   1 <1>   0.2090 
 11 C        3.1670     0.7270     1.7930 C.3   1 <1>   0.2090 
 12 C        0.1300    -4.3520     0.0150 C.ar  1 <1>  -0.1500 
 13 C        2.3580    -4.4010    -0.8830 C.ar  1 <1>   0.0820 
 14 N        3.3340     1.5180     0.5410 N.pl3 1 <1>  -0.8380 
 15 C        1.1460    -5.0590    -0.6230 C.ar  1 <1>   0.0820 
 16 O        3.4500    -4.9540    -1.4830 O.3   1 <1>  -0.3630 
 17 C        4.5900     1.8310     0.0560 C.ar  1 <1>   0.4100 
 18 O        0.9750    -6.3580    -1.0100 O.3   1 <1>  -0.3630 
 19 C        3.7680    -6.3160    -1.3060 C.3   1 <1>   0.0400 
 20 N        5.5880     1.0120     0.3410 N.ar  1 <1>  -0.6200 
 21 C        4.8030     2.9570    -0.7040 C.ar  1 <1>  -0.1500 
 22 C       -0.2730    -7.0110    -0.9220 C.3   1 <1>   0.0400 
 23 C        6.7610     1.3460    -0.1600 C.ar  1 <1>   0.4700 
 24 C        6.0720     3.1950    -1.1650 C.ar  1 <1>   0.4100 
 25 N        7.0740     2.3920    -0.9010 N.ar  1 <1>  -0.6200 
 26 N        6.3900     4.2800    -1.9130 N.pl3 1 <1>  -0.9000 
 27 H       -0.8080    -0.5460    -0.2410 H     1 <1>   0.0800 
 28 H       -1.4050    -0.2260     1.3770 H     1 <1>   0.0800 
 29 H        1.0530    -0.0770    -1.3960 H     1 <1>   0.0800 
 30 H        2.7520    -0.3690    -1.2970 H     1 <1>   0.0800 
 31 H        3.7760    -1.1390     0.9940 H     1 <1>   0.0800 
 32 H        2.7040    -1.2960     2.3450 H     1 <1>   0.0800 
 33 H       -1.7810    -2.6040     0.6730 H     1 <1>   0.0800 
 34 H       -0.8060    -2.4640     2.1120 H     1 <1>   0.0800 
 35 H        3.4420    -2.5960    -0.7480 H     1 <1>   0.1500 
 36 H        1.3070     1.8710     0.1150 H     1 <1>   0.0800 
 37 H        2.3580     2.0170    -1.2700 H     1 <1>   0.0800 
 38 H        4.0530     0.8010     2.4000 H     1 <1>   0.0800 
 39 H        2.3440     1.1330     2.3570 H     1 <1>   0.0800 
 40 H       -0.8070    -4.8210     0.2420 H     1 <1>   0.1500 
 41 H        4.8100    -6.4490    -1.5330 H     1 <1>   0.0800 
 42 H        3.1720    -6.9020    -1.9820 H     1 <1>   0.0800 
 43 H        3.5730    -6.5930    -0.2850 H     1 <1>   0.0800 
 44 H        4.0020     3.6290    -0.9240 H     1 <1>   0.1500 
 45 H       -0.1660    -7.9920    -1.3490 H     1 <1>   0.0800 
 46 H       -1.0010    -6.4480    -1.4780 H     1 <1>   0.0800 
 47 H       -0.5530    -7.0930     0.1130 H     1 <1>   0.0800 
 48 H        7.5720     0.6750     0.0670 H     1 <1>   0.1500 
 49 H        7.3950     4.3910    -2.0600 H     1 <1>   0.4000 
 50 H        5.9040     5.1550    -1.7220 H     1 <1>   0.4000 
@<TRIPOS>BOND
  1   1   2  1   
  2   1   3  1   
  3   2   4  1   
  4   2   5  1   
  5   2   6  1   
  6   3   7  1   
  7   3  27  1   
  8   3  28  1   
  9   4   8  ar  
 10   4   9  ar  
 11   5  10  1   
 12   5  29  1   
 13   5  30  1   
 14   6  11  1   
 15   6  31  1   
 16   6  32  1   
 17   7   8  1   
 18   7  33  1   
 19   7  34  1   
 20   8  12  ar  
 21   9  13  ar  
 22   9  35  1   
 23  10  14  1   
 24  10  36  1   
 25  10  37  1   
 26  11  14  1   
 27  11  38  1   
 28  11  39  1   
 29  12  15  ar  
 30  12  40  1   
 31  13  15  ar  
 32  13  16  1   
 33  14  17  1   
 34  15  18  1   
 35  16  19  1   
 36  17  20  ar  
 37  17  21  ar  
 38  18  22  1   
 39  19  41  1   
 40  19  42  1   
 41  19  43  1   
 42  20  23  ar  
 43  21  24  ar  
 44  21  44  1   
 45  22  45  1   
 46  22  46  1   
 47  22  47  1   
 48  23  25  ar  
 49  23  48  1   
 50  24  25  ar  
 51  24  26  1   
 52  26  49  1   
 53  26  50  1   
@<TRIPOS>SUBSTRUCTURE
  1 ****   2 GROUP 4 **** **** 0

# MOE 2024.06 (io_trps.svl 2023.06)
