@<TRIPOS>MOLECULE
NONAME
54 57 1 0 0 
SMALL
USER_CHARGES


@<TRIPOS>ATOM
  1 O       -0.9960    -0.2950    -0.7740 O.2   1 <1>  -0.5700 
  2 C       -1.7960     0.6100    -0.9320 C.2   1 <1>   0.7160 
  3 N       -2.7940     0.4590    -1.8430 N.am  1 <1>  -0.7300 
  4 C       -1.7380     1.8060    -0.1480 C.2   1 <1>  -0.0860 
  5 C       -3.3380    -0.7950    -2.3980 C.3   1 <1>   0.4000 
  6 C       -2.8240     2.6520     0.1200 C.2   1 <1>   0.3720 
  7 C       -0.7010     2.4230     0.4850 C.2   1 <1>   0.0870 
  8 C       -3.8300    -1.7120    -1.2810 C.2   1 <1>   0.0060 
  9 C       -2.3250    -1.4660    -3.3250 C.3   1 <1>  -0.2400 
 10 N       -2.4620     3.6630     0.8270 N.2   1 <1>  -0.4100 
 11 N       -4.1450     2.4190    -0.3000 N.pl3 1 <1>  -0.8210 
 12 O       -1.1820     3.5090     1.0330 O.3   1 <1>  -0.0190 
 13 C        0.7010     2.1280     0.6230 C.ar  1 <1>   0.0530 
 14 N       -2.9890    -2.2570    -0.3760 N.pl3 1 <1>   0.0330 
 15 N       -5.0700    -2.0360    -1.0880 N.2   1 <1>  -0.5650 
 16 C       -5.0040     3.6200    -0.5190 C.3   1 <1>   0.2090 
 17 C       -4.8860     1.4590     0.5710 C.3   1 <1>   0.2090 
 18 C        1.1620     0.8740     1.0240 C.ar  1 <1>  -0.1500 
 19 C        1.6560     3.1120     0.3720 C.ar  1 <1>  -0.1500 
 20 C       -3.7660    -2.9810     0.4490 C.2   1 <1>  -0.3320 
 21 C       -5.0310    -2.8360    -0.0050 C.2   1 <1>   0.0770 
 22 C       -6.1620     3.4870     0.4600 C.3   1 <1>  -0.1600 
 23 C       -6.3100     1.9870     0.6570 C.3   1 <1>  -0.1600 
 24 C        2.5120     0.6050     1.1550 C.ar  1 <1>  -0.1500 
 25 C        3.0070     2.8540     0.5030 C.ar  1 <1>  -0.1500 
 26 C       -3.2280    -3.7670     1.6290 C.3   1 <1>  -0.0600 
 27 C        3.4490     1.6000     0.8920 C.ar  1 <1>   0.0820 
 28 O        4.7870     1.4240     0.9940 O.3   1 <1>  -0.3620 
 29 C        5.3430     0.1820     1.3620 C.3   1 <1>   0.0400 
 30 H       -3.5250     1.1770    -1.7300 H     1 <1>   0.3700 
 31 H       -4.1970    -0.5360    -2.9930 H     1 <1>   0.0800 
 32 H       -1.4530    -1.7880    -2.7870 H     1 <1>   0.0800 
 33 H       -2.0310    -0.7850    -4.1030 H     1 <1>   0.0800 
 34 H       -2.7770    -2.3290    -3.7780 H     1 <1>   0.0800 
 35 H       -1.9760    -2.0800    -0.3380 H     1 <1>   0.2700 
 36 H       -5.3740     3.5950    -1.5290 H     1 <1>   0.0800 
 37 H       -4.4720     4.5450    -0.3700 H     1 <1>   0.0800 
 38 H       -4.4420     1.4390     1.5530 H     1 <1>   0.0800 
 39 H       -4.8690     0.4660     0.1550 H     1 <1>   0.0800 
 40 H        0.4490     0.0980     1.2390 H     1 <1>   0.1500 
 41 H        1.3310     4.0920     0.0700 H     1 <1>   0.1500 
 42 H       -5.9300    -3.2720     0.3970 H     1 <1>   0.1500 
 43 H       -7.0590     3.9460     0.0850 H     1 <1>   0.0800 
 44 H       -5.8850     3.9560     1.3880 H     1 <1>   0.0800 
 45 H       -6.7710     1.7370     1.5960 H     1 <1>   0.0800 
 46 H       -6.8880     1.5620    -0.1440 H     1 <1>   0.0800 
 47 H        2.8150    -0.3770     1.4610 H     1 <1>   0.1500 
 48 H        3.7320     3.6230     0.3040 H     1 <1>   0.1500 
 49 H       -2.5290    -4.5110     1.2900 H     1 <1>   0.0800 
 50 H       -4.0320    -4.2610     2.1430 H     1 <1>   0.0800 
 51 H       -2.7310    -3.1080     2.3190 H     1 <1>   0.0800 
 52 H        6.4130     0.2830     1.3680 H     1 <1>   0.0800 
 53 H        5.0490    -0.5590     0.6410 H     1 <1>   0.0800 
 54 H        4.9950    -0.0770     2.3470 H     1 <1>   0.0800 
@<TRIPOS>BOND
  1   1   2  2   
  2   2   3  am  
  3   2   4  1   
  4   3   5  1   
  5   3  30  1   
  6   4   6  1   
  7   4   7  2   
  8   5   8  1   
  9   5   9  1   
 10   5  31  1   
 11   6  10  2   
 12   6  11  1   
 13   7  12  1   
 14   7  13  1   
 15   8  14  1   
 16   8  15  2   
 17   9  32  1   
 18   9  33  1   
 19   9  34  1   
 20  10  12  1   
 21  11  16  1   
 22  11  17  1   
 23  13  18  ar  
 24  13  19  ar  
 25  14  20  1   
 26  14  35  1   
 27  15  21  1   
 28  16  22  1   
 29  16  36  1   
 30  16  37  1   
 31  17  23  1   
 32  17  38  1   
 33  17  39  1   
 34  18  24  ar  
 35  18  40  1   
 36  19  25  ar  
 37  19  41  1   
 38  20  21  2   
 39  20  26  1   
 40  21  42  1   
 41  22  23  1   
 42  22  43  1   
 43  22  44  1   
 44  23  45  1   
 45  23  46  1   
 46  24  27  ar  
 47  24  47  1   
 48  25  27  ar  
 49  25  48  1   
 50  26  49  1   
 51  26  50  1   
 52  26  51  1   
 53  27  28  1   
 54  28  29  1   
 55  29  52  1   
 56  29  53  1   
 57  29  54  1   
@<TRIPOS>SUBSTRUCTURE
  1 ****   2 GROUP 4 **** **** 0

# MOE 2024.06 (io_trps.svl 2023.06)
