@<TRIPOS>MOLECULE
NONAME
43 45 1 0 0 
SMALL
USER_CHARGES


@<TRIPOS>ATOM
  1 F       -0.2550    -0.5750     0.1730 F     1 <1>  -0.3400 
  2 C       -0.0870    -1.8680    -0.0650 C.3   1 <1>   0.8800 
  3 F        0.0670    -1.9800    -1.3780 F     1 <1>  -0.3400 
  4 O       -1.2690    -2.5360     0.3090 O.3   1 <1>  -0.3630 
  5 C       -1.3030    -3.8800     0.4480 C.ar  1 <1>   0.0830 
  6 C       -0.2910    -4.7360     0.0190 C.ar  1 <1>  -0.1500 
  7 C       -2.4210    -4.4150     1.0670 C.ar  1 <1>  -0.1500 
  8 C       -0.4120    -6.0990     0.2170 C.ar  1 <1>  -0.1500 
  9 C       -2.5320    -5.7800     1.2600 C.ar  1 <1>  -0.1500 
 10 C       -1.5330    -6.6560     0.8320 C.ar  1 <1>   0.0860 
 11 C       -1.6380    -8.0900     1.0200 C.2   1 <1>   0.5440 
 12 O       -0.7180    -8.6970     1.5340 O.2   1 <1>  -0.5700 
 13 N       -2.7460    -8.7990     0.6130 N.am  1 <1>  -0.6600 
 14 C       -3.7260    -8.3250    -0.4010 C.3   1 <1>   0.1400 
 15 C       -2.8400   -10.2760     0.7590 C.3   1 <1>   0.1400 
 16 C       -4.6870    -9.4980    -0.5880 C.3   1 <1>   0.2000 
 17 C       -3.8110   -10.7290    -0.3380 C.3   1 <1>  -0.0800 
 18 O       -5.6630    -9.4160     0.3950 O.3   1 <1>  -0.6800 
 19 C       -4.5820   -12.0180     0.0030 C.3   1 <1>   0.0200 
 20 C       -3.6860   -13.2420     0.1050 C.2   1 <1>  -0.0400 
 21 O       -4.2090   -14.3670     0.5140 O.3   1 <1>  -0.0190 
 22 C       -2.3850   -13.4650    -0.1450 C.2   1 <1>  -0.1500 
 23 N       -3.3310   -15.3270     0.5540 N.2   1 <1>  -0.4100 
 24 C       -2.2220   -14.8120     0.1620 C.2   1 <1>   0.1080 
 25 C       -0.9210   -15.5760     0.0550 C.3   1 <1>  -0.0590 
 26 H        0.7860    -2.2270     0.4510 H     1 <1>   0.0800 
 27 H        0.5900    -4.3710    -0.4740 H     1 <1>   0.1500 
 28 H       -3.2020    -3.7540     1.4000 H     1 <1>   0.1500 
 29 H        0.3750    -6.7600    -0.1080 H     1 <1>   0.1500 
 30 H       -3.4000    -6.1780     1.7550 H     1 <1>   0.1500 
 31 H       -4.2470    -7.4390    -0.0820 H     1 <1>   0.0800 
 32 H       -3.2070    -8.1250    -1.3220 H     1 <1>   0.0800 
 33 H       -1.8730   -10.7360     0.6460 H     1 <1>   0.0800 
 34 H       -3.2260   -10.5050     1.7370 H     1 <1>   0.0800 
 35 H       -5.1700    -9.5010    -1.5500 H     1 <1>   0.0800 
 36 H       -3.2370   -10.9020    -1.2310 H     1 <1>   0.0800 
 37 H       -5.2290    -9.2760     1.2600 H     1 <1>   0.4000 
 38 H       -5.3220   -12.2030    -0.7560 H     1 <1>   0.0800 
 39 H       -5.1010   -11.9010     0.9390 H     1 <1>   0.0800 
 40 H       -1.6170   -12.8030    -0.4990 H     1 <1>   0.1500 
 41 H       -0.5720   -15.5600    -0.9610 H     1 <1>   0.0800 
 42 H       -1.0690   -16.5970     0.3570 H     1 <1>   0.0800 
 43 H       -0.1820   -15.1270     0.6920 H     1 <1>   0.0800 
@<TRIPOS>BOND
  1   1   2  1   
  2   2   3  1   
  3   2   4  1   
  4   2  26  1   
  5   4   5  1   
  6   5   6  ar  
  7   5   7  ar  
  8   6   8  ar  
  9   6  27  1   
 10   7   9  ar  
 11   7  28  1   
 12   8  10  ar  
 13   8  29  1   
 14   9  10  ar  
 15   9  30  1   
 16  10  11  1   
 17  11  12  2   
 18  11  13  am  
 19  13  14  1   
 20  13  15  1   
 21  14  16  1   
 22  14  31  1   
 23  14  32  1   
 24  15  17  1   
 25  15  33  1   
 26  15  34  1   
 27  16  17  1   
 28  16  18  1   
 29  16  35  1   
 30  17  19  1   
 31  17  36  1   
 32  18  37  1   
 33  19  20  1   
 34  19  38  1   
 35  19  39  1   
 36  20  21  1   
 37  20  22  2   
 38  21  23  1   
 39  22  24  1   
 40  22  40  1   
 41  23  24  2   
 42  24  25  1   
 43  25  41  1   
 44  25  42  1   
 45  25  43  1   
@<TRIPOS>SUBSTRUCTURE
  1 ****  13 GROUP 4 **** **** 0

# MOE 2024.06 (io_trps.svl 2023.06)
