@<TRIPOS>MOLECULE
NONAME
56 59 1 0 0 
SMALL
USER_CHARGES


@<TRIPOS>ATOM
  1 O        0.5580     0.5520    -1.5230 O.2   1 <1>  -0.5700 
  2 C       -0.2010     1.4950    -1.3870 C.2   1 <1>   0.5440 
  3 N       -1.5530     1.2560    -1.2430 N.am  1 <1>  -0.6600 
  4 C        0.3330     2.8390    -1.4250 C.ar  1 <1>   0.0860 
  5 C       -2.5740     2.3440    -1.1050 C.3   1 <1>   0.1400 
  6 C       -2.1250    -0.1210    -1.2820 C.3   1 <1>   0.1400 
  7 C        0.7830     3.5070    -0.2780 C.ar  1 <1>   0.0830 
  8 C        0.3950     3.5250    -2.6380 C.ar  1 <1>  -0.1500 
  9 C       -3.4630     2.1300     0.1350 C.3   1 <1>   0.1440 
 10 C       -3.0100    -0.3660    -0.0540 C.3   1 <1>  -0.1600 
 11 O        0.7600     2.9220     0.9350 O.3   1 <1>  -0.3630 
 12 C        1.2440     4.8120    -0.3500 C.ar  1 <1>  -0.1500 
 13 C        0.8640     4.8230    -2.7110 C.ar  1 <1>  -0.1500 
 14 C       -4.5000     3.2370     0.1680 C.ar  1 <1>   0.1670 
 15 C       -4.0900     0.7210     0.0970 C.3   1 <1>  -0.1600 
 16 C       -2.6810     2.3810     1.4500 C.3   1 <1>  -0.1600 
 17 C        1.7020     1.9060     1.2010 C.3   1 <1>   0.1200 
 18 C        1.2880     5.4720    -1.5630 C.ar  1 <1>  -0.1500 
 19 N       -5.5590     3.3110    -0.5990 N.ar  1 <1>  -0.6200 
 20 C       -4.1860     4.1840     1.0960 C.ar  1 <1>  -0.1430 
 21 C       -2.9070     3.8540     1.8240 C.3   1 <1>  -0.0170 
 22 C        1.0100     0.8190     2.0180 C.3   1 <1>  -0.2400 
 23 C       -6.3320     4.3820    -0.4010 C.ar  1 <1>   0.7200 
 24 C       -5.0360     5.2530     1.2260 C.ar  1 <1>   0.1600 
 25 N       -6.1120     5.3620     0.4830 N.ar  1 <1>  -0.6200 
 26 N       -7.4650     4.4880    -1.1850 N.pl3 1 <1>  -0.8380 
 27 C       -8.0050     3.3350    -1.9560 C.3   1 <1>   0.1290 
 28 C       -8.2470     5.7520    -1.2770 C.3   1 <1>   0.1290 
 29 H       -3.1960     2.3420    -1.9840 H     1 <1>   0.0800 
 30 H       -2.1060     3.3090    -1.0410 H     1 <1>   0.0800 
 31 H       -1.3410    -0.8590    -1.3090 H     1 <1>   0.0800 
 32 H       -2.7090    -0.2260    -2.1790 H     1 <1>   0.0800 
 33 H        0.0650     3.0240    -3.5320 H     1 <1>   0.1500 
 34 H       -2.3870    -0.3940     0.8220 H     1 <1>   0.0800 
 35 H       -3.4810    -1.3280    -0.1480 H     1 <1>   0.0800 
 36 H        1.5700     5.3040     0.5490 H     1 <1>   0.1500 
 37 H        0.9000     5.3320    -3.6590 H     1 <1>   0.1500 
 38 H       -4.7610     0.6620    -0.7420 H     1 <1>   0.0800 
 39 H       -4.6700     0.5490     0.9860 H     1 <1>   0.0800 
 40 H       -1.6380     2.1430     1.3600 H     1 <1>   0.0800 
 41 H       -3.0950     1.7720     2.2340 H     1 <1>   0.0800 
 42 H        2.5150     2.3450     1.7510 H     1 <1>   0.0800 
 43 H        2.0780     1.5040     0.2750 H     1 <1>   0.0800 
 44 H        1.6510     6.4840    -1.6170 H     1 <1>   0.1500 
 45 H       -2.1040     4.4660     1.4490 H     1 <1>   0.0800 
 46 H       -3.0020     3.9830     2.8880 H     1 <1>   0.0800 
 47 H        0.6190     1.2300     2.9310 H     1 <1>   0.0800 
 48 H        1.7150     0.0450     2.2600 H     1 <1>   0.0800 
 49 H        0.2120     0.3820     1.4440 H     1 <1>   0.0800 
 50 H       -4.8310     6.0260     1.9450 H     1 <1>   0.1500 
 51 H       -7.7340     2.4050    -1.4870 H     1 <1>   0.0800 
 52 H       -7.6060     3.3530    -2.9550 H     1 <1>   0.0800 
 53 H       -9.0790     3.3890    -2.0000 H     1 <1>   0.0800 
 54 H       -7.6050     6.6040    -1.1320 H     1 <1>   0.0800 
 55 H       -9.0110     5.7580    -0.5200 H     1 <1>   0.0800 
 56 H       -8.7040     5.8350    -2.2470 H     1 <1>   0.0800 
@<TRIPOS>BOND
  1   1   2  2   
  2   2   3  am  
  3   2   4  1   
  4   3   5  1   
  5   3   6  1   
  6   4   7  ar  
  7   4   8  ar  
  8   5   9  1   
  9   5  29  1   
 10   5  30  1   
 11   6  10  1   
 12   6  31  1   
 13   6  32  1   
 14   7  11  1   
 15   7  12  ar  
 16   8  13  ar  
 17   8  33  1   
 18   9  14  1   
 19   9  15  1   
 20   9  16  1   
 21  10  15  1   
 22  10  34  1   
 23  10  35  1   
 24  11  17  1   
 25  12  18  ar  
 26  12  36  1   
 27  13  18  ar  
 28  13  37  1   
 29  14  19  ar  
 30  14  20  ar  
 31  15  38  1   
 32  15  39  1   
 33  16  21  1   
 34  16  40  1   
 35  16  41  1   
 36  17  22  1   
 37  17  42  1   
 38  17  43  1   
 39  18  44  1   
 40  19  23  ar  
 41  20  21  1   
 42  20  24  ar  
 43  21  45  1   
 44  21  46  1   
 45  22  47  1   
 46  22  48  1   
 47  22  49  1   
 48  23  25  ar  
 49  23  26  1   
 50  24  25  ar  
 51  24  50  1   
 52  26  27  1   
 53  26  28  1   
 54  27  51  1   
 55  27  52  1   
 56  27  53  1   
 57  28  54  1   
 58  28  55  1   
 59  28  56  1   
@<TRIPOS>SUBSTRUCTURE
  1 ****   5 GROUP 4 **** **** 0

# MOE 2024.06 (io_trps.svl 2023.06)
