@<TRIPOS>MOLECULE
NONAME
52 55 1 0 0 
SMALL
USER_CHARGES


@<TRIPOS>ATOM
  1 O       -0.2370    -0.5270    -0.1760 O.2   1 <1>  -0.5700 
  2 C       -0.2950    -1.7290    -0.1100 C.2   1 <1>   0.5690 
  3 N       -0.9450    -2.4490    -1.0550 N.am  1 <1>  -0.5470 
  4 C        0.3910    -2.4820     1.0290 C.3   1 <1>   0.1810 
  5 C       -1.0850    -3.8320    -0.9680 C.ar  1 <1>   0.1170 
  6 O       -0.1160    -3.8050     1.2340 O.3   1 <1>  -0.3630 
  7 C       -0.6600    -4.4920     0.1890 C.ar  1 <1>   0.0830 
  8 C       -1.6400    -4.5770    -1.9980 C.ar  1 <1>  -0.1500 
  9 C       -0.7950    -5.8610     0.3030 C.ar  1 <1>  -0.1500 
 10 C       -1.7690    -5.9490    -1.8740 C.ar  1 <1>  -0.1500 
 11 C       -1.3580    -6.6230    -0.7210 C.ar  1 <1>   0.0860 
 12 C       -1.4940    -8.0610    -0.5890 C.2   1 <1>   0.5440 
 13 O       -0.5600    -8.7110    -0.1590 O.2   1 <1>  -0.5700 
 14 N       -2.6590    -8.7190    -0.9260 N.am  1 <1>  -0.6600 
 15 C       -4.0110    -8.0820    -0.8760 C.3   1 <1>   0.1400 
 16 C       -2.7220   -10.2090    -1.0460 C.3   1 <1>   0.1400 
 17 C       -4.9240    -8.8050     0.1350 C.3   1 <1>   0.2950 
 18 C       -3.7070   -10.8080    -0.0190 C.3   1 <1>   0.2000 
 19 O       -4.9510   -10.1770    -0.1280 O.3   1 <1>  -0.5600 
 20 C       -6.3640    -8.2890     0.0580 C.3   1 <1>  -0.1950 
 21 C       -3.9530   -12.3080    -0.2210 C.3   1 <1>  -0.1600 
 22 C       -6.7950    -7.0770     0.8250 C.3   1 <1>  -0.2000 
 23 C       -7.3020    -8.4380     1.2150 C.3   1 <1>  -0.2000 
 24 C       -2.6970   -13.1630     0.0170 C.3   1 <1>  -0.1600 
 25 C       -3.0190   -14.6570    -0.1010 C.3   1 <1>  -0.1600 
 26 C       -1.7700   -15.5100     0.1320 C.3   1 <1>  -0.2400 
 27 H       -1.3580    -1.9210    -1.8230 H     1 <1>   0.3700 
 28 H        0.2670    -1.9390     1.9470 H     1 <1>   0.0800 
 29 H        1.4390    -2.5670     0.8110 H     1 <1>   0.0800 
 30 H       -1.9660    -4.0850    -2.8970 H     1 <1>   0.1500 
 31 H       -0.4570    -6.3530     1.1980 H     1 <1>   0.1500 
 32 H       -2.1900    -6.5190    -2.6840 H     1 <1>   0.1500 
 33 H       -3.9360    -7.0490    -0.5890 H     1 <1>   0.0800 
 34 H       -4.4600    -8.1280    -1.8520 H     1 <1>   0.0800 
 35 H       -3.0460   -10.4680    -2.0380 H     1 <1>   0.0800 
 36 H       -1.7460   -10.6380    -0.9000 H     1 <1>   0.0800 
 37 H       -4.5440    -8.6630     1.1330 H     1 <1>   0.0800 
 38 H       -3.3320   -10.6410     0.9770 H     1 <1>   0.0800 
 39 H       -6.7830    -8.4190    -0.9250 H     1 <1>   0.1000 
 40 H       -4.7170   -12.6160     0.4730 H     1 <1>   0.0800 
 41 H       -4.3190   -12.4750    -1.2180 H     1 <1>   0.0800 
 42 H       -6.1000    -6.5870     1.4850 H     1 <1>   0.1000 
 43 H       -7.4820    -6.3880     0.3650 H     1 <1>   0.1000 
 44 H       -8.3270    -8.6950     1.0100 H     1 <1>   0.1000 
 45 H       -6.9370    -8.8960     2.1170 H     1 <1>   0.1000 
 46 H       -1.9380   -12.9120    -0.7040 H     1 <1>   0.0800 
 47 H       -2.3060   -12.9600     1.0000 H     1 <1>   0.0800 
 48 H       -3.7700   -14.9240     0.6230 H     1 <1>   0.0800 
 49 H       -3.4130   -14.8660    -1.0810 H     1 <1>   0.0800 
 50 H       -1.3710   -15.3320     1.1160 H     1 <1>   0.0800 
 51 H       -1.0130   -15.2770    -0.5960 H     1 <1>   0.0800 
 52 H       -2.0160   -16.5540     0.0470 H     1 <1>   0.0800 
@<TRIPOS>BOND
  1   1   2  2   
  2   2   3  am  
  3   2   4  1   
  4   3   5  1   
  5   3  27  1   
  6   4   6  1   
  7   4  28  1   
  8   4  29  1   
  9   5   7  ar  
 10   5   8  ar  
 11   6   7  1   
 12   7   9  ar  
 13   8  10  ar  
 14   8  30  1   
 15   9  11  ar  
 16   9  31  1   
 17  10  11  ar  
 18  10  32  1   
 19  11  12  1   
 20  12  13  2   
 21  12  14  am  
 22  14  15  1   
 23  14  16  1   
 24  15  17  1   
 25  15  33  1   
 26  15  34  1   
 27  16  18  1   
 28  16  35  1   
 29  16  36  1   
 30  17  19  1   
 31  17  20  1   
 32  17  37  1   
 33  18  19  1   
 34  18  21  1   
 35  18  38  1   
 36  20  22  1   
 37  20  23  1   
 38  20  39  1   
 39  21  24  1   
 40  21  40  1   
 41  21  41  1   
 42  22  23  1   
 43  22  42  1   
 44  22  43  1   
 45  23  44  1   
 46  23  45  1   
 47  24  25  1   
 48  24  46  1   
 49  24  47  1   
 50  25  26  1   
 51  25  48  1   
 52  25  49  1   
 53  26  50  1   
 54  26  51  1   
 55  26  52  1   
@<TRIPOS>SUBSTRUCTURE
  1 ****  12 GROUP 4 **** **** 0

# MOE 2024.06 (io_trps.svl 2023.06)
