@<TRIPOS>MOLECULE
NONAME
49 51 1 0 0 
SMALL
USER_CHARGES


@<TRIPOS>ATOM
  1 O       -1.4260     0.8980     2.1920 O.2   1 <1>  -0.5700 
  2 C       -1.4140     1.5440     1.1540 C.2   1 <1>   0.5440 
  3 N       -2.2200     1.0910     0.1190 N.am  1 <1>  -0.6600 
  4 C       -0.5850     2.7540     1.0820 C.ar  1 <1>   0.3960 
  5 C       -2.7800    -0.2930     0.1570 C.3   1 <1>   0.1400 
  6 C       -2.5860     1.9410    -1.0530 C.3   1 <1>   0.1400 
  7 N        0.0550     3.0700    -0.0590 N.ar  1 <1>  -0.6200 
  8 C       -0.4790     3.5530     2.2210 C.ar  1 <1>  -0.1500 
  9 C       -4.1310    -0.3230     0.8840 C.3   1 <1>   0.1400 
 10 C       -4.0550     1.8130    -1.4800 C.3   1 <1>  -0.1600 
 11 C        0.7710     4.1710    -0.0520 C.ar  1 <1>   0.4100 
 12 C        0.2770     4.7060     2.2170 C.ar  1 <1>  -0.1500 
 13 N       -5.2320     0.2660     0.0530 N.am  1 <1>  -0.6600 
 14 C       -5.0430     1.7000    -0.3140 C.3   1 <1>   0.1400 
 15 N        1.3950     4.4340    -1.2260 N.pl3 1 <1>  -0.9000 
 16 C        0.9140     5.0150     1.0410 C.ar  1 <1>  -0.1500 
 17 C       -6.3390    -0.4200    -0.3860 C.2   1 <1>   0.5690 
 18 O       -7.1580     0.0980    -1.1100 O.2   1 <1>  -0.5700 
 19 C       -6.5600    -1.8700     0.0230 C.3   1 <1>  -0.0990 
 20 C       -7.8750    -2.4730    -0.4920 C.3   1 <1>  -0.0170 
 21 C       -8.0050    -3.9170    -0.0360 C.ar  1 <1>  -0.1430 
 22 C       -8.5670    -4.2490     1.1790 C.ar  1 <1>  -0.1500 
 23 C       -7.5630    -4.9690    -0.8120 C.ar  1 <1>  -0.1500 
 24 C       -8.6540    -5.5800     1.5520 C.ar  1 <1>   0.1600 
 25 C       -7.6980    -6.2670    -0.3460 C.ar  1 <1>   0.1600 
 26 N       -8.2300    -6.5970     0.8200 N.ar  1 <1>  -0.6200 
 27 H       -2.0910    -0.9310     0.6850 H     1 <1>   0.0800 
 28 H       -2.8820    -0.6850    -0.8400 H     1 <1>   0.0800 
 29 H       -1.9440     1.6940    -1.8810 H     1 <1>   0.0800 
 30 H       -2.4110     2.9730    -0.8040 H     1 <1>   0.0800 
 31 H       -0.9970     3.2590     3.1170 H     1 <1>   0.1500 
 32 H       -4.0480     0.2220     1.8080 H     1 <1>   0.0800 
 33 H       -4.3490    -1.3420     1.1350 H     1 <1>   0.0800 
 34 H       -4.1800     0.9780    -2.1460 H     1 <1>   0.0800 
 35 H       -4.3010     2.6930    -2.0450 H     1 <1>   0.0800 
 36 H        0.3620     5.3300     3.0910 H     1 <1>   0.1500 
 37 H       -5.9880     2.1230    -0.6110 H     1 <1>   0.0800 
 38 H       -4.6940     2.2570     0.5390 H     1 <1>   0.0800 
 39 H        2.3240     4.8500    -1.1750 H     1 <1>   0.4000 
 40 H        1.3480     3.6490    -1.8780 H     1 <1>   0.4000 
 41 H        1.5170     5.8990     0.9530 H     1 <1>   0.1500 
 42 H       -6.5570    -1.9240     1.0960 H     1 <1>   0.0800 
 43 H       -5.7420    -2.4570    -0.3520 H     1 <1>   0.0800 
 44 H       -7.9000    -2.4270    -1.5670 H     1 <1>   0.0800 
 45 H       -8.7070    -1.8990    -0.1230 H     1 <1>   0.0800 
 46 H       -8.9370    -3.4860     1.8390 H     1 <1>   0.1500 
 47 H       -7.1170    -4.7930    -1.7730 H     1 <1>   0.1500 
 48 H       -9.0960    -5.8210     2.5040 H     1 <1>   0.1500 
 49 H       -7.3490    -7.0750    -0.9650 H     1 <1>   0.1500 
@<TRIPOS>BOND
  1   1   2  2   
  2   2   3  am  
  3   2   4  1   
  4   3   5  1   
  5   3   6  1   
  6   4   7  ar  
  7   4   8  ar  
  8   5   9  1   
  9   5  27  1   
 10   5  28  1   
 11   6  10  1   
 12   6  29  1   
 13   6  30  1   
 14   7  11  ar  
 15   8  12  ar  
 16   8  31  1   
 17   9  13  1   
 18   9  32  1   
 19   9  33  1   
 20  10  14  1   
 21  10  34  1   
 22  10  35  1   
 23  11  15  1   
 24  11  16  ar  
 25  12  16  ar  
 26  12  36  1   
 27  13  14  1   
 28  13  17  am  
 29  14  37  1   
 30  14  38  1   
 31  15  39  1   
 32  15  40  1   
 33  16  41  1   
 34  17  18  2   
 35  17  19  1   
 36  19  20  1   
 37  19  42  1   
 38  19  43  1   
 39  20  21  1   
 40  20  44  1   
 41  20  45  1   
 42  21  22  ar  
 43  21  23  ar  
 44  22  24  ar  
 45  22  46  1   
 46  23  25  ar  
 47  23  47  1   
 48  24  26  ar  
 49  24  48  1   
 50  25  26  ar  
 51  25  49  1   
@<TRIPOS>SUBSTRUCTURE
  1 ****   9 GROUP 4 **** **** 0

# MOE 2024.06 (io_trps.svl 2023.06)
