@<TRIPOS>MOLECULE
NONAME
51 54 1 0 0 
SMALL
USER_CHARGES


@<TRIPOS>ATOM
  1 O        1.8690    -0.9980    -2.5730 O.2   1 <1>  -0.5750 
  2 C        2.7380    -0.5810    -1.8450 C.2   1 <1>   0.6860 
  3 N        3.1420     0.7480    -1.8580 N.am  1 <1>  -0.4420 
  4 N        3.3370    -1.4530    -0.9810 N.am  1 <1>  -0.4950 
  5 C        4.1390     1.1270    -0.9700 C.2   1 <1>   0.4210 
  6 C        2.5170     1.7320    -2.7900 C.3   1 <1>   0.0520 
  7 C        4.3230    -1.0980    -0.1060 C.2   1 <1>   0.6990 
  8 N        4.6830     2.3640    -0.8000 N.pl3 1 <1>  -0.7040 
  9 C        4.7380     0.2740    -0.1080 C.2   1 <1>   0.2710 
 10 O        4.8010    -1.9410     0.6260 O.2   1 <1>  -0.5750 
 11 C        5.6080     2.2800     0.1550 C.cat 1 <1>   1.0690 
 12 N        5.6830     1.0290     0.6120 N.pl3 1 <1>  -0.7670 
 13 N        6.3540     3.2810     0.5900 N.pl3 1 <1>  -0.7180 
 14 C        6.5520     0.4250     1.6640 C.3   1 <1>   0.2680 
 15 C        6.4680     4.6480     0.0690 C.3   1 <1>   0.3850 
 16 C        7.9290     4.8890    -0.2540 C.ar  1 <1>  -0.1510 
 17 C        5.9480     5.6070     1.1400 C.3   1 <1>  -0.1670 
 18 C        8.5550     6.0430     0.2050 C.ar  1 <1>   0.0750 
 19 C        8.6640     3.9810    -1.0080 C.ar  1 <1>  -0.1570 
 20 C        6.4780     7.0300     0.9240 C.3   1 <1>   0.2740 
 21 O        7.8870     6.9870     0.9090 O.3   1 <1>  -0.3680 
 22 C        9.8970     6.2630    -0.0530 C.ar  1 <1>  -0.1570 
 23 C       10.0040     4.2090    -1.2690 C.ar  1 <1>  -0.1570 
 24 C        6.0820     7.9270     2.0970 C.3   1 <1>  -0.2470 
 25 C        6.0010     7.6580    -0.3930 C.3   1 <1>  -0.2470 
 26 C       10.6290     5.3470    -0.7880 C.ar  1 <1>  -0.1510 
 27 C       12.1000     5.5860    -1.0770 C.3   1 <1>  -0.1040 
 28 H        3.0200    -2.4200    -0.9980 H     1 <1>   0.3640 
 29 H        1.8860     1.2330    -3.5070 H     1 <1>   0.0720 
 30 H        3.2790     2.2660    -3.3290 H     1 <1>   0.0720 
 31 H        1.9130     2.4270    -2.2340 H     1 <1>   0.0720 
 32 H        4.4290     3.2070    -1.3050 H     1 <1>   0.4450 
 33 H        7.0790     3.0920     1.2790 H     1 <1>   0.4450 
 34 H        7.1540    -0.3590     1.2350 H     1 <1>   0.0720 
 35 H        5.9410    -0.0020     2.4430 H     1 <1>   0.0720 
 36 H        7.2030     1.1620     2.1010 H     1 <1>   0.0720 
 37 H        5.8940     4.7680    -0.8340 H     1 <1>   0.0720 
 38 H        6.2740     5.2830     2.1130 H     1 <1>   0.0720 
 39 H        4.8740     5.6190     1.1310 H     1 <1>   0.0720 
 40 H        8.2130     3.0900    -1.4040 H     1 <1>   0.1430 
 41 H       10.3570     7.1590     0.3220 H     1 <1>   0.1430 
 42 H       10.5650     3.4990    -1.8520 H     1 <1>   0.1430 
 43 H        6.4560     7.5260     3.0220 H     1 <1>   0.0720 
 44 H        5.0120     8.0060     2.1650 H     1 <1>   0.0720 
 45 H        6.4850     8.9150     1.9620 H     1 <1>   0.0720 
 46 H        6.3350     7.0990    -1.2460 H     1 <1>   0.0720 
 47 H        6.3850     8.6600    -0.4770 H     1 <1>   0.0720 
 48 H        4.9270     7.7110    -0.4130 H     1 <1>   0.0720 
 49 H       12.4990     6.3400    -0.4230 H     1 <1>   0.0720 
 50 H       12.2220     5.9120    -2.0940 H     1 <1>   0.0720 
 51 H       12.6590     4.6790    -0.9320 H     1 <1>   0.0720 
@<TRIPOS>BOND
  1   1   2  2   
  2   2   3  am  
  3   2   4  am  
  4   3   5  1   
  5   3   6  1   
  6   4   7  am  
  7   4  28  1   
  8   5   8  1   
  9   5   9  2   
 10   6  29  1   
 11   6  30  1   
 12   6  31  1   
 13   7   9  1   
 14   7  10  2   
 15   8  11  ar  
 16   8  32  1   
 17   9  12  1   
 18  11  12  ar  
 19  11  13  ar  
 20  12  14  1   
 21  13  15  1   
 22  13  33  1   
 23  14  34  1   
 24  14  35  1   
 25  14  36  1   
 26  15  16  1   
 27  15  17  1   
 28  15  37  1   
 29  16  18  ar  
 30  16  19  ar  
 31  17  20  1   
 32  17  38  1   
 33  17  39  1   
 34  18  21  1   
 35  18  22  ar  
 36  19  23  ar  
 37  19  40  1   
 38  20  21  1   
 39  20  24  1   
 40  20  25  1   
 41  22  26  ar  
 42  22  41  1   
 43  23  26  ar  
 44  23  42  1   
 45  24  43  1   
 46  24  44  1   
 47  24  45  1   
 48  25  46  1   
 49  25  47  1   
 50  25  48  1   
 51  26  27  1   
 52  27  49  1   
 53  27  50  1   
 54  27  51  1   
@<TRIPOS>SUBSTRUCTURE
  1 ****  13 GROUP 4 **** **** 0

# MOE 2024.06 (io_trps.svl 2023.06)
