@<TRIPOS>MOLECULE
NONAME
53 55 1 0 0 
SMALL
USER_CHARGES


@<TRIPOS>ATOM
  1 O       -0.5130    -0.0510    -0.8660 O.2   1 <1>  -0.5700 
  2 C        0.5630    -0.4860    -0.5130 C.2   1 <1>   0.7150 
  3 N        1.6640     0.3180    -0.5070 N.am  1 <1>  -0.4940 
  4 C        0.7300    -1.8520    -0.1070 C.2   1 <1>  -0.2370 
  5 C        1.7830     1.6660    -0.7500 C.2   1 <1>   0.5420 
  6 N       -0.1950    -2.8430    -0.2650 N.pl3 1 <1>   0.3140 
  7 C        1.7950    -2.4500     0.5000 C.2   1 <1>  -0.1500 
  8 O        2.9730     2.1700    -0.7680 O.3   1 <1>  -0.2800 
  9 N        0.8830     2.5580    -0.9620 N.2   1 <1>  -0.3380 
 10 N        0.2550    -4.0180     0.2120 N.2   1 <1>  -0.7070 
 11 C       -1.5490    -2.7100    -0.8820 C.3   1 <1>   0.0960 
 12 C        1.4440    -3.7750     0.6650 C.2   1 <1>   0.1080 
 13 C        2.7910     3.4430    -0.9910 C.2   1 <1>   0.4250 
 14 N        1.5340     3.7080    -1.1190 N.2   1 <1>  -0.3380 
 15 C       -2.2950    -4.0440    -1.0530 C.3   1 <1>  -0.2400 
 16 C        2.3150    -4.8440     1.3000 C.3   1 <1>   0.0210 
 17 C        3.9280     4.3230    -1.0880 C.ar  1 <1>   0.0530 
 18 C        3.5570    -5.1820     0.4520 C.3   1 <1>  -0.0800 
 19 C        4.0340     5.4900    -0.3190 C.ar  1 <1>   0.0830 
 20 C        4.9690     4.0220    -1.9670 C.ar  1 <1>  -0.1500 
 21 C        3.1660    -5.7600    -0.9160 C.3   1 <1>  -0.2400 
 22 C        4.4560    -6.1790     1.1940 C.3   1 <1>  -0.2400 
 23 O        3.0340     5.7550     0.5570 O.3   1 <1>  -0.3620 
 24 C        5.1430     6.3220    -0.4520 C.ar  1 <1>  -0.1500 
 25 C        6.0690     4.8480    -2.0950 C.ar  1 <1>  -0.1500 
 26 C        2.9120     6.9930     1.2170 C.3   1 <1>   0.1200 
 27 C        6.1550     6.0020    -1.3380 C.ar  1 <1>  -0.1500 
 28 C        1.6010     6.9760     1.9980 C.3   1 <1>  -0.2400 
 29 H        2.5340    -0.1520    -0.2940 H     1 <1>   0.3700 
 30 H        2.7310    -2.0230     0.8110 H     1 <1>   0.1500 
 31 H       -1.4320    -2.2490    -1.8460 H     1 <1>   0.0800 
 32 H       -2.1310    -2.0520    -0.2640 H     1 <1>   0.0800 
 33 H       -1.7270    -4.7110    -1.6760 H     1 <1>   0.0800 
 34 H       -3.2510    -3.8720    -1.5130 H     1 <1>   0.0800 
 35 H       -2.4550    -4.5050    -0.0940 H     1 <1>   0.0800 
 36 H        1.7230    -5.7310     1.4460 H     1 <1>   0.0800 
 37 H        2.6210    -4.4960     2.2690 H     1 <1>   0.0800 
 38 H        4.1180    -4.2780     0.2910 H     1 <1>   0.0800 
 39 H        4.9090     3.1280    -2.5640 H     1 <1>   0.1500 
 40 H        2.5890    -6.6600    -0.7950 H     1 <1>   0.0800 
 41 H        4.0450    -5.9890    -1.4930 H     1 <1>   0.0800 
 42 H        2.5750    -5.0530    -1.4710 H     1 <1>   0.0800 
 43 H        3.9320    -7.1020     1.3720 H     1 <1>   0.0800 
 44 H        4.7680    -5.7730     2.1400 H     1 <1>   0.0800 
 45 H        5.3360    -6.3920     0.6130 H     1 <1>   0.0800 
 46 H        5.2400     7.2200     0.1280 H     1 <1>   0.1500 
 47 H        6.8590     4.5980    -2.7830 H     1 <1>   0.1500 
 48 H        2.9030     7.7740     0.4770 H     1 <1>   0.0800 
 49 H        3.7500     7.1120     1.8810 H     1 <1>   0.0800 
 50 H        7.0110     6.6470    -1.4370 H     1 <1>   0.1500 
 51 H        0.7750     6.8300     1.3250 H     1 <1>   0.0800 
 52 H        1.4680     7.9110     2.5100 H     1 <1>   0.0800 
 53 H        1.6140     6.1830     2.7240 H     1 <1>   0.0800 
@<TRIPOS>BOND
  1   1   2  2   
  2   2   3  am  
  3   2   4  1   
  4   3   5  1   
  5   3  29  1   
  6   4   6  1   
  7   4   7  2   
  8   5   8  1   
  9   5   9  2   
 10   6  10  1   
 11   6  11  1   
 12   7  12  1   
 13   7  30  1   
 14   8  13  1   
 15   9  14  1   
 16  10  12  2   
 17  11  15  1   
 18  11  31  1   
 19  11  32  1   
 20  12  16  1   
 21  13  14  2   
 22  13  17  1   
 23  15  33  1   
 24  15  34  1   
 25  15  35  1   
 26  16  18  1   
 27  16  36  1   
 28  16  37  1   
 29  17  19  ar  
 30  17  20  ar  
 31  18  21  1   
 32  18  22  1   
 33  18  38  1   
 34  19  23  1   
 35  19  24  ar  
 36  20  25  ar  
 37  20  39  1   
 38  21  40  1   
 39  21  41  1   
 40  21  42  1   
 41  22  43  1   
 42  22  44  1   
 43  22  45  1   
 44  23  26  1   
 45  24  27  ar  
 46  24  46  1   
 47  25  27  ar  
 48  25  47  1   
 49  26  28  1   
 50  26  48  1   
 51  26  49  1   
 52  27  50  1   
 53  28  51  1   
 54  28  52  1   
 55  28  53  1   
@<TRIPOS>SUBSTRUCTURE
  1 ****   3 GROUP 4 **** **** 0

# MOE 2024.06 (io_trps.svl 2023.06)
