@<TRIPOS>MOLECULE
NONAME
14 13 1 0 0 
SMALL
USER_CHARGES


@<TRIPOS>ATOM
  1 F       -0.6940     0.9220    -1.1330 F     1 <1>  -0.3400 
  2 C       -1.5070     0.8090    -0.0910 C.3   1 <1>   1.0200 
  3 F       -0.8000     1.1570     0.9780 F     1 <1>  -0.3400 
  4 F       -2.4220     1.7600    -0.2440 F     1 <1>  -0.3400 
  5 C       -2.1620    -0.5590     0.0500 C.3   1 <1>  -0.1600 
  6 C       -1.2100    -1.6810     0.4860 C.3   1 <1>   0.0940 
  7 O       -0.3040    -1.9240    -0.5490 O.3   1 <1>  -0.6800 
  8 C       -1.9670    -2.9780     0.8300 C.2   1 <1>   0.9060 
  9 O       -1.6730    -4.0030     0.1950 O.co2 1 <1>  -0.9000 
 10 O       -2.8410    -2.9580     1.7050 O.co2 1 <1>  -0.9000 
 11 H       -2.6400    -0.8290    -0.8730 H     1 <1>   0.0800 
 12 H       -2.9280    -0.4700     0.7980 H     1 <1>   0.0800 
 13 H       -0.6490    -1.3940     1.3560 H     1 <1>   0.0800 
 14 H       -0.4010    -2.8980    -0.7240 H     1 <1>   0.4000 
@<TRIPOS>BOND
  1   1   2  1   
  2   2   3  1   
  3   2   4  1   
  4   2   5  1   
  5   5   6  1   
  6   5  11  1   
  7   5  12  1   
  8   6   7  1   
  9   6   8  1   
 10   6  13  1   
 11   7  14  1   
 12   8   9  ar  
 13   8  10  ar  
@<TRIPOS>SUBSTRUCTURE
  1 ****   5 GROUP 4 **** **** 0

# MOE 2024.06 (io_trps.svl 2023.06)
