@<TRIPOS>MOLECULE
NONAME
31 33 1 0 0 
SMALL
USER_CHARGES


@<TRIPOS>ATOM
  1 CL      -0.7340    -0.0940     1.5700 Cl    1 <1>  -0.1770 
  2 C       -1.8500    -1.0610     0.6420 C.ar  1 <1>   0.1770 
  3 C       -2.6350    -0.4490    -0.3150 C.ar  1 <1>  -0.1500 
  4 C       -1.9290    -2.4200     0.8800 C.ar  1 <1>  -0.1500 
  5 C       -3.5040    -1.2500    -1.0280 C.ar  1 <1>   0.1900 
  6 C       -2.8150    -3.2220     0.1600 C.ar  1 <1>   0.0860 
  7 F       -4.2530    -0.6980    -1.9430 F     1 <1>  -0.1900 
  8 C       -3.6080    -2.6100    -0.8110 C.ar  1 <1>  -0.1500 
  9 C       -2.8920    -4.6470     0.4070 C.2   1 <1>   0.5440 
 10 O       -1.9090    -5.3330     0.2020 O.2   1 <1>  -0.5700 
 11 N       -4.0400    -5.2280     0.8720 N.am  1 <1>  -0.6600 
 12 C       -5.2860    -4.5230     1.2880 C.3   1 <1>   0.2350 
 13 C       -4.3230    -6.6860     0.7570 C.3   1 <1>   0.2350 
 14 C       -6.4180    -5.4180     0.8270 C.3   1 <1>  -0.2420 
 15 C       -5.8230    -6.7720     0.5170 C.3   1 <1>  -0.2420 
 16 C       -7.7300    -4.9840     1.4830 C.2   1 <1>   0.9470 
 17 C       -6.4650    -5.9610    -0.5810 C.3   1 <1>  -0.2000 
 18 C       -6.3410    -8.1810     0.8080 C.2   1 <1>   0.9470 
 19 O       -8.6930    -4.6680     0.7700 O.co2 1 <1>  -0.9000 
 20 O       -7.7450    -4.7740     2.7040 O.co2 1 <1>  -0.9000 
 21 O       -6.0520    -8.7130     1.8890 O.co2 1 <1>  -0.9000 
 22 O       -6.9010    -8.8230    -0.0910 O.co2 1 <1>  -0.9000 
 23 H       -2.5730     0.6070    -0.4980 H     1 <1>   0.1500 
 24 H       -1.3000    -2.8720     1.6270 H     1 <1>   0.1500 
 25 H       -4.3010    -3.2000    -1.3870 H     1 <1>   0.1500 
 26 H       -5.3010    -4.4420     2.3620 H     1 <1>   0.0800 
 27 H       -5.3820    -3.5460     0.8540 H     1 <1>   0.0800 
 28 H       -3.7770    -7.1320    -0.0550 H     1 <1>   0.0800 
 29 H       -4.0630    -7.1740     1.6810 H     1 <1>   0.0800 
 30 H       -5.8500    -5.5250    -1.3450 H     1 <1>   0.1000 
 31 H       -7.4160    -6.3000    -0.9590 H     1 <1>   0.1000 
@<TRIPOS>BOND
  1   1   2  1   
  2   2   3  ar  
  3   2   4  ar  
  4   3   5  ar  
  5   3  23  1   
  6   4   6  ar  
  7   4  24  1   
  8   5   7  1   
  9   5   8  ar  
 10   6   8  ar  
 11   6   9  1   
 12   8  25  1   
 13   9  10  2   
 14   9  11  am  
 15  11  12  1   
 16  11  13  1   
 17  12  14  1   
 18  12  26  1   
 19  12  27  1   
 20  13  15  1   
 21  13  28  1   
 22  13  29  1   
 23  14  15  1   
 24  14  16  1   
 25  14  17  1   
 26  15  17  1   
 27  15  18  1   
 28  16  19  ar  
 29  16  20  ar  
 30  17  30  1   
 31  17  31  1   
 32  18  21  ar  
 33  18  22  ar  
@<TRIPOS>SUBSTRUCTURE
  1 ****  12 GROUP 4 **** **** 0

# MOE 2024.06 (io_trps.svl 2023.06)
