@<TRIPOS>MOLECULE
NONAME
55 58 1 0 0 
SMALL
USER_CHARGES


@<TRIPOS>ATOM
  1 O       -0.2080    -0.0620     0.4380 O.2   1 <1>  -0.5700 
  2 C       -1.2560     0.5420     0.3110 C.2   1 <1>   0.7160 
  3 N       -2.4220    -0.1570     0.3130 N.am  1 <1>  -0.7300 
  4 C       -1.2910     1.9660     0.1570 C.2   1 <1>  -0.0860 
  5 C       -2.7230    -1.6030     0.5320 C.3   1 <1>   0.3610 
  6 C       -2.4010     2.7300    -0.2330 C.2   1 <1>   0.3720 
  7 C       -0.3330     2.9080     0.3800 C.2   1 <1>   0.0870 
  8 C       -2.0890    -2.5040    -0.5780 C.2   1 <1>   0.5690 
  9 C       -4.2660    -1.7040     0.5150 C.3   1 <1>  -0.1600 
 10 C       -2.2240    -2.0410     1.9370 C.3   1 <1>  -0.1600 
 11 N       -2.1300     3.9870    -0.2160 N.2   1 <1>  -0.4100 
 12 N       -3.6520     2.2220    -0.6230 N.pl3 1 <1>  -0.8210 
 13 O       -0.8830     4.0740     0.1560 O.3   1 <1>  -0.0190 
 14 C        1.0450     2.8540     0.7940 C.ar  1 <1>   0.0530 
 15 O       -2.7740    -3.2290    -1.2610 O.2   1 <1>  -0.5700 
 16 N       -0.7570    -2.4900    -0.7950 N.am  1 <1>  -0.8000 
 17 C       -4.9730    -0.8200     1.5670 C.3   1 <1>  -0.1600 
 18 C       -3.2040    -1.7970     3.1070 C.3   1 <1>  -0.1600 
 19 C       -4.8130     3.1250    -0.3280 C.3   1 <1>   0.2090 
 20 C       -3.6820     1.8230    -2.0650 C.3   1 <1>   0.2090 
 21 C        1.5070     3.6800     1.8180 C.ar  1 <1>  -0.1500 
 22 C        1.9680     2.0020     0.1880 C.ar  1 <1>  -0.1500 
 23 C       -4.1460    -0.6160     2.8480 C.3   1 <1>  -0.1600 
 24 C       -6.1410     2.4990    -0.7940 C.3   1 <1>   0.1200 
 25 C       -5.0540     1.2440    -2.4550 C.3   1 <1>   0.1200 
 26 C        2.8280     3.6500     2.2280 C.ar  1 <1>  -0.1500 
 27 C        3.2890     1.9670     0.5930 C.ar  1 <1>  -0.1500 
 28 O       -6.0810     2.1450    -2.1480 O.3   1 <1>  -0.5600 
 29 C        3.7230     2.7920     1.6150 C.ar  1 <1>  -0.1500 
 30 H       -3.2600     0.4220     0.1750 H     1 <1>   0.3700 
 31 H       -4.5270    -2.7310     0.7060 H     1 <1>   0.0800 
 32 H       -4.6390    -1.4740    -0.4670 H     1 <1>   0.0800 
 33 H       -1.2860    -1.5670     2.1550 H     1 <1>   0.0800 
 34 H       -2.0260    -3.0990     1.9110 H     1 <1>   0.0800 
 35 H       -0.3400    -3.0550    -1.5330 H     1 <1>   0.3700 
 36 H       -0.1570    -1.7920    -0.3320 H     1 <1>   0.3700 
 37 H       -5.9140    -1.2790     1.8180 H     1 <1>   0.0800 
 38 H       -5.1900     0.1450     1.1450 H     1 <1>   0.0800 
 39 H       -2.6480    -1.6300     4.0140 H     1 <1>   0.0800 
 40 H       -3.8030    -2.6800     3.2540 H     1 <1>   0.0800 
 41 H       -4.6810     4.0690    -0.8300 H     1 <1>   0.0800 
 42 H       -4.8570     3.3150     0.7300 H     1 <1>   0.0800 
 43 H       -2.9210     1.0840    -2.2530 H     1 <1>   0.0800 
 44 H       -3.4720     2.6800    -2.6830 H     1 <1>   0.0800 
 45 H        0.8190     4.3530     2.2990 H     1 <1>   0.1500 
 46 H        1.6450     1.3600    -0.6110 H     1 <1>   0.1500 
 47 H       -4.8060    -0.4820     3.6880 H     1 <1>   0.0800 
 48 H       -3.5560     0.2800     2.7590 H     1 <1>   0.0800 
 49 H       -6.9430     3.2060    -0.6770 H     1 <1>   0.0800 
 50 H       -6.3700     1.6200    -0.2190 H     1 <1>   0.0800 
 51 H       -5.2380     0.3210    -1.9340 H     1 <1>   0.0800 
 52 H       -5.0900     1.0560    -3.5130 H     1 <1>   0.0800 
 53 H        3.1610     4.2950     3.0220 H     1 <1>   0.1500 
 54 H        3.9810     1.2970     0.1120 H     1 <1>   0.1500 
 55 H        4.7510     2.7660     1.9320 H     1 <1>   0.1500 
@<TRIPOS>BOND
  1   1   2  2   
  2   2   3  am  
  3   2   4  1   
  4   3   5  1   
  5   3  30  1   
  6   4   6  1   
  7   4   7  2   
  8   5   8  1   
  9   5   9  1   
 10   5  10  1   
 11   6  11  2   
 12   6  12  1   
 13   7  13  1   
 14   7  14  1   
 15   8  15  2   
 16   8  16  am  
 17   9  17  1   
 18   9  31  1   
 19   9  32  1   
 20  10  18  1   
 21  10  33  1   
 22  10  34  1   
 23  11  13  1   
 24  12  19  1   
 25  12  20  1   
 26  14  21  ar  
 27  14  22  ar  
 28  16  35  1   
 29  16  36  1   
 30  17  23  1   
 31  17  37  1   
 32  17  38  1   
 33  18  23  1   
 34  18  39  1   
 35  18  40  1   
 36  19  24  1   
 37  19  41  1   
 38  19  42  1   
 39  20  25  1   
 40  20  43  1   
 41  20  44  1   
 42  21  26  ar  
 43  21  45  1   
 44  22  27  ar  
 45  22  46  1   
 46  23  47  1   
 47  23  48  1   
 48  24  28  1   
 49  24  49  1   
 50  24  50  1   
 51  25  28  1   
 52  25  51  1   
 53  25  52  1   
 54  26  29  ar  
 55  26  53  1   
 56  27  29  ar  
 57  27  54  1   
 58  29  55  1   
@<TRIPOS>SUBSTRUCTURE
  1 ****   2 GROUP 4 **** **** 0

# MOE 2024.06 (io_trps.svl 2023.06)
