@<TRIPOS>MOLECULE
NONAME
61 63 1 0 0 
SMALL
USER_CHARGES


@<TRIPOS>ATOM
  1 O       -0.2210     0.4130    -0.7350 O.2   1 <1>  -0.5700 
  2 C       -1.0120     1.1920    -0.2400 C.2   1 <1>   0.7800 
  3 O       -0.6020     2.3470     0.2910 O.3   1 <1>  -0.4300 
  4 N       -2.3590     0.9310    -0.2100 N.am  1 <1>  -0.6600 
  5 C        0.7220     2.8300     0.3730 C.3   1 <1>   0.2800 
  6 C       -2.8800    -0.2990    -0.8690 C.3   1 <1>   0.1400 
  7 C       -3.3320     1.8660     0.4210 C.3   1 <1>   0.1400 
  8 C        0.6080     4.1860     1.0720 C.3   1 <1>  -0.2400 
  9 C        1.5780     1.8910     1.2310 C.3   1 <1>  -0.2400 
 10 C        1.3020     3.0340    -1.0310 C.3   1 <1>  -0.2400 
 11 C       -4.3810    -0.1730    -1.1370 C.3   1 <1>  -0.1600 
 12 C       -4.4540     1.0780     1.1010 C.3   1 <1>  -0.1600 
 13 C       -5.1800     0.0710     0.1630 C.3   1 <1>   0.3430 
 14 C       -5.2700    -1.2380     0.9030 C.1   1 <1>   0.3570 
 15 C       -6.5820     0.6020    -0.2340 C.ar  1 <1>  -0.1440 
 16 N       -5.3430    -2.2350     1.4510 N.1   1 <1>  -0.5570 
 17 C       -7.7390    -0.1710    -0.1370 C.ar  1 <1>  -0.1500 
 18 C       -6.7140     1.8950    -0.7280 C.ar  1 <1>  -0.1500 
 19 C       -8.9930     0.3210    -0.4960 C.ar  1 <1>   0.0830 
 20 C       -7.9490     2.3990    -1.0900 C.ar  1 <1>  -0.1500 
 21 O      -10.1100    -0.4600    -0.4080 O.3   1 <1>  -0.3630 
 22 C       -9.0960     1.6370    -0.9740 C.ar  1 <1>   0.0830 
 23 C      -10.1760    -1.6830     0.3020 C.3   1 <1>   0.2000 
 24 O      -10.2400     2.2790    -1.3530 O.3   1 <1>  -0.3630 
 25 C      -11.5640    -2.2690     0.0710 C.3   1 <1>  -0.1600 
 26 C      -10.1560    -1.4090     1.8060 C.3   1 <1>  -0.1600 
 27 C      -11.5160     1.8790    -0.9050 C.3   1 <1>   0.0400 
 28 C      -12.4880    -1.5400     1.0530 C.3   1 <1>  -0.1600 
 29 C      -11.5860    -0.9920     2.1660 C.3   1 <1>  -0.1600 
 30 H       -2.6780    -1.1470    -0.2360 H     1 <1>   0.0800 
 31 H       -2.3610    -0.4520    -1.8010 H     1 <1>   0.0800 
 32 H       -3.7250     2.5200    -0.3380 H     1 <1>   0.0800 
 33 H       -2.8380     2.4770     1.1580 H     1 <1>   0.0800 
 34 H        0.1800     4.0660     2.0510 H     1 <1>   0.0800 
 35 H       -0.0090     4.8520     0.4970 H     1 <1>   0.0800 
 36 H        1.5800     4.6330     1.1800 H     1 <1>   0.0800 
 37 H        1.1050     1.7150     2.1800 H     1 <1>   0.0800 
 38 H        2.5420     2.3310     1.4060 H     1 <1>   0.0800 
 39 H        1.7370     0.9510     0.7360 H     1 <1>   0.0800 
 40 H        0.6410     3.6390    -1.6250 H     1 <1>   0.0800 
 41 H        1.4610     2.0940    -1.5260 H     1 <1>   0.0800 
 42 H        2.2530     3.5310    -0.9670 H     1 <1>   0.0800 
 43 H       -4.7350    -1.0660    -1.6220 H     1 <1>   0.0800 
 44 H       -4.5290     0.6360    -1.8290 H     1 <1>   0.0800 
 45 H       -5.1630     1.7630     1.5300 H     1 <1>   0.0800 
 46 H       -4.0010     0.5610     1.9310 H     1 <1>   0.0800 
 47 H       -7.6740    -1.1790     0.2170 H     1 <1>   0.1500 
 48 H       -5.8600     2.5350    -0.8450 H     1 <1>   0.1500 
 49 H       -8.0320     3.4020    -1.4680 H     1 <1>   0.1500 
 50 H       -9.4030    -2.3460    -0.0430 H     1 <1>   0.0800 
 51 H      -11.5410    -3.3140     0.3220 H     1 <1>   0.0800 
 52 H      -11.8800    -2.1630    -0.9520 H     1 <1>   0.0800 
 53 H       -9.4310    -0.6670     2.0870 H     1 <1>   0.0800 
 54 H       -9.9220    -2.3270     2.3150 H     1 <1>   0.0800 
 55 H      -12.2080     2.6740    -1.1130 H     1 <1>   0.0800 
 56 H      -11.4740     1.6930     0.1530 H     1 <1>   0.0800 
 57 H      -11.8090     0.9930    -1.4380 H     1 <1>   0.0800 
 58 H      -13.2390    -2.2060     1.4430 H     1 <1>   0.0800 
 59 H      -12.9750    -0.7210     0.5520 H     1 <1>   0.0800 
 60 H      -11.6540     0.0820     2.1860 H     1 <1>   0.0800 
 61 H      -11.8680    -1.3770     3.1310 H     1 <1>   0.0800 
@<TRIPOS>BOND
  1   1   2  2   
  2   2   3  1   
  3   2   4  am  
  4   3   5  1   
  5   4   6  1   
  6   4   7  1   
  7   5   8  1   
  8   5   9  1   
  9   5  10  1   
 10   6  11  1   
 11   6  30  1   
 12   6  31  1   
 13   7  12  1   
 14   7  32  1   
 15   7  33  1   
 16   8  34  1   
 17   8  35  1   
 18   8  36  1   
 19   9  37  1   
 20   9  38  1   
 21   9  39  1   
 22  10  40  1   
 23  10  41  1   
 24  10  42  1   
 25  11  13  1   
 26  11  43  1   
 27  11  44  1   
 28  12  13  1   
 29  12  45  1   
 30  12  46  1   
 31  13  14  1   
 32  13  15  1   
 33  14  16  3   
 34  15  17  ar  
 35  15  18  ar  
 36  17  19  ar  
 37  17  47  1   
 38  18  20  ar  
 39  18  48  1   
 40  19  21  1   
 41  19  22  ar  
 42  20  22  ar  
 43  20  49  1   
 44  21  23  1   
 45  22  24  1   
 46  23  25  1   
 47  23  26  1   
 48  23  50  1   
 49  24  27  1   
 50  25  28  1   
 51  25  51  1   
 52  25  52  1   
 53  26  29  1   
 54  26  53  1   
 55  26  54  1   
 56  27  55  1   
 57  27  56  1   
 58  27  57  1   
 59  28  29  1   
 60  28  58  1   
 61  28  59  1   
 62  29  60  1   
 63  29  61  1   
@<TRIPOS>SUBSTRUCTURE
  1 ****  13 GROUP 4 **** **** 0

# MOE 2024.06 (io_trps.svl 2023.06)
