@<TRIPOS>MOLECULE
NONAME
56 60 1 0 0 
SMALL
USER_CHARGES


@<TRIPOS>ATOM
  1 S       -1.9190    -2.6440     0.0040 S.3   1 <1>  -0.0800 
  2 C       -2.6120    -1.1720    -0.6900 C.2   1 <1>   0.0410 
  3 C       -0.8060    -2.8450    -1.3350 C.2   1 <1>  -0.1100 
  4 C       -3.6640    -0.4440    -0.0200 C.2   1 <1>   0.2880 
  5 C       -1.9770    -0.9130    -1.8600 C.2   1 <1>  -0.1500 
  6 C       -0.9670    -1.8520    -2.2270 C.2   1 <1>  -0.1500 
  7 N       -3.8870     0.8140    -0.2850 N.2   1 <1>  -0.7070 
  8 C       -4.5910    -0.9080     0.9250 C.2   1 <1>  -0.1810 
  9 N       -4.9180     1.2120     0.4920 N.pl3 1 <1>   0.5930 
 10 C       -5.3490     0.1640     1.2340 C.2   1 <1>  -0.3020 
 11 C       -4.7310    -2.3150     1.4650 C.3   1 <1>   0.5240 
 12 C       -5.4700     2.5240     0.4610 C.ar  1 <1>  -0.0230 
 13 N       -5.1240    -3.2710     0.3780 N.4   1 <1>  -0.9590 
 14 C       -6.8370     2.7390     0.6360 C.ar  1 <1>  -0.1500 
 15 C       -4.6490     3.6290     0.2480 C.ar  1 <1>  -0.1500 
 16 C       -6.4830    -3.1330    -0.2370 C.3   1 <1>   0.4230 
 17 C       -4.9200    -4.6730     0.8500 C.3   1 <1>   0.2630 
 18 C       -7.3620     4.0180     0.6010 C.ar  1 <1>  -0.1500 
 19 C       -5.1740     4.9090     0.2160 C.ar  1 <1>  -0.1500 
 20 C       -7.5930    -2.6420     0.6910 C.3   1 <1>  -0.1600 
 21 C       -6.5020    -2.1850    -1.4330 C.3   1 <1>  -0.1600 
 22 C       -6.5310     5.1040     0.3930 C.ar  1 <1>  -0.1500 
 23 C       -8.6860    -2.1360    -0.2580 C.3   1 <1>  -0.0800 
 24 C       -7.9490    -1.6790    -1.5410 C.3   1 <1>  -0.0800 
 25 C       -9.6230    -1.1010     0.4080 C.3   1 <1>   0.1400 
 26 C       -8.0210    -0.1620    -1.8010 C.3   1 <1>  -0.0990 
 27 N      -10.1500    -0.1510    -0.5900 N.am  1 <1>  -0.7300 
 28 C       -9.4360     0.3400    -1.6230 C.2   1 <1>   0.5690 
 29 O       -9.8990     1.1560    -2.3740 O.2   1 <1>  -0.5700 
 30 H       -0.1380    -3.6890    -1.3150 H     1 <1>   0.1500 
 31 H       -2.1930    -0.0610    -2.4830 H     1 <1>   0.1500 
 32 H       -0.4060    -1.7340    -3.1390 H     1 <1>   0.1500 
 33 H       -6.1660     0.2700     1.9230 H     1 <1>   0.1500 
 34 H       -5.4630    -2.3300     2.2550 H     1 <1>   0.0800 
 35 H       -3.7870    -2.6130     1.8920 H     1 <1>   0.0800 
 36 H       -4.4520    -3.1010    -0.3850 H     1 <1>   0.4500 
 37 H       -7.5070     1.9140     0.7930 H     1 <1>   0.1500 
 38 H       -3.5910     3.4870     0.1030 H     1 <1>   0.1500 
 39 H       -6.7910    -4.0960    -0.6150 H     1 <1>   0.0800 
 40 H       -5.5990    -4.9020     1.6560 H     1 <1>   0.0800 
 41 H       -3.9090    -4.8080     1.2000 H     1 <1>   0.0800 
 42 H       -5.0950    -5.3680     0.0450 H     1 <1>   0.0800 
 43 H       -8.4200     4.1720     0.7310 H     1 <1>   0.1500 
 44 H       -4.5260     5.7520     0.0500 H     1 <1>   0.1500 
 45 H       -7.9630    -3.4310     1.3220 H     1 <1>   0.0800 
 46 H       -7.2670    -1.8190     1.2950 H     1 <1>   0.0800 
 47 H       -5.8400    -1.3550    -1.2950 H     1 <1>   0.0800 
 48 H       -6.2170    -2.7020    -2.3320 H     1 <1>   0.0800 
 49 H       -6.9410     6.1000     0.3650 H     1 <1>   0.1500 
 50 H       -9.2960    -2.9810    -0.5320 H     1 <1>   0.0800 
 51 H       -8.4270    -2.1650    -2.3770 H     1 <1>   0.0800 
 52 H       -9.0950    -0.5330     1.1540 H     1 <1>   0.0800 
 53 H      -10.4430    -1.6070     0.8900 H     1 <1>   0.0800 
 54 H       -7.6920     0.0600    -2.8010 H     1 <1>   0.0800 
 55 H       -7.3950     0.3760    -1.1160 H     1 <1>   0.0800 
 56 H      -11.1000     0.2110    -0.4730 H     1 <1>   0.3700 
@<TRIPOS>BOND
  1   1   2  1   
  2   1   3  1   
  3   2   4  1   
  4   2   5  2   
  5   3   6  2   
  6   3  30  1   
  7   4   7  2   
  8   4   8  1   
  9   5   6  1   
 10   5  31  1   
 11   6  32  1   
 12   7   9  1   
 13   8  10  2   
 14   8  11  1   
 15   9  10  1   
 16   9  12  1   
 17  10  33  1   
 18  11  13  1   
 19  11  34  1   
 20  11  35  1   
 21  12  14  ar  
 22  12  15  ar  
 23  13  16  1   
 24  13  17  1   
 25  13  36  1   
 26  14  18  ar  
 27  14  37  1   
 28  15  19  ar  
 29  15  38  1   
 30  16  20  1   
 31  16  21  1   
 32  16  39  1   
 33  17  40  1   
 34  17  41  1   
 35  17  42  1   
 36  18  22  ar  
 37  18  43  1   
 38  19  22  ar  
 39  19  44  1   
 40  20  23  1   
 41  20  45  1   
 42  20  46  1   
 43  21  24  1   
 44  21  47  1   
 45  21  48  1   
 46  22  49  1   
 47  23  24  1   
 48  23  25  1   
 49  23  50  1   
 50  24  26  1   
 51  24  51  1   
 52  25  27  1   
 53  25  52  1   
 54  25  53  1   
 55  26  28  1   
 56  26  54  1   
 57  26  55  1   
 58  27  28  am  
 59  27  56  1   
 60  28  29  2   
@<TRIPOS>SUBSTRUCTURE
  1 ****  10 GROUP 4 **** **** 0

# MOE 2024.06 (io_trps.svl 2023.06)
