@<TRIPOS>MOLECULE
NONAME
22 22 1 0 0 
SMALL
USER_CHARGES


@<TRIPOS>ATOM
  1 O        0.1510    -0.0990     0.0030 O.2   1 <1>  -0.5700 
  2 C        1.1920    -0.7260    -0.0020 C.2   1 <1>   0.8060 
  3 O        2.3510    -0.0580    -0.0090 O.3   1 <1>  -0.4300 
  4 C        1.2560    -2.1680     0.0000 C.2   1 <1>  -0.0860 
  5 C        2.3870     1.3500    -0.0110 C.3   1 <1>   0.1200 
  6 C        2.3530    -2.9950    -0.0050 C.2   1 <1>  -0.3020 
  7 C        0.1470    -3.0390     0.0070 C.2   1 <1>  -0.1500 
  8 C        3.8490     1.7860    -0.0190 C.3   1 <1>  -0.2400 
  9 N        1.9690    -4.2900    -0.0020 N.pl3 1 <1>   0.0330 
 10 C        0.6100    -4.3140     0.0060 C.2   1 <1>  -0.3320 
 11 C       -0.1870    -5.6050     0.0120 C.3   1 <1>  -0.0600 
 12 H        1.8830     1.7060     0.8720 H     1 <1>   0.0800 
 13 H        1.8730     1.7040    -0.8890 H     1 <1>   0.0800 
 14 H        3.3880    -2.6990    -0.0110 H     1 <1>   0.1500 
 15 H       -0.8770    -2.7050     0.0120 H     1 <1>   0.1500 
 16 H        4.3510     1.4160     0.8570 H     1 <1>   0.0800 
 17 H        3.9080     2.8590    -0.0210 H     1 <1>   0.0800 
 18 H        4.3410     1.4140    -0.9000 H     1 <1>   0.0800 
 19 H        2.5850    -5.1110    -0.0040 H     1 <1>   0.2700 
 20 H       -1.2400    -5.3890     0.0170 H     1 <1>   0.0800 
 21 H        0.0490    -6.1830     0.8870 H     1 <1>   0.0800 
 22 H        0.0390    -6.1850    -0.8650 H     1 <1>   0.0800 
@<TRIPOS>BOND
  1   1   2  2   
  2   2   3  1   
  3   2   4  1   
  4   3   5  1   
  5   4   6  2   
  6   4   7  1   
  7   5   8  1   
  8   5  12  1   
  9   5  13  1   
 10   6   9  1   
 11   6  14  1   
 12   7  10  2   
 13   7  15  1   
 14   8  16  1   
 15   8  17  1   
 16   8  18  1   
 17   9  10  1   
 18   9  19  1   
 19  10  11  1   
 20  11  20  1   
 21  11  21  1   
 22  11  22  1   
@<TRIPOS>SUBSTRUCTURE
  1 ****   4 GROUP 4 **** **** 0

# MOE 2024.06 (io_trps.svl 2023.06)
