@<TRIPOS>MOLECULE
NONAME
46 47 1 0 0 
SMALL
USER_CHARGES


@<TRIPOS>ATOM
  1 F        1.3420    -0.6570    -1.6580 F     1 <1>  -0.3400 
  2 C        2.3070    -1.3170    -2.2940 C.3   1 <1>   1.1640 
  3 F        1.7310    -2.3840    -2.8400 F     1 <1>  -0.3400 
  4 F        2.6580    -0.5390    -3.3160 F     1 <1>  -0.3400 
  5 C        3.5030    -1.6820    -1.3750 C.ar  1 <1>   0.1660 
  6 N        3.2910    -2.3830    -0.2690 N.ar  1 <1>  -0.6200 
  7 C        4.7790    -1.2860    -1.6980 C.ar  1 <1>  -0.1500 
  8 C        4.3500    -2.6670     0.4820 C.ar  1 <1>   0.7200 
  9 C        5.8180    -1.6360    -0.8610 C.ar  1 <1>   0.4100 
 10 N        5.6040    -2.3220     0.2340 N.ar  1 <1>  -0.6200 
 11 N        4.1160    -3.3940     1.6340 N.pl3 1 <1>  -0.8380 
 12 N        7.1170    -1.2650    -1.1630 N.pl3 1 <1>  -0.8380 
 13 C        2.7440    -3.6000     2.1780 C.3   1 <1>   0.1290 
 14 C        5.2120    -4.0890     2.3640 C.3   1 <1>   0.1290 
 15 C        8.1380    -1.1520    -0.0760 C.3   1 <1>   0.2090 
 16 C        7.6880    -1.6480    -2.4840 C.3   1 <1>   0.1290 
 17 C        7.8480     0.0510     0.8340 C.3   1 <1>  -0.0800 
 18 C        7.9100     1.3690     0.0410 C.3   1 <1>   0.1400 
 19 C        8.9400     0.1880     1.9150 C.3   1 <1>  -0.0990 
 20 N        9.2530     1.9000     0.3380 N.am  1 <1>  -0.6600 
 21 C        9.8480     1.2520     1.3640 C.2   1 <1>   0.5690 
 22 C        9.8450     3.0050    -0.4440 C.3   1 <1>   0.1400 
 23 O       10.9550     1.4630     1.7950 O.2   1 <1>  -0.5700 
 24 C        9.0930     4.3010    -0.1530 C.3   1 <1>  -0.2400 
 25 H        4.9970    -0.7100    -2.5760 H     1 <1>   0.1500 
 26 H        2.1140    -2.7600     1.9430 H     1 <1>   0.0800 
 27 H        2.7810    -3.7040     3.2480 H     1 <1>   0.0800 
 28 H        2.3160    -4.4890     1.7490 H     1 <1>   0.0800 
 29 H        6.0220    -4.3280     1.6960 H     1 <1>   0.0800 
 30 H        4.8480    -5.0070     2.7930 H     1 <1>   0.0800 
 31 H        5.5810    -3.4520     3.1480 H     1 <1>   0.0800 
 32 H        9.1180    -1.0360    -0.5090 H     1 <1>   0.0800 
 33 H        8.1420    -2.0590     0.5060 H     1 <1>   0.0800 
 34 H        6.9160    -1.9770    -3.1570 H     1 <1>   0.0800 
 35 H        8.3920    -2.4530    -2.3590 H     1 <1>   0.0800 
 36 H        8.1940    -0.8030    -2.9190 H     1 <1>   0.0800 
 37 H        6.8820    -0.0790     1.2880 H     1 <1>   0.0800 
 38 H        7.1650     2.0580     0.4000 H     1 <1>   0.0800 
 39 H        7.7810     1.2180    -1.0170 H     1 <1>   0.0800 
 40 H        9.4790    -0.7240     2.0900 H     1 <1>   0.0800 
 41 H        8.5210     0.5440     2.8370 H     1 <1>   0.0800 
 42 H        9.7960     2.7690    -1.4930 H     1 <1>   0.0800 
 43 H       10.8810     3.1200    -0.1710 H     1 <1>   0.0800 
 44 H        8.0670     4.2240    -0.4640 H     1 <1>   0.0800 
 45 H        9.5510     5.1110    -0.6900 H     1 <1>   0.0800 
 46 H        9.1360     4.5210     0.8990 H     1 <1>   0.0800 
@<TRIPOS>BOND
  1   1   2  1   
  2   2   3  1   
  3   2   4  1   
  4   2   5  1   
  5   5   6  ar  
  6   5   7  ar  
  7   6   8  ar  
  8   7   9  ar  
  9   7  25  1   
 10   8  10  ar  
 11   8  11  1   
 12   9  10  ar  
 13   9  12  1   
 14  11  13  1   
 15  11  14  1   
 16  12  15  1   
 17  12  16  1   
 18  13  26  1   
 19  13  27  1   
 20  13  28  1   
 21  14  29  1   
 22  14  30  1   
 23  14  31  1   
 24  15  17  1   
 25  15  32  1   
 26  15  33  1   
 27  16  34  1   
 28  16  35  1   
 29  16  36  1   
 30  17  18  1   
 31  17  19  1   
 32  17  37  1   
 33  18  20  1   
 34  18  38  1   
 35  18  39  1   
 36  19  21  1   
 37  19  40  1   
 38  19  41  1   
 39  20  21  am  
 40  20  22  1   
 41  21  23  2   
 42  22  24  1   
 43  22  42  1   
 44  22  43  1   
 45  24  44  1   
 46  24  45  1   
 47  24  46  1   
@<TRIPOS>SUBSTRUCTURE
  1 ****   9 GROUP 4 **** **** 0

# MOE 2024.06 (io_trps.svl 2023.06)
