@<TRIPOS>MOLECULE
NONAME
52 54 1 0 0 
SMALL
USER_CHARGES


@<TRIPOS>ATOM
  1 S       -0.9320    -0.3920     0.9970 S.3   1 <1>  -0.0800 
  2 C       -0.1090     0.9580     0.3010 C.2   1 <1>   0.1980 
  3 C        0.5920    -1.2110     0.9920 C.2   1 <1>   0.1980 
  4 N        1.1320     0.7460     0.1200 N.2   1 <1>  -0.3380 
  5 C       -0.9100     2.2130    -0.0130 C.3   1 <1>   0.5230 
  6 N        1.5320    -0.4970     0.5190 N.2   1 <1>  -0.3380 
  7 C        0.6480    -2.6250     1.5260 C.3   1 <1>  -0.0600 
  8 N       -0.0130     3.3570    -0.3930 N.4   1 <1>  -0.9590 
  9 C        0.7970     3.8360     0.7670 C.3   1 <1>   0.3430 
 10 C       -0.7510     4.4580    -1.0700 C.3   1 <1>   0.3430 
 11 C        1.8210     4.8570     0.2790 C.3   1 <1>  -0.1600 
 12 C        0.2430     5.4950    -1.5860 C.3   1 <1>  -0.1600 
 13 C        1.1620     6.0320    -0.4700 C.3   1 <1>  -0.0190 
 14 C        2.2400     6.9620    -1.0460 C.2   1 <1>   0.5690 
 15 O        2.9370     6.4870    -1.9120 O.2   1 <1>  -0.5700 
 16 N        2.4210     8.2490    -0.6030 N.am  1 <1>  -0.6600 
 17 C        3.5480     9.0650    -1.1550 C.3   1 <1>   0.2840 
 18 C        1.5820     8.9600     0.4010 C.3   1 <1>   0.1400 
 19 C        4.6730     9.1650    -0.1370 C.ar  1 <1>  -0.1430 
 20 C        1.9830     8.5630     1.8220 C.3   1 <1>  -0.2400 
 21 C        5.4420     8.0470     0.1510 C.ar  1 <1>  -0.1500 
 22 C        4.9430    10.3610     0.5120 C.ar  1 <1>  -0.1500 
 23 C        6.4640     8.1200     1.0800 C.ar  1 <1>  -0.1500 
 24 C        5.9660    10.4350     1.4420 C.ar  1 <1>  -0.1500 
 25 C        6.7260     9.3150     1.7270 C.ar  1 <1>  -0.1500 
 26 H       -1.5040     2.4800     0.8450 H     1 <1>   0.0800 
 27 H       -1.5770     1.9870    -0.8280 H     1 <1>   0.0800 
 28 H        0.0020    -3.2610     0.9500 H     1 <1>   0.0800 
 29 H        0.3390    -2.6420     2.5550 H     1 <1>   0.0800 
 30 H        1.6540    -2.9990     1.4590 H     1 <1>   0.0800 
 31 H        0.6710     2.9650    -1.0610 H     1 <1>   0.4500 
 32 H        1.3180     3.0090     1.2260 H     1 <1>   0.0800 
 33 H        0.1560     4.2880     1.5060 H     1 <1>   0.0800 
 34 H       -1.4320     4.9250    -0.3760 H     1 <1>   0.0800 
 35 H       -1.3210     4.0700    -1.8990 H     1 <1>   0.0800 
 36 H        2.5300     4.3620    -0.3620 H     1 <1>   0.0800 
 37 H        2.3720     5.2350     1.1230 H     1 <1>   0.0800 
 38 H       -0.2970     6.3160    -2.0250 H     1 <1>   0.0800 
 39 H        0.8340     5.0510    -2.3690 H     1 <1>   0.0800 
 40 H        0.5480     6.5660     0.2270 H     1 <1>   0.0800 
 41 H        3.1900    10.0460    -1.4120 H     1 <1>   0.0800 
 42 H        3.9350     8.6250    -2.0580 H     1 <1>   0.0800 
 43 H        0.5420     8.7420     0.2310 H     1 <1>   0.0800 
 44 H        1.7040    10.0240     0.2860 H     1 <1>   0.0800 
 45 H        1.8600     7.5100     1.9850 H     1 <1>   0.0800 
 46 H        1.3680     9.0900     2.5290 H     1 <1>   0.0800 
 47 H        3.0070     8.8280     2.0120 H     1 <1>   0.0800 
 48 H        5.2410     7.1160    -0.3520 H     1 <1>   0.1500 
 49 H        4.3600    11.2390     0.2990 H     1 <1>   0.1500 
 50 H        7.0550     7.2480     1.2980 H     1 <1>   0.1500 
 51 H        6.1710    11.3650     1.9440 H     1 <1>   0.1500 
 52 H        7.5210     9.3730     2.4500 H     1 <1>   0.1500 
@<TRIPOS>BOND
  1   1   2  1   
  2   1   3  1   
  3   2   4  2   
  4   2   5  1   
  5   3   6  2   
  6   3   7  1   
  7   4   6  1   
  8   5   8  1   
  9   5  26  1   
 10   5  27  1   
 11   7  28  1   
 12   7  29  1   
 13   7  30  1   
 14   8   9  1   
 15   8  10  1   
 16   8  31  1   
 17   9  11  1   
 18   9  32  1   
 19   9  33  1   
 20  10  12  1   
 21  10  34  1   
 22  10  35  1   
 23  11  13  1   
 24  11  36  1   
 25  11  37  1   
 26  12  13  1   
 27  12  38  1   
 28  12  39  1   
 29  13  14  1   
 30  13  40  1   
 31  14  15  2   
 32  14  16  am  
 33  16  17  1   
 34  16  18  1   
 35  17  19  1   
 36  17  41  1   
 37  17  42  1   
 38  18  20  1   
 39  18  43  1   
 40  18  44  1   
 41  19  21  ar  
 42  19  22  ar  
 43  20  45  1   
 44  20  46  1   
 45  20  47  1   
 46  21  23  ar  
 47  21  48  1   
 48  22  24  ar  
 49  22  49  1   
 50  23  25  ar  
 51  23  50  1   
 52  24  25  ar  
 53  24  51  1   
 54  25  52  1   
@<TRIPOS>SUBSTRUCTURE
  1 ****  11 GROUP 4 **** **** 0

# MOE 2024.06 (io_trps.svl 2023.06)
