@<TRIPOS>MOLECULE
NONAME
56 58 1 0 0 
SMALL
USER_CHARGES


@<TRIPOS>ATOM
  1 O       -2.3610     1.6530    -1.9200 O.2   1 <1>  -0.5700 
  2 C       -2.2230     0.8090    -1.0630 C.2   1 <1>   0.5690 
  3 N       -2.9650    -0.3500    -1.1080 N.am  1 <1>  -0.6600 
  4 C       -1.1980     1.1060     0.0450 C.3   1 <1>  -0.0190 
  5 C       -2.8430    -1.4680    -0.1010 C.3   1 <1>   0.3640 
  6 C       -4.0210    -0.4660    -2.1610 C.3   1 <1>   0.1400 
  7 C       -1.4200     2.4920     0.6840 C.3   1 <1>  -0.1600 
  8 C        0.2450     0.9960    -0.4880 C.3   1 <1>  -0.1600 
  9 C       -1.4410    -2.0770    -0.2000 C.ar  1 <1>  -0.1430 
 10 C       -3.8960    -2.6180    -0.1970 C.3   1 <1>   0.2000 
 11 C       -4.5840    -1.8800    -2.3070 C.3   1 <1>   0.1200 
 12 C       -0.4010     2.7570     1.8050 C.3   1 <1>  -0.1600 
 13 C        1.2730     1.2480     0.6250 C.3   1 <1>  -0.1600 
 14 C       -0.6880    -2.2710     0.9470 C.ar  1 <1>  -0.1500 
 15 C       -0.8930    -2.4340    -1.4230 C.ar  1 <1>  -0.1500 
 16 O       -4.9680    -2.3440    -1.0560 O.3   1 <1>  -0.5600 
 17 C       -4.5130    -2.9540     1.1690 C.3   1 <1>   0.1200 
 18 C        1.0330     2.6060     1.2900 C.3   1 <1>   0.2000 
 19 C        0.5930    -2.7940     0.8980 C.ar  1 <1>   0.0830 
 20 C        0.3850    -2.9590    -1.4950 C.ar  1 <1>  -0.1500 
 21 O       -3.5290    -3.2460     2.1100 O.3   1 <1>  -0.6800 
 22 O        1.8900     2.7170     2.3610 O.3   1 <1>  -0.6800 
 23 O        1.1950    -2.9140     2.1170 O.3   1 <1>  -0.3630 
 24 C        1.1520    -3.1350    -0.3460 C.ar  1 <1>   0.0830 
 25 C        2.2520    -3.8160     2.3500 C.3   1 <1>   0.0400 
 26 O        2.4280    -3.6130    -0.4230 O.3   1 <1>  -0.3630 
 27 C        3.1370    -3.6580    -1.6420 C.3   1 <1>   0.0400 
 28 H       -1.3080     0.3970     0.8380 H     1 <1>   0.0800 
 29 H       -2.9510    -1.0260     0.8730 H     1 <1>   0.0800 
 30 H       -4.8270     0.2040    -1.9150 H     1 <1>   0.0800 
 31 H       -3.6170    -0.1530    -3.1090 H     1 <1>   0.0800 
 32 H       -1.3260     3.2550    -0.0710 H     1 <1>   0.0800 
 33 H       -2.4180     2.5490     1.0830 H     1 <1>   0.0800 
 34 H        0.4070     0.0170    -0.9040 H     1 <1>   0.0800 
 35 H        0.3860     1.7130    -1.2790 H     1 <1>   0.0800 
 36 H       -3.4210    -3.5050    -0.5770 H     1 <1>   0.0800 
 37 H       -3.8580    -2.5520    -2.7320 H     1 <1>   0.0800 
 38 H       -5.4550    -1.8670    -2.9370 H     1 <1>   0.0800 
 39 H       -0.5740     2.0590     2.6060 H     1 <1>   0.0800 
 40 H       -0.5400     3.7550     2.1830 H     1 <1>   0.0800 
 41 H        2.2630     1.2250     0.2050 H     1 <1>   0.0800 
 42 H        1.1920     0.4610     1.3540 H     1 <1>   0.0800 
 43 H       -1.0910    -2.0120     1.9110 H     1 <1>   0.1500 
 44 H       -1.4560    -2.2930    -2.3290 H     1 <1>   0.1500 
 45 H       -5.1660    -3.8060     1.0890 H     1 <1>   0.0800 
 46 H       -5.0720    -2.1110     1.5360 H     1 <1>   0.0800 
 47 H        1.2630     3.4020     0.6000 H     1 <1>   0.0800 
 48 H        0.7640    -3.2190    -2.4650 H     1 <1>   0.1500 
 49 H       -3.0760    -4.0880     1.8990 H     1 <1>   0.4000 
 50 H        1.7530     1.9660     2.9670 H     1 <1>   0.4000 
 51 H        2.3670    -3.9300     3.4130 H     1 <1>   0.0800 
 52 H        3.1540    -3.4110     1.9290 H     1 <1>   0.0800 
 53 H        2.0110    -4.7640     1.9020 H     1 <1>   0.0800 
 54 H        4.1530    -3.9340    -1.4270 H     1 <1>   0.0800 
 55 H        3.1120    -2.6840    -2.0980 H     1 <1>   0.0800 
 56 H        2.6880    -4.3970    -2.2810 H     1 <1>   0.0800 
@<TRIPOS>BOND
  1   1   2  2   
  2   2   3  am  
  3   2   4  1   
  4   3   5  1   
  5   3   6  1   
  6   4   7  1   
  7   4   8  1   
  8   4  28  1   
  9   5   9  1   
 10   5  10  1   
 11   5  29  1   
 12   6  11  1   
 13   6  30  1   
 14   6  31  1   
 15   7  12  1   
 16   7  32  1   
 17   7  33  1   
 18   8  13  1   
 19   8  34  1   
 20   8  35  1   
 21   9  14  ar  
 22   9  15  ar  
 23  10  16  1   
 24  10  17  1   
 25  10  36  1   
 26  11  16  1   
 27  11  37  1   
 28  11  38  1   
 29  12  18  1   
 30  12  39  1   
 31  12  40  1   
 32  13  18  1   
 33  13  41  1   
 34  13  42  1   
 35  14  19  ar  
 36  14  43  1   
 37  15  20  ar  
 38  15  44  1   
 39  17  21  1   
 40  17  45  1   
 41  17  46  1   
 42  18  22  1   
 43  18  47  1   
 44  19  23  1   
 45  19  24  ar  
 46  20  24  ar  
 47  20  48  1   
 48  21  49  1   
 49  22  50  1   
 50  23  25  1   
 51  24  26  1   
 52  25  51  1   
 53  25  52  1   
 54  25  53  1   
 55  26  27  1   
 56  27  54  1   
 57  27  55  1   
 58  27  56  1   
@<TRIPOS>SUBSTRUCTURE
  1 ****   9 GROUP 4 **** **** 0

# MOE 2024.06 (io_trps.svl 2023.06)
