@<TRIPOS>MOLECULE
NONAME
51 54 1 0 0 
SMALL
USER_CHARGES


@<TRIPOS>ATOM
  1 S       -0.1370     0.7920    -0.7870 S.3   1 <1>  -0.0800 
  2 C       -0.6500     2.2320    -1.6600 C.2   1 <1>  -0.0450 
  3 C        1.1620     0.4350    -1.9260 C.2   1 <1>  -0.0450 
  4 C       -1.7670     2.9980    -1.1730 C.2   1 <1>   0.7150 
  5 C        0.1460     2.3800    -2.7490 C.2   1 <1>  -0.1500 
  6 C        2.0080    -0.7070    -1.7360 C.2   1 <1>   0.5940 
  7 C        1.1510     1.3910    -2.8920 C.2   1 <1>  -0.1500 
  8 O       -2.8010     2.9490    -1.8110 O.2   1 <1>  -0.5700 
  9 N       -1.6560     3.7890    -0.0380 N.am  1 <1>  -0.6600 
 10 O        2.9300    -0.9590    -2.4700 O.2   1 <1>  -0.5700 
 11 C        1.7680    -1.6550    -0.5790 C.3   1 <1>  -0.1790 
 12 C       -2.7400     4.6170     0.6160 C.3   1 <1>   0.2200 
 13 C       -0.3400     3.8450     0.6820 C.3   1 <1>   0.1400 
 14 C       -2.3470     6.1200     0.8080 C.3   1 <1>   0.1380 
 15 C       -4.2000     4.4870     0.1330 C.3   1 <1>  -0.1600 
 16 C       -0.2830     4.9200     1.7800 C.3   1 <1>  -0.1600 
 17 C       -2.4530     6.9960    -0.4790 C.2   1 <1>  -0.2760 
 18 C       -3.2940     6.6020     1.9560 C.3   1 <1>   0.1200 
 19 C       -0.8690     6.2430     1.2720 C.3   1 <1>  -0.1600 
 20 C       -5.0720     5.5950     0.7390 C.3   1 <1>   0.1200 
 21 C       -2.5530     6.5240    -1.7300 C.2   1 <1>  -0.2880 
 22 C       -2.3460     8.5190    -0.3130 C.3   1 <1>  -0.0220 
 23 O       -4.5540     5.9720     1.9770 O.3   1 <1>  -0.5600 
 24 C       -2.5700     7.3840    -2.9850 C.3   1 <1>   0.2580 
 25 C       -2.7190     9.2660    -1.6040 C.3   1 <1>   0.1200 
 26 O       -2.1010     8.6670    -2.6980 O.3   1 <1>  -0.5600 
 27 H        0.0400     3.1760    -3.4660 H     1 <1>   0.1500 
 28 H        1.8430     1.4120    -3.7170 H     1 <1>   0.1500 
 29 H        0.7750    -2.0590    -0.6370 H     1 <1>   0.0800 
 30 H        1.8920    -1.1340     0.3520 H     1 <1>   0.0800 
 31 H        2.4730    -2.4650    -0.6190 H     1 <1>   0.0800 
 32 H       -2.7930     4.2140     1.6140 H     1 <1>   0.0800 
 33 H       -0.1350     2.8870     1.1250 H     1 <1>   0.0800 
 34 H        0.4340     4.0550    -0.0380 H     1 <1>   0.0800 
 35 H       -4.5850     3.5280     0.4240 H     1 <1>   0.0800 
 36 H       -4.2990     4.5740    -0.9290 H     1 <1>   0.0800 
 37 H       -0.8150     4.5820     2.6520 H     1 <1>   0.0800 
 38 H        0.7430     5.0670     2.0700 H     1 <1>   0.0800 
 39 H       -3.4620     7.6570     1.9520 H     1 <1>   0.0800 
 40 H       -2.8420     6.3630     2.9030 H     1 <1>   0.0800 
 41 H       -0.2620     6.5490     0.4360 H     1 <1>   0.0800 
 42 H       -0.7690     7.0060     2.0240 H     1 <1>   0.0800 
 43 H       -6.0800     5.2490     0.8870 H     1 <1>   0.0800 
 44 H       -5.0920     6.4650     0.1040 H     1 <1>   0.0800 
 45 H       -2.6110     5.4850    -1.9830 H     1 <1>   0.1500 
 46 H       -1.3410     8.7830    -0.0400 H     1 <1>   0.0800 
 47 H       -3.0020     8.8950     0.4450 H     1 <1>   0.0800 
 48 H       -3.5650     7.4590    -3.3880 H     1 <1>   0.0800 
 49 H       -1.9170     6.9670    -3.7310 H     1 <1>   0.0800 
 50 H       -2.3910    10.2890    -1.5560 H     1 <1>   0.0800 
 51 H       -3.7840     9.2450    -1.7620 H     1 <1>   0.0800 
@<TRIPOS>BOND
  1   1   2  1   
  2   1   3  1   
  3   2   4  1   
  4   2   5  2   
  5   3   6  1   
  6   3   7  2   
  7   4   8  2   
  8   4   9  am  
  9   5   7  1   
 10   5  27  1   
 11   6  10  2   
 12   6  11  1   
 13   7  28  1   
 14   9  12  1   
 15   9  13  1   
 16  11  29  1   
 17  11  30  1   
 18  11  31  1   
 19  12  14  1   
 20  12  15  1   
 21  12  32  1   
 22  13  16  1   
 23  13  33  1   
 24  13  34  1   
 25  14  17  1   
 26  14  18  1   
 27  14  19  1   
 28  15  20  1   
 29  15  35  1   
 30  15  36  1   
 31  16  19  1   
 32  16  37  1   
 33  16  38  1   
 34  17  21  2   
 35  17  22  1   
 36  18  23  1   
 37  18  39  1   
 38  18  40  1   
 39  19  41  1   
 40  19  42  1   
 41  20  23  1   
 42  20  43  1   
 43  20  44  1   
 44  21  24  1   
 45  21  45  1   
 46  22  25  1   
 47  22  46  1   
 48  22  47  1   
 49  24  26  1   
 50  24  48  1   
 51  24  49  1   
 52  25  26  1   
 53  25  50  1   
 54  25  51  1   
@<TRIPOS>SUBSTRUCTURE
  1 ****   9 GROUP 4 **** **** 0

# MOE 2024.06 (io_trps.svl 2023.06)
