@<TRIPOS>MOLECULE
NONAME
44 45 1 0 0 
SMALL
USER_CHARGES


@<TRIPOS>ATOM
  1 O       -0.7130     1.7030     1.3790 O.2   1 <1>  -0.5700 
  2 C       -0.1600     1.9230     0.3280 C.2   1 <1>   0.5690 
  3 N       -0.6720     1.5140    -0.8660 N.am  1 <1>  -0.4940 
  4 C        1.1550     2.6780     0.3280 C.3   1 <1>  -0.0990 
  5 C       -1.8490     0.8070    -1.0940 C.2   1 <1>   0.2510 
  6 C        2.3570     1.7400     0.1320 C.3   1 <1>  -0.1600 
  7 N       -2.2600     0.4450    -2.2630 N.2   1 <1>  -0.3380 
  8 N       -2.6930     0.4140    -0.1420 N.pl3 1 <1>   0.0330 
  9 C        3.6810     2.5130     0.1720 C.3   1 <1>  -0.1600 
 10 N       -3.4150    -0.2110    -2.0800 N.2   1 <1>  -0.3380 
 11 C       -3.6590    -0.2200    -0.8130 C.2   1 <1>   0.0060 
 12 C        4.8730     1.5660    -0.0230 C.3   1 <1>  -0.1600 
 13 C       -4.8590    -0.8550    -0.1160 C.3   1 <1>   0.1000 
 14 C        6.2050     2.3230     0.0350 C.3   1 <1>   0.0960 
 15 C       -4.4520    -2.1850     0.5260 C.3   1 <1>  -0.2400 
 16 C       -6.0320    -1.0750    -1.0810 C.3   1 <1>  -0.2400 
 17 N        7.3310     1.3910    -0.1670 N.pl3 1 <1>   0.0480 
 18 C        7.9690     0.6740     0.7960 C.2   1 <1>  -0.3020 
 19 C        7.9200     1.0800    -1.3530 C.2   1 <1>  -0.3020 
 20 C        8.9470    -0.0790     0.2300 C.2   1 <1>  -0.1500 
 21 C        8.9160     0.1800    -1.1430 C.2   1 <1>  -0.1500 
 22 H       -0.1500     1.7240    -1.7140 H     1 <1>   0.3700 
 23 H        1.2490     3.1900     1.2690 H     1 <1>   0.0800 
 24 H        1.1330     3.4210    -0.4490 H     1 <1>   0.0800 
 25 H        2.2670     1.2290    -0.8120 H     1 <1>   0.0800 
 26 H        2.3520     0.9970     0.9120 H     1 <1>   0.0800 
 27 H       -2.5660     0.5860     0.8590 H     1 <1>   0.2700 
 28 H        3.7740     3.0130     1.1210 H     1 <1>   0.0800 
 29 H        3.6870     3.2600    -0.6040 H     1 <1>   0.0800 
 30 H        4.7890     1.0740    -0.9770 H     1 <1>   0.0800 
 31 H        4.8630     0.8140     0.7480 H     1 <1>   0.0800 
 32 H       -5.1920    -0.1850     0.6590 H     1 <1>   0.0800 
 33 H        6.3230     2.8000     0.9910 H     1 <1>   0.0800 
 34 H        6.2420     3.0750    -0.7320 H     1 <1>   0.0800 
 35 H       -4.1000    -2.8660    -0.2290 H     1 <1>   0.0800 
 36 H       -5.2900    -2.6310     1.0310 H     1 <1>   0.0800 
 37 H       -3.6640    -2.0310     1.2410 H     1 <1>   0.0800 
 38 H       -5.7490    -1.7580    -1.8640 H     1 <1>   0.0800 
 39 H       -6.3140    -0.1410    -1.5340 H     1 <1>   0.0800 
 40 H       -6.8810    -1.4760    -0.5600 H     1 <1>   0.0800 
 41 H        7.6940     0.7340     1.8340 H     1 <1>   0.1500 
 42 H        7.6020     1.5130    -2.2840 H     1 <1>   0.1500 
 43 H        9.6290    -0.7540     0.7180 H     1 <1>   0.1500 
 44 H        9.5700    -0.2640    -1.8730 H     1 <1>   0.1500 
@<TRIPOS>BOND
  1   1   2  2   
  2   2   3  am  
  3   2   4  1   
  4   3   5  1   
  5   3  22  1   
  6   4   6  1   
  7   4  23  1   
  8   4  24  1   
  9   5   7  2   
 10   5   8  1   
 11   6   9  1   
 12   6  25  1   
 13   6  26  1   
 14   7  10  1   
 15   8  11  1   
 16   8  27  1   
 17   9  12  1   
 18   9  28  1   
 19   9  29  1   
 20  10  11  2   
 21  11  13  1   
 22  12  14  1   
 23  12  30  1   
 24  12  31  1   
 25  13  15  1   
 26  13  16  1   
 27  13  32  1   
 28  14  17  1   
 29  14  33  1   
 30  14  34  1   
 31  15  35  1   
 32  15  36  1   
 33  15  37  1   
 34  16  38  1   
 35  16  39  1   
 36  16  40  1   
 37  17  18  1   
 38  17  19  1   
 39  18  20  2   
 40  18  41  1   
 41  19  21  2   
 42  19  42  1   
 43  20  21  1   
 44  20  43  1   
 45  21  44  1   
@<TRIPOS>SUBSTRUCTURE
  1 ****   6 GROUP 4 **** **** 0

# MOE 2024.06 (io_trps.svl 2023.06)
