@<TRIPOS>MOLECULE
Untitled Document
61 64 1 0 0 
SMALL
USER_CHARGES


@<TRIPOS>ATOM
  1 O        0.4050    -0.5800     2.5430 O.2   1 <1>  -0.5700 
  2 C        0.1890    -1.4140     1.6880 C.2   1 <1>   0.5440 
  3 N       -1.0120    -1.4140     1.0170 N.am  1 <1>  -0.5470 
  4 C        1.1990    -2.3950     1.3390 C.ar  1 <1>   0.0860 
  5 C       -2.1700    -0.6520     1.2390 C.ar  1 <1>   0.1170 
  6 C        2.5530    -2.0660     1.3570 C.ar  1 <1>  -0.1500 
  7 C        0.8610    -3.6990     0.9700 C.ar  1 <1>  -0.1500 
  8 C       -2.9810    -0.3260     0.1610 C.ar  1 <1>  -0.1500 
  9 C       -2.5490    -0.2290     2.5080 C.ar  1 <1>  -0.1500 
 10 C        3.5320    -2.9790     1.0080 C.ar  1 <1>   0.0830 
 11 C        1.8290    -4.6230     0.6200 C.ar  1 <1>  -0.1500 
 12 C       -4.1460     0.4170     0.3130 C.ar  1 <1>   0.0530 
 13 C       -3.6980     0.5150     2.6900 C.ar  1 <1>  -0.1500 
 14 O        4.8160    -2.5460     1.0540 O.3   1 <1>  -0.3630 
 15 C        3.1650    -4.2680     0.6350 C.ar  1 <1>  -0.1500 
 16 C       -4.4850     0.8510     1.6030 C.ar  1 <1>   0.0830 
 17 C       -4.9570     0.7150    -0.8400 C.2   1 <1>  -0.2050 
 18 C        5.8950    -3.4050     0.7600 C.3   1 <1>   0.0400 
 19 O       -5.5900     1.6060     1.8340 O.3   1 <1>  -0.3630 
 20 N       -6.2390     0.3030    -1.0140 N.pl3 1 <1>   0.3140 
 21 C       -4.6600     1.4560    -1.9390 C.2   1 <1>  -0.1500 
 22 C       -5.5820     2.9360     1.3550 C.3   1 <1>   0.1200 
 23 N       -6.7940     0.8490    -2.1110 N.2   1 <1>  -0.7070 
 24 C       -6.9840    -0.6400    -0.1630 C.3   1 <1>   0.0160 
 25 C       -5.8270     1.5020    -2.6820 C.2   1 <1>   0.1390 
 26 C       -6.8530     3.1370     0.5160 C.3   1 <1>   0.3430 
 27 N       -6.9280     4.4280    -0.2470 N.4   1 <1>  -0.9590 
 28 C       -8.0790     4.3300    -1.2160 C.3   1 <1>   0.3430 
 29 C       -5.6650     4.7450    -1.0070 C.3   1 <1>   0.3430 
 30 C       -8.1560     5.5520    -2.1510 C.3   1 <1>   0.1200 
 31 C       -5.8460     5.9590    -1.9380 C.3   1 <1>   0.1200 
 32 O       -6.9300     5.7520    -2.7930 O.3   1 <1>  -0.5600 
 33 H       -1.0230    -1.9840     0.1740 H     1 <1>   0.3700 
 34 H        2.8490    -1.0730     1.6490 H     1 <1>   0.1500 
 35 H       -0.1720    -4.0010     0.9670 H     1 <1>   0.1500 
 36 H       -2.7040    -0.6530    -0.8240 H     1 <1>   0.1500 
 37 H       -1.9400    -0.4830     3.3590 H     1 <1>   0.1500 
 38 H        1.5440    -5.6230     0.3390 H     1 <1>   0.1500 
 39 H       -3.9800     0.8390     3.6760 H     1 <1>   0.1500 
 40 H        3.9000    -5.0010     0.3580 H     1 <1>   0.1500 
 41 H        6.8070    -2.8470     0.8790 H     1 <1>   0.0800 
 42 H        5.8050    -3.7440    -0.2570 H     1 <1>   0.0800 
 43 H        5.8810    -4.2320     1.4470 H     1 <1>   0.0800 
 44 H       -3.7230     1.9200    -2.1930 H     1 <1>   0.1500 
 45 H       -4.6900     3.0810     0.7730 H     1 <1>   0.0800 
 46 H       -5.5730     3.5890     2.2090 H     1 <1>   0.0800 
 47 H       -6.3570    -1.4820     0.0650 H     1 <1>   0.0800 
 48 H       -7.8570    -0.9780    -0.6900 H     1 <1>   0.0800 
 49 H       -7.2770    -0.1510     0.7460 H     1 <1>   0.0800 
 50 H       -5.9370     2.0170    -3.6240 H     1 <1>   0.1500 
 51 H       -7.7080     3.0570     1.1660 H     1 <1>   0.0800 
 52 H       -6.9100     2.3340    -0.1930 H     1 <1>   0.0800 
 53 H       -7.1190     5.2020     0.4020 H     1 <1>   0.4500 
 54 H       -9.0080     4.2350    -0.6780 H     1 <1>   0.0800 
 55 H       -7.9630     3.4460    -1.8260 H     1 <1>   0.0800 
 56 H       -5.3850     3.8980    -1.6110 H     1 <1>   0.0800 
 57 H       -4.8590     4.9460    -0.3210 H     1 <1>   0.0800 
 58 H       -8.4130     6.4450    -1.6070 H     1 <1>   0.0800 
 59 H       -8.8990     5.3890    -2.9120 H     1 <1>   0.0800 
 60 H       -4.9690     6.0910    -2.5490 H     1 <1>   0.0800 
 61 H       -6.0110     6.8630    -1.3760 H     1 <1>   0.0800 
@<TRIPOS>BOND
  1   1   2  2   
  2   2   3  am  
  3   2   4  1   
  4   3   5  1   
  5   3  33  1   
  6   4   6  ar  
  7   4   7  ar  
  8   5   8  ar  
  9   5   9  ar  
 10   6  10  ar  
 11   6  34  1   
 12   7  11  ar  
 13   7  35  1   
 14   8  12  ar  
 15   8  36  1   
 16   9  13  ar  
 17   9  37  1   
 18  10  14  1   
 19  10  15  ar  
 20  11  15  ar  
 21  11  38  1   
 22  12  16  ar  
 23  12  17  1   
 24  13  16  ar  
 25  13  39  1   
 26  14  18  1   
 27  15  40  1   
 28  16  19  1   
 29  17  20  1   
 30  17  21  2   
 31  18  41  1   
 32  18  42  1   
 33  18  43  1   
 34  19  22  1   
 35  20  23  1   
 36  20  24  1   
 37  21  25  1   
 38  21  44  1   
 39  22  26  1   
 40  22  45  1   
 41  22  46  1   
 42  23  25  2   
 43  24  47  1   
 44  24  48  1   
 45  24  49  1   
 46  25  50  1   
 47  26  27  1   
 48  26  51  1   
 49  26  52  1   
 50  27  28  1   
 51  27  29  1   
 52  27  53  1   
 53  28  30  1   
 54  28  54  1   
 55  28  55  1   
 56  29  31  1   
 57  29  56  1   
 58  29  57  1   
 59  30  32  1   
 60  30  58  1   
 61  30  59  1   
 62  31  32  1   
 63  31  60  1   
 64  31  61  1   
@<TRIPOS>SUBSTRUCTURE
  1 ****   8 GROUP 4 **** **** 0

# MOE 2024.06 (io_trps.svl 2023.06)
