@<TRIPOS>MOLECULE
NONAME
53 56 1 0 0 
SMALL
USER_CHARGES


@<TRIPOS>ATOM
  1 O       -2.8230     2.1620     2.2950 O.2   1 <1>  -0.5700 
  2 C       -2.9010     1.8220     1.1380 C.2   1 <1>   0.6300 
  3 N       -3.9670     1.0920     0.6690 N.am  1 <1>  -0.6600 
  4 C       -1.7450     2.2070     0.2150 C.3   1 <1>  -0.0950 
  5 C       -4.1200     0.5730    -0.7190 C.3   1 <1>   0.1400 
  6 C       -5.1080     0.7350     1.5580 C.3   1 <1>   0.1400 
  7 C       -1.2540     3.6290     0.2470 C.3   1 <1>  -0.2000 
  8 C       -2.0050     3.1270    -0.9510 C.3   1 <1>  -0.2000 
  9 C       -0.7340     1.0500     0.1630 C.3   1 <1>   0.2150 
 10 C       -4.2370    -0.9520    -0.6770 C.3   1 <1>  -0.1600 
 11 C       -5.2350    -0.7880     1.6280 C.3   1 <1>  -0.1600 
 12 O        0.3230     1.3450    -0.6840 O.3   1 <1>  -0.6800 
 13 C       -5.3870    -1.4140     0.2300 C.3   1 <1>   0.4240 
 14 O       -6.5530    -0.8920    -0.3620 O.3   1 <1>  -0.5600 
 15 C       -5.4260    -2.9550     0.3060 C.ar  1 <1>  -0.1440 
 16 C       -7.7660    -1.4990    -0.0390 C.3   1 <1>   0.1200 
 17 C       -6.5500    -3.6700    -0.0870 C.ar  1 <1>  -0.1440 
 18 C       -4.3280    -3.6650     0.7760 C.ar  1 <1>  -0.1500 
 19 C       -7.7670    -2.9210    -0.5920 C.3   1 <1>  -0.0170 
 20 C       -6.5670    -5.0530    -0.0150 C.ar  1 <1>  -0.1500 
 21 C       -4.3230    -5.0470     0.8480 C.ar  1 <1>   0.0820 
 22 C       -5.4650    -5.7630     0.4560 C.ar  1 <1>   0.0820 
 23 O       -3.1590    -5.5840     1.3160 O.3   1 <1>  -0.3630 
 24 O       -5.4900    -7.1260     0.5560 O.3   1 <1>  -0.3620 
 25 C       -2.7330    -6.8750     0.9420 C.3   1 <1>   0.0400 
 26 C       -6.6590    -7.8780     0.3160 C.3   1 <1>   0.0400 
 27 H       -3.2850     0.8460    -1.3370 H     1 <1>   0.0800 
 28 H       -5.0090     0.9980    -1.1560 H     1 <1>   0.0800 
 29 H       -6.0120     1.1640     1.1590 H     1 <1>   0.0800 
 30 H       -4.9630     1.1310     2.5480 H     1 <1>   0.0800 
 31 H       -0.1970     3.8180     0.1660 H     1 <1>   0.1000 
 32 H       -1.7380     4.3180     0.9190 H     1 <1>   0.1000 
 33 H       -3.0040     3.4980    -1.1060 H     1 <1>   0.1000 
 34 H       -1.4670     3.0110    -1.8750 H     1 <1>   0.1000 
 35 H       -1.2070     0.1540    -0.2010 H     1 <1>   0.0800 
 36 H       -0.3310     0.8570     1.1430 H     1 <1>   0.0800 
 37 H       -3.3050    -1.3520    -0.3260 H     1 <1>   0.0800 
 38 H       -4.4000    -1.3340    -1.6680 H     1 <1>   0.0800 
 39 H       -6.0680    -1.0600     2.2480 H     1 <1>   0.0800 
 40 H       -4.3530    -1.1740     2.1020 H     1 <1>   0.0800 
 41 H       -0.0090     1.8370    -1.4580 H     1 <1>   0.4000 
 42 H       -8.5540    -0.9200    -0.4870 H     1 <1>   0.0800 
 43 H       -7.8910    -1.4970     1.0290 H     1 <1>   0.0800 
 44 H       -3.4420    -3.1500     1.0980 H     1 <1>   0.1500 
 45 H       -7.7530    -2.8870    -1.6660 H     1 <1>   0.0800 
 46 H       -8.6680    -3.4190    -0.2800 H     1 <1>   0.0800 
 47 H       -7.4550    -5.5620    -0.3340 H     1 <1>   0.1500 
 48 H       -1.6820    -6.9540     1.1490 H     1 <1>   0.0800 
 49 H       -2.9140    -7.0140    -0.1090 H     1 <1>   0.0800 
 50 H       -3.2740    -7.6000     1.5230 H     1 <1>   0.0800 
 51 H       -6.4380    -8.9100     0.5190 H     1 <1>   0.0800 
 52 H       -6.9430    -7.7630    -0.7150 H     1 <1>   0.0800 
 53 H       -7.4370    -7.5350     0.9740 H     1 <1>   0.0800 
@<TRIPOS>BOND
  1   1   2  2   
  2   2   3  am  
  3   2   4  1   
  4   3   5  1   
  5   3   6  1   
  6   4   7  1   
  7   4   8  1   
  8   4   9  1   
  9   5  10  1   
 10   5  27  1   
 11   5  28  1   
 12   6  11  1   
 13   6  29  1   
 14   6  30  1   
 15   7   8  1   
 16   7  31  1   
 17   7  32  1   
 18   8  33  1   
 19   8  34  1   
 20   9  12  1   
 21   9  35  1   
 22   9  36  1   
 23  10  13  1   
 24  10  37  1   
 25  10  38  1   
 26  11  13  1   
 27  11  39  1   
 28  11  40  1   
 29  12  41  1   
 30  13  14  1   
 31  13  15  1   
 32  14  16  1   
 33  15  17  ar  
 34  15  18  ar  
 35  16  19  1   
 36  16  42  1   
 37  16  43  1   
 38  17  19  1   
 39  17  20  ar  
 40  18  21  ar  
 41  18  44  1   
 42  19  45  1   
 43  19  46  1   
 44  20  22  ar  
 45  20  47  1   
 46  21  22  ar  
 47  21  23  1   
 48  22  24  1   
 49  23  25  1   
 50  24  26  1   
 51  25  48  1   
 52  25  49  1   
 53  25  50  1   
 54  26  51  1   
 55  26  52  1   
 56  26  53  1   
@<TRIPOS>SUBSTRUCTURE
  1 ****  13 GROUP 4 **** **** 0

# MOE 2024.06 (io_trps.svl 2023.06)
