@<TRIPOS>MOLECULE
NONAME
53 56 1 0 0 
SMALL
USER_CHARGES


@<TRIPOS>ATOM
  1 F       -3.1910     3.3450     1.6320 F     1 <1>  -0.1900 
  2 C       -3.3870     2.1450     1.1450 C.ar  1 <1>   0.1900 
  3 C       -2.4660     1.5400     0.2810 C.ar  1 <1>   0.0820 
  4 C       -4.5520     1.5100     1.5350 C.ar  1 <1>  -0.1500 
  5 O       -1.2910     2.0660    -0.1710 O.3   1 <1>  -0.3630 
  6 C       -2.7610     0.2650    -0.1790 C.ar  1 <1>  -0.1500 
  7 C       -4.8220     0.2380     1.0590 C.ar  1 <1>  -0.1500 
  8 C       -0.8540     3.3660     0.1620 C.3   1 <1>   0.1200 
  9 C       -3.9250    -0.3820     0.2040 C.ar  1 <1>  -0.1500 
 10 C        0.4780     3.6550    -0.5440 C.3   1 <1>  -0.0800 
 11 C        0.9770     5.0490    -0.1370 C.3   1 <1>   0.2090 
 12 C        0.3540     3.5400    -2.0770 C.3   1 <1>  -0.1600 
 13 N        2.2470     5.3680    -0.8450 N.pl3 1 <1>  -0.8380 
 14 C        1.6730     3.9330    -2.7590 C.3   1 <1>  -0.1600 
 15 C        3.1350     6.2640    -0.2730 C.ar  1 <1>   0.4100 
 16 C        2.1430     5.3240    -2.3250 C.3   1 <1>   0.2090 
 17 N        2.6100     7.2440     0.4420 N.ar  1 <1>  -0.6200 
 18 C        4.5180     6.1260    -0.4610 C.ar  1 <1>   0.1600 
 19 C        3.5150     8.0880     0.9660 C.ar  1 <1>   0.3960 
 20 N        5.4350     6.9350     0.0290 N.ar  1 <1>  -0.6200 
 21 C        3.1080     9.2310     1.7890 C.2   1 <1>   0.5440 
 22 C        4.8850     7.9050     0.7470 C.ar  1 <1>   0.1600 
 23 O        3.8700     9.6320     2.6540 O.2   1 <1>  -0.5700 
 24 N        1.9160     9.9210     1.6350 N.am  1 <1>  -0.6600 
 25 C        0.8880     9.6700     0.5990 C.3   1 <1>   0.1400 
 26 C        1.5900    11.1360     2.4140 C.3   1 <1>   0.1400 
 27 C       -0.1840    10.7310     0.8330 C.3   1 <1>  -0.1600 
 28 C        0.5260    11.8490     1.5900 C.3   1 <1>  -0.1600 
 29 H       -5.2370     2.0050     2.2000 H     1 <1>   0.1500 
 30 H       -2.0680    -0.2210    -0.8440 H     1 <1>   0.1500 
 31 H       -5.7260    -0.2690     1.3540 H     1 <1>   0.1500 
 32 H       -0.7280     3.4130     1.2300 H     1 <1>   0.0800 
 33 H       -1.6060     4.0670    -0.1540 H     1 <1>   0.0800 
 34 H       -4.1340    -1.3710    -0.1660 H     1 <1>   0.1500 
 35 H        1.2000     2.9390    -0.1920 H     1 <1>   0.0800 
 36 H        1.1420     5.0780     0.9280 H     1 <1>   0.0800 
 37 H        0.2410     5.7950    -0.3840 H     1 <1>   0.0800 
 38 H       -0.4330     4.1870    -2.4240 H     1 <1>   0.0800 
 39 H        0.0990     2.5310    -2.3500 H     1 <1>   0.0800 
 40 H        1.5460     3.9180    -3.8270 H     1 <1>   0.0800 
 41 H        2.4370     3.2180    -2.5090 H     1 <1>   0.0800 
 42 H        3.0960     5.5460    -2.7750 H     1 <1>   0.0800 
 43 H        1.4350     6.0680    -2.6510 H     1 <1>   0.0800 
 44 H        4.8520     5.2910    -1.0480 H     1 <1>   0.1500 
 45 H        5.5640     8.6100     1.1950 H     1 <1>   0.1500 
 46 H        0.4740     8.6810     0.6990 H     1 <1>   0.0800 
 47 H        1.3300     9.7840    -0.3760 H     1 <1>   0.0800 
 48 H        2.4610    11.7530     2.5580 H     1 <1>   0.0800 
 49 H        1.1960    10.8410     3.3720 H     1 <1>   0.0800 
 50 H       -0.9590    10.3100     1.4500 H     1 <1>   0.0800 
 51 H       -0.6180    11.0710    -0.0900 H     1 <1>   0.0800 
 52 H        1.0120    12.5110     0.8940 H     1 <1>   0.0800 
 53 H       -0.1440    12.4190     2.2090 H     1 <1>   0.0800 
@<TRIPOS>BOND
  1   1   2  1   
  2   2   3  ar  
  3   2   4  ar  
  4   3   5  1   
  5   3   6  ar  
  6   4   7  ar  
  7   4  29  1   
  8   5   8  1   
  9   6   9  ar  
 10   6  30  1   
 11   7   9  ar  
 12   7  31  1   
 13   8  10  1   
 14   8  32  1   
 15   8  33  1   
 16   9  34  1   
 17  10  11  1   
 18  10  12  1   
 19  10  35  1   
 20  11  13  1   
 21  11  36  1   
 22  11  37  1   
 23  12  14  1   
 24  12  38  1   
 25  12  39  1   
 26  13  15  1   
 27  13  16  1   
 28  14  16  1   
 29  14  40  1   
 30  14  41  1   
 31  15  17  ar  
 32  15  18  ar  
 33  16  42  1   
 34  16  43  1   
 35  17  19  ar  
 36  18  20  ar  
 37  18  44  1   
 38  19  21  1   
 39  19  22  ar  
 40  20  22  ar  
 41  21  23  2   
 42  21  24  am  
 43  22  45  1   
 44  24  25  1   
 45  24  26  1   
 46  25  27  1   
 47  25  46  1   
 48  25  47  1   
 49  26  28  1   
 50  26  48  1   
 51  26  49  1   
 52  27  28  1   
 53  27  50  1   
 54  27  51  1   
 55  28  52  1   
 56  28  53  1   
@<TRIPOS>SUBSTRUCTURE
  1 ****  11 GROUP 4 **** **** 0

# MOE 2024.06 (io_trps.svl 2023.06)
