@<TRIPOS>MOLECULE
NONAME
56 58 1 0 0 
SMALL
USER_CHARGES


@<TRIPOS>ATOM
  1 O        0.1290     1.0480     1.4530 O.2   1 <1>  -0.5700 
  2 C        0.0030     2.1000     0.8830 C.2   1 <1>   0.5690 
  3 N       -0.6190     3.1390     1.4840 N.am  1 <1>  -0.7300 
  4 C        0.5320     2.2780    -0.5410 C.3   1 <1>   0.1810 
  5 C       -0.8310     4.4600     0.8410 C.3   1 <1>   0.3640 
  6 O        0.7750     3.6350    -0.8460 O.3   1 <1>  -0.5600 
  7 C       -2.3030     4.8330     0.9440 C.ar  1 <1>  -0.1440 
  8 C       -0.3400     4.4910    -0.6310 C.3   1 <1>   0.2610 
  9 C       -3.3020     3.8990     0.6990 C.ar  1 <1>   0.1600 
 10 C       -2.6760     6.1230     1.2730 C.ar  1 <1>  -0.1500 
 11 C       -0.0440     5.9440    -1.0440 C.2   1 <1>   0.5690 
 12 N       -4.6010     4.1410     0.7570 N.ar  1 <1>  -0.6200 
 13 C       -4.0260     6.3920     1.3360 C.ar  1 <1>  -0.1500 
 14 O       -0.9580     6.5550    -1.5440 O.2   1 <1>  -0.5700 
 15 N        1.1780     6.5700    -0.8640 N.am  1 <1>  -0.6600 
 16 C       -4.9330     5.3810     1.0720 C.ar  1 <1>   0.1600 
 17 C        1.4530     7.8600    -1.5830 C.3   1 <1>   0.1400 
 18 C        2.3710     5.9400    -0.2050 C.3   1 <1>   0.1400 
 19 C        2.3120     8.8280    -0.7510 C.3   1 <1>   0.3430 
 20 C        3.2310     6.9600     0.5690 C.3   1 <1>   0.3430 
 21 N        3.5710     8.1720    -0.2520 N.4   1 <1>  -0.9590 
 22 C        4.4240     9.1160     0.5480 C.3   1 <1>   0.3430 
 23 C        5.0320    10.2430    -0.2940 C.3   1 <1>   0.1200 
 24 O        5.8050    11.0090     0.5630 O.3   1 <1>  -0.5600 
 25 C        6.4580    12.0800    -0.0430 C.3   1 <1>   0.1200 
 26 C        7.2540    12.8120     1.0360 C.3   1 <1>  -0.1600 
 27 C        8.0070    14.0130     0.4540 C.3   1 <1>  -0.2400 
 28 H       -1.0140     2.9920     2.4160 H     1 <1>   0.3700 
 29 H       -0.1790     1.8880    -1.2460 H     1 <1>   0.0800 
 30 H        1.4580     1.7430    -0.6480 H     1 <1>   0.0800 
 31 H       -0.2610     5.1820     1.4000 H     1 <1>   0.0800 
 32 H       -1.1320     4.1350    -1.2670 H     1 <1>   0.0800 
 33 H       -3.0250     2.8900     0.4410 H     1 <1>   0.1500 
 34 H       -1.9560     6.8990     1.4680 H     1 <1>   0.1500 
 35 H       -4.3780     7.3770     1.5830 H     1 <1>   0.1500 
 36 H       -5.9850     5.6040     1.1230 H     1 <1>   0.1500 
 37 H        1.9530     7.6410    -2.5110 H     1 <1>   0.0800 
 38 H        0.5310     8.3590    -1.8300 H     1 <1>   0.0800 
 39 H        2.0560     5.1850     0.4930 H     1 <1>   0.0800 
 40 H        2.9710     5.4560    -0.9570 H     1 <1>   0.0800 
 41 H        1.7250     9.1740     0.0840 H     1 <1>   0.0800 
 42 H        2.5550     9.6840    -1.3590 H     1 <1>   0.0800 
 43 H        4.1360     6.4740     0.8970 H     1 <1>   0.0800 
 44 H        2.6880     7.2640     1.4490 H     1 <1>   0.0800 
 45 H        4.1130     7.8510    -1.0670 H     1 <1>   0.4500 
 46 H        3.8370     9.5550     1.3390 H     1 <1>   0.0800 
 47 H        5.2370     8.5690     0.9980 H     1 <1>   0.0800 
 48 H        4.2700    10.8760    -0.7140 H     1 <1>   0.0800 
 49 H        5.6710     9.8470    -1.0650 H     1 <1>   0.0800 
 50 H        7.1180    11.7020    -0.8060 H     1 <1>   0.0800 
 51 H        5.7250    12.7370    -0.4800 H     1 <1>   0.0800 
 52 H        6.5810    13.1550     1.8030 H     1 <1>   0.0800 
 53 H        7.9610    12.1320     1.4790 H     1 <1>   0.0800 
 54 H        7.3200    14.7180     0.0220 H     1 <1>   0.0800 
 55 H        8.7020    13.6930    -0.3030 H     1 <1>   0.0800 
 56 H        8.5590    14.5100     1.2330 H     1 <1>   0.0800 
@<TRIPOS>BOND
  1   1   2  2   
  2   2   3  am  
  3   2   4  1   
  4   3   5  1   
  5   3  28  1   
  6   4   6  1   
  7   4  29  1   
  8   4  30  1   
  9   5   7  1   
 10   5   8  1   
 11   5  31  1   
 12   6   8  1   
 13   7   9  ar  
 14   7  10  ar  
 15   8  11  1   
 16   8  32  1   
 17   9  12  ar  
 18   9  33  1   
 19  10  13  ar  
 20  10  34  1   
 21  11  14  2   
 22  11  15  am  
 23  12  16  ar  
 24  13  16  ar  
 25  13  35  1   
 26  15  17  1   
 27  15  18  1   
 28  16  36  1   
 29  17  19  1   
 30  17  37  1   
 31  17  38  1   
 32  18  20  1   
 33  18  39  1   
 34  18  40  1   
 35  19  21  1   
 36  19  41  1   
 37  19  42  1   
 38  20  21  1   
 39  20  43  1   
 40  20  44  1   
 41  21  22  1   
 42  21  45  1   
 43  22  23  1   
 44  22  46  1   
 45  22  47  1   
 46  23  24  1   
 47  23  48  1   
 48  23  49  1   
 49  24  25  1   
 50  25  26  1   
 51  25  50  1   
 52  25  51  1   
 53  26  27  1   
 54  26  52  1   
 55  26  53  1   
 56  27  54  1   
 57  27  55  1   
 58  27  56  1   
@<TRIPOS>SUBSTRUCTURE
  1 ****  15 GROUP 4 **** **** 0

# MOE 2024.06 (io_trps.svl 2023.06)
