@<TRIPOS>MOLECULE
NONAME
48 49 1 0 0 
SMALL
USER_CHARGES


@<TRIPOS>ATOM
  1 S        0.5330     0.5170    -1.4880 S.o2  1 <1>   1.3330 
  2 O       -0.3270     1.5230    -2.0690 O.2   1 <1>  -0.6500 
  3 O        0.7780    -0.7170    -2.2020 O.2   1 <1>  -0.6500 
  4 N       -0.1150     0.1180     0.0310 N.am  1 <1>  -0.8490 
  5 C        2.1220     1.2510    -1.0950 C.3   1 <1>  -0.0550 
  6 C       -0.7680     1.2500     0.6990 C.3   1 <1>   0.1160 
  7 C       -1.0450    -1.0130    -0.0440 C.3   1 <1>   0.1160 
  8 C        3.1520     0.2590    -0.5100 C.3   1 <1>  -0.0800 
  9 C        4.5600     0.8140    -0.3600 C.3   1 <1>   0.2200 
 10 C        2.8370    -0.2560     0.9010 C.3   1 <1>   0.1200 
 11 N        4.5310     2.1920     0.1850 N.am  1 <1>  -0.7300 
 12 C        5.1130    -0.1200     0.7060 C.3   1 <1>   0.1200 
 13 O        4.0530    -0.3130     1.5900 O.3   1 <1>  -0.5600 
 14 C        4.6960     3.3190    -0.5440 C.2   1 <1>   0.5690 
 15 O        4.8260     3.2830    -1.7420 O.2   1 <1>  -0.5700 
 16 C        4.6960     4.6530     0.1640 C.3   1 <1>  -0.0990 
 17 C        5.8890     5.4930    -0.2820 C.3   1 <1>   0.1200 
 18 O        5.8950     6.6820     0.4760 O.3   1 <1>  -0.3630 
 19 C        6.8560     7.6220     0.2990 C.ar  1 <1>   0.0820 
 20 C        7.8780     7.5190    -0.6420 C.ar  1 <1>  -0.1500 
 21 C        6.7940     8.7400     1.1160 C.ar  1 <1>  -0.1500 
 22 C        8.8210     8.5270    -0.7540 C.ar  1 <1>  -0.1500 
 23 C        7.7370     9.7470     1.0020 C.ar  1 <1>  -0.1500 
 24 C        8.7510     9.6400     0.0670 C.ar  1 <1>  -0.1500 
 25 H        2.5340     1.6580    -1.9990 H     1 <1>   0.0800 
 26 H        1.9760     2.0670    -0.4170 H     1 <1>   0.0800 
 27 H       -1.0770     0.9660     1.6910 H     1 <1>   0.0800 
 28 H       -1.6330     1.5690     0.1410 H     1 <1>   0.0800 
 29 H       -0.0850     2.0780     0.7810 H     1 <1>   0.0800 
 30 H       -1.4300    -1.2470     0.9330 H     1 <1>   0.0800 
 31 H       -0.5370    -1.8850    -0.4220 H     1 <1>   0.0800 
 32 H       -1.8650    -0.7800    -0.7030 H     1 <1>   0.0800 
 33 H        3.2060    -0.5960    -1.1620 H     1 <1>   0.0800 
 34 H        5.1260     0.7760    -1.2770 H     1 <1>   0.0800 
 35 H        2.4000    -1.2400     0.8780 H     1 <1>   0.0800 
 36 H        2.1910     0.4150     1.4400 H     1 <1>   0.0800 
 37 H        4.3900     2.2290     1.1980 H     1 <1>   0.3700 
 38 H        5.9580     0.2920     1.2300 H     1 <1>   0.0800 
 39 H        5.3720    -1.0760     0.2830 H     1 <1>   0.0800 
 40 H        3.7860     5.1690    -0.0790 H     1 <1>   0.0800 
 41 H        4.7450     4.5010     1.2260 H     1 <1>   0.0800 
 42 H        5.8050     5.7500    -1.3240 H     1 <1>   0.0800 
 43 H        6.8120     4.9700    -0.1010 H     1 <1>   0.0800 
 44 H        7.9560     6.6690    -1.2930 H     1 <1>   0.1500 
 45 H        6.0030     8.8160     1.8390 H     1 <1>   0.1500 
 46 H        9.6100     8.4470    -1.4820 H     1 <1>   0.1500 
 47 H        7.6810    10.6110     1.6410 H     1 <1>   0.1500 
 48 H        9.4850    10.4220    -0.0230 H     1 <1>   0.1500 
@<TRIPOS>BOND
  1   1   2  2   
  2   1   3  2   
  3   1   4  am  
  4   1   5  1   
  5   4   6  1   
  6   4   7  1   
  7   5   8  1   
  8   5  25  1   
  9   5  26  1   
 10   6  27  1   
 11   6  28  1   
 12   6  29  1   
 13   7  30  1   
 14   7  31  1   
 15   7  32  1   
 16   8   9  1   
 17   8  10  1   
 18   8  33  1   
 19   9  11  1   
 20   9  12  1   
 21   9  34  1   
 22  10  13  1   
 23  10  35  1   
 24  10  36  1   
 25  11  14  am  
 26  11  37  1   
 27  12  13  1   
 28  12  38  1   
 29  12  39  1   
 30  14  15  2   
 31  14  16  1   
 32  16  17  1   
 33  16  40  1   
 34  16  41  1   
 35  17  18  1   
 36  17  42  1   
 37  17  43  1   
 38  18  19  1   
 39  19  20  ar  
 40  19  21  ar  
 41  20  22  ar  
 42  20  44  1   
 43  21  23  ar  
 44  21  45  1   
 45  22  24  ar  
 46  22  46  1   
 47  23  24  ar  
 48  23  47  1   
 49  24  48  1   
@<TRIPOS>SUBSTRUCTURE
  1 ****  14 GROUP 4 **** **** 0

# MOE 2024.06 (io_trps.svl 2023.06)
