@<TRIPOS>MOLECULE
NONAME
56 59 1 0 0 
SMALL
USER_CHARGES


@<TRIPOS>ATOM
  1 O        1.7280     2.5990     0.9360 O.co2 1 <1>  -0.9000 
  2 C        2.2250     1.4730     0.8930 C.2   1 <1>   0.9060 
  3 O        2.4420     0.8270     1.9360 O.co2 1 <1>  -0.9000 
  4 C        2.4610     0.7880    -0.4730 C.3   1 <1>  -0.1060 
  5 C        3.5490    -0.2900    -0.2930 C.3   1 <1>   0.4230 
  6 C        2.9550     1.7990    -1.5580 C.3   1 <1>  -0.1600 
  7 C        1.1460     0.1360    -0.9670 C.3   1 <1>  -0.1600 
  8 N        3.0680    -1.3730     0.6300 N.4   1 <1>  -0.9590 
  9 C        4.8910     0.3500     0.1670 C.3   1 <1>   0.1100 
 10 C        4.4760     2.0350    -1.5860 C.3   1 <1>   0.1100 
 11 C        0.7140    -1.0200    -0.0550 C.3   1 <1>  -0.1600 
 12 C        1.8340    -2.0420     0.1470 C.3   1 <1>   0.3430 
 13 C        4.0980    -2.3370     1.0950 C.3   1 <1>   0.2630 
 14 N        5.0440     1.7540    -0.2660 N.3   1 <1>  -0.8100 
 15 C        6.3600     2.3380     0.0040 C.3   1 <1>   0.2530 
 16 C        6.2930     3.8560    -0.0040 C.ar  1 <1>  -0.1440 
 17 C        5.2310     4.5480     0.5310 C.ar  1 <1>   0.1600 
 18 C        7.3080     4.6060    -0.5460 C.ar  1 <1>   0.1600 
 19 N        5.1880     5.8620     0.5310 N.ar  1 <1>  -0.6200 
 20 N        7.2870     5.9170    -0.5630 N.ar  1 <1>  -0.6200 
 21 C        6.2170     6.5090    -0.0210 C.ar  1 <1>   0.6200 
 22 C        6.1690     7.9670    -0.0330 C.ar  1 <1>   0.0000 
 23 C        7.3320     8.7420    -0.1010 C.ar  1 <1>  -0.1500 
 24 C        4.9570     8.6610     0.0210 C.ar  1 <1>  -0.1500 
 25 C        7.2960    10.1270    -0.1170 C.ar  1 <1>  -0.1440 
 26 C        4.9070    10.0420     0.0090 C.ar  1 <1>  -0.1500 
 27 C        6.0760    10.7770    -0.0600 C.ar  1 <1>  -0.1500 
 28 C        8.5810    10.9310    -0.1910 C.3   1 <1>  -0.0970 
 29 H        3.7250    -0.7290    -1.2590 H     1 <1>   0.0800 
 30 H        2.4680     2.7480    -1.4090 H     1 <1>   0.0800 
 31 H        2.6680     1.4730    -2.5410 H     1 <1>   0.0800 
 32 H        0.3690     0.8830    -0.9900 H     1 <1>   0.0800 
 33 H        1.2710    -0.2410    -1.9670 H     1 <1>   0.0800 
 34 H        2.7680    -0.7770     1.4520 H     1 <1>   0.4500 
 35 H        5.7080    -0.2340    -0.2160 H     1 <1>   0.0800 
 36 H        4.9300     0.3460     1.2440 H     1 <1>   0.0800 
 37 H        4.6590     3.0590    -1.8680 H     1 <1>   0.0800 
 38 H        4.9410     1.3980    -2.3180 H     1 <1>   0.0800 
 39 H       -0.1430    -1.5120    -0.4810 H     1 <1>   0.0800 
 40 H        0.4130    -0.6340     0.9050 H     1 <1>   0.0800 
 41 H        2.0360    -2.5420    -0.7860 H     1 <1>   0.0800 
 42 H        1.5120    -2.7770     0.8660 H     1 <1>   0.0800 
 43 H        4.4910    -2.8960     0.2620 H     1 <1>   0.0800 
 44 H        3.6660    -3.0230     1.8050 H     1 <1>   0.0800 
 45 H        4.9050    -1.8150     1.5810 H     1 <1>   0.0800 
 46 H        6.6920     2.0240     0.9790 H     1 <1>   0.0800 
 47 H        7.0670     1.9870    -0.7280 H     1 <1>   0.0800 
 48 H        4.3960     4.0120     0.9630 H     1 <1>   0.1500 
 49 H        8.1640     4.1190    -0.9790 H     1 <1>   0.1500 
 50 H        8.2840     8.2430    -0.1410 H     1 <1>   0.1500 
 51 H        4.0350     8.1060     0.0760 H     1 <1>   0.1500 
 52 H        3.9560    10.5440     0.0530 H     1 <1>   0.1500 
 53 H        6.0310    11.8510    -0.0690 H     1 <1>   0.1500 
 54 H        8.4520    11.7760    -0.8430 H     1 <1>   0.0800 
 55 H        9.3850    10.3290    -0.5720 H     1 <1>   0.0800 
 56 H        8.8460    11.2830     0.7900 H     1 <1>   0.0800 
@<TRIPOS>BOND
  1   1   2  ar  
  2   2   3  ar  
  3   2   4  1   
  4   4   5  1   
  5   4   6  1   
  6   4   7  1   
  7   5   8  1   
  8   5   9  1   
  9   5  29  1   
 10   6  10  1   
 11   6  30  1   
 12   6  31  1   
 13   7  11  1   
 14   7  32  1   
 15   7  33  1   
 16   8  12  1   
 17   8  13  1   
 18   8  34  1   
 19   9  14  1   
 20   9  35  1   
 21   9  36  1   
 22  10  14  1   
 23  10  37  1   
 24  10  38  1   
 25  11  12  1   
 26  11  39  1   
 27  11  40  1   
 28  12  41  1   
 29  12  42  1   
 30  13  43  1   
 31  13  44  1   
 32  13  45  1   
 33  14  15  1   
 34  15  16  1   
 35  15  46  1   
 36  15  47  1   
 37  16  17  ar  
 38  16  18  ar  
 39  17  19  ar  
 40  17  48  1   
 41  18  20  ar  
 42  18  49  1   
 43  19  21  ar  
 44  20  21  ar  
 45  21  22  1   
 46  22  23  ar  
 47  22  24  ar  
 48  23  25  ar  
 49  23  50  1   
 50  24  26  ar  
 51  24  51  1   
 52  25  27  ar  
 53  25  28  1   
 54  26  27  ar  
 55  26  52  1   
 56  27  53  1   
 57  28  54  1   
 58  28  55  1   
 59  28  56  1   
@<TRIPOS>SUBSTRUCTURE
  1 ****  17 GROUP 4 **** **** 0

# MOE 2024.06 (io_trps.svl 2023.06)
