@<TRIPOS>MOLECULE
NONAME
45 47 1 0 0 
SMALL
USER_CHARGES


@<TRIPOS>ATOM
  1 O       -0.3940     0.2400    -0.1860 O.2   1 <1>  -0.5700 
  2 C       -1.4380     0.8270     0.0230 C.2   1 <1>   0.5440 
  3 N       -2.5980     0.0890     0.1190 N.am  1 <1>  -0.6600 
  4 C       -1.4340     2.2660     0.1420 C.ar  1 <1>   0.0860 
  5 C       -3.9630     0.6230    -0.1200 C.3   1 <1>   0.1400 
  6 C       -2.5950    -1.3930     0.0090 C.3   1 <1>   0.1400 
  7 C       -0.6940     3.0420    -0.7470 C.ar  1 <1>   0.1600 
  8 C       -2.1390     2.9490     1.1290 C.ar  1 <1>  -0.1500 
  9 C       -4.7980    -0.5910    -0.5270 C.3   1 <1>   0.2000 
 10 C       -4.0690    -1.8010     0.0520 C.3   1 <1>  -0.0800 
 11 N       -0.6290     4.3620    -0.7610 N.ar  1 <1>  -0.6200 
 12 C       -2.0770     4.3210     1.1340 C.ar  1 <1>  -0.1500 
 13 O       -6.0840    -0.5240    -0.0150 O.3   1 <1>  -0.6800 
 14 C       -4.3880    -3.1020    -0.7050 C.3   1 <1>  -0.0170 
 15 C       -1.3260     4.9990     0.1750 C.ar  1 <1>   0.4100 
 16 C       -3.7100    -4.3050    -0.0700 C.ar  1 <1>   0.1670 
 17 N       -1.2800     6.3790     0.1720 N.pl3 1 <1>  -0.8380 
 18 N       -2.4460    -4.5150    -0.4000 N.ar  1 <1>  -0.6200 
 19 C       -4.4190    -5.1190     0.8130 C.ar  1 <1>   0.1600 
 20 C       -2.5260     7.1860     0.2460 C.3   1 <1>   0.1290 
 21 C       -0.1060     7.0860    -0.4120 C.3   1 <1>   0.1290 
 22 C       -1.9430    -5.5780     0.2050 C.ar  1 <1>   0.1600 
 23 N       -3.9180    -6.1810     1.4210 N.ar  1 <1>  -0.6200 
 24 C       -2.6550    -6.3830     1.0860 C.ar  1 <1>   0.1600 
 25 H       -4.3400     1.0540     0.7910 H     1 <1>   0.0800 
 26 H       -3.9520     1.3590    -0.9050 H     1 <1>   0.0800 
 27 H       -2.1430    -1.6760    -0.9270 H     1 <1>   0.0800 
 28 H       -2.0350    -1.8350     0.8160 H     1 <1>   0.0800 
 29 H       -0.1220     2.5230    -1.4970 H     1 <1>   0.1500 
 30 H       -2.7030     2.4100     1.8690 H     1 <1>   0.1500 
 31 H       -4.8590    -0.6470    -1.6010 H     1 <1>   0.0800 
 32 H       -4.3350    -1.9160     1.0880 H     1 <1>   0.0800 
 33 H       -2.5940     4.8910     1.8810 H     1 <1>   0.1500 
 34 H       -6.0630    -0.4770     0.9600 H     1 <1>   0.4000 
 35 H       -4.0680    -3.0210    -1.7300 H     1 <1>   0.0800 
 36 H       -5.4530    -3.2550    -0.7120 H     1 <1>   0.0800 
 37 H       -5.4450    -4.8800     1.0270 H     1 <1>   0.1500 
 38 H       -2.4810     7.8420     1.0980 H     1 <1>   0.0800 
 39 H       -3.3870     6.5470     0.3380 H     1 <1>   0.0800 
 40 H       -2.6340     7.7740    -0.6480 H     1 <1>   0.0800 
 41 H        0.0180     8.0460     0.0580 H     1 <1>   0.0800 
 42 H       -0.2510     7.2180    -1.4700 H     1 <1>   0.0800 
 43 H        0.7880     6.5070    -0.2530 H     1 <1>   0.0800 
 44 H       -0.9170    -5.8240    -0.0060 H     1 <1>   0.1500 
 45 H       -2.1580    -7.2280     1.5300 H     1 <1>   0.1500 
@<TRIPOS>BOND
  1   1   2  2   
  2   2   3  am  
  3   2   4  1   
  4   3   5  1   
  5   3   6  1   
  6   4   7  ar  
  7   4   8  ar  
  8   5   9  1   
  9   5  25  1   
 10   5  26  1   
 11   6  10  1   
 12   6  27  1   
 13   6  28  1   
 14   7  11  ar  
 15   7  29  1   
 16   8  12  ar  
 17   8  30  1   
 18   9  10  1   
 19   9  13  1   
 20   9  31  1   
 21  10  14  1   
 22  10  32  1   
 23  11  15  ar  
 24  12  15  ar  
 25  12  33  1   
 26  13  34  1   
 27  14  16  1   
 28  14  35  1   
 29  14  36  1   
 30  15  17  1   
 31  16  18  ar  
 32  16  19  ar  
 33  17  20  1   
 34  17  21  1   
 35  18  22  ar  
 36  19  23  ar  
 37  19  37  1   
 38  20  38  1   
 39  20  39  1   
 40  20  40  1   
 41  21  41  1   
 42  21  42  1   
 43  21  43  1   
 44  22  24  ar  
 45  22  44  1   
 46  23  24  ar  
 47  24  45  1   
@<TRIPOS>SUBSTRUCTURE
  1 ****   3 GROUP 4 **** **** 0

# MOE 2024.06 (io_trps.svl 2023.06)
