@<TRIPOS>MOLECULE
NONAME
45 47 1 0 0 
SMALL
USER_CHARGES


@<TRIPOS>ATOM
  1 F        1.0430    -0.0900     0.8260 F     1 <1>  -0.1980 
  2 C        1.9970     0.6900     0.3950 C.ar  1 <1>   0.1820 
  3 C        2.3570     1.7840     1.1550 C.ar  1 <1>  -0.1580 
  4 C        2.6120     0.3930    -0.8040 C.ar  1 <1>  -0.1580 
  5 C        3.3700     2.6090     0.6950 C.ar  1 <1>  -0.1580 
  6 C        3.6240     1.2240    -1.2540 C.ar  1 <1>  -0.1580 
  7 C        4.0130     2.3350    -0.5120 C.ar  1 <1>  -0.1520 
  8 C        5.1420     3.2270    -1.0500 C.3   1 <1>   0.3880 
  9 N        6.5100     2.7400    -0.6280 N.3   1 <1>  -0.8130 
 10 C        4.9880     4.7290    -0.7090 C.2   1 <1>   0.8490 
 11 C        7.0410     1.7210    -1.5500 C.3   1 <1>   0.1020 
 12 C        6.5720     2.2430     0.7640 C.3   1 <1>   0.1020 
 13 O        3.9810     5.3630    -0.9070 O.2   1 <1>  -0.5750 
 14 N        6.0900     5.3240    -0.1870 N.pl3 1 <1>  -0.7340 
 15 C        8.5210     1.4730    -1.2400 C.3   1 <1>  -0.1680 
 16 C        8.0330     2.0280     1.1670 C.3   1 <1>  -0.1680 
 17 C        6.2770     6.5800     0.1870 C.cat 1 <1>   1.0690 
 18 C        8.7240     1.0420     0.2180 C.3   1 <1>  -0.1680 
 19 N        5.3710     7.5360     0.1440 N.pl3 1 <1>  -0.7040 
 20 N        7.4200     7.0620     0.6720 N.pl3 1 <1>  -0.7680 
 21 C        5.9350     8.6950     0.6210 C.2   1 <1>   0.1920 
 22 C        7.2070     8.4030     0.9500 C.2   1 <1>   0.1920 
 23 C        8.7190     6.3680     0.8960 C.3   1 <1>   0.2670 
 24 H        1.8520     1.9810     2.0830 H     1 <1>   0.1420 
 25 H        2.3040    -0.4690    -1.3680 H     1 <1>   0.1420 
 26 H        3.6430     3.4580     1.2960 H     1 <1>   0.1420 
 27 H        4.1060     0.9940    -2.1880 H     1 <1>   0.1420 
 28 H        5.0910     3.1870    -2.1240 H     1 <1>   0.0710 
 29 H        6.9520     2.0590    -2.5690 H     1 <1>   0.0710 
 30 H        6.4870     0.8030    -1.4430 H     1 <1>   0.0710 
 31 H        6.0380     1.3090     0.8480 H     1 <1>   0.0710 
 32 H        6.1200     2.9500     1.4380 H     1 <1>   0.0710 
 33 H        6.8560     4.6510    -0.1070 H     1 <1>   0.4440 
 34 H        9.0780     2.3710    -1.4380 H     1 <1>   0.0710 
 35 H        8.8960     0.7050    -1.8940 H     1 <1>   0.0710 
 36 H        8.0710     1.6400     2.1700 H     1 <1>   0.0710 
 37 H        8.5520     2.9680     1.1580 H     1 <1>   0.0710 
 38 H        9.7750     0.9850     0.4430 H     1 <1>   0.0710 
 39 H        8.3000     0.0620     0.3570 H     1 <1>   0.0710 
 40 H        4.4210     7.3640    -0.2070 H     1 <1>   0.4440 
 41 H        5.4000     9.6310     0.6910 H     1 <1>   0.1420 
 42 H        7.9680     9.0520     1.3580 H     1 <1>   0.1420 
 43 H        8.7430     5.4210     0.3850 H     1 <1>   0.0710 
 44 H        8.8670     6.2010     1.9500 H     1 <1>   0.0710 
 45 H        9.5270     6.9760     0.5240 H     1 <1>   0.0710 
@<TRIPOS>BOND
  1   1   2  1   
  2   2   3  ar  
  3   2   4  ar  
  4   3   5  ar  
  5   3  24  1   
  6   4   6  ar  
  7   4  25  1   
  8   5   7  ar  
  9   5  26  1   
 10   6   7  ar  
 11   6  27  1   
 12   7   8  1   
 13   8   9  1   
 14   8  10  1   
 15   8  28  1   
 16   9  11  1   
 17   9  12  1   
 18  10  13  2   
 19  10  14  1   
 20  11  15  1   
 21  11  29  1   
 22  11  30  1   
 23  12  16  1   
 24  12  31  1   
 25  12  32  1   
 26  14  17  ar  
 27  14  33  1   
 28  15  18  1   
 29  15  34  1   
 30  15  35  1   
 31  16  18  1   
 32  16  36  1   
 33  16  37  1   
 34  17  19  ar  
 35  17  20  ar  
 36  18  38  1   
 37  18  39  1   
 38  19  21  1   
 39  19  40  1   
 40  20  22  1   
 41  20  23  1   
 42  21  22  2   
 43  21  41  1   
 44  22  42  1   
 45  23  43  1   
 46  23  44  1   
 47  23  45  1   
@<TRIPOS>SUBSTRUCTURE
  1 ****   8 GROUP 4 **** **** 0

# MOE 2024.06 (io_trps.svl 2023.06)
