@<TRIPOS>MOLECULE
NONAME
46 48 1 0 0 
SMALL
USER_CHARGES


@<TRIPOS>ATOM
  1 O       -0.4250    -1.9470    -1.4000 O.2   1 <1>  -0.5700 
  2 C        0.6480    -2.4520    -1.1010 C.2   1 <1>   0.7670 
  3 N        1.6170    -2.4700    -2.0660 N.2   1 <1>  -0.6610 
  4 C        0.8810    -3.0130     0.1950 C.2   1 <1>  -0.1240 
  5 C        2.7470    -2.9830    -1.7630 C.2   1 <1>   0.4390 
  6 C        2.1040    -3.5410     0.4640 C.2   1 <1>  -0.0380 
  7 C       -0.2680    -3.0090     1.2100 C.3   1 <1>   0.0390 
  8 N        3.0290    -3.5110    -0.5410 N.pl3 1 <1>  -0.5500 
  9 C        3.8510    -3.0250    -2.7900 C.3   1 <1>  -0.1790 
 10 C        2.5690    -4.1850     1.7600 C.3   1 <1>  -0.1020 
 11 C       -0.8550    -4.4010     1.3950 C.2   1 <1>   0.5690 
 12 O       -0.5880    -4.9910     2.4150 O.2   1 <1>  -0.5700 
 13 N       -1.6550    -4.9700     0.4430 N.am  1 <1>  -0.6600 
 14 C       -2.1960    -4.3320    -0.7850 C.3   1 <1>   0.1400 
 15 C       -2.0860    -6.3890     0.5140 C.3   1 <1>   0.1400 
 16 C       -3.3080    -5.2740    -1.2430 C.3   1 <1>   0.2000 
 17 C       -2.8320    -6.6600    -0.8040 C.3   1 <1>  -0.0800 
 18 O       -4.4600    -4.9750    -0.5330 O.3   1 <1>  -0.6800 
 19 C       -1.9120    -7.2850    -1.8730 C.3   1 <1>  -0.0160 
 20 C       -1.5290    -8.7170    -1.5330 C.ar  1 <1>   0.1670 
 21 N       -0.3630    -8.8970    -0.9340 N.ar  1 <1>  -0.6200 
 22 C       -2.3950    -9.7610    -1.8570 C.ar  1 <1>   0.1600 
 23 C       -0.1250   -10.1720    -0.6800 C.ar  1 <1>   0.1600 
 24 N       -2.1590   -11.0370    -1.6040 N.ar  1 <1>  -0.6200 
 25 C       -0.9930   -11.2070    -1.0040 C.ar  1 <1>   0.1600 
 26 H       -1.0520    -2.3320     0.9290 H     1 <1>   0.0800 
 27 H        0.0980    -2.6630     2.1580 H     1 <1>   0.0800 
 28 H        3.9600    -3.9060    -0.3910 H     1 <1>   0.4000 
 29 H        4.1330    -4.0440    -2.9820 H     1 <1>   0.0800 
 30 H        4.7020    -2.4760    -2.4350 H     1 <1>   0.0800 
 31 H        3.5140    -2.5820    -3.7100 H     1 <1>   0.0800 
 32 H        3.4910    -3.7370     2.0850 H     1 <1>   0.0800 
 33 H        2.7290    -5.2370     1.6060 H     1 <1>   0.0800 
 34 H        1.8530    -4.0710     2.5520 H     1 <1>   0.0800 
 35 H       -2.5660    -3.3380    -0.6040 H     1 <1>   0.0800 
 36 H       -1.4250    -4.3010    -1.5340 H     1 <1>   0.0800 
 37 H       -1.2350    -7.0340     0.6520 H     1 <1>   0.0800 
 38 H       -2.7500    -6.5100     1.3520 H     1 <1>   0.0800 
 39 H       -3.5280    -5.1930    -2.2940 H     1 <1>   0.0800 
 40 H       -3.6680    -7.3180    -0.6420 H     1 <1>   0.0800 
 41 H       -4.2290    -4.8860     0.4140 H     1 <1>   0.4000 
 42 H       -1.0160    -6.6980    -1.9850 H     1 <1>   0.0800 
 43 H       -2.4170    -7.2850    -2.8220 H     1 <1>   0.0800 
 44 H       -3.3240    -9.5290    -2.3450 H     1 <1>   0.1500 
 45 H        0.8030   -10.4110    -0.1920 H     1 <1>   0.1500 
 46 H       -0.7110   -12.2150    -0.7560 H     1 <1>   0.1500 
@<TRIPOS>BOND
  1   1   2  2   
  2   2   3  1   
  3   2   4  1   
  4   3   5  2   
  5   4   6  2   
  6   4   7  1   
  7   5   8  1   
  8   5   9  1   
  9   6   8  1   
 10   6  10  1   
 11   7  11  1   
 12   7  26  1   
 13   7  27  1   
 14   8  28  1   
 15   9  29  1   
 16   9  30  1   
 17   9  31  1   
 18  10  32  1   
 19  10  33  1   
 20  10  34  1   
 21  11  12  2   
 22  11  13  am  
 23  13  14  1   
 24  13  15  1   
 25  14  16  1   
 26  14  35  1   
 27  14  36  1   
 28  15  17  1   
 29  15  37  1   
 30  15  38  1   
 31  16  17  1   
 32  16  18  1   
 33  16  39  1   
 34  17  19  1   
 35  17  40  1   
 36  18  41  1   
 37  19  20  1   
 38  19  42  1   
 39  19  43  1   
 40  20  21  ar  
 41  20  22  ar  
 42  21  23  ar  
 43  22  24  ar  
 44  22  44  1   
 45  23  25  ar  
 46  23  45  1   
 47  24  25  ar  
 48  25  46  1   
@<TRIPOS>SUBSTRUCTURE
  1 ****  13 GROUP 4 **** **** 0

# MOE 2024.06 (io_trps.svl 2023.06)
