@<TRIPOS>MOLECULE
NONAME
39 41 1 0 0 
SMALL
USER_CHARGES


@<TRIPOS>ATOM
  1 CL      -0.2970    -0.1320     1.4090 Cl    1 <1>  -0.1770 
  2 C       -0.9720    -1.6620     0.9130 C.ar  1 <1>   0.1770 
  3 C       -2.2700    -1.9810     1.2620 C.ar  1 <1>  -0.1500 
  4 C       -0.1990    -2.5400     0.1780 C.ar  1 <1>  -0.1500 
  5 C       -2.7970    -3.1980     0.8680 C.ar  1 <1>  -0.1500 
  6 C       -0.7400    -3.7530    -0.2110 C.ar  1 <1>  -0.1500 
  7 C       -2.0490    -4.1120     0.1230 C.ar  1 <1>   0.0530 
  8 C       -2.5820    -5.3920    -0.2800 C.2   1 <1>   0.0870 
  9 O       -1.7690    -6.4220    -0.3620 O.3   1 <1>  -0.0190 
 10 C       -3.8220    -5.8460    -0.6070 C.2   1 <1>  -0.2330 
 11 N       -2.3750    -7.5250    -0.7100 N.2   1 <1>  -0.4100 
 12 C       -3.6070    -7.1970    -0.8660 C.2   1 <1>   0.3720 
 13 C       -5.1020    -5.2120    -0.6990 C.2   1 <1>   1.0330 
 14 N       -4.6050    -8.0800    -1.2430 N.pl3 1 <1>  -0.8520 
 15 O       -5.2140    -3.9820    -0.7930 O.co2 1 <1>  -0.9000 
 16 O       -6.1460    -5.9010    -0.6740 O.co2 1 <1>  -0.9000 
 17 C       -4.8980    -9.1320    -0.2460 C.3   1 <1>   0.2890 
 18 C       -6.3750    -9.0710     0.2160 C.3   1 <1>   0.2000 
 19 C       -4.5760   -10.4860    -0.8880 C.3   1 <1>  -0.1600 
 20 O       -6.6370    -7.9020     0.9180 O.3   1 <1>  -0.6800 
 21 C       -6.7310   -10.2430     1.1370 C.3   1 <1>  -0.1600 
 22 C       -4.9320   -11.6550     0.0420 C.3   1 <1>  -0.1600 
 23 C       -6.4020   -11.5920     0.4790 C.3   1 <1>  -0.1600 
 24 H       -2.8630    -1.2870     1.8280 H     1 <1>   0.1500 
 25 H        0.8080    -2.2730    -0.0850 H     1 <1>   0.1500 
 26 H       -3.8090    -3.4440     1.1380 H     1 <1>   0.1500 
 27 H       -0.1430    -4.4380    -0.7870 H     1 <1>   0.1500 
 28 H       -5.4610    -7.4960    -1.3210 H     1 <1>   0.4000 
 29 H       -4.2700    -9.0080     0.6210 H     1 <1>   0.0800 
 30 H       -7.0180    -9.0850    -0.6470 H     1 <1>   0.0800 
 31 H       -5.1300   -10.5780    -1.8060 H     1 <1>   0.0800 
 32 H       -3.5270   -10.5170    -1.1220 H     1 <1>   0.0800 
 33 H       -6.5020    -7.0960     0.3230 H     1 <1>   0.4000 
 34 H       -6.1740   -10.1500     2.0530 H     1 <1>   0.0800 
 35 H       -7.7800   -10.2020     1.3700 H     1 <1>   0.0800 
 36 H       -4.7450   -12.5870    -0.4640 H     1 <1>   0.0800 
 37 H       -4.2990   -11.6200     0.9130 H     1 <1>   0.0800 
 38 H       -6.6080   -12.3890     1.1730 H     1 <1>   0.0800 
 39 H       -7.0360   -11.7320    -0.3800 H     1 <1>   0.0800 
@<TRIPOS>BOND
  1   1   2  1   
  2   2   3  ar  
  3   2   4  ar  
  4   3   5  ar  
  5   3  24  1   
  6   4   6  ar  
  7   4  25  1   
  8   5   7  ar  
  9   5  26  1   
 10   6   7  ar  
 11   6  27  1   
 12   7   8  1   
 13   8   9  1   
 14   8  10  2   
 15   9  11  1   
 16  10  12  1   
 17  10  13  1   
 18  11  12  2   
 19  12  14  1   
 20  13  15  ar  
 21  13  16  ar  
 22  14  17  1   
 23  14  28  1   
 24  17  18  1   
 25  17  19  1   
 26  17  29  1   
 27  18  20  1   
 28  18  21  1   
 29  18  30  1   
 30  19  22  1   
 31  19  31  1   
 32  19  32  1   
 33  20  33  1   
 34  21  23  1   
 35  21  34  1   
 36  21  35  1   
 37  22  23  1   
 38  22  36  1   
 39  22  37  1   
 40  23  38  1   
 41  23  39  1   
@<TRIPOS>SUBSTRUCTURE
  1 ****  10 GROUP 4 **** **** 0

# MOE 2024.06 (io_trps.svl 2023.06)
