@<TRIPOS>MOLECULE
NONAME
50 53 1 0 0 
SMALL
USER_CHARGES


@<TRIPOS>ATOM
  1 CL      -1.7340    -0.8850    -3.1440 Cl    1 <1>  -0.1770 
  2 C       -2.5780    -1.2680    -1.6580 C.ar  1 <1>   0.1770 
  3 C       -1.9260    -1.1950    -0.4320 C.ar  1 <1>   0.0830 
  4 C       -3.9060    -1.6380    -1.7370 C.ar  1 <1>  -0.1500 
  5 O       -0.6260    -0.8310    -0.3300 O.3   1 <1>  -0.3630 
  6 C       -2.6310    -1.4860     0.7240 C.ar  1 <1>  -0.1500 
  7 C       -4.6170    -1.9430    -0.5820 C.ar  1 <1>   0.1170 
  8 C        0.3160    -1.8480    -0.5840 C.3   1 <1>   0.0400 
  9 C       -3.9630    -1.8560     0.6460 C.ar  1 <1>  -0.1500 
 10 N       -5.9680    -2.3000    -0.6960 N.am  1 <1>  -0.5470 
 11 C       -6.7800    -3.0230     0.1290 C.2   1 <1>   0.6900 
 12 O       -6.3210    -3.6550     1.0610 O.2   1 <1>  -0.5700 
 13 N       -8.1280    -3.0320    -0.1230 N.am  1 <1>  -0.6600 
 14 C       -8.8520    -1.9080    -0.7940 C.3   1 <1>   0.1400 
 15 C       -9.0380    -3.9670     0.5930 C.3   1 <1>   0.1400 
 16 C       -9.6100    -1.0650     0.2480 C.3   1 <1>   0.1440 
 17 C       -9.8390    -3.2000     1.6540 C.3   1 <1>  -0.1600 
 18 C      -10.3980     0.0370    -0.4340 C.ar  1 <1>   0.1670 
 19 C      -10.5590    -1.9700     1.0660 C.3   1 <1>  -0.1600 
 20 C       -8.6460    -0.2600     1.1640 C.3   1 <1>  -0.1600 
 21 N      -11.1780    -0.1200    -1.4810 N.ar  1 <1>  -0.6200 
 22 C      -10.2030     1.2430     0.1700 C.ar  1 <1>  -0.1430 
 23 C       -9.2620     1.1390     1.3430 C.3   1 <1>  -0.0170 
 24 C      -11.7640     0.9930    -1.8980 C.ar  1 <1>   0.4770 
 25 C      -10.8600     2.3320    -0.3480 C.ar  1 <1>   0.1600 
 26 N      -11.6510     2.2150    -1.3940 N.ar  1 <1>  -0.6200 
 27 C      -12.6770     0.8610    -3.0930 C.3   1 <1>  -0.0970 
 28 H       -4.3790    -1.6890    -2.6990 H     1 <1>   0.1500 
 29 H       -2.1370    -1.4200     1.6770 H     1 <1>   0.1500 
 30 H        1.3000    -1.4360    -0.4470 H     1 <1>   0.0800 
 31 H        0.2010    -2.1920    -1.5960 H     1 <1>   0.0800 
 32 H        0.1530    -2.6550     0.1090 H     1 <1>   0.0800 
 33 H       -4.4980    -2.0790     1.5520 H     1 <1>   0.1500 
 34 H       -6.4100    -2.0920    -1.5850 H     1 <1>   0.3700 
 35 H       -9.5560    -2.3210    -1.4970 H     1 <1>   0.0800 
 36 H       -8.1790    -1.2750    -1.3440 H     1 <1>   0.0800 
 37 H       -8.4770    -4.7600     1.0590 H     1 <1>   0.0800 
 38 H       -9.7100    -4.4130    -0.1200 H     1 <1>   0.0800 
 39 H       -9.1650    -2.9020     2.4370 H     1 <1>   0.0800 
 40 H      -10.5630    -3.8630     2.0930 H     1 <1>   0.0800 
 41 H      -11.3460    -2.3130     0.4150 H     1 <1>   0.0800 
 42 H      -11.0200    -1.4030     1.8550 H     1 <1>   0.0800 
 43 H       -7.6970    -0.1460     0.6710 H     1 <1>   0.0800 
 44 H       -8.4700    -0.7380     2.1110 H     1 <1>   0.0800 
 45 H       -8.5090     1.9080     1.3230 H     1 <1>   0.0800 
 46 H       -9.8210     1.1940     2.2610 H     1 <1>   0.0800 
 47 H      -10.7380     3.3060     0.0950 H     1 <1>   0.1500 
 48 H      -12.5580    -0.1010    -3.5550 H     1 <1>   0.0800 
 49 H      -12.4450     1.6250    -3.8110 H     1 <1>   0.0800 
 50 H      -13.6960     0.9750    -2.7750 H     1 <1>   0.0800 
@<TRIPOS>BOND
  1   1   2  1   
  2   2   3  ar  
  3   2   4  ar  
  4   3   5  1   
  5   3   6  ar  
  6   4   7  ar  
  7   4  28  1   
  8   5   8  1   
  9   6   9  ar  
 10   6  29  1   
 11   7   9  ar  
 12   7  10  1   
 13   8  30  1   
 14   8  31  1   
 15   8  32  1   
 16   9  33  1   
 17  10  11  am  
 18  10  34  1   
 19  11  12  2   
 20  11  13  am  
 21  13  14  1   
 22  13  15  1   
 23  14  16  1   
 24  14  35  1   
 25  14  36  1   
 26  15  17  1   
 27  15  37  1   
 28  15  38  1   
 29  16  18  1   
 30  16  19  1   
 31  16  20  1   
 32  17  19  1   
 33  17  39  1   
 34  17  40  1   
 35  18  21  ar  
 36  18  22  ar  
 37  19  41  1   
 38  19  42  1   
 39  20  23  1   
 40  20  43  1   
 41  20  44  1   
 42  21  24  ar  
 43  22  23  1   
 44  22  25  ar  
 45  23  45  1   
 46  23  46  1   
 47  24  26  ar  
 48  24  27  1   
 49  25  26  ar  
 50  25  47  1   
 51  27  48  1   
 52  27  49  1   
 53  27  50  1   
@<TRIPOS>SUBSTRUCTURE
  1 ****  10 GROUP 4 **** **** 0

# MOE 2024.06 (io_trps.svl 2023.06)
