@<TRIPOS>MOLECULE
NONAME
52 55 1 0 0 
SMALL
USER_CHARGES


@<TRIPOS>ATOM
  1 O       -2.4840     0.8690     2.9500 O.2   1 <1>  -0.5700 
  2 C       -2.4260     1.2500     1.7970 C.2   1 <1>   0.5440 
  3 N       -2.8800     0.4130     0.8050 N.am  1 <1>  -0.6600 
  4 C       -1.9330     2.5750     1.4950 C.ar  1 <1>   0.0860 
  5 C       -3.2750     0.8460    -0.5580 C.3   1 <1>   0.1400 
  6 C       -3.3340    -0.9770     1.0590 C.3   1 <1>   0.1400 
  7 C       -0.8250     2.8010     0.6400 C.ar  1 <1>   0.0000 
  8 C       -2.5470     3.6810     2.0180 C.ar  1 <1>  -0.1500 
  9 C       -4.3710    -0.1390    -0.9590 C.3   1 <1>   0.2000 
 10 C       -3.9930    -1.4430    -0.2500 C.3   1 <1>  -0.0800 
 11 C       -0.4830     4.1330     0.3140 C.ar  1 <1>   0.3100 
 12 C       -0.0380     1.7610     0.1080 C.ar  1 <1>  -0.1500 
 13 C       -2.1270     4.9630     1.6670 C.ar  1 <1>   0.1660 
 14 O       -5.5710     0.3020    -0.4250 O.3   1 <1>  -0.6800 
 15 C       -3.0340    -2.2790    -1.1210 C.3   1 <1>  -0.0160 
 16 N       -1.1560     5.1920     0.8440 N.ar  1 <1>  -0.6200 
 17 C        0.5920     4.3750    -0.5790 C.ar  1 <1>  -0.1430 
 18 C        1.0000     2.0170    -0.7400 C.ar  1 <1>  -0.1500 
 19 C       -2.8270     6.1700     2.2540 C.3   1 <1>  -0.0970 
 20 C       -2.7250    -3.6320    -0.4990 C.ar  1 <1>   0.1670 
 21 C        1.3230     3.3290    -1.1010 C.ar  1 <1>  -0.1430 
 22 C        0.9070     5.8340    -0.9290 C.3   1 <1>  -0.0970 
 23 N       -1.5930    -3.7310     0.1780 N.ar  1 <1>  -0.6200 
 24 C       -3.6190    -4.6900    -0.6600 C.ar  1 <1>   0.1600 
 25 C        2.4930     3.5210    -2.0590 C.3   1 <1>  -0.0970 
 26 C       -1.4170    -4.9410     0.6800 C.ar  1 <1>   0.1600 
 27 N       -3.4450    -5.9020    -0.1590 N.ar  1 <1>  -0.6200 
 28 C       -2.3120    -5.9910     0.5170 C.ar  1 <1>   0.1600 
 29 H       -3.6270     1.8640    -0.5770 H     1 <1>   0.0800 
 30 H       -2.4300     0.7460    -1.2170 H     1 <1>   0.0800 
 31 H       -2.5000    -1.5930     1.3510 H     1 <1>   0.0800 
 32 H       -4.0540    -0.9710     1.8600 H     1 <1>   0.0800 
 33 H       -3.3680     3.5600     2.7020 H     1 <1>   0.1500 
 34 H       -4.4910    -0.2330    -2.0250 H     1 <1>   0.0800 
 35 H       -4.8700    -2.0330    -0.0450 H     1 <1>   0.0800 
 36 H       -0.2540     0.7410     0.3780 H     1 <1>   0.1500 
 37 H       -5.4350     0.5050     0.5240 H     1 <1>   0.4000 
 38 H       -2.1120    -1.7450    -1.2780 H     1 <1>   0.0800 
 39 H       -3.4790    -2.4430    -2.0860 H     1 <1>   0.0800 
 40 H        1.5800     1.1990    -1.1330 H     1 <1>   0.1500 
 41 H       -3.5840     5.8790     2.9590 H     1 <1>   0.0800 
 42 H       -3.2850     6.7370     1.4650 H     1 <1>   0.0800 
 43 H       -2.1080     6.7920     2.7550 H     1 <1>   0.0800 
 44 H        1.7080     5.9410    -1.6330 H     1 <1>   0.0800 
 45 H        1.1760     6.3680    -0.0350 H     1 <1>   0.0800 
 46 H        0.0340     6.3000    -1.3500 H     1 <1>   0.0800 
 47 H       -4.5180    -4.5280    -1.2270 H     1 <1>   0.1500 
 48 H        2.9350     2.5800    -2.3320 H     1 <1>   0.0800 
 49 H        3.2530     4.1240    -1.5950 H     1 <1>   0.0800 
 50 H        2.1560     4.0070    -2.9570 H     1 <1>   0.0800 
 51 H       -0.5200    -5.1120     1.2490 H     1 <1>   0.1500 
 52 H       -2.0810    -6.9420     0.9650 H     1 <1>   0.1500 
@<TRIPOS>BOND
  1   1   2  2   
  2   2   3  am  
  3   2   4  1   
  4   3   5  1   
  5   3   6  1   
  6   4   7  ar  
  7   4   8  ar  
  8   5   9  1   
  9   5  29  1   
 10   5  30  1   
 11   6  10  1   
 12   6  31  1   
 13   6  32  1   
 14   7  11  ar  
 15   7  12  ar  
 16   8  13  ar  
 17   8  33  1   
 18   9  10  1   
 19   9  14  1   
 20   9  34  1   
 21  10  15  1   
 22  10  35  1   
 23  11  16  ar  
 24  11  17  ar  
 25  12  18  ar  
 26  12  36  1   
 27  13  16  ar  
 28  13  19  1   
 29  14  37  1   
 30  15  20  1   
 31  15  38  1   
 32  15  39  1   
 33  17  21  ar  
 34  17  22  1   
 35  18  21  ar  
 36  18  40  1   
 37  19  41  1   
 38  19  42  1   
 39  19  43  1   
 40  20  23  ar  
 41  20  24  ar  
 42  21  25  1   
 43  22  44  1   
 44  22  45  1   
 45  22  46  1   
 46  23  26  ar  
 47  24  27  ar  
 48  24  47  1   
 49  25  48  1   
 50  25  49  1   
 51  25  50  1   
 52  26  28  ar  
 53  26  51  1   
 54  27  28  ar  
 55  28  52  1   
@<TRIPOS>SUBSTRUCTURE
  1 ****   3 GROUP 4 **** **** 0

# MOE 2024.06 (io_trps.svl 2023.06)
