@<TRIPOS>MOLECULE
NONAME
47 49 1 0 0 
SMALL
USER_CHARGES


@<TRIPOS>ATOM
  1 F        0.8660     0.0750    -0.0110 F     1 <1>  -0.1900 
  2 C        1.6820    -0.9280    -0.2540 C.ar  1 <1>   0.1900 
  3 C        1.1840    -2.2150    -0.4640 C.ar  1 <1>   0.4100 
  4 C        3.0380    -0.7060    -0.3130 C.ar  1 <1>   0.1660 
  5 N        2.0270    -3.2000    -0.7330 N.ar  1 <1>  -0.6200 
  6 N       -0.1630    -2.5410    -0.4070 N.pl3 1 <1>  -0.8380 
  7 N        3.8730    -1.7010    -0.5700 N.ar  1 <1>  -0.6200 
  8 C        3.6570     0.6690    -0.0930 C.3   1 <1>  -0.0170 
  9 C        3.3090    -2.8830    -0.7640 C.ar  1 <1>   0.4700 
 10 C       -0.7640    -3.5530    -1.3520 C.3   1 <1>   0.2090 
 11 C       -0.9350    -2.2850     0.8510 C.3   1 <1>   0.2090 
 12 C        4.1870     0.8220     1.3380 C.3   1 <1>  -0.2400 
 13 C       -1.8360    -4.3990    -0.6510 C.3   1 <1>   0.2000 
 14 C       -2.4200    -2.2060     0.5050 C.3   1 <1>  -0.1600 
 15 O       -2.3540    -5.3630    -1.5050 O.3   1 <1>  -0.6800 
 16 C       -2.9860    -3.5570    -0.0400 C.3   1 <1>  -0.1060 
 17 C       -3.5300    -4.4720     1.0600 C.2   1 <1>   0.9060 
 18 C       -4.1060    -3.2410    -1.0770 C.3   1 <1>  -0.0170 
 19 O       -3.3600    -4.1960     2.2530 O.co2 1 <1>  -0.9000 
 20 O       -4.0680    -5.5350     0.7110 O.co2 1 <1>  -0.9000 
 21 C       -5.1480    -2.2300    -0.6020 C.ar  1 <1>  -0.1440 
 22 C       -6.0670    -2.5770     0.3760 C.ar  1 <1>  -0.1500 
 23 C       -5.1930    -0.9550    -1.1480 C.ar  1 <1>  -0.1500 
 24 C       -7.0130    -1.6630     0.8070 C.ar  1 <1>  -0.1500 
 25 C       -6.1390    -0.0400    -0.7200 C.ar  1 <1>  -0.1500 
 26 C       -7.0510    -0.3930     0.2590 C.ar  1 <1>  -0.1500 
 27 H        4.4660     0.8000    -0.7900 H     1 <1>   0.0800 
 28 H        2.9350     1.4400    -0.2900 H     1 <1>   0.0800 
 29 H        3.9830    -3.6950    -0.9770 H     1 <1>   0.1500 
 30 H       -1.2130    -3.0290    -2.1760 H     1 <1>   0.0800 
 31 H       -0.0050    -4.2100    -1.7360 H     1 <1>   0.0800 
 32 H       -0.7660    -3.0840     1.5560 H     1 <1>   0.0800 
 33 H       -0.6220    -1.3640     1.3070 H     1 <1>   0.0800 
 34 H        4.9340     0.0730     1.5360 H     1 <1>   0.0800 
 35 H        3.3850     0.7070     2.0460 H     1 <1>   0.0800 
 36 H        4.6290     1.7940     1.4670 H     1 <1>   0.0800 
 37 H       -1.3360    -4.9390     0.1380 H     1 <1>   0.0800 
 38 H       -2.9780    -1.8980     1.3730 H     1 <1>   0.0800 
 39 H       -2.5280    -1.4270    -0.2270 H     1 <1>   0.0800 
 40 H       -3.0670    -5.8170    -0.9810 H     1 <1>   0.4000 
 41 H       -3.6490    -2.8720    -1.9770 H     1 <1>   0.0800 
 42 H       -4.6250    -4.1450    -1.3470 H     1 <1>   0.0800 
 43 H       -6.0430    -3.5640     0.8100 H     1 <1>   0.1500 
 44 H       -4.4860    -0.6710    -1.9070 H     1 <1>   0.1500 
 45 H       -7.7130    -1.9480     1.5720 H     1 <1>   0.1500 
 46 H       -6.1640     0.9460    -1.1480 H     1 <1>   0.1500 
 47 H       -7.7850     0.3160     0.5960 H     1 <1>   0.1500 
@<TRIPOS>BOND
  1   1   2  1   
  2   2   3  ar  
  3   2   4  ar  
  4   3   5  ar  
  5   3   6  1   
  6   4   7  ar  
  7   4   8  1   
  8   5   9  ar  
  9   6  10  1   
 10   6  11  1   
 11   7   9  ar  
 12   8  12  1   
 13   8  27  1   
 14   8  28  1   
 15   9  29  1   
 16  10  13  1   
 17  10  30  1   
 18  10  31  1   
 19  11  14  1   
 20  11  32  1   
 21  11  33  1   
 22  12  34  1   
 23  12  35  1   
 24  12  36  1   
 25  13  15  1   
 26  13  16  1   
 27  13  37  1   
 28  14  16  1   
 29  14  38  1   
 30  14  39  1   
 31  15  40  1   
 32  16  17  1   
 33  16  18  1   
 34  17  19  ar  
 35  17  20  ar  
 36  18  21  1   
 37  18  41  1   
 38  18  42  1   
 39  21  22  ar  
 40  21  23  ar  
 41  22  24  ar  
 42  22  43  1   
 43  23  25  ar  
 44  23  44  1   
 45  24  26  ar  
 46  24  45  1   
 47  25  26  ar  
 48  25  46  1   
 49  26  47  1   
@<TRIPOS>SUBSTRUCTURE
  1 ****  14 GROUP 4 **** **** 0

# MOE 2024.06 (io_trps.svl 2023.06)
