@<TRIPOS>MOLECULE
NONAME
46 47 1 0 0 
SMALL
USER_CHARGES


@<TRIPOS>ATOM
  1 S        0.7150    -0.5690     1.9480 S.o2  1 <1>   1.4470 
  2 O        0.3430     0.0980     3.1720 O.2   1 <1>  -0.6500 
  3 O        1.9690    -1.2900     1.9060 O.2   1 <1>  -0.6500 
  4 N       -0.4550    -1.7430     1.6990 N.am  1 <1>  -0.9140 
  5 C        0.6010     0.5300     0.5100 C.ar  1 <1>  -0.0090 
  6 C       -0.1480    -2.7040     0.6500 C.3   1 <1>   0.2760 
  7 C       -0.6050     1.1090     0.1140 C.ar  1 <1>   0.0830 
  8 C        1.7410     0.8130    -0.2360 C.ar  1 <1>  -0.1500 
  9 C       -1.4480    -3.2520     0.0810 C.3   1 <1>  -0.0800 
 10 C        0.4510    -3.9690     1.2550 C.3   1 <1>   0.1200 
 11 O       -1.7140     0.8370     0.8490 O.3   1 <1>  -0.3630 
 12 C       -0.6530     1.9340    -1.0090 C.ar  1 <1>  -0.1500 
 13 C        1.6940     1.6340    -1.3480 C.ar  1 <1>  -0.1500 
 14 C       -1.7910    -4.3990     1.0420 C.3   1 <1>   0.1200 
 15 C       -2.5620    -2.1950    -0.0720 C.3   1 <1>  -0.0550 
 16 O       -0.6370    -4.6580     1.7890 O.3   1 <1>  -0.5600 
 17 C       -2.9790     1.3850     0.5470 C.3   1 <1>   0.0400 
 18 C        0.4920     2.1940    -1.7360 C.ar  1 <1>  -0.1500 
 19 S       -4.0080    -2.7880    -0.9370 S.o2  1 <1>   1.3330 
 20 O       -4.6500    -3.8190    -0.1520 O.2   1 <1>  -0.6500 
 21 O       -3.6140    -3.0660    -2.2990 O.2   1 <1>  -0.6500 
 22 N       -5.0220    -1.4250    -0.9410 N.am  1 <1>  -0.8490 
 23 C       -5.7800    -1.2690     0.3050 C.3   1 <1>   0.1160 
 24 C       -5.9410    -1.4280    -2.0830 C.3   1 <1>   0.1160 
 25 H       -0.4960    -2.2670     2.5740 H     1 <1>   0.4200 
 26 H        0.4750    -2.2710    -0.1160 H     1 <1>   0.0800 
 27 H        2.6850     0.3830     0.0560 H     1 <1>   0.1500 
 28 H       -1.2410    -3.6800    -0.8850 H     1 <1>   0.0800 
 29 H        1.1740    -3.7730     2.0270 H     1 <1>   0.0800 
 30 H        0.8910    -4.5870     0.4910 H     1 <1>   0.0800 
 31 H       -1.5710     2.3860    -1.3340 H     1 <1>   0.1500 
 32 H        2.5900     1.8370    -1.9100 H     1 <1>   0.1500 
 33 H       -2.0750    -5.2930     0.5130 H     1 <1>   0.0800 
 34 H       -2.5710    -4.1250     1.7320 H     1 <1>   0.0800 
 35 H       -2.1640    -1.3600    -0.6140 H     1 <1>   0.0800 
 36 H       -2.8540    -1.8410     0.8970 H     1 <1>   0.0800 
 37 H       -3.6760     1.0410     1.2900 H     1 <1>   0.0800 
 38 H       -3.2870     1.0460    -0.4270 H     1 <1>   0.0800 
 39 H       -2.9130     2.4590     0.5820 H     1 <1>   0.0800 
 40 H        0.4510     2.8330    -2.6010 H     1 <1>   0.1500 
 41 H       -6.3400    -0.3500     0.2850 H     1 <1>   0.0800 
 42 H       -5.1110    -1.2410     1.1480 H     1 <1>   0.0800 
 43 H       -6.4640    -2.0920     0.4370 H     1 <1>   0.0800 
 44 H       -6.5620    -0.5490    -2.0670 H     1 <1>   0.0800 
 45 H       -6.5670    -2.3060    -2.0590 H     1 <1>   0.0800 
 46 H       -5.3840    -1.4280    -3.0050 H     1 <1>   0.0800 
@<TRIPOS>BOND
  1   1   2  2   
  2   1   3  2   
  3   1   4  am  
  4   1   5  1   
  5   4   6  1   
  6   4  25  1   
  7   5   7  ar  
  8   5   8  ar  
  9   6   9  1   
 10   6  10  1   
 11   6  26  1   
 12   7  11  1   
 13   7  12  ar  
 14   8  13  ar  
 15   8  27  1   
 16   9  14  1   
 17   9  15  1   
 18   9  28  1   
 19  10  16  1   
 20  10  29  1   
 21  10  30  1   
 22  11  17  1   
 23  12  18  ar  
 24  12  31  1   
 25  13  18  ar  
 26  13  32  1   
 27  14  16  1   
 28  14  33  1   
 29  14  34  1   
 30  15  19  1   
 31  15  35  1   
 32  15  36  1   
 33  17  37  1   
 34  17  38  1   
 35  17  39  1   
 36  18  40  1   
 37  19  20  2   
 38  19  21  2   
 39  19  22  am  
 40  22  23  1   
 41  22  24  1   
 42  23  41  1   
 43  23  42  1   
 44  23  43  1   
 45  24  44  1   
 46  24  45  1   
 47  24  46  1   
@<TRIPOS>SUBSTRUCTURE
  1 ****  15 GROUP 4 **** **** 0

# MOE 2024.06 (io_trps.svl 2023.06)
