@<TRIPOS>MOLECULE
NONAME
49 52 1 0 0 
SMALL
USER_CHARGES


@<TRIPOS>ATOM
  1 O       -1.2330     0.5990    -2.2730 O.2   1 <1>  -0.5700 
  2 C       -1.9390     0.9170    -1.3340 C.2   1 <1>   0.5440 
  3 N       -1.5220     1.9420    -0.5140 N.am  1 <1>  -0.6600 
  4 C       -3.1730     0.2080    -1.1010 C.ar  1 <1>   0.0860 
  5 C       -1.9970     2.1660     0.8710 C.3   1 <1>   0.1400 
  6 C       -0.2630     2.6810    -0.7630 C.3   1 <1>   0.1400 
  7 C       -3.2050    -1.1820    -1.1540 C.ar  1 <1>   0.1600 
  8 C       -4.3750     0.8500    -0.8200 C.ar  1 <1>  -0.1500 
  9 C       -0.8220     2.8280     1.5810 C.3   1 <1>  -0.1600 
 10 C       -0.0650     3.5530     0.4720 C.3   1 <1>  -0.1600 
 11 N       -4.2620    -1.9450    -0.9390 N.ar  1 <1>  -0.6200 
 12 C       -5.4860     0.0730    -0.5990 C.ar  1 <1>  -0.1500 
 13 C       -5.4010    -1.3170    -0.6660 C.ar  1 <1>   0.4100 
 14 N       -6.5210    -2.0920    -0.4460 N.pl3 1 <1>  -0.8380 
 15 C       -7.8100    -1.7570    -1.1050 C.3   1 <1>   0.2090 
 16 C       -6.4140    -3.5690    -0.2800 C.3   1 <1>   0.2090 
 17 C       -8.4990    -3.0990    -1.3630 C.3   1 <1>   0.2000 
 18 C       -7.8460    -4.0870    -0.4030 C.3   1 <1>  -0.0800 
 19 O       -9.8650    -3.0370    -1.1200 O.3   1 <1>  -0.6800 
 20 C       -7.9510    -5.5440    -0.8850 C.3   1 <1>  -0.0160 
 21 C       -7.3550    -6.5160     0.1200 C.ar  1 <1>   0.1670 
 22 N       -6.0390    -6.6570     0.0980 N.ar  1 <1>  -0.6200 
 23 C       -8.1870    -7.2030     1.0030 C.ar  1 <1>   0.1600 
 24 C       -5.6160    -7.5180     1.0090 C.ar  1 <1>   0.1600 
 25 N       -7.7660    -8.0640     1.9140 N.ar  1 <1>  -0.6200 
 26 C       -6.4510    -8.1980     1.8870 C.ar  1 <1>   0.1600 
 27 H       -2.8400     2.8340     0.8500 H     1 <1>   0.0800 
 28 H       -2.2740     1.2400     1.3460 H     1 <1>   0.0800 
 29 H        0.5450     1.9760    -0.8620 H     1 <1>   0.0800 
 30 H       -0.3390     3.2690    -1.6610 H     1 <1>   0.0800 
 31 H       -2.2830    -1.6880    -1.3900 H     1 <1>   0.1500 
 32 H       -4.4230     1.9240    -0.7830 H     1 <1>   0.1500 
 33 H       -1.1480     3.4930     2.3610 H     1 <1>   0.0800 
 34 H       -0.1980     2.0630     2.0090 H     1 <1>   0.0800 
 35 H        0.9770     3.6860     0.7040 H     1 <1>   0.0800 
 36 H       -0.5100     4.5160     0.2940 H     1 <1>   0.0800 
 37 H       -6.4300     0.5260    -0.3680 H     1 <1>   0.1500 
 38 H       -8.3960    -1.1460    -0.4410 H     1 <1>   0.0800 
 39 H       -7.6360    -1.2380    -2.0320 H     1 <1>   0.0800 
 40 H       -5.7990    -3.9800    -1.0640 H     1 <1>   0.0800 
 41 H       -5.9800    -3.8150     0.6740 H     1 <1>   0.0800 
 42 H       -8.3470    -3.3910    -2.3890 H     1 <1>   0.0800 
 43 H       -8.2980    -3.9950     0.5690 H     1 <1>   0.0800 
 44 H      -10.0320    -2.7890    -0.1900 H     1 <1>   0.4000 
 45 H       -7.4430    -5.6570    -1.8270 H     1 <1>   0.0800 
 46 H       -8.9870    -5.7860    -1.0480 H     1 <1>   0.0800 
 47 H       -9.2480    -7.0320     0.9540 H     1 <1>   0.1500 
 48 H       -4.5560    -7.6930     1.0630 H     1 <1>   0.1500 
 49 H       -6.0110    -8.8790     2.5940 H     1 <1>   0.1500 
@<TRIPOS>BOND
  1   1   2  2   
  2   2   3  am  
  3   2   4  1   
  4   3   5  1   
  5   3   6  1   
  6   4   7  ar  
  7   4   8  ar  
  8   5   9  1   
  9   5  27  1   
 10   5  28  1   
 11   6  10  1   
 12   6  29  1   
 13   6  30  1   
 14   7  11  ar  
 15   7  31  1   
 16   8  12  ar  
 17   8  32  1   
 18   9  10  1   
 19   9  33  1   
 20   9  34  1   
 21  10  35  1   
 22  10  36  1   
 23  11  13  ar  
 24  12  13  ar  
 25  12  37  1   
 26  13  14  1   
 27  14  15  1   
 28  14  16  1   
 29  15  17  1   
 30  15  38  1   
 31  15  39  1   
 32  16  18  1   
 33  16  40  1   
 34  16  41  1   
 35  17  18  1   
 36  17  19  1   
 37  17  42  1   
 38  18  20  1   
 39  18  43  1   
 40  19  44  1   
 41  20  21  1   
 42  20  45  1   
 43  20  46  1   
 44  21  22  ar  
 45  21  23  ar  
 46  22  24  ar  
 47  23  25  ar  
 48  23  47  1   
 49  24  26  ar  
 50  24  48  1   
 51  25  26  ar  
 52  26  49  1   
@<TRIPOS>SUBSTRUCTURE
  1 ****  13 GROUP 4 **** **** 0

# MOE 2024.06 (io_trps.svl 2023.06)
