@<TRIPOS>MOLECULE
NONAME
45 46 1 0 0 
SMALL
USER_CHARGES


@<TRIPOS>ATOM
  1 CL      -5.8510    -2.5820     2.6740 Cl    1 <1>  -0.1770 
  2 C       -5.0570    -1.1390     2.0780 C.ar  1 <1>   0.1770 
  3 C       -4.3530    -1.1770     0.8780 C.ar  1 <1>   0.0830 
  4 C       -5.1510     0.0220     2.8220 C.ar  1 <1>  -0.1500 
  5 O       -4.3030    -2.3560     0.2050 O.3   1 <1>  -0.3630 
  6 C       -3.7370    -0.0110     0.4280 C.ar  1 <1>  -0.1500 
  7 C       -4.5340     1.1740     2.3660 C.ar  1 <1>  -0.1500 
  8 C       -3.6690    -2.4730    -1.0620 C.3   1 <1>   0.1810 
  9 C       -3.8310     1.1550     1.1720 C.ar  1 <1>  -0.1500 
 10 C       -3.8160    -3.8920    -1.5930 C.2   1 <1>   0.5690 
 11 O       -3.9050    -4.0690    -2.7830 O.2   1 <1>  -0.5700 
 12 N       -3.8660    -4.9250    -0.7140 N.am  1 <1>  -0.7300 
 13 C       -4.1410    -6.3390    -1.0520 C.3   1 <1>   0.2200 
 14 C       -5.5540    -6.7170    -0.6330 C.3   1 <1>  -0.0800 
 15 C       -3.3240    -7.2380    -0.1350 C.3   1 <1>   0.1200 
 16 C       -5.3880    -7.0450     0.8550 C.3   1 <1>   0.1200 
 17 C       -6.6310    -5.6550    -0.9530 C.3   1 <1>  -0.0550 
 18 O       -4.0240    -7.2650     1.0720 O.3   1 <1>  -0.5600 
 19 S       -8.3120    -6.1830    -0.6140 S.o2  1 <1>   1.3330 
 20 O       -8.4720    -7.5230    -1.1340 O.2   1 <1>  -0.6500 
 21 O       -9.2320    -5.1460    -1.0230 O.2   1 <1>  -0.6500 
 22 N       -8.3800    -6.2750     1.0810 N.am  1 <1>  -0.8490 
 23 C       -9.4430    -7.1720     1.5410 C.3   1 <1>   0.1160 
 24 C       -8.5240    -4.9640     1.7260 C.3   1 <1>   0.1160 
 25 H       -5.7010     0.0210     3.7470 H     1 <1>   0.1500 
 26 H       -3.1820     0.0140    -0.4910 H     1 <1>   0.1500 
 27 H       -4.6010     2.0850     2.9380 H     1 <1>   0.1500 
 28 H       -4.1370    -1.7850    -1.7430 H     1 <1>   0.0800 
 29 H       -2.6280    -2.2370    -0.9490 H     1 <1>   0.0800 
 30 H       -3.3530     2.0550     0.8220 H     1 <1>   0.1500 
 31 H       -3.8380    -4.7270     0.2930 H     1 <1>   0.3700 
 32 H       -3.9460    -6.5280    -2.0940 H     1 <1>   0.0800 
 33 H       -5.8150    -7.6300    -1.1400 H     1 <1>   0.0800 
 34 H       -2.3270    -6.8720     0.0300 H     1 <1>   0.0800 
 35 H       -3.2900    -8.2430    -0.5180 H     1 <1>   0.0800 
 36 H       -5.9370    -7.9270     1.1360 H     1 <1>   0.0800 
 37 H       -5.6830    -6.2200     1.4810 H     1 <1>   0.0800 
 38 H       -6.5580    -5.4170    -1.9970 H     1 <1>   0.0800 
 39 H       -6.4290    -4.7540    -0.4080 H     1 <1>   0.0800 
 40 H       -9.4500    -7.2220     2.6160 H     1 <1>   0.0800 
 41 H       -9.2770    -8.1660     1.1600 H     1 <1>   0.0800 
 42 H      -10.4020    -6.8250     1.1930 H     1 <1>   0.0800 
 43 H       -8.4640    -5.0700     2.7960 H     1 <1>   0.0800 
 44 H       -9.4720    -4.5190     1.4700 H     1 <1>   0.0800 
 45 H       -7.7370    -4.3020     1.4090 H     1 <1>   0.0800 
@<TRIPOS>BOND
  1   1   2  1   
  2   2   3  ar  
  3   2   4  ar  
  4   3   5  1   
  5   3   6  ar  
  6   4   7  ar  
  7   4  25  1   
  8   5   8  1   
  9   6   9  ar  
 10   6  26  1   
 11   7   9  ar  
 12   7  27  1   
 13   8  10  1   
 14   8  28  1   
 15   8  29  1   
 16   9  30  1   
 17  10  11  2   
 18  10  12  am  
 19  12  13  1   
 20  12  31  1   
 21  13  14  1   
 22  13  15  1   
 23  13  32  1   
 24  14  16  1   
 25  14  17  1   
 26  14  33  1   
 27  15  18  1   
 28  15  34  1   
 29  15  35  1   
 30  16  18  1   
 31  16  36  1   
 32  16  37  1   
 33  17  19  1   
 34  17  38  1   
 35  17  39  1   
 36  19  20  2   
 37  19  21  2   
 38  19  22  am  
 39  22  23  1   
 40  22  24  1   
 41  23  40  1   
 42  23  41  1   
 43  23  42  1   
 44  24  43  1   
 45  24  44  1   
 46  24  45  1   
@<TRIPOS>SUBSTRUCTURE
  1 ****   5 GROUP 4 **** **** 0

# MOE 2024.06 (io_trps.svl 2023.06)
