@<TRIPOS>MOLECULE
NONAME
43 45 1 0 0 
SMALL
USER_CHARGES


@<TRIPOS>ATOM
  1 F        0.1350     0.9820     0.8910 F     1 <1>  -0.1900 
  2 C        1.3220     1.5240     0.7790 C.ar  1 <1>   0.1900 
  3 C        1.5170     2.7650     0.1560 C.ar  1 <1>   0.0830 
  4 C        2.3650     0.7940     1.3120 C.ar  1 <1>  -0.1500 
  5 O        0.5330     3.5380    -0.3990 O.3   1 <1>  -0.3630 
  6 C        2.8170     3.2730     0.0820 C.ar  1 <1>  -0.1440 
  7 C        3.6460     1.3020     1.2300 C.ar  1 <1>  -0.1500 
  8 C       -0.8320     3.1850    -0.4200 C.3   1 <1>   0.0400 
  9 C        3.8640     2.5260     0.6210 C.ar  1 <1>  -0.1500 
 10 C        3.0000     4.6360    -0.6080 C.3   1 <1>   0.2540 
 11 N        4.3280     5.2780    -0.5320 N.3   1 <1>  -0.8100 
 12 C        4.7250     5.6780     0.8420 C.3   1 <1>   0.1100 
 13 C        5.3320     4.7070    -1.4540 C.3   1 <1>   0.1100 
 14 C        5.9210     6.6560     0.9620 C.3   1 <1>   0.2200 
 15 C        6.5960     5.5630    -1.6540 C.3   1 <1>  -0.0190 
 16 N        6.0710     7.5530    -0.2240 N.am  1 <1>  -0.6600 
 17 C        7.2420     5.9320     1.2920 C.3   1 <1>   0.1200 
 18 C        6.3650     7.0510    -1.4640 C.2   1 <1>   0.5690 
 19 C        7.8020     5.0750    -0.8380 C.3   1 <1>   0.1200 
 20 C        5.7280     8.9850    -0.0140 C.3   1 <1>   0.0600 
 21 O        7.4720     4.8100     0.4900 O.3   1 <1>  -0.5600 
 22 O        6.4950     7.7670    -2.4320 O.2   1 <1>  -0.5700 
 23 H        2.1750    -0.1550     1.7810 H     1 <1>   0.1500 
 24 H        4.4750     0.7500     1.6380 H     1 <1>   0.1500 
 25 H       -1.3730     3.9700    -0.9170 H     1 <1>   0.0800 
 26 H       -1.1840     3.0850     0.5910 H     1 <1>   0.0800 
 27 H       -0.9480     2.2640    -0.9640 H     1 <1>   0.0800 
 28 H        4.8750     2.8810     0.5820 H     1 <1>   0.1500 
 29 H        2.2870     5.3220    -0.1840 H     1 <1>   0.0800 
 30 H        2.7320     4.5270    -1.6450 H     1 <1>   0.0800 
 31 H        3.8800     6.1670     1.2930 H     1 <1>   0.0800 
 32 H        4.9280     4.8120     1.4420 H     1 <1>   0.0800 
 33 H        5.6170     3.7180    -1.1480 H     1 <1>   0.0800 
 34 H        4.8620     4.6120    -2.4180 H     1 <1>   0.0800 
 35 H        5.7210     7.2810     1.8140 H     1 <1>   0.0800 
 36 H        6.8850     5.4360    -2.6800 H     1 <1>   0.0800 
 37 H        7.1960     5.5730     2.3040 H     1 <1>   0.0800 
 38 H        8.0780     6.6050     1.2120 H     1 <1>   0.0800 
 39 H        8.6060     5.7910    -0.8680 H     1 <1>   0.0800 
 40 H        8.1590     4.1500    -1.2540 H     1 <1>   0.0800 
 41 H        6.3720     9.4100     0.7350 H     1 <1>   0.0800 
 42 H        4.7030     9.0670     0.3050 H     1 <1>   0.0800 
 43 H        5.8470     9.5440    -0.9260 H     1 <1>   0.0800 
@<TRIPOS>BOND
  1   1   2  1   
  2   2   3  ar  
  3   2   4  ar  
  4   3   5  1   
  5   3   6  ar  
  6   4   7  ar  
  7   4  23  1   
  8   5   8  1   
  9   6   9  ar  
 10   6  10  1   
 11   7   9  ar  
 12   7  24  1   
 13   8  25  1   
 14   8  26  1   
 15   8  27  1   
 16   9  28  1   
 17  10  11  1   
 18  10  29  1   
 19  10  30  1   
 20  11  12  1   
 21  11  13  1   
 22  12  14  1   
 23  12  31  1   
 24  12  32  1   
 25  13  15  1   
 26  13  33  1   
 27  13  34  1   
 28  14  16  1   
 29  14  17  1   
 30  14  35  1   
 31  15  18  1   
 32  15  19  1   
 33  15  36  1   
 34  16  18  am  
 35  16  20  1   
 36  17  21  1   
 37  17  37  1   
 38  17  38  1   
 39  18  22  2   
 40  19  21  1   
 41  19  39  1   
 42  19  40  1   
 43  20  41  1   
 44  20  42  1   
 45  20  43  1   
@<TRIPOS>SUBSTRUCTURE
  1 ****  11 GROUP 4 **** **** 0

# MOE 2024.06 (io_trps.svl 2023.06)
