@<TRIPOS>MOLECULE
NONAME
55 57 1 0 0 
SMALL
USER_CHARGES


@<TRIPOS>ATOM
  1 O       -1.9200     0.6400     0.0480 O.3   1 <1>  -0.5600 
  2 C       -1.0070     1.6880     0.2380 C.3   1 <1>   0.1200 
  3 C       -2.3130    -0.0200     1.2230 C.3   1 <1>   0.1200 
  4 C        0.4270     1.1560     0.2560 C.3   1 <1>   0.1200 
  5 C       -3.3450    -1.1020     0.8620 C.3   1 <1>   0.3430 
  6 O        1.2700     2.2300     0.5140 O.3   1 <1>  -0.5600 
  7 N       -4.1890    -0.6270    -0.2720 N.4   1 <1>  -0.9590 
  8 C        2.6240     1.9060     0.5090 C.3   1 <1>   0.0400 
  9 C       -5.1900     0.4040     0.1590 C.3   1 <1>   0.3430 
 10 C       -4.8220    -1.7340    -1.0390 C.3   1 <1>   0.3430 
 11 C       -5.9000     1.0380    -1.0470 C.3   1 <1>   0.1430 
 12 C       -5.5200    -1.1690    -2.2810 C.3   1 <1>  -0.1600 
 13 C       -6.9640     1.9730    -0.5280 C.ar  1 <1>   0.1670 
 14 C       -6.5300    -0.0590    -1.9310 C.3   1 <1>  -0.1600 
 15 C       -4.9810     1.9910    -1.8590 C.3   1 <1>  -0.1600 
 16 N       -7.8180     1.6680     0.4130 N.ar  1 <1>  -0.6200 
 17 C       -6.9170     3.1860    -1.1430 C.ar  1 <1>  -0.1430 
 18 C       -5.8150     3.2500    -2.1700 C.3   1 <1>  -0.0170 
 19 C       -8.6790     2.6430     0.7280 C.ar  1 <1>   0.7200 
 20 C       -7.8340     4.1270    -0.7500 C.ar  1 <1>   0.1600 
 21 N       -8.7160     3.8640     0.1840 N.ar  1 <1>  -0.6200 
 22 N       -9.6110     2.3630     1.7070 N.pl3 1 <1>  -0.8380 
 23 C      -10.7810     3.2560     1.9500 C.3   1 <1>   0.1290 
 24 C       -9.5560     1.1430     2.5580 C.3   1 <1>   0.1290 
 25 H       -1.2350     2.2080     1.1530 H     1 <1>   0.0800 
 26 H       -1.1180     2.3680    -0.5890 H     1 <1>   0.0800 
 27 H       -2.7510     0.7000     1.8940 H     1 <1>   0.0800 
 28 H       -1.4520    -0.4630     1.6940 H     1 <1>   0.0800 
 29 H        0.6840     0.7380    -0.7020 H     1 <1>   0.0800 
 30 H        0.5620     0.4290     1.0370 H     1 <1>   0.0800 
 31 H       -3.9510    -1.3510     1.7190 H     1 <1>   0.0800 
 32 H       -2.8090    -1.9880     0.5630 H     1 <1>   0.0800 
 33 H       -3.5060    -0.1360    -0.8790 H     1 <1>   0.4500 
 34 H        3.1830     2.8010     0.7200 H     1 <1>   0.0800 
 35 H        2.8970     1.5300    -0.4620 H     1 <1>   0.0800 
 36 H        2.8190     1.1710     1.2710 H     1 <1>   0.0800 
 37 H       -4.7050     1.1840     0.7230 H     1 <1>   0.0800 
 38 H       -5.9330    -0.0530     0.7920 H     1 <1>   0.0800 
 39 H       -5.5450    -2.2380    -0.4190 H     1 <1>   0.0800 
 40 H       -4.0740    -2.4500    -1.3420 H     1 <1>   0.0800 
 41 H       -6.0370    -1.9690    -2.7820 H     1 <1>   0.0800 
 42 H       -4.7780    -0.7970    -2.9650 H     1 <1>   0.0800 
 43 H       -6.9310     0.3760    -2.8310 H     1 <1>   0.0800 
 44 H       -7.3570    -0.5000    -1.3980 H     1 <1>   0.0800 
 45 H       -4.6030     1.5460    -2.7630 H     1 <1>   0.0800 
 46 H       -4.1420     2.2900    -1.2530 H     1 <1>   0.0800 
 47 H       -6.2400     3.1940    -3.1580 H     1 <1>   0.0800 
 48 H       -5.2310     4.1490    -2.0740 H     1 <1>   0.0800 
 49 H       -7.8460     5.1040    -1.2030 H     1 <1>   0.1500 
 50 H      -11.0940     3.7250     1.0330 H     1 <1>   0.0800 
 51 H      -10.5090     4.0190     2.6570 H     1 <1>   0.0800 
 52 H      -11.6090     2.6900     2.3380 H     1 <1>   0.0800 
 53 H       -8.5420     0.7970     2.6620 H     1 <1>   0.0800 
 54 H      -10.1500     0.3660     2.1110 H     1 <1>   0.0800 
 55 H       -9.9380     1.3620     3.5400 H     1 <1>   0.0800 
@<TRIPOS>BOND
  1   1   2  1   
  2   1   3  1   
  3   2   4  1   
  4   2  25  1   
  5   2  26  1   
  6   3   5  1   
  7   3  27  1   
  8   3  28  1   
  9   4   6  1   
 10   4  29  1   
 11   4  30  1   
 12   5   7  1   
 13   5  31  1   
 14   5  32  1   
 15   6   8  1   
 16   7   9  1   
 17   7  10  1   
 18   7  33  1   
 19   8  34  1   
 20   8  35  1   
 21   8  36  1   
 22   9  11  1   
 23   9  37  1   
 24   9  38  1   
 25  10  12  1   
 26  10  39  1   
 27  10  40  1   
 28  11  13  1   
 29  11  14  1   
 30  11  15  1   
 31  12  14  1   
 32  12  41  1   
 33  12  42  1   
 34  13  16  ar  
 35  13  17  ar  
 36  14  43  1   
 37  14  44  1   
 38  15  18  1   
 39  15  45  1   
 40  15  46  1   
 41  16  19  ar  
 42  17  18  1   
 43  17  20  ar  
 44  18  47  1   
 45  18  48  1   
 46  19  21  ar  
 47  19  22  1   
 48  20  21  ar  
 49  20  49  1   
 50  22  23  1   
 51  22  24  1   
 52  23  50  1   
 53  23  51  1   
 54  23  52  1   
 55  24  53  1   
 56  24  54  1   
 57  24  55  1   
@<TRIPOS>SUBSTRUCTURE
  1 ****   9 GROUP 4 **** **** 0

# MOE 2024.06 (io_trps.svl 2023.06)
