@<TRIPOS>MOLECULE
NONAME
44 46 1 0 0 
SMALL
USER_CHARGES


@<TRIPOS>ATOM
  1 S        1.4390    -3.0550     1.3690 S.3   1 <1>  -0.0800 
  2 C        0.0790    -3.6220     0.3890 C.2   1 <1>  -0.0450 
  3 C        0.4600    -3.1030     2.8330 C.2   1 <1>  -0.1100 
  4 C        0.0370    -3.8690    -1.0060 C.2   1 <1>   0.8660 
  5 C       -1.0010    -3.8100     1.1800 C.2   1 <1>   0.0830 
  6 C       -0.7930    -3.5190     2.5620 C.2   1 <1>  -0.1500 
  7 O        1.0040    -3.6990    -1.7350 O.2   1 <1>  -0.5700 
  8 N       -1.1370    -4.3160    -1.5690 N.2   1 <1>  -0.6610 
  9 N       -2.1340    -4.2530     0.5520 N.pl3 1 <1>  -0.5330 
 10 C       -2.1510    -4.4910    -0.7930 C.2   1 <1>   0.4390 
 11 C       -3.4840    -4.9950    -1.3510 C.3   1 <1>   0.1710 
 12 N       -4.3230    -5.6830    -0.3240 N.3   1 <1>  -0.8100 
 13 C       -3.7740    -7.0220    -0.0400 C.3   1 <1>   0.1100 
 14 C       -5.7110    -5.7730    -0.8010 C.3   1 <1>   0.0300 
 15 C       -4.3120    -7.5500     1.2940 C.3   1 <1>  -0.1600 
 16 C       -3.5510    -8.8000     1.7630 C.3   1 <1>   0.0960 
 17 N       -3.5740    -9.8730     0.7470 N.pl3 1 <1>   0.3140 
 18 N       -2.5720   -10.0000    -0.1420 N.2   1 <1>  -0.7070 
 19 C       -4.5310   -10.8070     0.5440 C.2   1 <1>  -0.3320 
 20 C       -2.9080   -11.0040    -0.8850 C.2   1 <1>   0.1080 
 21 C       -4.1260   -11.5530    -0.5060 C.2   1 <1>  -0.1500 
 22 C       -5.8030   -10.9560     1.3620 C.3   1 <1>  -0.0600 
 23 C       -2.0450   -11.4920    -2.0240 C.3   1 <1>  -0.0590 
 24 H        0.9360    -2.8090     3.7530 H     1 <1>   0.1500 
 25 H       -1.5860    -3.6350     3.2780 H     1 <1>   0.1500 
 26 H       -3.0030    -4.4990     1.0440 H     1 <1>   0.4000 
 27 H       -3.2970    -5.6560    -2.1810 H     1 <1>   0.0800 
 28 H       -4.0120    -4.1370    -1.7260 H     1 <1>   0.0800 
 29 H       -2.6990    -6.9700     0.0290 H     1 <1>   0.0800 
 30 H       -4.0110    -7.7030    -0.8430 H     1 <1>   0.0800 
 31 H       -6.0910    -4.7890    -1.0180 H     1 <1>   0.0800 
 32 H       -6.3410    -6.2110    -0.0470 H     1 <1>   0.0800 
 33 H       -5.7660    -6.3730    -1.6940 H     1 <1>   0.0800 
 34 H       -5.3550    -7.7910     1.2030 H     1 <1>   0.0800 
 35 H       -4.2050    -6.7870     2.0440 H     1 <1>   0.0800 
 36 H       -3.9780    -9.1790     2.6730 H     1 <1>   0.0800 
 37 H       -2.5220    -8.5500     1.9530 H     1 <1>   0.0800 
 38 H       -4.6150   -12.3910    -0.9680 H     1 <1>   0.1500 
 39 H       -6.4000   -10.0650     1.2920 H     1 <1>   0.0800 
 40 H       -5.5620   -11.1400     2.3940 H     1 <1>   0.0800 
 41 H       -6.3820   -11.7850     0.9950 H     1 <1>   0.0800 
 42 H       -2.5000   -12.3360    -2.5060 H     1 <1>   0.0800 
 43 H       -1.0810   -11.7770    -1.6440 H     1 <1>   0.0800 
 44 H       -1.9180   -10.7010    -2.7400 H     1 <1>   0.0800 
@<TRIPOS>BOND
  1   1   2  1   
  2   1   3  1   
  3   2   4  1   
  4   2   5  2   
  5   3   6  2   
  6   3  24  1   
  7   4   7  2   
  8   4   8  1   
  9   5   6  1   
 10   5   9  1   
 11   6  25  1   
 12   8  10  2   
 13   9  10  1   
 14   9  26  1   
 15  10  11  1   
 16  11  12  1   
 17  11  27  1   
 18  11  28  1   
 19  12  13  1   
 20  12  14  1   
 21  13  15  1   
 22  13  29  1   
 23  13  30  1   
 24  14  31  1   
 25  14  32  1   
 26  14  33  1   
 27  15  16  1   
 28  15  34  1   
 29  15  35  1   
 30  16  17  1   
 31  16  36  1   
 32  16  37  1   
 33  17  18  1   
 34  17  19  1   
 35  18  20  2   
 36  19  21  2   
 37  19  22  1   
 38  20  21  1   
 39  20  23  1   
 40  21  38  1   
 41  22  39  1   
 42  22  40  1   
 43  22  41  1   
 44  23  42  1   
 45  23  43  1   
 46  23  44  1   
@<TRIPOS>SUBSTRUCTURE
  1 ****  13 GROUP 4 **** **** 0

# MOE 2024.06 (io_trps.svl 2023.06)
