@<TRIPOS>MOLECULE
NONAME
50 53 1 0 0 
SMALL
USER_CHARGES


@<TRIPOS>ATOM
  1 O        0.6660     0.7500     0.5590 O.3   1 <1>  -0.0190 
  2 N        1.6480    -0.0540     0.8490 N.2   1 <1>  -0.4100 
  3 C        1.0920     1.9330     0.2040 C.2   1 <1>  -0.0400 
  4 C        2.7260     0.6220     0.6750 C.2   1 <1>   0.1080 
  5 C        2.4340     1.9160     0.2550 C.2   1 <1>  -0.1500 
  6 C        0.0770     3.0010    -0.1690 C.3   1 <1>   0.0200 
  7 C        4.1190     0.0780     0.8980 C.3   1 <1>  -0.0590 
  8 C        0.7190     4.3870    -0.3500 C.3   1 <1>  -0.0800 
  9 C       -0.2110     5.4760    -0.8800 C.3   1 <1>   0.2000 
 10 C        1.2520     4.9840     0.9500 C.3   1 <1>   0.2090 
 11 O       -1.4650     5.3350    -0.2670 O.3   1 <1>  -0.5600 
 12 C        0.4700     6.7810    -0.4350 C.3   1 <1>   0.2090 
 13 N        1.4030     6.4330     0.6770 N.pl3 1 <1>  -0.8380 
 14 C       -2.5120     6.0050    -0.8960 C.3   1 <1>   0.0400 
 15 C        2.6930     6.9200     0.5950 C.ar  1 <1>   0.4100 
 16 N        3.4330     6.4100    -0.3850 N.ar  1 <1>  -0.6200 
 17 C        3.1570     7.8840     1.4970 C.ar  1 <1>   0.0730 
 18 C        4.6720     6.8530    -0.4910 C.ar  1 <1>   0.1670 
 19 C        2.3110     8.3930     2.5320 C.1   1 <1>   0.4840 
 20 C        4.4560     8.3330     1.3660 C.ar  1 <1>  -0.1500 
 21 C        5.2320     7.8090     0.3510 C.ar  1 <1>  -0.1430 
 22 C        5.4720     6.2490    -1.6380 C.3   1 <1>  -0.0170 
 23 N        1.6900     8.8450     3.3770 N.1   1 <1>  -0.5570 
 24 C        6.6710     8.2900     0.2020 C.3   1 <1>  -0.0170 
 25 C        6.9830     6.4980    -1.5340 C.3   1 <1>  -0.1600 
 26 C        7.2610     7.9600    -1.1730 C.3   1 <1>  -0.1600 
 27 H        3.1480     2.6880     0.0330 H     1 <1>   0.1500 
 28 H       -0.4080     2.7070    -1.0830 H     1 <1>   0.0800 
 29 H       -0.6750     3.0460     0.6000 H     1 <1>   0.0800 
 30 H        4.6320     0.6780     1.6270 H     1 <1>   0.0800 
 31 H        4.6670     0.0920    -0.0250 H     1 <1>   0.0800 
 32 H        4.0640    -0.9340     1.2560 H     1 <1>   0.0800 
 33 H        1.5450     4.3040    -1.0340 H     1 <1>   0.0800 
 34 H       -0.3290     5.4150    -1.9480 H     1 <1>   0.0800 
 35 H        2.1890     4.5400     1.2400 H     1 <1>   0.0800 
 36 H        0.5360     4.8540     1.7450 H     1 <1>   0.0800 
 37 H       -0.2490     7.5070    -0.1010 H     1 <1>   0.0800 
 38 H        1.0300     7.1920    -1.2580 H     1 <1>   0.0800 
 39 H       -3.4100     5.8190    -0.3340 H     1 <1>   0.0800 
 40 H       -2.6270     5.6250    -1.8960 H     1 <1>   0.0800 
 41 H       -2.3100     7.0610    -0.9100 H     1 <1>   0.0800 
 42 H        4.8510     9.0720     2.0410 H     1 <1>   0.1500 
 43 H        5.2910     5.1900    -1.6770 H     1 <1>   0.0800 
 44 H        5.1040     6.6760    -2.5530 H     1 <1>   0.0800 
 45 H        6.7200     9.3530     0.3600 H     1 <1>   0.0800 
 46 H        7.2670     7.8160     0.9630 H     1 <1>   0.0800 
 47 H        7.3990     5.8570    -0.7750 H     1 <1>   0.0800 
 48 H        7.4530     6.2530    -2.4710 H     1 <1>   0.0800 
 49 H        6.8200     8.6030    -1.9160 H     1 <1>   0.0800 
 50 H        8.3220     8.1410    -1.1630 H     1 <1>   0.0800 
@<TRIPOS>BOND
  1   1   2  1   
  2   1   3  1   
  3   2   4  2   
  4   3   5  2   
  5   3   6  1   
  6   4   5  1   
  7   4   7  1   
  8   5  27  1   
  9   6   8  1   
 10   6  28  1   
 11   6  29  1   
 12   7  30  1   
 13   7  31  1   
 14   7  32  1   
 15   8   9  1   
 16   8  10  1   
 17   8  33  1   
 18   9  11  1   
 19   9  12  1   
 20   9  34  1   
 21  10  13  1   
 22  10  35  1   
 23  10  36  1   
 24  11  14  1   
 25  12  13  1   
 26  12  37  1   
 27  12  38  1   
 28  13  15  1   
 29  14  39  1   
 30  14  40  1   
 31  14  41  1   
 32  15  16  ar  
 33  15  17  ar  
 34  16  18  ar  
 35  17  19  1   
 36  17  20  ar  
 37  18  21  ar  
 38  18  22  1   
 39  19  23  3   
 40  20  21  ar  
 41  20  42  1   
 42  21  24  1   
 43  22  25  1   
 44  22  43  1   
 45  22  44  1   
 46  24  26  1   
 47  24  45  1   
 48  24  46  1   
 49  25  26  1   
 50  25  47  1   
 51  25  48  1   
 52  26  49  1   
 53  26  50  1   
@<TRIPOS>SUBSTRUCTURE
  1 ****  10 GROUP 4 **** **** 0

# MOE 2024.06 (io_trps.svl 2023.06)
