@<TRIPOS>MOLECULE
NONAME
33 34 1 0 0 
SMALL
USER_CHARGES


@<TRIPOS>ATOM
  1 O        0.4450     0.5510    -0.5770 O.co2 1 <1>  -0.9000 
  2 C        0.3420     1.6910    -0.1130 C.2   1 <1>   0.8710 
  3 O       -0.7270     2.3030    -0.0640 O.co2 1 <1>  -0.9000 
  4 C        1.5860     2.3610     0.3930 C.3   1 <1>  -0.0710 
  5 C        1.6950     3.8410    -0.0220 C.3   1 <1>   0.2450 
  6 C        2.7750     2.0850    -0.5430 C.3   1 <1>   0.2450 
  7 N        3.1090     3.5390    -0.4280 N.3   1 <1>  -0.5900 
  8 C        4.2360     4.2630    -0.4020 C.ar  1 <1>   0.7710 
  9 N        4.1990     5.5450    -0.0740 N.ar  1 <1>  -0.6200 
 10 N        5.3790     3.6360    -0.7240 N.ar  1 <1>  -0.1790 
 11 C        5.3310     6.2270    -0.0600 C.ar  1 <1>   0.4100 
 12 C        6.5610     4.2940    -0.7350 C.ar  1 <1>   0.2110 
 13 N        5.2750     7.5430     0.2910 N.pl3 1 <1>  -0.8380 
 14 C        6.5520     5.6070    -0.4020 C.ar  1 <1>  -0.1500 
 15 C        6.4380     8.3530     0.7460 C.3   1 <1>   0.2090 
 16 C        3.9670     8.2670     0.4020 C.3   1 <1>   0.1290 
 17 C        6.9830     9.1570    -0.4310 C.3   1 <1>  -0.2400 
 18 H        1.8040     2.1820     1.4320 H     1 <1>   0.0000 
 19 H        1.6430     4.5320     0.7990 H     1 <1>   0.0000 
 20 H        1.0990     4.1120    -0.8770 H     1 <1>   0.0000 
 21 H        2.5070     1.8350    -1.5550 H     1 <1>   0.0000 
 22 H        3.5350     1.4560    -0.1140 H     1 <1>   0.0000 
 23 H        5.2750     2.6550    -0.9670 H     1 <1>   0.4570 
 24 H        7.4600     3.7630    -1.0070 H     1 <1>   0.1500 
 25 H        7.4560     6.1840    -0.4040 H     1 <1>   0.1500 
 26 H        7.2050     7.7160     1.1510 H     1 <1>   0.0800 
 27 H        6.1290     9.0210     1.5320 H     1 <1>   0.0800 
 28 H        3.2510     7.8690    -0.2970 H     1 <1>   0.0800 
 29 H        4.0960     9.3130     0.1860 H     1 <1>   0.0800 
 30 H        3.5770     8.1580     1.3990 H     1 <1>   0.0800 
 31 H        7.2880     8.5040    -1.2280 H     1 <1>   0.0800 
 32 H        7.8340     9.7310    -0.1140 H     1 <1>   0.0800 
 33 H        6.2350     9.8350    -0.7990 H     1 <1>   0.0800 
@<TRIPOS>BOND
  1   1   2  ar  
  2   2   3  ar  
  3   2   4  1   
  4   4   5  1   
  5   4   6  1   
  6   4  18  1   
  7   5   7  1   
  8   5  19  1   
  9   5  20  1   
 10   6   7  1   
 11   6  21  1   
 12   6  22  1   
 13   7   8  1   
 14   8   9  ar  
 15   8  10  ar  
 16   9  11  ar  
 17  10  12  ar  
 18  10  23  1   
 19  11  13  1   
 20  11  14  ar  
 21  12  14  ar  
 22  12  24  1   
 23  13  15  1   
 24  13  16  1   
 25  14  25  1   
 26  15  17  1   
 27  15  26  1   
 28  15  27  1   
 29  16  28  1   
 30  16  29  1   
 31  16  30  1   
 32  17  31  1   
 33  17  32  1   
 34  17  33  1   
@<TRIPOS>SUBSTRUCTURE
  1 ****   8 GROUP 4 **** **** 0

# MOE 2024.06 (io_trps.svl 2023.06)
