@<TRIPOS>MOLECULE
NONAME
48 51 1 0 0 
SMALL
USER_CHARGES


@<TRIPOS>ATOM
  1 O        0.5000    -1.1180     2.0520 O.2   1 <1>  -0.5700 
  2 C        1.4750    -1.4460     1.3990 C.2   1 <1>   0.7160 
  3 N        1.5830    -2.7210     0.9480 N.am  1 <1>  -0.4900 
  4 C        2.5420    -0.5850     1.0440 C.2   1 <1>  -0.0860 
  5 C        2.6420    -3.1450     0.1830 C.2   1 <1>   0.4490 
  6 C        3.5630    -1.0720     0.2870 C.2   1 <1>  -0.0260 
  7 C        2.8780     0.7500     1.2650 C.2   1 <1>   0.1390 
  8 N        3.6210    -2.3790    -0.1590 N.2   1 <1>  -0.5760 
  9 C        2.5970    -4.6110    -0.2490 C.3   1 <1>   0.1710 
 10 N        4.4300    -0.0520     0.0970 N.pl3 1 <1>   0.3140 
 11 N        4.0020     1.0790     0.7050 N.2   1 <1>  -0.7070 
 12 N        1.2090    -5.1330    -0.4140 N.3   1 <1>  -0.8100 
 13 C        5.6880    -0.0900    -0.6570 C.3   1 <1>   0.0160 
 14 C        1.2280    -6.6110    -0.4510 C.3   1 <1>   0.1100 
 15 C        0.6030    -4.5790    -1.6400 C.3   1 <1>   0.0300 
 16 C       -0.1590    -7.2020    -0.1680 C.3   1 <1>   0.0200 
 17 C       -0.1170    -8.7190    -0.0640 C.2   1 <1>   0.0070 
 18 N        0.8670    -9.4580    -0.4460 N.2   1 <1>  -0.5650 
 19 N       -1.1560    -9.4230     0.4530 N.pl3 1 <1>   0.0330 
 20 C        0.4690   -10.7320    -0.1690 C.ar  1 <1>   0.2270 
 21 C       -0.7930   -10.7290     0.3930 C.ar  1 <1>  -0.1520 
 22 C        1.1360   -11.9360    -0.3730 C.ar  1 <1>  -0.1500 
 23 C       -1.4240   -11.9170     0.7680 C.ar  1 <1>  -0.1500 
 24 C        0.5290   -13.1190    -0.0100 C.ar  1 <1>   0.0820 
 25 C       -0.7590   -13.1060     0.5640 C.ar  1 <1>  -0.1500 
 26 O        1.2320   -14.2640    -0.2340 O.3   1 <1>  -0.3620 
 27 C        0.6970   -15.5250     0.0980 C.3   1 <1>   0.0400 
 28 H        0.8180    -3.3740     1.1090 H     1 <1>   0.3700 
 29 H        2.2700     1.4310     1.8380 H     1 <1>   0.1500 
 30 H        3.1010    -5.1750     0.5170 H     1 <1>   0.0800 
 31 H        3.1520    -4.7330    -1.1630 H     1 <1>   0.0800 
 32 H        5.8390    -1.0760    -1.0560 H     1 <1>   0.0800 
 33 H        6.4960     0.1650     0.0020 H     1 <1>   0.0800 
 34 H        5.6360     0.6230    -1.4570 H     1 <1>   0.0800 
 35 H        1.8950    -6.9820     0.3100 H     1 <1>   0.0800 
 36 H        1.5920    -6.9620    -1.4030 H     1 <1>   0.0800 
 37 H        0.6280    -3.5030    -1.6200 H     1 <1>   0.0800 
 38 H       -0.4260    -4.8820    -1.7210 H     1 <1>   0.0800 
 39 H        1.1360    -4.9200    -2.5120 H     1 <1>   0.0800 
 40 H       -0.8380    -6.9380    -0.9560 H     1 <1>   0.0800 
 41 H       -0.5220    -6.7970     0.7590 H     1 <1>   0.0800 
 42 H       -2.0380    -9.0550     0.8180 H     1 <1>   0.2700 
 43 H        2.1140   -11.9250    -0.8110 H     1 <1>   0.1500 
 44 H       -2.4060   -11.8950     1.2050 H     1 <1>   0.1500 
 45 H       -1.2390   -14.0210     0.8500 H     1 <1>   0.1500 
 46 H        1.4210   -16.2740    -0.1680 H     1 <1>   0.0800 
 47 H       -0.2090   -15.6790    -0.4610 H     1 <1>   0.0800 
 48 H        0.5110   -15.5580     1.1570 H     1 <1>   0.0800 
@<TRIPOS>BOND
  1   1   2  2   
  2   2   3  am  
  3   2   4  1   
  4   3   5  1   
  5   3  28  1   
  6   4   6  2   
  7   4   7  1   
  8   5   8  2   
  9   5   9  1   
 10   6   8  1   
 11   6  10  1   
 12   7  11  2   
 13   7  29  1   
 14   9  12  1   
 15   9  30  1   
 16   9  31  1   
 17  10  11  1   
 18  10  13  1   
 19  12  14  1   
 20  12  15  1   
 21  13  32  1   
 22  13  33  1   
 23  13  34  1   
 24  14  16  1   
 25  14  35  1   
 26  14  36  1   
 27  15  37  1   
 28  15  38  1   
 29  15  39  1   
 30  16  17  1   
 31  16  40  1   
 32  16  41  1   
 33  17  18  2   
 34  17  19  1   
 35  18  20  1   
 36  19  21  1   
 37  19  42  1   
 38  20  21  ar  
 39  20  22  ar  
 40  21  23  ar  
 41  22  24  ar  
 42  22  43  1   
 43  23  25  ar  
 44  23  44  1   
 45  24  25  ar  
 46  24  26  1   
 47  25  45  1   
 48  26  27  1   
 49  27  46  1   
 50  27  47  1   
 51  27  48  1   
@<TRIPOS>SUBSTRUCTURE
  1 ****  14 GROUP 4 **** **** 0

# MOE 2024.06 (io_trps.svl 2023.06)
