@<TRIPOS>MOLECULE
NONAME
57 60 1 0 0 
SMALL
USER_CHARGES


@<TRIPOS>ATOM
  1 S       -1.1900     0.0790    -0.8040 S.o2  1 <1>   1.5760 
  2 O       -1.8680     1.3520    -0.9180 O.2   1 <1>  -0.6500 
  3 O       -1.0130    -0.7630    -1.9660 O.2   1 <1>  -0.6500 
  4 N       -1.9340    -0.8330     0.4050 N.am  1 <1>  -0.8490 
  5 N        0.3150     0.3580    -0.0940 N.am  1 <1>  -0.8490 
  6 C       -3.3840    -0.9020     0.1420 C.3   1 <1>   0.1960 
  7 C       -1.3180    -2.1610     0.5110 C.3   1 <1>   0.1960 
  8 C        1.2620     0.8800    -1.0790 C.3   1 <1>   0.1960 
  9 C        0.2060     1.2540     1.0610 C.3   1 <1>   0.1960 
 10 C       -4.1970    -1.6680     1.2010 C.3   1 <1>   0.2090 
 11 C       -1.5930    -2.7690     1.8900 C.3   1 <1>  -0.1600 
 12 C        2.6590     0.9990    -0.4600 C.3   1 <1>  -0.1600 
 13 C        1.5630     1.3780     1.7620 C.3   1 <1>  -0.1600 
 14 N       -3.9600    -3.1430     1.1160 N.pl3 1 <1>  -0.8380 
 15 C       -2.8310    -3.6730     1.9340 C.3   1 <1>   0.2090 
 16 C        2.6440     1.8770     0.7970 C.3   1 <1>  -0.1600 
 17 C       -4.6120    -3.9170     0.1680 C.ar  1 <1>   0.7200 
 18 N       -4.3900    -5.2280     0.2030 N.ar  1 <1>  -0.6200 
 19 N       -5.3970    -3.2690    -0.6940 N.ar  1 <1>  -0.6200 
 20 C       -4.9800    -5.9760    -0.7110 C.ar  1 <1>   0.4100 
 21 C       -5.9800    -4.0120    -1.6120 C.ar  1 <1>   0.1600 
 22 N       -4.7210    -7.3460    -0.6540 N.pl3 1 <1>  -0.8380 
 23 C       -5.7970    -5.3640    -1.6610 C.ar  1 <1>   0.1900 
 24 C       -5.6880    -8.3730    -1.1070 C.3   1 <1>   0.2090 
 25 C       -3.7810    -7.9240     0.3360 C.3   1 <1>   0.2090 
 26 F       -6.3950    -6.0440    -2.6180 F     1 <1>  -0.1900 
 27 C       -5.4190    -9.5910    -0.2300 C.3   1 <1>  -0.1600 
 28 C       -3.9720    -9.4300     0.2210 C.3   1 <1>  -0.1600 
 29 H       -3.5610    -1.3410    -0.8250 H     1 <1>   0.0800 
 30 H       -3.7720     0.1020     0.1130 H     1 <1>   0.0800 
 31 H       -0.2490    -2.0650     0.4110 H     1 <1>   0.0800 
 32 H       -1.6580    -2.8080    -0.2820 H     1 <1>   0.0800 
 33 H        0.9280     1.8420    -1.4320 H     1 <1>   0.0800 
 34 H        1.3130     0.2110    -1.9220 H     1 <1>   0.0800 
 35 H       -0.5130     0.8620     1.7600 H     1 <1>   0.0800 
 36 H       -0.1320     2.2270     0.7430 H     1 <1>   0.0800 
 37 H       -5.2430    -1.4690     1.0450 H     1 <1>   0.0800 
 38 H       -3.9510    -1.3040     2.1830 H     1 <1>   0.0800 
 39 H       -1.6710    -1.9900     2.6260 H     1 <1>   0.0800 
 40 H       -0.7500    -3.3740     2.1680 H     1 <1>   0.0800 
 41 H        3.3360     1.4160    -1.1850 H     1 <1>   0.0800 
 42 H        3.0100     0.0130    -0.2110 H     1 <1>   0.0800 
 43 H        1.8370     0.4130     2.1530 H     1 <1>   0.0800 
 44 H        1.4750     2.0570     2.5910 H     1 <1>   0.0800 
 45 H       -3.1600    -3.7880     2.9520 H     1 <1>   0.0800 
 46 H       -2.5340    -4.6440     1.5810 H     1 <1>   0.0800 
 47 H        2.4330     2.8950     0.5200 H     1 <1>   0.0800 
 48 H        3.6080     1.8520     1.2770 H     1 <1>   0.0800 
 49 H       -6.6110    -3.5300    -2.3370 H     1 <1>   0.1500 
 50 H       -5.4940    -8.6050    -2.1410 H     1 <1>   0.0800 
 51 H       -6.7030    -8.0320    -0.9940 H     1 <1>   0.0800 
 52 H       -4.0510    -7.5880     1.3230 H     1 <1>   0.0800 
 53 H       -2.7680    -7.6300     0.1170 H     1 <1>   0.0800 
 54 H       -5.5850   -10.5100    -0.7630 H     1 <1>   0.0800 
 55 H       -6.0740    -9.5550     0.6230 H     1 <1>   0.0800 
 56 H       -3.7710    -9.9310     1.1510 H     1 <1>   0.0800 
 57 H       -3.3070    -9.8070    -0.5360 H     1 <1>   0.0800 
@<TRIPOS>BOND
  1   1   2  2   
  2   1   3  2   
  3   1   4  am  
  4   1   5  am  
  5   4   6  1   
  6   4   7  1   
  7   5   8  1   
  8   5   9  1   
  9   6  10  1   
 10   6  29  1   
 11   6  30  1   
 12   7  11  1   
 13   7  31  1   
 14   7  32  1   
 15   8  12  1   
 16   8  33  1   
 17   8  34  1   
 18   9  13  1   
 19   9  35  1   
 20   9  36  1   
 21  10  14  1   
 22  10  37  1   
 23  10  38  1   
 24  11  15  1   
 25  11  39  1   
 26  11  40  1   
 27  12  16  1   
 28  12  41  1   
 29  12  42  1   
 30  13  16  1   
 31  13  43  1   
 32  13  44  1   
 33  14  15  1   
 34  14  17  1   
 35  15  45  1   
 36  15  46  1   
 37  16  47  1   
 38  16  48  1   
 39  17  18  ar  
 40  17  19  ar  
 41  18  20  ar  
 42  19  21  ar  
 43  20  22  1   
 44  20  23  ar  
 45  21  23  ar  
 46  21  49  1   
 47  22  24  1   
 48  22  25  1   
 49  23  26  1   
 50  24  27  1   
 51  24  50  1   
 52  24  51  1   
 53  25  28  1   
 54  25  52  1   
 55  25  53  1   
 56  27  28  1   
 57  27  54  1   
 58  27  55  1   
 59  28  56  1   
 60  28  57  1   
@<TRIPOS>SUBSTRUCTURE
  1 ****   7 GROUP 4 **** **** 0

# MOE 2024.06 (io_trps.svl 2023.06)
