@<TRIPOS>MOLECULE
NONAME
42 44 1 0 0 
SMALL
USER_CHARGES


@<TRIPOS>ATOM
  1 O       -2.3200     0.9870    -1.7320 O.2   1 <1>  -0.5700 
  2 C       -2.0270     0.8670    -0.5600 C.2   1 <1>   0.5440 
  3 N       -1.9630    -0.3930    -0.0380 N.am  1 <1>  -0.7300 
  4 C       -1.7820     2.0180     0.2710 C.ar  1 <1>   0.0860 
  5 C       -2.2080    -1.6470    -0.7940 C.3   1 <1>   0.2200 
  6 C       -0.9790     3.0970    -0.0870 C.ar  1 <1>   0.1660 
  7 C       -2.3670     2.1120     1.5230 C.ar  1 <1>   0.1600 
  8 C       -3.5660    -2.2430    -0.4470 C.3   1 <1>  -0.0800 
  9 C       -1.2850    -2.7310    -0.2540 C.3   1 <1>   0.1200 
 10 N       -0.7870     4.1230     0.7080 N.ar  1 <1>  -0.6200 
 11 C       -0.2650     3.1560    -1.4270 C.3   1 <1>  -0.0960 
 12 N       -2.1890     3.1220     2.3370 N.ar  1 <1>  -0.6200 
 13 C       -3.2780    -3.0430     0.8290 C.3   1 <1>   0.1200 
 14 C       -4.7300    -1.2420    -0.3220 C.3   1 <1>  -0.0170 
 15 O       -1.8870    -3.1540     0.9310 O.3   1 <1>  -0.5600 
 16 C       -1.3980     4.0760     1.8790 C.ar  1 <1>   0.7200 
 17 C       -6.0390    -1.9610    -0.0390 C.ar  1 <1>  -0.1440 
 18 N       -1.2060     5.1160     2.6830 N.pl3 1 <1>  -0.9000 
 19 C       -6.5690    -2.0470     1.2330 C.ar  1 <1>  -0.1500 
 20 C       -6.7650    -2.5680    -1.0430 C.ar  1 <1>  -0.1500 
 21 C       -7.7620    -2.7200     1.4340 C.ar  1 <1>   0.1600 
 22 C       -7.9490    -3.2170    -0.7360 C.ar  1 <1>   0.1600 
 23 N       -8.4640    -3.3100     0.4800 N.ar  1 <1>  -0.6200 
 24 H       -1.6610    -0.5570     0.9270 H     1 <1>   0.3700 
 25 H       -2.0790    -1.4910    -1.8520 H     1 <1>   0.0800 
 26 H       -3.0120     1.3170     1.8560 H     1 <1>   0.1500 
 27 H       -3.8180    -2.9520    -1.2170 H     1 <1>   0.0800 
 28 H       -0.2910    -2.3740    -0.0530 H     1 <1>   0.0800 
 29 H       -1.2470    -3.5710    -0.9250 H     1 <1>   0.0800 
 30 H        0.1610     2.2010    -1.6740 H     1 <1>   0.0800 
 31 H        0.5280     3.8820    -1.3990 H     1 <1>   0.0800 
 32 H       -0.9620     3.4370    -2.1950 H     1 <1>   0.0800 
 33 H       -3.7060    -4.0300     0.7860 H     1 <1>   0.0800 
 34 H       -3.6290    -2.5340     1.7100 H     1 <1>   0.0800 
 35 H       -4.8200    -0.6840    -1.2390 H     1 <1>   0.0800 
 36 H       -4.5380    -0.5370     0.4660 H     1 <1>   0.0800 
 37 H       -0.7670     5.9480     2.2990 H     1 <1>   0.4000 
 38 H       -1.8020     5.2150     3.5000 H     1 <1>   0.4000 
 39 H       -6.0680    -1.5960     2.0700 H     1 <1>   0.1500 
 40 H       -6.4230    -2.5410    -2.0620 H     1 <1>   0.1500 
 41 H       -8.1600    -2.7770     2.4320 H     1 <1>   0.1500 
 42 H       -8.5030    -3.6850    -1.5320 H     1 <1>   0.1500 
@<TRIPOS>BOND
  1   1   2  2   
  2   2   3  am  
  3   2   4  1   
  4   3   5  1   
  5   3  24  1   
  6   4   6  ar  
  7   4   7  ar  
  8   5   8  1   
  9   5   9  1   
 10   5  25  1   
 11   6  10  ar  
 12   6  11  1   
 13   7  12  ar  
 14   7  26  1   
 15   8  13  1   
 16   8  14  1   
 17   8  27  1   
 18   9  15  1   
 19   9  28  1   
 20   9  29  1   
 21  10  16  ar  
 22  11  30  1   
 23  11  31  1   
 24  11  32  1   
 25  12  16  ar  
 26  13  15  1   
 27  13  33  1   
 28  13  34  1   
 29  14  17  1   
 30  14  35  1   
 31  14  36  1   
 32  16  18  1   
 33  17  19  ar  
 34  17  20  ar  
 35  18  37  1   
 36  18  38  1   
 37  19  21  ar  
 38  19  39  1   
 39  20  22  ar  
 40  20  40  1   
 41  21  23  ar  
 42  21  41  1   
 43  22  23  ar  
 44  22  42  1   
@<TRIPOS>SUBSTRUCTURE
  1 ****   3 GROUP 4 **** **** 0

# MOE 2024.06 (io_trps.svl 2023.06)
