@<TRIPOS>MOLECULE
NONAME
55 57 1 0 0 
SMALL
USER_CHARGES


@<TRIPOS>ATOM
  1 O       -1.1180     1.3390    -2.4220 O.2   1 <1>  -0.5700 
  2 C       -1.2680     1.6650    -1.2570 C.2   1 <1>   0.5440 
  3 N       -2.0650     0.8690    -0.4560 N.am  1 <1>  -0.6600 
  4 C       -0.6400     2.8700    -0.7640 C.ar  1 <1>   0.0860 
  5 C       -2.5760    -0.4480    -0.9430 C.3   1 <1>   0.1400 
  6 C       -2.7480     1.3830     0.7660 C.3   1 <1>   0.1400 
  7 C        0.2390     2.8450     0.3330 C.ar  1 <1>   0.1000 
  8 C       -0.8880     4.0920    -1.3890 C.ar  1 <1>  -0.1500 
  9 C       -3.9360    -0.3260    -1.6520 C.3   1 <1>   0.1400 
 10 C       -3.9190     2.3090     0.4100 C.3   1 <1>  -0.1600 
 11 N        0.5520     1.6560     0.9790 N.pl3 1 <1>  -0.8690 
 12 C        0.8060     4.0350     0.7800 C.ar  1 <1>  -0.1500 
 13 C       -0.3120     5.2640    -0.9390 C.ar  1 <1>  -0.1500 
 14 N       -4.9550     0.4000    -0.8240 N.am  1 <1>  -0.6600 
 15 C       -4.7540     1.8760    -0.8030 C.3   1 <1>   0.1400 
 16 C        1.9510     1.1830     0.9810 C.3   1 <1>   0.2090 
 17 C        0.5360     5.2350     0.1550 C.ar  1 <1>  -0.1500 
 18 C       -5.9790    -0.1740    -0.1120 C.2   1 <1>   0.5690 
 19 C        2.0840     0.0620    -0.0500 C.3   1 <1>  -0.1600 
 20 O       -6.7370     0.5040     0.5430 O.2   1 <1>  -0.5700 
 21 C       -6.1810    -1.6900    -0.1120 C.3   1 <1>  -0.0190 
 22 C        3.5170    -0.4790    -0.1120 C.3   1 <1>  -0.2400 
 23 C       -7.4830    -2.1500     0.5310 C.3   1 <1>   0.1200 
 24 C       -5.1370    -2.4640     0.6940 C.3   1 <1>  -0.1600 
 25 O       -7.2330    -3.4610     0.9150 O.3   1 <1>  -0.5600 
 26 C       -5.9330    -3.5650     1.3920 C.3   1 <1>   0.1200 
 27 H       -2.6610    -1.1240    -0.1120 H     1 <1>   0.0800 
 28 H       -1.8650    -0.8750    -1.6290 H     1 <1>   0.0800 
 29 H       -2.0530     1.9110     1.3960 H     1 <1>   0.0800 
 30 H       -3.1240     0.5500     1.3350 H     1 <1>   0.0800 
 31 H       -1.5410     4.1100    -2.2440 H     1 <1>   0.1500 
 32 H       -4.2840    -1.3080    -1.9090 H     1 <1>   0.0800 
 33 H       -3.7900     0.2030    -2.5790 H     1 <1>   0.0800 
 34 H       -3.5430     3.2990     0.2290 H     1 <1>   0.0800 
 35 H       -4.5680     2.3760     1.2650 H     1 <1>   0.0800 
 36 H       -0.0850     0.8850     0.7310 H     1 <1>   0.4000 
 37 H        1.4600     4.0080     1.6320 H     1 <1>   0.1500 
 38 H       -0.5190     6.1970    -1.4350 H     1 <1>   0.1500 
 39 H       -4.2530     2.1810    -1.7060 H     1 <1>   0.0800 
 40 H       -5.7090     2.3740    -0.7790 H     1 <1>   0.0800 
 41 H        2.2010     0.8190     1.9630 H     1 <1>   0.0800 
 42 H        2.6180     1.9910     0.7330 H     1 <1>   0.0800 
 43 H        0.9840     6.1460     0.5130 H     1 <1>   0.1500 
 44 H        1.8090     0.4410    -1.0200 H     1 <1>   0.0800 
 45 H        1.4150    -0.7410     0.2060 H     1 <1>   0.0800 
 46 H       -6.1980    -2.0420    -1.1260 H     1 <1>   0.0800 
 47 H        4.2020     0.3030    -0.3890 H     1 <1>   0.0800 
 48 H        3.5800    -1.2630    -0.8470 H     1 <1>   0.0800 
 49 H        3.8110    -0.8800     0.8420 H     1 <1>   0.0800 
 50 H       -8.3150    -2.1260    -0.1520 H     1 <1>   0.0800 
 51 H       -7.7160    -1.5850     1.4180 H     1 <1>   0.0800 
 52 H       -4.6720    -1.8360     1.4350 H     1 <1>   0.0800 
 53 H       -4.3790    -2.8850     0.0600 H     1 <1>   0.0800 
 54 H       -5.9560    -3.4160     2.4580 H     1 <1>   0.0800 
 55 H       -5.5620    -4.5490     1.1630 H     1 <1>   0.0800 
@<TRIPOS>BOND
  1   1   2  2   
  2   2   3  am  
  3   2   4  1   
  4   3   5  1   
  5   3   6  1   
  6   4   7  ar  
  7   4   8  ar  
  8   5   9  1   
  9   5  27  1   
 10   5  28  1   
 11   6  10  1   
 12   6  29  1   
 13   6  30  1   
 14   7  11  1   
 15   7  12  ar  
 16   8  13  ar  
 17   8  31  1   
 18   9  14  1   
 19   9  32  1   
 20   9  33  1   
 21  10  15  1   
 22  10  34  1   
 23  10  35  1   
 24  11  16  1   
 25  11  36  1   
 26  12  17  ar  
 27  12  37  1   
 28  13  17  ar  
 29  13  38  1   
 30  14  15  1   
 31  14  18  am  
 32  15  39  1   
 33  15  40  1   
 34  16  19  1   
 35  16  41  1   
 36  16  42  1   
 37  17  43  1   
 38  18  20  2   
 39  18  21  1   
 40  19  22  1   
 41  19  44  1   
 42  19  45  1   
 43  21  23  1   
 44  21  24  1   
 45  21  46  1   
 46  22  47  1   
 47  22  48  1   
 48  22  49  1   
 49  23  25  1   
 50  23  50  1   
 51  23  51  1   
 52  24  26  1   
 53  24  52  1   
 54  24  53  1   
 55  25  26  1   
 56  26  54  1   
 57  26  55  1   
@<TRIPOS>SUBSTRUCTURE
  1 ****   3 GROUP 4 **** **** 0

# MOE 2024.06 (io_trps.svl 2023.06)
