@<TRIPOS>MOLECULE
NONAME
51 53 1 0 0 
SMALL
USER_CHARGES


@<TRIPOS>ATOM
  1 O        1.2530    -0.3790     1.4110 O.2   1 <1>  -0.5700 
  2 C        1.9630    -0.6210     0.4650 C.2   1 <1>   0.5690 
  3 N        3.2840    -0.2610     0.4410 N.am  1 <1>  -0.6600 
  4 C        1.3350    -1.3410    -0.7060 C.3   1 <1>  -0.1790 
  5 C        4.2720    -0.6480    -0.6150 C.3   1 <1>   0.1400 
  6 C        3.8200     0.7670     1.3950 C.3   1 <1>   0.1400 
  7 C        5.1010    -1.8860    -0.2210 C.3   1 <1>   0.2000 
  8 C        4.9280     0.2470     2.3310 C.3   1 <1>   0.2090 
  9 O        4.2590    -2.9930    -0.2190 O.3   1 <1>  -0.6800 
 10 C        5.7880    -1.8150     1.1610 C.3   1 <1>   0.2090 
 11 N        6.0700    -0.4270     1.6260 N.pl3 1 <1>  -0.8380 
 12 C        7.0910     0.3250     1.0710 C.ar  1 <1>   0.4100 
 13 N        6.8050     1.5190     0.6570 N.ar  1 <1>  -0.6200 
 14 C        8.3830    -0.2080     0.9650 C.ar  1 <1>  -0.1500 
 15 C        7.7810     2.2730     0.0860 C.ar  1 <1>   0.3100 
 16 C        9.4010     0.5000     0.4040 C.ar  1 <1>  -0.1440 
 17 C        9.1190     1.8140    -0.0730 C.ar  1 <1>   0.0000 
 18 C        7.4250     3.5720    -0.3680 C.ar  1 <1>   0.0820 
 19 C       10.7710    -0.1670     0.3360 C.3   1 <1>  -0.0970 
 20 C       10.0540     2.7010    -0.6860 C.ar  1 <1>   0.0820 
 21 O        6.1250     3.9720    -0.2050 O.3   1 <1>  -0.3630 
 22 C        8.3600     4.3910    -0.9530 C.ar  1 <1>  -0.1500 
 23 O       11.3410     2.2870    -0.8470 O.3   1 <1>  -0.3620 
 24 C        9.6690     3.9540    -1.1090 C.ar  1 <1>  -0.1500 
 25 C        5.6740     5.2530    -0.5810 C.3   1 <1>   0.0400 
 26 C       12.3590     3.1050    -1.3820 C.3   1 <1>   0.0400 
 27 H        1.7970    -2.2970    -0.8560 H     1 <1>   0.0800 
 28 H        1.4360    -0.7460    -1.5930 H     1 <1>   0.0800 
 29 H        0.2880    -1.4930    -0.5160 H     1 <1>   0.0800 
 30 H        4.9430     0.1760    -0.7850 H     1 <1>   0.0800 
 31 H        3.7780    -0.8380    -1.5500 H     1 <1>   0.0800 
 32 H        3.0220     1.1530     2.0040 H     1 <1>   0.0800 
 33 H        4.2050     1.5990     0.8320 H     1 <1>   0.0800 
 34 H        5.8500    -2.0580    -0.9740 H     1 <1>   0.0800 
 35 H        4.4940    -0.4340     3.0410 H     1 <1>   0.0800 
 36 H        5.3160     1.0820     2.8890 H     1 <1>   0.0800 
 37 H        3.5200    -2.8130     0.3980 H     1 <1>   0.4000 
 38 H        6.7030    -2.3770     1.1170 H     1 <1>   0.0800 
 39 H        5.1570    -2.2880     1.8930 H     1 <1>   0.0800 
 40 H        8.5410    -1.1930     1.3560 H     1 <1>   0.1500 
 41 H       10.7480    -1.1540     0.7600 H     1 <1>   0.0800 
 42 H       11.4900     0.4130     0.8860 H     1 <1>   0.0800 
 43 H       11.0900    -0.2510    -0.6870 H     1 <1>   0.0800 
 44 H        8.1190     5.3760    -1.3040 H     1 <1>   0.1500 
 45 H       10.3560     4.6360    -1.5740 H     1 <1>   0.1500 
 46 H        4.6290     5.3220    -0.3340 H     1 <1>   0.0800 
 47 H        5.8070     5.3740    -1.6410 H     1 <1>   0.0800 
 48 H        6.2270     5.9940    -0.0320 H     1 <1>   0.0800 
 49 H       13.2760     2.5450    -1.3700 H     1 <1>   0.0800 
 50 H       12.4600     3.9830    -0.7700 H     1 <1>   0.0800 
 51 H       12.1040     3.3640    -2.3950 H     1 <1>   0.0800 
@<TRIPOS>BOND
  1   1   2  2   
  2   2   3  am  
  3   2   4  1   
  4   3   5  1   
  5   3   6  1   
  6   4  27  1   
  7   4  28  1   
  8   4  29  1   
  9   5   7  1   
 10   5  30  1   
 11   5  31  1   
 12   6   8  1   
 13   6  32  1   
 14   6  33  1   
 15   7   9  1   
 16   7  10  1   
 17   7  34  1   
 18   8  11  1   
 19   8  35  1   
 20   8  36  1   
 21   9  37  1   
 22  10  11  1   
 23  10  38  1   
 24  10  39  1   
 25  11  12  1   
 26  12  13  ar  
 27  12  14  ar  
 28  13  15  ar  
 29  14  16  ar  
 30  14  40  1   
 31  15  17  ar  
 32  15  18  ar  
 33  16  17  ar  
 34  16  19  1   
 35  17  20  ar  
 36  18  21  1   
 37  18  22  ar  
 38  19  41  1   
 39  19  42  1   
 40  19  43  1   
 41  20  23  1   
 42  20  24  ar  
 43  21  25  1   
 44  22  24  ar  
 45  22  44  1   
 46  23  26  1   
 47  24  45  1   
 48  25  46  1   
 49  25  47  1   
 50  25  48  1   
 51  26  49  1   
 52  26  50  1   
 53  26  51  1   
@<TRIPOS>SUBSTRUCTURE
  1 ****  13 GROUP 4 **** **** 0

# MOE 2024.06 (io_trps.svl 2023.06)
