@<TRIPOS>MOLECULE
NONAME
52 55 1 0 0 
SMALL
USER_CHARGES


@<TRIPOS>ATOM
  1 O       -2.2520     1.2000    -2.3010 O.2   1 <1>  -0.5700 
  2 C       -2.3080     1.0420    -1.1050 C.2   1 <1>   0.6300 
  3 N       -2.5460    -0.1980    -0.5560 N.am  1 <1>  -0.6600 
  4 C       -2.1140     2.2640    -0.2120 C.3   1 <1>  -0.1000 
  5 C       -2.6920    -0.4650     0.8960 C.3   1 <1>   0.1400 
  6 C       -2.6930    -1.3960    -1.4200 C.3   1 <1>   0.1400 
  7 C       -3.2720     2.8980     0.5100 C.3   1 <1>  -0.2000 
  8 C       -2.6210     3.6170    -0.6280 C.3   1 <1>  -0.2000 
  9 C       -4.0980    -1.0170     1.1380 C.3   1 <1>  -0.1600 
 10 C       -4.0970    -1.9660    -1.2200 C.3   1 <1>  -0.1600 
 11 C       -4.3640    -2.2460     0.2630 C.3   1 <1>   0.4230 
 12 N       -5.7750    -2.6450     0.4500 N.4   1 <1>  -0.9060 
 13 C       -6.1500    -3.9850    -0.0800 C.3   1 <1>   0.4230 
 14 C       -7.6580    -4.1610     0.0900 C.3   1 <1>  -0.0800 
 15 C       -5.6350    -5.0490     0.8830 C.3   1 <1>   0.1200 
 16 C       -7.7830    -4.7120     1.5240 C.3   1 <1>   0.1200 
 17 C       -8.2410    -5.1320    -0.9560 C.3   1 <1>  -0.0170 
 18 O       -6.4740    -4.8960     1.9780 O.3   1 <1>  -0.5600 
 19 C       -9.7420    -5.2880    -0.7770 C.ar  1 <1>  -0.1440 
 20 C      -10.6310    -4.3190    -1.2010 C.ar  1 <1>  -0.1500 
 21 C      -10.2980    -6.4050    -0.1850 C.ar  1 <1>  -0.1500 
 22 C      -11.9900    -4.5040    -1.0060 C.ar  1 <1>   0.1600 
 23 C      -11.6720    -6.4920    -0.0380 C.ar  1 <1>   0.1600 
 24 N      -12.5290    -5.5650    -0.4300 N.ar  1 <1>  -0.6200 
 25 H       -1.1550     2.2480     0.2710 H     1 <1>   0.1000 
 26 H       -1.9460    -1.1800     1.2000 H     1 <1>   0.0800 
 27 H       -2.5440     0.4280     1.4780 H     1 <1>   0.0800 
 28 H       -2.5460    -1.1450    -2.4580 H     1 <1>   0.0800 
 29 H       -1.9420    -2.1210    -1.1500 H     1 <1>   0.0800 
 30 H       -4.2660     2.5170     0.3560 H     1 <1>   0.1000 
 31 H       -3.1220     3.2770     1.5060 H     1 <1>   0.1000 
 32 H       -2.0080     4.4780    -0.4230 H     1 <1>   0.1000 
 33 H       -3.1430     3.6990    -1.5660 H     1 <1>   0.1000 
 34 H       -4.8050    -0.2360     0.9180 H     1 <1>   0.0800 
 35 H       -4.1870    -1.2780     2.1780 H     1 <1>   0.0800 
 36 H       -4.1740    -2.8680    -1.7990 H     1 <1>   0.0800 
 37 H       -4.8020    -1.2480    -1.6040 H     1 <1>   0.0800 
 38 H       -3.7110    -3.0400     0.5900 H     1 <1>   0.0800 
 39 H       -6.3830    -1.9190     0.0610 H     1 <1>   0.4500 
 40 H       -5.9720    -2.7020     1.4610 H     1 <1>   0.4500 
 41 H       -5.8200    -4.1270    -1.0960 H     1 <1>   0.0800 
 42 H       -8.1800    -3.2240     0.0030 H     1 <1>   0.0800 
 43 H       -4.6120    -4.9100     1.1860 H     1 <1>   0.0800 
 44 H       -5.7670    -6.0430     0.4900 H     1 <1>   0.0800 
 45 H       -8.2860    -5.6640     1.5610 H     1 <1>   0.0800 
 46 H       -8.2810    -4.0230     2.1850 H     1 <1>   0.0800 
 47 H       -7.7720    -6.0990    -0.8830 H     1 <1>   0.0800 
 48 H       -8.0550    -4.7570    -1.9480 H     1 <1>   0.0800 
 49 H      -10.2900    -3.4230    -1.6830 H     1 <1>   0.1500 
 50 H       -9.6840    -7.2150     0.1640 H     1 <1>   0.1500 
 51 H      -12.6710    -3.7400    -1.3430 H     1 <1>   0.1500 
 52 H      -12.0890    -7.3700     0.4270 H     1 <1>   0.1500 
@<TRIPOS>BOND
  1   1   2  2   
  2   2   3  am  
  3   2   4  1   
  4   3   5  1   
  5   3   6  1   
  6   4   7  1   
  7   4   8  1   
  8   4  25  1   
  9   5   9  1   
 10   5  26  1   
 11   5  27  1   
 12   6  10  1   
 13   6  28  1   
 14   6  29  1   
 15   7   8  1   
 16   7  30  1   
 17   7  31  1   
 18   8  32  1   
 19   8  33  1   
 20   9  11  1   
 21   9  34  1   
 22   9  35  1   
 23  10  11  1   
 24  10  36  1   
 25  10  37  1   
 26  11  12  1   
 27  11  38  1   
 28  12  13  1   
 29  12  39  1   
 30  12  40  1   
 31  13  14  1   
 32  13  15  1   
 33  13  41  1   
 34  14  16  1   
 35  14  17  1   
 36  14  42  1   
 37  15  18  1   
 38  15  43  1   
 39  15  44  1   
 40  16  18  1   
 41  16  45  1   
 42  16  46  1   
 43  17  19  1   
 44  17  47  1   
 45  17  48  1   
 46  19  20  ar  
 47  19  21  ar  
 48  20  22  ar  
 49  20  49  1   
 50  21  23  ar  
 51  21  50  1   
 52  22  24  ar  
 53  22  51  1   
 54  23  24  ar  
 55  23  52  1   
@<TRIPOS>SUBSTRUCTURE
  1 ****  12 GROUP 4 **** **** 0

# MOE 2024.06 (io_trps.svl 2023.06)
