@<TRIPOS>MOLECULE
NONAME
55 57 1 0 0 
SMALL
USER_CHARGES


@<TRIPOS>ATOM
  1 O       -0.2470     1.3200     1.8600 O.2   1 <1>  -0.5700 
  2 C       -1.1330     2.0110     1.4100 C.2   1 <1>   0.5690 
  3 N       -2.4410     1.5650     1.3890 N.am  1 <1>  -0.6600 
  4 C       -0.7190     3.4060     0.9180 C.3   1 <1>   0.1810 
  5 C       -3.5750     2.4030     0.8980 C.3   1 <1>   0.2200 
  6 C       -2.7400     0.1660     1.8320 C.3   1 <1>   0.0600 
  7 O       -1.1490     3.6820    -0.3980 O.3   1 <1>  -0.5600 
  8 C       -4.8340     2.3510     1.7660 C.3   1 <1>  -0.1600 
  9 C       -4.0480     1.9830    -0.4910 C.3   1 <1>  -0.1600 
 10 C       -0.7290     4.9140    -0.9060 C.3   1 <1>   0.2630 
 11 C       -5.9590     2.8070     0.8270 C.3   1 <1>  -0.0800 
 12 C       -5.4670     2.5540    -0.6030 C.3   1 <1>  -0.0800 
 13 C        0.7840     4.9470    -1.0880 C.ar  1 <1>  -0.1440 
 14 C       -7.2810     2.0330     0.9580 C.3   1 <1>  -0.1600 
 15 C       -6.5040     1.6190    -1.2430 C.3   1 <1>  -0.1600 
 16 C        1.4380     3.8990    -1.7190 C.ar  1 <1>  -0.1500 
 17 C        1.5220     6.0270    -0.6260 C.ar  1 <1>  -0.1500 
 18 C       -7.8040     1.8670    -0.4730 C.3   1 <1>   0.4230 
 19 C        2.8120     3.9280    -1.8840 C.ar  1 <1>  -0.1500 
 20 C        2.8960     6.0570    -0.7920 C.ar  1 <1>  -0.1500 
 21 N       -8.4710     3.1230    -0.9470 N.4   1 <1>  -0.9590 
 22 C        3.5420     5.0080    -1.4210 C.ar  1 <1>  -0.1500 
 23 C       -9.6720     3.4880    -0.1270 C.3   1 <1>   0.2630 
 24 C       -8.8870     3.0490    -2.3850 C.3   1 <1>   0.2630 
 25 H        0.3540     3.4640     0.9490 H     1 <1>   0.0800 
 26 H       -1.1280     4.1480     1.5770 H     1 <1>   0.0800 
 27 H       -3.2750     3.4350     0.8470 H     1 <1>   0.0800 
 28 H       -3.5220    -0.2660     1.2360 H     1 <1>   0.0800 
 29 H       -3.0400     0.1720     2.8650 H     1 <1>   0.0800 
 30 H       -1.8670    -0.4560     1.7350 H     1 <1>   0.0800 
 31 H       -5.0210     1.3500     2.1060 H     1 <1>   0.0800 
 32 H       -4.7420     3.0010     2.6180 H     1 <1>   0.0800 
 33 H       -3.4000     2.3800    -1.2530 H     1 <1>   0.0800 
 34 H       -4.0570     0.9120    -0.5670 H     1 <1>   0.0800 
 35 H       -1.2070     5.0480    -1.8610 H     1 <1>   0.0800 
 36 H       -1.0610     5.6920    -0.2410 H     1 <1>   0.0800 
 37 H       -6.1290     3.8630     0.9560 H     1 <1>   0.0800 
 38 H       -5.4330     3.4930    -1.1320 H     1 <1>   0.0800 
 39 H       -7.9630     2.5010     1.6420 H     1 <1>   0.0800 
 40 H       -7.0820     1.0450     1.3370 H     1 <1>   0.0800 
 41 H       -6.2190     0.5960    -1.0660 H     1 <1>   0.0800 
 42 H       -6.5710     1.7490    -2.3070 H     1 <1>   0.0800 
 43 H        0.8750     3.0540    -2.0770 H     1 <1>   0.1500 
 44 H        1.0340     6.8510    -0.1360 H     1 <1>   0.1500 
 45 H       -8.4780     1.0280    -0.5530 H     1 <1>   0.0800 
 46 H        3.3110     3.1090    -2.3720 H     1 <1>   0.1500 
 47 H        3.4630     6.8970    -0.4310 H     1 <1>   0.1500 
 48 H       -7.7700     3.8710    -0.8490 H     1 <1>   0.4500 
 49 H        4.6100     5.0300    -1.5490 H     1 <1>   0.1500 
 50 H      -10.3880     2.6830    -0.1330 H     1 <1>   0.0800 
 51 H      -10.1440     4.3700    -0.5300 H     1 <1>   0.0800 
 52 H       -9.3920     3.6960     0.8920 H     1 <1>   0.0800 
 53 H       -9.5530     2.2150    -2.5400 H     1 <1>   0.0800 
 54 H       -8.0300     2.9300    -3.0270 H     1 <1>   0.0800 
 55 H       -9.3970     3.9540    -2.6730 H     1 <1>   0.0800 
@<TRIPOS>BOND
  1   1   2  2   
  2   2   3  am  
  3   2   4  1   
  4   3   5  1   
  5   3   6  1   
  6   4   7  1   
  7   4  25  1   
  8   4  26  1   
  9   5   8  1   
 10   5   9  1   
 11   5  27  1   
 12   6  28  1   
 13   6  29  1   
 14   6  30  1   
 15   7  10  1   
 16   8  11  1   
 17   8  31  1   
 18   8  32  1   
 19   9  12  1   
 20   9  33  1   
 21   9  34  1   
 22  10  13  1   
 23  10  35  1   
 24  10  36  1   
 25  11  12  1   
 26  11  14  1   
 27  11  37  1   
 28  12  15  1   
 29  12  38  1   
 30  13  16  ar  
 31  13  17  ar  
 32  14  18  1   
 33  14  39  1   
 34  14  40  1   
 35  15  18  1   
 36  15  41  1   
 37  15  42  1   
 38  16  19  ar  
 39  16  43  1   
 40  17  20  ar  
 41  17  44  1   
 42  18  21  1   
 43  18  45  1   
 44  19  22  ar  
 45  19  46  1   
 46  20  22  ar  
 47  20  47  1   
 48  21  23  1   
 49  21  24  1   
 50  21  48  1   
 51  22  49  1   
 52  23  50  1   
 53  23  51  1   
 54  23  52  1   
 55  24  53  1   
 56  24  54  1   
 57  24  55  1   
@<TRIPOS>SUBSTRUCTURE
  1 ****   5 GROUP 4 **** **** 0

# MOE 2024.06 (io_trps.svl 2023.06)
