@<TRIPOS>MOLECULE
NONAME
41 42 1 0 0 
SMALL
USER_CHARGES


@<TRIPOS>ATOM
  1 S        0.1350    -0.0580     1.0990 S.o2  1 <1>   1.3330 
  2 O        1.0610     0.3600     2.1270 O.2   1 <1>  -0.6500 
  3 O       -0.8020    -1.1230     1.3720 O.2   1 <1>  -0.6500 
  4 N        1.0350    -0.5000    -0.2730 N.am  1 <1>  -0.8490 
  5 C       -0.7700     1.3890     0.5450 C.3   1 <1>  -0.0550 
  6 C        0.2820    -1.3330    -1.2170 C.3   1 <1>   0.1160 
  7 C        2.2940    -1.1640     0.0800 C.3   1 <1>   0.1160 
  8 C        0.1140     2.5120    -0.0420 C.3   1 <1>  -0.0800 
  9 C       -0.6740     3.6790    -0.6390 C.3   1 <1>   0.2000 
 10 C        1.0650     3.1720     0.9670 C.3   1 <1>   0.1400 
 11 O       -1.6960     4.0320     0.2290 O.3   1 <1>  -0.6800 
 12 C        0.3360     4.8230    -0.6720 C.3   1 <1>   0.1400 
 13 N        1.2030     4.5840     0.5130 N.am  1 <1>  -0.6600 
 14 C        2.2520     5.3830     0.9050 C.2   1 <1>   0.5440 
 15 O        3.0950     4.9230     1.6470 O.2   1 <1>  -0.5700 
 16 C        2.3800     6.7490     0.4500 C.ar  1 <1>   0.0860 
 17 C        1.3410     7.6610     0.6040 C.ar  1 <1>   0.1600 
 18 C        3.5410     7.2180    -0.1470 C.ar  1 <1>  -0.1500 
 19 N        1.3510     8.9220     0.2060 N.ar  1 <1>  -0.6200 
 20 C        3.5750     8.5320    -0.5590 C.ar  1 <1>  -0.1500 
 21 C        2.4710     9.3600    -0.3760 C.ar  1 <1>   0.3830 
 22 C        2.5390    10.7270    -0.8260 C.1   1 <1>   0.4840 
 23 N        2.6410    11.8000    -1.2050 N.1   1 <1>  -0.5570 
 24 H       -1.4720     1.0860    -0.2070 H     1 <1>   0.0800 
 25 H       -1.3370     1.7730     1.3700 H     1 <1>   0.0800 
 26 H        0.8650    -1.5060    -2.1050 H     1 <1>   0.0800 
 27 H       -0.6320    -0.8390    -1.5010 H     1 <1>   0.0800 
 28 H        0.0360    -2.2820    -0.7690 H     1 <1>   0.0800 
 29 H        2.8440    -1.4220    -0.8090 H     1 <1>   0.0800 
 30 H        2.0990    -2.0580     0.6500 H     1 <1>   0.0800 
 31 H        2.9070    -0.5040     0.6730 H     1 <1>   0.0800 
 32 H        0.7210     2.0980    -0.8280 H     1 <1>   0.0800 
 33 H       -1.1010     3.4630    -1.6040 H     1 <1>   0.0800 
 34 H        2.0230     2.6760     0.9840 H     1 <1>   0.0800 
 35 H        0.6490     3.1610     1.9600 H     1 <1>   0.0800 
 36 H       -1.3030     4.3530     1.0660 H     1 <1>   0.4000 
 37 H       -0.1560     5.7780    -0.6390 H     1 <1>   0.0800 
 38 H        0.9360     4.7550    -1.5630 H     1 <1>   0.0800 
 39 H        0.4450     7.3160     1.0920 H     1 <1>   0.1500 
 40 H        4.3870     6.5620    -0.2730 H     1 <1>   0.1500 
 41 H        4.4620     8.9240    -1.0260 H     1 <1>   0.1500 
@<TRIPOS>BOND
  1   1   2  2   
  2   1   3  2   
  3   1   4  am  
  4   1   5  1   
  5   4   6  1   
  6   4   7  1   
  7   5   8  1   
  8   5  24  1   
  9   5  25  1   
 10   6  26  1   
 11   6  27  1   
 12   6  28  1   
 13   7  29  1   
 14   7  30  1   
 15   7  31  1   
 16   8   9  1   
 17   8  10  1   
 18   8  32  1   
 19   9  11  1   
 20   9  12  1   
 21   9  33  1   
 22  10  13  1   
 23  10  34  1   
 24  10  35  1   
 25  11  36  1   
 26  12  13  1   
 27  12  37  1   
 28  12  38  1   
 29  13  14  am  
 30  14  15  2   
 31  14  16  1   
 32  16  17  ar  
 33  16  18  ar  
 34  17  19  ar  
 35  17  39  1   
 36  18  20  ar  
 37  18  40  1   
 38  19  21  ar  
 39  20  21  ar  
 40  20  41  1   
 41  21  22  1   
 42  22  23  3   
@<TRIPOS>SUBSTRUCTURE
  1 ****  13 GROUP 4 **** **** 0

# MOE 2024.06 (io_trps.svl 2023.06)
