@<TRIPOS>MOLECULE
NONAME
57 60 1 0 0 
SMALL
USER_CHARGES


@<TRIPOS>ATOM
  1 O        0.6370     1.4530     0.9210 O.co2 1 <1>  -0.9000 
  2 C        1.6720     0.7880     0.9220 C.2   1 <1>   0.9060 
  3 O        2.0480     0.1700     1.9310 O.co2 1 <1>  -0.9000 
  4 C        2.4610     0.6520    -0.3930 C.3   1 <1>  -0.1060 
  5 C        3.7490    -0.1630    -0.1710 C.3   1 <1>   0.4230 
  6 C        2.8080     2.0860    -0.9060 C.3   1 <1>  -0.1600 
  7 C        1.6210    -0.1340    -1.4270 C.3   1 <1>  -0.1600 
  8 N        3.4320    -1.4950     0.4470 N.4   1 <1>  -0.9590 
  9 C        4.8040     0.7220     0.5170 C.3   1 <1>   0.2090 
 10 C        4.2380     2.2750    -1.4360 C.3   1 <1>   0.2090 
 11 C        1.3330    -1.5590    -0.9130 C.3   1 <1>  -0.1600 
 12 C        2.5910    -2.3180    -0.4640 C.3   1 <1>   0.3430 
 13 C        4.5960    -2.2370     0.9960 C.3   1 <1>   0.2630 
 14 N        5.2640     1.7580    -0.4710 N.pl3 1 <1>  -0.8380 
 15 C        6.4650     2.4270    -0.2570 C.ar  1 <1>   0.4100 
 16 N        7.0210     2.2830     0.9420 N.ar  1 <1>  -0.6200 
 17 C        7.0510     3.1980    -1.2620 C.ar  1 <1>  -0.1500 
 18 C        8.1490     2.9380     1.1530 C.ar  1 <1>   0.1600 
 19 C        8.2260     3.8730    -1.0300 C.ar  1 <1>  -0.1500 
 20 C        8.7880     3.7420     0.2240 C.ar  1 <1>  -0.1430 
 21 C       10.0770     4.4710     0.5790 C.3   1 <1>   0.2390 
 22 N        9.9550     5.9320     0.3760 N.pl3 1 <1>   0.3140 
 23 N       10.7800     6.5800    -0.4710 N.2   1 <1>  -0.7070 
 24 C        9.0960     6.7950     0.9730 C.2   1 <1>  -0.3320 
 25 C       10.4290     7.8230    -0.3980 C.2   1 <1>   0.1080 
 26 C        9.3800     8.0220     0.4900 C.2   1 <1>  -0.1500 
 27 C        8.0240     6.4190     1.9840 C.3   1 <1>  -0.0600 
 28 C       11.1100     8.9050    -1.2030 C.3   1 <1>  -0.0590 
 29 H        4.1640    -0.3710    -1.1410 H     1 <1>   0.0800 
 30 H        2.6950     2.7840    -0.0930 H     1 <1>   0.0800 
 31 H        2.1000     2.3930    -1.6540 H     1 <1>   0.0800 
 32 H        0.6860     0.3770    -1.5920 H     1 <1>   0.0800 
 33 H        2.1440    -0.1820    -2.3670 H     1 <1>   0.0800 
 34 H        2.8240    -1.1910     1.2560 H     1 <1>   0.4500 
 35 H        5.6540     0.1350     0.8120 H     1 <1>   0.0800 
 36 H        4.3930     1.2070     1.3860 H     1 <1>   0.0800 
 37 H        4.3990     3.3250    -1.6130 H     1 <1>   0.0800 
 38 H        4.3480     1.7560    -2.3720 H     1 <1>   0.0800 
 39 H        0.8400    -2.1220    -1.6850 H     1 <1>   0.0800 
 40 H        0.6500    -1.5060    -0.0820 H     1 <1>   0.0800 
 41 H        3.1690    -2.5840    -1.3330 H     1 <1>   0.0800 
 42 H        2.2940    -3.2250     0.0360 H     1 <1>   0.0800 
 43 H        5.3030    -2.4560     0.2130 H     1 <1>   0.0800 
 44 H        4.2680    -3.1600     1.4430 H     1 <1>   0.0800 
 45 H        5.0840    -1.6490     1.7560 H     1 <1>   0.0800 
 46 H        6.5870     3.2640    -2.2250 H     1 <1>   0.1500 
 47 H        8.5830     2.8250     2.1310 H     1 <1>   0.1500 
 48 H        8.6860     4.4820    -1.7920 H     1 <1>   0.1500 
 49 H       10.8760     4.1120    -0.0430 H     1 <1>   0.0800 
 50 H       10.3440     4.3000     1.6050 H     1 <1>   0.0800 
 51 H        8.9150     8.9630     0.7210 H     1 <1>   0.1500 
 52 H        7.5330     7.3040     2.3470 H     1 <1>   0.0800 
 53 H        8.4600     5.9030     2.8210 H     1 <1>   0.0800 
 54 H        7.2840     5.7860     1.5260 H     1 <1>   0.0800 
 55 H       10.6720     9.8620    -0.9930 H     1 <1>   0.0800 
 56 H       11.0040     8.6900    -2.2510 H     1 <1>   0.0800 
 57 H       12.1540     8.9300    -0.9560 H     1 <1>   0.0800 
@<TRIPOS>BOND
  1   1   2  ar  
  2   2   3  ar  
  3   2   4  1   
  4   4   5  1   
  5   4   6  1   
  6   4   7  1   
  7   5   8  1   
  8   5   9  1   
  9   5  29  1   
 10   6  10  1   
 11   6  30  1   
 12   6  31  1   
 13   7  11  1   
 14   7  32  1   
 15   7  33  1   
 16   8  12  1   
 17   8  13  1   
 18   8  34  1   
 19   9  14  1   
 20   9  35  1   
 21   9  36  1   
 22  10  14  1   
 23  10  37  1   
 24  10  38  1   
 25  11  12  1   
 26  11  39  1   
 27  11  40  1   
 28  12  41  1   
 29  12  42  1   
 30  13  43  1   
 31  13  44  1   
 32  13  45  1   
 33  14  15  1   
 34  15  16  ar  
 35  15  17  ar  
 36  16  18  ar  
 37  17  19  ar  
 38  17  46  1   
 39  18  20  ar  
 40  18  47  1   
 41  19  20  ar  
 42  19  48  1   
 43  20  21  1   
 44  21  22  1   
 45  21  49  1   
 46  21  50  1   
 47  22  23  1   
 48  22  24  1   
 49  23  25  2   
 50  24  26  2   
 51  24  27  1   
 52  25  26  1   
 53  25  28  1   
 54  26  51  1   
 55  27  52  1   
 56  27  53  1   
 57  27  54  1   
 58  28  55  1   
 59  28  56  1   
 60  28  57  1   
@<TRIPOS>SUBSTRUCTURE
  1 ****  15 GROUP 4 **** **** 0

# MOE 2024.06 (io_trps.svl 2023.06)
