@<TRIPOS>MOLECULE
NONAME
52 55 1 0 0 
SMALL
USER_CHARGES


@<TRIPOS>ATOM
  1 O       -2.6880     1.7660    -2.0140 O.2   1 <1>  -0.5700 
  2 C       -2.2610     1.6020    -0.8880 C.2   1 <1>   0.7160 
  3 N       -2.2980     0.3550    -0.3480 N.am  1 <1>  -0.7300 
  4 C       -1.7730     2.7080    -0.1060 C.2   1 <1>  -0.0860 
  5 C       -2.6960    -0.8880    -1.0440 C.3   1 <1>   0.2200 
  6 C       -0.5990     3.0130     0.5350 C.2   1 <1>  -0.3320 
  7 C       -2.5790     3.8210     0.1500 C.2   1 <1>   0.1390 
  8 C       -3.8590    -1.5230    -0.3010 C.3   1 <1>  -0.0800 
  9 C       -1.6080    -1.9390    -0.8640 C.3   1 <1>   0.1200 
 10 N       -0.7800     4.2130     1.1170 N.pl3 1 <1>   0.3000 
 11 C        0.7590     2.3180     0.6500 C.3   1 <1>   0.1000 
 12 N       -2.0010     4.7140     0.8860 N.2   1 <1>  -0.7070 
 13 C       -3.1480    -2.3160     0.8040 C.3   1 <1>   0.1200 
 14 C       -4.6920    -2.4290    -1.2280 C.3   1 <1>  -0.0160 
 15 O       -1.8190    -2.4880     0.4010 O.3   1 <1>  -0.5600 
 16 C        1.7680     3.0210    -0.2730 C.3   1 <1>  -0.1600 
 17 C        0.7240     0.8150     0.3410 C.3   1 <1>  -0.1600 
 18 C       -5.8600    -3.0650    -0.4890 C.ar  1 <1>  -0.1440 
 19 C        3.1660     2.3920    -0.1780 C.3   1 <1>  -0.1600 
 20 C        2.1160     0.1780     0.4560 C.3   1 <1>  -0.1600 
 21 C       -5.8550    -4.3940    -0.1150 C.ar  1 <1>  -0.1500 
 22 C       -6.9890    -2.3440    -0.1560 C.ar  1 <1>  -0.1500 
 23 C        3.1200     0.8850    -0.4630 C.3   1 <1>  -0.1600 
 24 C       -6.9450    -4.9200     0.5590 C.ar  1 <1>   0.1600 
 25 C       -8.0260    -2.9660     0.5190 C.ar  1 <1>   0.1600 
 26 N       -8.0290    -4.2370     0.8870 N.ar  1 <1>  -0.6200 
 27 H       -1.9160     0.2210     0.5880 H     1 <1>   0.3700 
 28 H       -2.9070    -0.6930    -2.0830 H     1 <1>   0.0800 
 29 H       -3.5830     3.9250    -0.2280 H     1 <1>   0.1500 
 30 H       -4.5070    -0.7740     0.1200 H     1 <1>   0.0800 
 31 H       -0.6150    -1.5290    -0.9220 H     1 <1>   0.0800 
 32 H       -1.7160    -2.7290    -1.5860 H     1 <1>   0.0800 
 33 H       -0.0830     4.7300     1.6670 H     1 <1>   0.2700 
 34 H        1.1010     2.4260     1.6660 H     1 <1>   0.0800 
 35 H       -3.5850    -3.2820     0.9800 H     1 <1>   0.0800 
 36 H       -3.1370    -1.7590     1.7260 H     1 <1>   0.0800 
 37 H       -4.0730    -3.2010    -1.6510 H     1 <1>   0.0800 
 38 H       -5.0810    -1.8430    -2.0430 H     1 <1>   0.0800 
 39 H        1.4170     2.9550    -1.2890 H     1 <1>   0.0800 
 40 H        1.8350     4.0640    -0.0190 H     1 <1>   0.0800 
 41 H        0.0590     0.3210     1.0260 H     1 <1>   0.0800 
 42 H        0.3670     0.6680    -0.6620 H     1 <1>   0.0800 
 43 H        3.8250     2.8700    -0.8830 H     1 <1>   0.0800 
 44 H        3.5660     2.5550     0.8080 H     1 <1>   0.0800 
 45 H        2.4580     0.2400     1.4760 H     1 <1>   0.0800 
 46 H        2.0580    -0.8640     0.1920 H     1 <1>   0.0800 
 47 H       -5.0160    -5.0270    -0.3390 H     1 <1>   0.1500 
 48 H       -7.0730    -1.3040    -0.4160 H     1 <1>   0.1500 
 49 H        4.0990     0.4600    -0.3240 H     1 <1>   0.0800 
 50 H        2.8350     0.7260    -1.4890 H     1 <1>   0.0800 
 51 H       -6.9230    -5.9580     0.8440 H     1 <1>   0.1500 
 52 H       -8.8980    -2.3880     0.7710 H     1 <1>   0.1500 
@<TRIPOS>BOND
  1   1   2  2   
  2   2   3  am  
  3   2   4  1   
  4   3   5  1   
  5   3  27  1   
  6   4   6  2   
  7   4   7  1   
  8   5   8  1   
  9   5   9  1   
 10   5  28  1   
 11   6  10  1   
 12   6  11  1   
 13   7  12  2   
 14   7  29  1   
 15   8  13  1   
 16   8  14  1   
 17   8  30  1   
 18   9  15  1   
 19   9  31  1   
 20   9  32  1   
 21  10  12  1   
 22  10  33  1   
 23  11  16  1   
 24  11  17  1   
 25  11  34  1   
 26  13  15  1   
 27  13  35  1   
 28  13  36  1   
 29  14  18  1   
 30  14  37  1   
 31  14  38  1   
 32  16  19  1   
 33  16  39  1   
 34  16  40  1   
 35  17  20  1   
 36  17  41  1   
 37  17  42  1   
 38  18  21  ar  
 39  18  22  ar  
 40  19  23  1   
 41  19  43  1   
 42  19  44  1   
 43  20  23  1   
 44  20  45  1   
 45  20  46  1   
 46  21  24  ar  
 47  21  47  1   
 48  22  25  ar  
 49  22  48  1   
 50  23  49  1   
 51  23  50  1   
 52  24  26  ar  
 53  24  51  1   
 54  25  26  ar  
 55  25  52  1   
@<TRIPOS>SUBSTRUCTURE
  1 ****   3 GROUP 4 **** **** 0

# MOE 2024.06 (io_trps.svl 2023.06)
