@<TRIPOS>MOLECULE
NONAME
48 50 1 0 0 
SMALL
USER_CHARGES


@<TRIPOS>ATOM
  1 F       -0.8780    -1.0380     1.1260 F     1 <1>  -0.1900 
  2 C       -1.9910    -1.3130     0.5030 C.ar  1 <1>   0.1900 
  3 C       -2.7150    -2.4410     0.8510 C.ar  1 <1>  -0.1440 
  4 C       -2.3950    -0.4450    -0.4920 C.ar  1 <1>  -0.1500 
  5 C       -3.8990    -2.6830     0.1540 C.ar  1 <1>  -0.1500 
  6 C       -2.1990    -3.3610     1.9620 C.3   1 <1>   1.1640 
  7 C       -3.5710    -0.7030    -1.1720 C.ar  1 <1>  -0.1500 
  8 C       -4.3310    -1.8200    -0.8480 C.ar  1 <1>  -0.1440 
  9 F       -2.0980    -2.7410     3.1300 F     1 <1>  -0.3400 
 10 F       -1.0100    -3.8810     1.6920 F     1 <1>  -0.3400 
 11 F       -3.0110    -4.3930     2.1680 F     1 <1>  -0.3400 
 12 C       -5.6260    -2.0980    -1.5970 C.3   1 <1>   0.4870 
 13 N       -6.7810    -1.7140    -0.7410 N.4   1 <1>  -0.9590 
 14 C       -8.0860    -2.1440    -1.3450 C.3   1 <1>   0.3430 
 15 C       -6.7970    -0.2550    -0.4500 C.3   1 <1>   0.3430 
 16 C       -9.2350    -2.1550    -0.2590 C.3   1 <1>   0.0000 
 17 C       -8.0720     0.0940     0.3130 C.3   1 <1>  -0.1600 
 18 C      -10.3010    -2.1850     0.9230 C.3   1 <1>   0.2000 
 19 C       -9.3100    -0.5580    -0.3340 C.3   1 <1>  -0.1600 
 20 C       -9.1800    -3.7510    -0.2850 C.3   1 <1>  -0.1600 
 21 O      -11.5710    -2.0940     0.3310 O.3   1 <1>  -0.5600 
 22 C      -10.2400    -3.4560     1.7540 C.3   1 <1>  -0.1600 
 23 C      -10.0780    -4.4860     0.6960 C.3   1 <1>  -0.1600 
 24 C      -12.5860    -1.5590     1.1260 C.3   1 <1>   0.0400 
 25 H       -1.7910     0.4150    -0.7270 H     1 <1>   0.1500 
 26 H       -4.4860    -3.5560     0.3930 H     1 <1>   0.1500 
 27 H       -3.8780    -0.0270    -1.9530 H     1 <1>   0.1500 
 28 H       -5.6770    -3.1490    -1.8350 H     1 <1>   0.0800 
 29 H       -5.6440    -1.5410    -2.5190 H     1 <1>   0.0800 
 30 H       -6.6790    -2.2020     0.1570 H     1 <1>   0.4500 
 31 H       -8.3360    -1.4920    -2.1640 H     1 <1>   0.0800 
 32 H       -7.9340    -3.1030    -1.8140 H     1 <1>   0.0800 
 33 H       -5.9300     0.0270     0.1280 H     1 <1>   0.0800 
 34 H       -6.7820     0.2970    -1.3770 H     1 <1>   0.0800 
 35 H       -7.9770    -0.2240     1.3370 H     1 <1>   0.0800 
 36 H       -8.1880     1.1640     0.3190 H     1 <1>   0.0800 
 37 H      -10.1860    -1.3800     1.6330 H     1 <1>   0.0800 
 38 H       -9.4040    -0.2100    -1.3510 H     1 <1>   0.0800 
 39 H      -10.1740    -0.0800     0.1040 H     1 <1>   0.0800 
 40 H       -9.4610    -4.1300    -1.2570 H     1 <1>   0.0800 
 41 H       -8.1860    -4.1050    -0.0550 H     1 <1>   0.0800 
 42 H       -9.3710    -3.4360     2.3880 H     1 <1>   0.0800 
 43 H      -11.1140    -3.6210     2.3590 H     1 <1>   0.0800 
 44 H       -9.6440    -5.3990     1.0690 H     1 <1>   0.0800 
 45 H      -11.0330    -4.7000     0.2440 H     1 <1>   0.0800 
 46 H      -13.4850    -1.5210     0.5360 H     1 <1>   0.0800 
 47 H      -12.3150    -0.5650     1.4340 H     1 <1>   0.0800 
 48 H      -12.7500    -2.1890     1.9830 H     1 <1>   0.0800 
@<TRIPOS>BOND
  1   1   2  1   
  2   2   3  ar  
  3   2   4  ar  
  4   3   5  ar  
  5   3   6  1   
  6   4   7  ar  
  7   4  25  1   
  8   5   8  ar  
  9   5  26  1   
 10   6   9  1   
 11   6  10  1   
 12   6  11  1   
 13   7   8  ar  
 14   7  27  1   
 15   8  12  1   
 16  12  13  1   
 17  12  28  1   
 18  12  29  1   
 19  13  14  1   
 20  13  15  1   
 21  13  30  1   
 22  14  16  1   
 23  14  31  1   
 24  14  32  1   
 25  15  17  1   
 26  15  33  1   
 27  15  34  1   
 28  16  18  1   
 29  16  19  1   
 30  16  20  1   
 31  17  19  1   
 32  17  35  1   
 33  17  36  1   
 34  18  21  1   
 35  18  22  1   
 36  18  37  1   
 37  19  38  1   
 38  19  39  1   
 39  20  23  1   
 40  20  40  1   
 41  20  41  1   
 42  21  24  1   
 43  22  23  1   
 44  22  42  1   
 45  22  43  1   
 46  23  44  1   
 47  23  45  1   
 48  24  46  1   
 49  24  47  1   
 50  24  48  1   
@<TRIPOS>SUBSTRUCTURE
  1 ****  13 GROUP 4 **** **** 0

# MOE 2024.06 (io_trps.svl 2023.06)
