@<TRIPOS>MOLECULE
NONAME
52 56 1 0 0 
SMALL
USER_CHARGES


@<TRIPOS>ATOM
  1 S        0.1750    -0.2770     0.3830 S.o2  1 <1>   1.4470 
  2 O       -0.9330    -1.1820     0.1760 O.2   1 <1>  -0.6500 
  3 O        0.7570    -0.1250     1.6970 O.2   1 <1>  -0.6500 
  4 N        1.3710    -0.8930    -0.6210 N.am  1 <1>  -0.9140 
  5 C       -0.1810     1.3510    -0.3370 C.ar  1 <1>  -0.0090 
  6 C        2.3080    -1.8320    -0.0030 C.3   1 <1>   0.1960 
  7 C        0.8300     2.2990    -0.4800 C.ar  1 <1>  -0.1500 
  8 C       -1.4680     1.6860    -0.7580 C.ar  1 <1>  -0.1500 
  9 C        1.6280    -3.1100     0.5320 C.3   1 <1>  -0.0800 
 10 C        0.5750     3.5470    -1.0260 C.ar  1 <1>  -0.1500 
 11 C       -1.7430     2.9290    -1.3070 C.ar  1 <1>  -0.1500 
 12 C        0.9830    -3.9420    -0.5880 C.3   1 <1>   0.2000 
 13 C        2.5870    -4.1610     1.1390 C.3   1 <1>  -0.0800 
 14 C       -0.7120     3.8380    -1.4310 C.ar  1 <1>   0.1900 
 15 O        2.0420    -4.7390    -0.9620 O.3   1 <1>  -0.5600 
 16 C        0.0120    -4.9850    -0.0190 C.3   1 <1>  -0.1600 
 17 C        2.3220    -5.3630     0.2410 C.3   1 <1>   0.2800 
 18 C        4.1080    -3.9760     1.0460 C.3   1 <1>   0.2090 
 19 F       -0.9620     5.0100    -1.9480 F     1 <1>  -0.1900 
 20 C        0.9790    -6.0250     0.5560 C.3   1 <1>  -0.1600 
 21 C        3.6060    -6.1970     0.2170 C.3   1 <1>   0.2090 
 22 N        4.6680    -5.3350     0.8150 N.pl3 1 <1>  -0.8380 
 23 C        6.0000    -5.4810     0.4310 C.ar  1 <1>   0.4100 
 24 N        6.7580    -4.3800     0.3200 N.ar  1 <1>  -0.3100 
 25 C        6.5250    -6.7390     0.1840 C.ar  1 <1>  -0.1500 
 26 N        8.0150    -4.4610    -0.0460 N.ar  1 <1>  -0.3100 
 27 C        7.8420    -6.8280    -0.1970 C.ar  1 <1>  -0.1500 
 28 C        8.5480    -5.6490    -0.3000 C.ar  1 <1>   0.1670 
 29 C       10.0040    -5.6580    -0.7160 C.3   1 <1>  -0.0970 
 30 H        0.8610    -1.3880    -1.3480 H     1 <1>   0.4200 
 31 H        3.0330    -2.1030    -0.7520 H     1 <1>   0.0800 
 32 H        2.8310    -1.3360     0.8000 H     1 <1>   0.0800 
 33 H        1.8290     2.0550    -0.1570 H     1 <1>   0.1500 
 34 H       -2.2650     0.9680    -0.6540 H     1 <1>   0.1500 
 35 H        0.8960    -2.8440     1.2730 H     1 <1>   0.0800 
 36 H        1.3540     4.2800    -1.1360 H     1 <1>   0.1500 
 37 H       -2.7340     3.1900    -1.6320 H     1 <1>   0.1500 
 38 H        0.5960    -3.3860    -1.4240 H     1 <1>   0.0800 
 39 H        2.3310    -4.3890     2.1580 H     1 <1>   0.0800 
 40 H       -0.6400    -4.5600     0.7240 H     1 <1>   0.0800 
 41 H       -0.5800    -5.4060    -0.8130 H     1 <1>   0.0800 
 42 H        4.5100    -3.5500     1.9500 H     1 <1>   0.0800 
 43 H        4.3830    -3.3590     0.2100 H     1 <1>   0.0800 
 44 H        0.8940    -6.9620     0.0340 H     1 <1>   0.0800 
 45 H        0.8450    -6.1830     1.6110 H     1 <1>   0.0800 
 46 H        3.8510    -6.4820    -0.7910 H     1 <1>   0.0800 
 47 H        3.4850    -7.0720     0.8300 H     1 <1>   0.0800 
 48 H        5.9200    -7.6160     0.2960 H     1 <1>   0.1500 
 49 H        8.2970    -7.7790    -0.4020 H     1 <1>   0.1500 
 50 H       10.3490    -6.6580    -0.9010 H     1 <1>   0.0800 
 51 H       10.6030    -5.2210     0.0620 H     1 <1>   0.0800 
 52 H       10.1250    -5.0770    -1.6130 H     1 <1>   0.0800 
@<TRIPOS>BOND
  1   1   2  2   
  2   1   3  2   
  3   1   4  am  
  4   1   5  1   
  5   4   6  1   
  6   4  30  1   
  7   5   7  ar  
  8   5   8  ar  
  9   6   9  1   
 10   6  31  1   
 11   6  32  1   
 12   7  10  ar  
 13   7  33  1   
 14   8  11  ar  
 15   8  34  1   
 16   9  12  1   
 17   9  13  1   
 18   9  35  1   
 19  10  14  ar  
 20  10  36  1   
 21  11  14  ar  
 22  11  37  1   
 23  12  15  1   
 24  12  16  1   
 25  12  38  1   
 26  13  17  1   
 27  13  18  1   
 28  13  39  1   
 29  14  19  1   
 30  15  17  1   
 31  16  20  1   
 32  16  40  1   
 33  16  41  1   
 34  17  20  1   
 35  17  21  1   
 36  18  22  1   
 37  18  42  1   
 38  18  43  1   
 39  20  44  1   
 40  20  45  1   
 41  21  22  1   
 42  21  46  1   
 43  21  47  1   
 44  22  23  1   
 45  23  24  ar  
 46  23  25  ar  
 47  24  26  ar  
 48  25  27  ar  
 49  25  48  1   
 50  26  28  ar  
 51  27  28  ar  
 52  27  49  1   
 53  28  29  1   
 54  29  50  1   
 55  29  51  1   
 56  29  52  1   
@<TRIPOS>SUBSTRUCTURE
  1 ****   6 GROUP 4 **** **** 0

# MOE 2024.06 (io_trps.svl 2023.06)
