@<TRIPOS>MOLECULE
NONAME
48 50 1 0 0 
SMALL
USER_CHARGES


@<TRIPOS>ATOM
  1 O       -0.2610    -0.4660     0.9120 O.3   1 <1>  -0.5600 
  2 C        0.5010     0.6830     1.0610 C.3   1 <1>   0.1200 
  3 C       -1.6070    -0.1390     0.7480 C.3   1 <1>   0.1200 
  4 C       -0.1870     1.7010     0.1630 C.3   1 <1>   0.2890 
  5 C       -1.6550     1.3390     0.3380 C.3   1 <1>  -0.0800 
  6 N        0.0830     3.1100     0.5670 N.pl3 1 <1>  -0.8690 
  7 C       -2.5000     1.6050    -0.9190 C.3   1 <1>  -0.0170 
  8 C        0.8480     4.0680    -0.0160 C.ar  1 <1>   0.4610 
  9 C       -3.9490     1.2050    -0.6980 C.ar  1 <1>  -0.1440 
 10 N        1.6010     3.7960    -1.0950 N.ar  1 <1>  -0.1790 
 11 C        0.9100     5.3580     0.4570 C.ar  1 <1>  -0.1500 
 12 C       -4.8190     1.9930     0.0290 C.ar  1 <1>  -0.1500 
 13 C       -4.4730     0.0350    -1.2120 C.ar  1 <1>  -0.1500 
 14 C        2.3670     4.7380    -1.6810 C.ar  1 <1>   0.7710 
 15 C        1.7130     6.2750    -0.1870 C.ar  1 <1>   0.3930 
 16 C       -6.1300     1.5820     0.2080 C.ar  1 <1>   0.1600 
 17 C       -5.8000    -0.2840    -0.9740 C.ar  1 <1>   0.1600 
 18 N        2.4440     5.9740    -1.2590 N.ar  1 <1>  -0.6200 
 19 N        3.1010     4.4270    -2.7510 N.pl3 1 <1>  -0.9000 
 20 O        1.7430     7.5110     0.3020 O.3   1 <1>  -0.3620 
 21 N       -6.6390     0.4610    -0.2730 N.ar  1 <1>  -0.6200 
 22 C        2.5390     8.5630    -0.2050 C.3   1 <1>   0.2000 
 23 C        3.9390     8.4550     0.4010 C.3   1 <1>  -0.2400 
 24 C        1.8630     9.8730     0.1930 C.3   1 <1>  -0.2400 
 25 H        0.4610     0.9730     2.0970 H     1 <1>   0.0800 
 26 H        1.5120     0.4710     0.7620 H     1 <1>   0.0800 
 27 H       -2.0150    -0.7930    -0.0030 H     1 <1>   0.0800 
 28 H       -2.1160    -0.3060     1.6830 H     1 <1>   0.0800 
 29 H        0.1170     1.5190    -0.8530 H     1 <1>   0.0800 
 30 H       -2.0720     1.8850     1.1660 H     1 <1>   0.0800 
 31 H       -0.4160     3.3580     1.4340 H     1 <1>   0.4000 
 32 H       -2.1010     1.0560    -1.7550 H     1 <1>   0.0800 
 33 H       -2.4620     2.6520    -1.1660 H     1 <1>   0.0800 
 34 H        1.6180     2.8640    -1.4770 H     1 <1>   0.4570 
 35 H        0.3440     5.6630     1.3170 H     1 <1>   0.1500 
 36 H       -4.4960     2.9230     0.4580 H     1 <1>   0.1500 
 37 H       -3.8700    -0.6350    -1.7950 H     1 <1>   0.1500 
 38 H       -6.7940     2.2090     0.7780 H     1 <1>   0.1500 
 39 H       -6.1920    -1.2000    -1.3810 H     1 <1>   0.1500 
 40 H        3.1890     3.5330    -3.2350 H     1 <1>   0.4000 
 41 H        3.6690     5.1760    -3.1640 H     1 <1>   0.4000 
 42 H        2.5770     8.4920    -1.2800 H     1 <1>   0.0800 
 43 H        3.8890     8.5020     1.4740 H     1 <1>   0.0800 
 44 H        4.5500     9.2670     0.0520 H     1 <1>   0.0800 
 45 H        4.4060     7.5340     0.1040 H     1 <1>   0.0800 
 46 H        1.7930     9.9520     1.2630 H     1 <1>   0.0800 
 47 H        0.8770     9.9240    -0.2340 H     1 <1>   0.0800 
 48 H        2.4330    10.7070    -0.1750 H     1 <1>   0.0800 
@<TRIPOS>BOND
  1   1   2  1   
  2   1   3  1   
  3   2   4  1   
  4   2  25  1   
  5   2  26  1   
  6   3   5  1   
  7   3  27  1   
  8   3  28  1   
  9   4   5  1   
 10   4   6  1   
 11   4  29  1   
 12   5   7  1   
 13   5  30  1   
 14   6   8  1   
 15   6  31  1   
 16   7   9  1   
 17   7  32  1   
 18   7  33  1   
 19   8  10  ar  
 20   8  11  ar  
 21   9  12  ar  
 22   9  13  ar  
 23  10  14  ar  
 24  10  34  1   
 25  11  15  ar  
 26  11  35  1   
 27  12  16  ar  
 28  12  36  1   
 29  13  17  ar  
 30  13  37  1   
 31  14  18  ar  
 32  14  19  1   
 33  15  18  ar  
 34  15  20  1   
 35  16  21  ar  
 36  16  38  1   
 37  17  21  ar  
 38  17  39  1   
 39  19  40  1   
 40  19  41  1   
 41  20  22  1   
 42  22  23  1   
 43  22  24  1   
 44  22  42  1   
 45  23  43  1   
 46  23  44  1   
 47  23  45  1   
 48  24  46  1   
 49  24  47  1   
 50  24  48  1   
@<TRIPOS>SUBSTRUCTURE
  1 ****   6 GROUP 4 **** **** 0

# MOE 2024.06 (io_trps.svl 2023.06)
