@<TRIPOS>MOLECULE
NONAME
54 57 1 0 0 
SMALL
USER_CHARGES


@<TRIPOS>ATOM
  1 O       -1.0400     1.1870    -0.8410 O.2   1 <1>  -0.5700 
  2 C       -2.1450     1.2840    -0.3420 C.2   1 <1>   0.5440 
  3 N       -2.9840     0.1810    -0.3730 N.am  1 <1>  -0.6600 
  4 C       -2.5070     2.5460     0.2710 C.ar  1 <1>   0.0860 
  5 C       -4.4670     0.2040    -0.5580 C.3   1 <1>   0.2200 
  6 C       -2.3900    -1.1740    -0.5630 C.3   1 <1>   0.0600 
  7 C       -2.8000     3.6710    -0.5010 C.ar  1 <1>  -0.1500 
  8 C       -2.5390     2.6880     1.6600 C.ar  1 <1>  -0.1500 
  9 C       -4.9160     1.0980    -1.7160 C.3   1 <1>  -0.1600 
 10 C       -5.2280     0.6420     0.6940 C.3   1 <1>  -0.1600 
 11 C       -3.1630     4.8670     0.0880 C.ar  1 <1>   0.0820 
 12 C       -2.8880     3.8850     2.2610 C.ar  1 <1>  -0.1500 
 13 C       -6.2420     1.7390    -1.2870 C.3   1 <1>  -0.0800 
 14 C       -6.3840     1.5340     0.2230 C.3   1 <1>  -0.0800 
 15 O       -3.4650     5.9270    -0.7000 O.3   1 <1>  -0.3630 
 16 C       -3.2130     4.9780     1.4780 C.ar  1 <1>   0.0820 
 17 C       -6.3230     3.2580    -1.5260 C.3   1 <1>  -0.1600 
 18 C       -6.3870     2.9440     0.8260 C.3   1 <1>  -0.1600 
 19 C       -3.3070     7.1990    -0.1000 C.3   1 <1>   0.1200 
 20 O       -3.5720     6.1370     2.0790 O.3   1 <1>  -0.3620 
 21 C       -6.9530     3.8560    -0.2650 C.3   1 <1>   0.4230 
 22 C       -4.0010     7.2210     1.2700 C.3   1 <1>   0.1200 
 23 N       -8.4470     3.7580    -0.3280 N.4   1 <1>  -0.9590 
 24 C       -9.0280     4.5850    -1.4340 C.3   1 <1>   0.2630 
 25 C       -9.1120     4.1500     0.9570 C.3   1 <1>   0.2630 
 26 H       -4.8020    -0.7930    -0.7930 H     1 <1>   0.0800 
 27 H       -2.9060    -1.8930     0.0490 H     1 <1>   0.0800 
 28 H       -1.3510    -1.1740    -0.2810 H     1 <1>   0.0800 
 29 H       -2.4660    -1.4610    -1.5970 H     1 <1>   0.0800 
 30 H       -2.7290     3.6090    -1.5710 H     1 <1>   0.1500 
 31 H       -2.2790     1.8400     2.2700 H     1 <1>   0.1500 
 32 H       -4.1760     1.8380    -1.9410 H     1 <1>   0.0800 
 33 H       -5.0570     0.5030    -2.6010 H     1 <1>   0.0800 
 34 H       -5.6160    -0.2280     1.1940 H     1 <1>   0.0800 
 35 H       -4.5930     1.1540     1.3860 H     1 <1>   0.0800 
 36 H       -2.9070     3.9790     3.3320 H     1 <1>   0.1500 
 37 H       -7.0570     1.2390    -1.7840 H     1 <1>   0.0800 
 38 H       -7.3240     1.0480     0.4290 H     1 <1>   0.0800 
 39 H       -6.8280     3.4950    -2.4420 H     1 <1>   0.0800 
 40 H       -5.3330     3.6690    -1.6010 H     1 <1>   0.0800 
 41 H       -5.3730     3.2520     0.9960 H     1 <1>   0.0800 
 42 H       -6.8910     2.9890     1.7720 H     1 <1>   0.0800 
 43 H       -2.2540     7.3900     0.0090 H     1 <1>   0.0800 
 44 H       -3.7310     7.9350    -0.7590 H     1 <1>   0.0800 
 45 H       -6.6450     4.8800    -0.1180 H     1 <1>   0.0800 
 46 H       -5.0650     7.1440     1.1490 H     1 <1>   0.0800 
 47 H       -3.7740     8.1320     1.7940 H     1 <1>   0.0800 
 48 H       -8.6570     2.7670    -0.5140 H     1 <1>   0.4500 
 49 H       -8.7470     5.6190    -1.3150 H     1 <1>   0.0800 
 50 H      -10.1040     4.5170    -1.4250 H     1 <1>   0.0800 
 51 H       -8.6790     4.2420    -2.3940 H     1 <1>   0.0800 
 52 H       -8.8240     5.1500     1.2380 H     1 <1>   0.0800 
 53 H       -8.8390     3.4750     1.7500 H     1 <1>   0.0800 
 54 H      -10.1840     4.1190     0.8460 H     1 <1>   0.0800 
@<TRIPOS>BOND
  1   1   2  2   
  2   2   3  am  
  3   2   4  1   
  4   3   5  1   
  5   3   6  1   
  6   4   7  ar  
  7   4   8  ar  
  8   5   9  1   
  9   5  10  1   
 10   5  26  1   
 11   6  27  1   
 12   6  28  1   
 13   6  29  1   
 14   7  11  ar  
 15   7  30  1   
 16   8  12  ar  
 17   8  31  1   
 18   9  13  1   
 19   9  32  1   
 20   9  33  1   
 21  10  14  1   
 22  10  34  1   
 23  10  35  1   
 24  11  15  1   
 25  11  16  ar  
 26  12  16  ar  
 27  12  36  1   
 28  13  14  1   
 29  13  17  1   
 30  13  37  1   
 31  14  18  1   
 32  14  38  1   
 33  15  19  1   
 34  16  20  1   
 35  17  21  1   
 36  17  39  1   
 37  17  40  1   
 38  18  21  1   
 39  18  41  1   
 40  18  42  1   
 41  19  22  1   
 42  19  43  1   
 43  19  44  1   
 44  20  22  1   
 45  21  23  1   
 46  21  45  1   
 47  22  46  1   
 48  22  47  1   
 49  23  24  1   
 50  23  25  1   
 51  23  48  1   
 52  24  49  1   
 53  24  50  1   
 54  24  51  1   
 55  25  52  1   
 56  25  53  1   
 57  25  54  1   
@<TRIPOS>SUBSTRUCTURE
  1 ****   7 GROUP 4 **** **** 0

# MOE 2024.06 (io_trps.svl 2023.06)
