@<TRIPOS>MOLECULE
NONAME
47 49 1 0 0 
SMALL
USER_CHARGES


@<TRIPOS>ATOM
  1 CL       2.6080     0.6570    -1.7530 Cl    1 <1>  -0.1770 
  2 C        1.2890     1.5990    -1.0950 C.ar  1 <1>   0.1770 
  3 C        1.4020     2.2660     0.1220 C.ar  1 <1>  -0.1440 
  4 C        0.1270     1.6540    -1.8450 C.ar  1 <1>  -0.1500 
  5 C        0.3090     3.0020     0.5630 C.ar  1 <1>  -0.1500 
  6 C        2.6590     2.2260     0.9920 C.3   1 <1>   0.3640 
  7 C       -0.9510     2.3880    -1.3870 C.ar  1 <1>  -0.1500 
  8 C       -0.8570     3.0630    -0.1830 C.ar  1 <1>  -0.1500 
  9 N        2.9030     0.8200     1.3960 N.am  1 <1>  -0.7300 
 10 C        3.8920     2.9010     0.3200 C.3   1 <1>   0.2610 
 11 C        4.0900     0.1940     1.2510 C.2   1 <1>   0.5690 
 12 O        5.1230     2.3580     0.7940 O.3   1 <1>  -0.5600 
 13 C        3.8510     4.4150     0.5630 C.2   1 <1>   0.5690 
 14 O        4.2310    -0.9520     1.5950 O.2   1 <1>  -0.5700 
 15 C        5.2540     0.9630     0.6240 C.3   1 <1>   0.1810 
 16 O        2.8300     5.0280     0.3540 O.2   1 <1>  -0.5700 
 17 N        4.9700     5.0400     1.0200 N.am  1 <1>  -0.7300 
 18 C        5.1130     6.4820     1.2980 C.3   1 <1>   0.1400 
 19 C        6.2430     7.0460     0.4380 C.3   1 <1>  -0.1600 
 20 C        6.4220     8.5490     0.6760 C.3   1 <1>   0.0210 
 21 C        7.5680     9.0850    -0.1590 C.2   1 <1>  -0.1810 
 22 C        7.5580     9.3350    -1.5270 C.2   1 <1>   0.1390 
 23 C        8.8110     9.4250     0.2380 C.2   1 <1>  -0.3020 
 24 N        8.6970     9.7930    -1.9510 N.2   1 <1>  -0.7070 
 25 N        9.4730     9.8480    -0.8570 N.pl3 1 <1>   0.3140 
 26 C       10.8590    10.3190    -0.9270 C.3   1 <1>   0.0160 
 27 H        0.0720     1.1260    -2.7800 H     1 <1>   0.1500 
 28 H        0.3560     3.5460     1.4920 H     1 <1>   0.1500 
 29 H        2.4570     2.7750     1.8960 H     1 <1>   0.0800 
 30 H       -1.8590     2.4360    -1.9650 H     1 <1>   0.1500 
 31 H       -1.6920     3.6410     0.1740 H     1 <1>   0.1500 
 32 H        2.1140     0.2880     1.7640 H     1 <1>   0.3700 
 33 H        3.8630     2.7480    -0.7420 H     1 <1>   0.0800 
 34 H        5.3050     0.7470    -0.4280 H     1 <1>   0.0800 
 35 H        6.1730     0.6590     1.0900 H     1 <1>   0.0800 
 36 H        5.7910     4.4490     1.1910 H     1 <1>   0.3700 
 37 H        4.1900     6.9910     1.0730 H     1 <1>   0.0800 
 38 H        5.3320     6.6200     2.3430 H     1 <1>   0.0800 
 39 H        7.1630     6.5430     0.6750 H     1 <1>   0.0800 
 40 H        6.0160     6.8790    -0.6000 H     1 <1>   0.0800 
 41 H        6.6310     8.7320     1.7160 H     1 <1>   0.0800 
 42 H        5.5200     9.0760     0.4180 H     1 <1>   0.0800 
 43 H        6.7110     9.1730    -2.1720 H     1 <1>   0.1500 
 44 H        9.2540     9.3900     1.2150 H     1 <1>   0.1500 
 45 H       11.2560    10.4240     0.0650 H     1 <1>   0.0800 
 46 H       10.8780    11.2670    -1.4300 H     1 <1>   0.0800 
 47 H       11.4400     9.6060    -1.4810 H     1 <1>   0.0800 
@<TRIPOS>BOND
  1   1   2  1   
  2   2   3  ar  
  3   2   4  ar  
  4   3   5  ar  
  5   3   6  1   
  6   4   7  ar  
  7   4  27  1   
  8   5   8  ar  
  9   5  28  1   
 10   6   9  1   
 11   6  10  1   
 12   6  29  1   
 13   7   8  ar  
 14   7  30  1   
 15   8  31  1   
 16   9  11  am  
 17   9  32  1   
 18  10  12  1   
 19  10  13  1   
 20  10  33  1   
 21  11  14  2   
 22  11  15  1   
 23  12  15  1   
 24  13  16  2   
 25  13  17  am  
 26  15  34  1   
 27  15  35  1   
 28  17  18  1   
 29  17  36  1   
 30  18  19  1   
 31  18  37  1   
 32  18  38  1   
 33  19  20  1   
 34  19  39  1   
 35  19  40  1   
 36  20  21  1   
 37  20  41  1   
 38  20  42  1   
 39  21  22  1   
 40  21  23  2   
 41  22  24  2   
 42  22  43  1   
 43  23  25  1   
 44  23  44  1   
 45  24  25  1   
 46  25  26  1   
 47  26  45  1   
 48  26  46  1   
 49  26  47  1   
@<TRIPOS>SUBSTRUCTURE
  1 ****  13 GROUP 4 **** **** 0

# MOE 2024.06 (io_trps.svl 2023.06)
