@<TRIPOS>MOLECULE
NONAME
57 59 1 0 0 
SMALL
USER_CHARGES


@<TRIPOS>ATOM
  1 O       -0.2150     0.8270     1.4140 O.2   1 <1>  -0.5700 
  2 C       -0.9940     0.6190     0.5040 C.2   1 <1>   0.7160 
  3 N       -1.6930    -0.5490     0.4610 N.am  1 <1>  -0.7300 
  4 C       -1.1900     1.5810    -0.5360 C.2   1 <1>  -0.0860 
  5 C       -1.6030    -1.7590     1.2840 C.3   1 <1>   0.3000 
  6 C       -2.3740     1.7690    -1.2580 C.2   1 <1>   0.3720 
  7 C       -0.3460     2.5050    -1.0720 C.2   1 <1>   0.0870 
  8 C       -2.4830    -2.8360     0.6210 C.3   1 <1>  -0.1600 
  9 C       -0.1560    -2.2610     1.3050 C.3   1 <1>  -0.2400 
 10 C       -2.0790    -1.4350     2.7020 C.3   1 <1>  -0.2400 
 11 N       -2.2440     2.7060    -2.1300 N.2   1 <1>  -0.4100 
 12 N       -3.5750     1.0760    -1.0440 N.pl3 1 <1>  -0.8210 
 13 O       -1.0190     3.1370    -2.0000 O.3   1 <1>  -0.0190 
 14 C        1.0320     2.8580    -0.8330 C.ar  1 <1>   0.0530 
 15 C       -3.9860    -2.5000     0.5240 C.3   1 <1>  -0.0990 
 16 C       -4.3270     0.7500    -2.3050 C.3   1 <1>   0.2090 
 17 C       -4.4620     1.8240    -0.0980 C.3   1 <1>   0.2090 
 18 C        1.9850     1.9130    -0.4490 C.ar  1 <1>  -0.1500 
 19 C        1.4670     4.1740    -0.9970 C.ar  1 <1>  -0.1500 
 20 C       -4.7120    -3.4810    -0.3720 C.2   1 <1>   0.5690 
 21 C       -5.7010     0.1160    -2.0150 C.3   1 <1>   0.1200 
 22 C       -5.8200     1.1270     0.0950 C.3   1 <1>   0.1200 
 23 C        3.3050     2.2650    -0.2330 C.ar  1 <1>  -0.1500 
 24 C        2.7860     4.5330    -0.7840 C.ar  1 <1>  -0.1500 
 25 O       -4.8020    -3.2310    -1.5480 O.2   1 <1>  -0.5700 
 26 N       -5.2300    -4.6080     0.1810 N.am  1 <1>  -0.7300 
 27 O       -6.4480     0.9110    -1.1350 O.3   1 <1>  -0.5600 
 28 C        3.7090     3.5770    -0.4000 C.ar  1 <1>  -0.1500 
 29 C       -5.9650    -5.6620    -0.5640 C.3   1 <1>   0.0600 
 30 H       -2.4690    -0.5400    -0.2120 H     1 <1>   0.3700 
 31 H       -2.3780    -3.7580     1.1640 H     1 <1>   0.0800 
 32 H       -2.1070    -3.0150    -0.3720 H     1 <1>   0.0800 
 33 H        0.2050    -2.4100     0.3030 H     1 <1>   0.0800 
 34 H       -0.0940    -3.1950     1.8310 H     1 <1>   0.0800 
 35 H        0.4890    -1.5630     1.8070 H     1 <1>   0.0800 
 36 H       -3.0530    -0.9820     2.6890 H     1 <1>   0.0800 
 37 H       -1.3950    -0.7550     3.1780 H     1 <1>   0.0800 
 38 H       -2.1200    -2.3310     3.2940 H     1 <1>   0.0800 
 39 H       -4.1210    -1.5210     0.1080 H     1 <1>   0.0800 
 40 H       -4.4380    -2.5100     1.4980 H     1 <1>   0.0800 
 41 H       -3.7430     0.0690    -2.8990 H     1 <1>   0.0800 
 42 H       -4.4810     1.6450    -2.8830 H     1 <1>   0.0800 
 43 H       -4.6320     2.8190    -0.4740 H     1 <1>   0.0800 
 44 H       -3.9710     1.9100     0.8560 H     1 <1>   0.0800 
 45 H        1.6920     0.8880    -0.3170 H     1 <1>   0.1500 
 46 H        0.7600     4.9280    -1.2930 H     1 <1>   0.1500 
 47 H       -5.5880    -0.8600    -1.5840 H     1 <1>   0.0800 
 48 H       -6.2620     0.0200    -2.9270 H     1 <1>   0.0800 
 49 H       -6.4700     1.7440     0.6890 H     1 <1>   0.0800 
 50 H       -5.6950     0.1800     0.5890 H     1 <1>   0.0800 
 51 H        4.0170     1.5170     0.0670 H     1 <1>   0.1500 
 52 H        3.0950     5.5550    -0.9160 H     1 <1>   0.1500 
 53 H       -5.1150    -4.7720     1.1820 H     1 <1>   0.3700 
 54 H        4.7360     3.8520    -0.2320 H     1 <1>   0.1500 
 55 H       -6.0320    -5.4050    -1.6080 H     1 <1>   0.0800 
 56 H       -6.9610    -5.7610    -0.1680 H     1 <1>   0.0800 
 57 H       -5.4490    -6.6020    -0.4710 H     1 <1>   0.0800 
@<TRIPOS>BOND
  1   1   2  2   
  2   2   3  am  
  3   2   4  1   
  4   3   5  1   
  5   3  30  1   
  6   4   6  1   
  7   4   7  2   
  8   5   8  1   
  9   5   9  1   
 10   5  10  1   
 11   6  11  2   
 12   6  12  1   
 13   7  13  1   
 14   7  14  1   
 15   8  15  1   
 16   8  31  1   
 17   8  32  1   
 18   9  33  1   
 19   9  34  1   
 20   9  35  1   
 21  10  36  1   
 22  10  37  1   
 23  10  38  1   
 24  11  13  1   
 25  12  16  1   
 26  12  17  1   
 27  14  18  ar  
 28  14  19  ar  
 29  15  20  1   
 30  15  39  1   
 31  15  40  1   
 32  16  21  1   
 33  16  41  1   
 34  16  42  1   
 35  17  22  1   
 36  17  43  1   
 37  17  44  1   
 38  18  23  ar  
 39  18  45  1   
 40  19  24  ar  
 41  19  46  1   
 42  20  25  2   
 43  20  26  am  
 44  21  27  1   
 45  21  47  1   
 46  21  48  1   
 47  22  27  1   
 48  22  49  1   
 49  22  50  1   
 50  23  28  ar  
 51  23  51  1   
 52  24  28  ar  
 53  24  52  1   
 54  26  29  1   
 55  26  53  1   
 56  28  54  1   
 57  29  55  1   
 58  29  56  1   
 59  29  57  1   
@<TRIPOS>SUBSTRUCTURE
  1 ****   3 GROUP 4 **** **** 0

# MOE 2024.06 (io_trps.svl 2023.06)
