@<TRIPOS>MOLECULE
NONAME
47 48 1 0 0 
SMALL
USER_CHARGES


@<TRIPOS>ATOM
  1 O       -0.0310     0.1910    -0.9480 O.2   1 <1>  -0.5700 
  2 C        1.0190    -0.4010    -0.8890 C.2   1 <1>   0.5690 
  3 N        2.1940     0.1770    -0.5180 N.am  1 <1>  -0.4930 
  4 C        1.0120    -1.8780    -1.2530 C.3   1 <1>  -0.0990 
  5 C        2.4370     1.5170    -0.1200 C.2   1 <1>   0.0630 
  6 C       -0.1200    -2.6400    -0.5330 C.3   1 <1>  -0.1600 
  7 C        3.6290     2.0440     0.2380 C.2   1 <1>  -0.3320 
  8 C        1.5340     2.5750    -0.0050 C.2   1 <1>   0.1390 
  9 C       -0.2080    -4.0980    -0.9900 C.3   1 <1>   0.3430 
 10 N        3.3980     3.3470     0.5420 N.pl3 1 <1>   0.3140 
 11 C        5.0030     1.3930     0.3160 C.3   1 <1>  -0.0600 
 12 N        2.1060     3.6720     0.3920 N.2   1 <1>  -0.7070 
 13 N       -1.2950    -4.8060    -0.2580 N.4   1 <1>  -0.9590 
 14 C        4.3790     4.3450     0.9870 C.3   1 <1>   0.0160 
 15 C       -1.0750    -6.2800    -0.3190 C.3   1 <1>   0.3430 
 16 C       -2.6430    -4.3920    -0.7530 C.3   1 <1>   0.3430 
 17 C       -1.6450    -6.9420     0.9350 C.3   1 <1>  -0.1600 
 18 C       -3.7750    -4.9190     0.1320 C.3   1 <1>  -0.1600 
 19 C       -3.1370    -7.3100     0.8630 C.3   1 <1>  -0.1600 
 20 C       -4.0200    -6.4260    -0.0280 C.3   1 <1>  -0.1600 
 21 H        3.0310    -0.3990    -0.5310 H     1 <1>   0.3700 
 22 H        1.9630    -2.3160    -1.0080 H     1 <1>   0.0800 
 23 H        0.8760    -1.9440    -2.3180 H     1 <1>   0.0800 
 24 H       -1.0470    -2.1380    -0.7450 H     1 <1>   0.0800 
 25 H        0.0550    -2.5970     0.5280 H     1 <1>   0.0800 
 26 H        0.4810     2.5010    -0.2190 H     1 <1>   0.1500 
 27 H        0.7370    -4.5780    -0.7880 H     1 <1>   0.0800 
 28 H       -0.3880    -4.1430    -2.0520 H     1 <1>   0.0800 
 29 H        4.9540     0.3580     0.0310 H     1 <1>   0.0800 
 30 H        5.3830     1.4510     1.3200 H     1 <1>   0.0800 
 31 H        5.6870     1.8940    -0.3450 H     1 <1>   0.0800 
 32 H       -1.2380    -4.5340     0.7320 H     1 <1>   0.4500 
 33 H        4.8250     4.0170     1.9060 H     1 <1>   0.0800 
 34 H        3.8780     5.2830     1.1450 H     1 <1>   0.0800 
 35 H        5.1310     4.4630     0.2310 H     1 <1>   0.0800 
 36 H       -0.0150    -6.4790    -0.3450 H     1 <1>   0.0800 
 37 H       -1.5180    -6.7010    -1.2070 H     1 <1>   0.0800 
 38 H       -2.7860    -4.7390    -1.7630 H     1 <1>   0.0800 
 39 H       -2.7050    -3.3160    -0.7640 H     1 <1>   0.0800 
 40 H       -1.4640    -6.3160     1.7910 H     1 <1>   0.0800 
 41 H       -1.0990    -7.8540     1.1070 H     1 <1>   0.0800 
 42 H       -4.6730    -4.4140    -0.1830 H     1 <1>   0.0800 
 43 H       -3.6170    -4.6560     1.1630 H     1 <1>   0.0800 
 44 H       -3.5350    -7.3030     1.8650 H     1 <1>   0.0800 
 45 H       -3.2280    -8.3240     0.5080 H     1 <1>   0.0800 
 46 H       -3.8980    -6.7080    -1.0610 H     1 <1>   0.0800 
 47 H       -5.0470    -6.6350     0.2260 H     1 <1>   0.0800 
@<TRIPOS>BOND
  1   1   2  2   
  2   2   3  am  
  3   2   4  1   
  4   3   5  1   
  5   3  21  1   
  6   4   6  1   
  7   4  22  1   
  8   4  23  1   
  9   5   7  2   
 10   5   8  1   
 11   6   9  1   
 12   6  24  1   
 13   6  25  1   
 14   7  10  1   
 15   7  11  1   
 16   8  12  2   
 17   8  26  1   
 18   9  13  1   
 19   9  27  1   
 20   9  28  1   
 21  10  12  1   
 22  10  14  1   
 23  11  29  1   
 24  11  30  1   
 25  11  31  1   
 26  13  15  1   
 27  13  16  1   
 28  13  32  1   
 29  14  33  1   
 30  14  34  1   
 31  14  35  1   
 32  15  17  1   
 33  15  36  1   
 34  15  37  1   
 35  16  18  1   
 36  16  38  1   
 37  16  39  1   
 38  17  19  1   
 39  17  40  1   
 40  17  41  1   
 41  18  20  1   
 42  18  42  1   
 43  18  43  1   
 44  19  20  1   
 45  19  44  1   
 46  19  45  1   
 47  20  46  1   
 48  20  47  1   
@<TRIPOS>SUBSTRUCTURE
  1 ****   6 GROUP 4 **** **** 0

# MOE 2024.06 (io_trps.svl 2023.06)
