@<TRIPOS>MOLECULE
NONAME
44 47 1 0 0 
SMALL
USER_CHARGES


@<TRIPOS>ATOM
  1 S        0.2590    -0.5150     0.1880 S.3   1 <1>  -0.0800 
  2 C       -0.2010    -1.8760    -0.8270 C.ar  1 <1>   0.2970 
  3 C       -1.1120    -0.7810     1.2640 C.2   1 <1>  -0.1400 
  4 N        0.4870    -2.2230    -1.8940 N.ar  1 <1>  -0.5670 
  5 C       -1.3370    -2.4810    -0.3440 C.ar  1 <1>   0.0000 
  6 C       -1.8440    -1.8360     0.8520 C.2   1 <1>  -0.1810 
  7 C       -1.2180     0.1940     2.4220 C.3   1 <1>  -0.0600 
  8 C       -0.0340    -3.2660    -2.5070 C.ar  1 <1>   0.4700 
  9 C       -1.7630    -3.5800    -1.1010 C.ar  1 <1>   0.4100 
 10 C       -3.1020    -2.3480     1.5370 C.3   1 <1>  -0.0590 
 11 N       -1.1120    -3.9660    -2.1860 N.ar  1 <1>  -0.6200 
 12 N       -2.8630    -4.3340    -0.7640 N.pl3 1 <1>  -0.8380 
 13 C       -3.9550    -4.4790    -1.7670 C.3   1 <1>   0.2090 
 14 C       -2.6000    -5.6550    -0.1330 C.3   1 <1>   0.2090 
 15 C       -4.2440    -5.9780    -1.8490 C.3   1 <1>   0.2000 
 16 C       -3.7860    -6.5430    -0.5100 C.3   1 <1>  -0.0800 
 17 O       -5.5950    -6.2410    -2.0380 O.3   1 <1>  -0.6800 
 18 C       -3.4470    -8.0410    -0.5790 C.3   1 <1>  -0.0170 
 19 C       -3.0600    -8.5940     0.7840 C.ar  1 <1>   0.1670 
 20 N       -1.8230    -8.3490     1.1900 N.ar  1 <1>  -0.6200 
 21 C       -3.9910    -9.3090     1.5230 C.ar  1 <1>  -0.1500 
 22 C       -1.5010    -8.8370     2.3780 C.ar  1 <1>   0.1600 
 23 C       -3.6430    -9.8090     2.7590 C.ar  1 <1>  -0.1500 
 24 C       -2.3580    -9.5600     3.1900 C.ar  1 <1>  -0.1500 
 25 H       -2.0680    -0.0260     3.0400 H     1 <1>   0.0800 
 26 H       -1.3160     1.1960     2.0450 H     1 <1>   0.0800 
 27 H       -0.3310     0.1370     3.0260 H     1 <1>   0.0800 
 28 H        0.4870    -3.5960    -3.3900 H     1 <1>   0.1500 
 29 H       -3.9220    -2.3430     0.8410 H     1 <1>   0.0800 
 30 H       -3.3690    -1.7400     2.3790 H     1 <1>   0.0800 
 31 H       -2.9450    -3.3540     1.8800 H     1 <1>   0.0800 
 32 H       -4.8180    -3.9410    -1.4170 H     1 <1>   0.0800 
 33 H       -3.6560    -4.0970    -2.7280 H     1 <1>   0.0800 
 34 H       -1.6830    -6.0650    -0.5240 H     1 <1>   0.0800 
 35 H       -2.5100    -5.5600     0.9350 H     1 <1>   0.0800 
 36 H       -3.6900    -6.4070    -2.6660 H     1 <1>   0.0800 
 37 H       -4.5500    -6.3810     0.2290 H     1 <1>   0.0800 
 38 H       -6.1180    -5.8620    -1.3070 H     1 <1>   0.4000 
 39 H       -2.6350    -8.2040    -1.2660 H     1 <1>   0.0800 
 40 H       -4.2990    -8.5790    -0.9550 H     1 <1>   0.0800 
 41 H       -4.9810    -9.4740     1.1380 H     1 <1>   0.1500 
 42 H       -0.4990    -8.6490     2.7230 H     1 <1>   0.1500 
 43 H       -4.3400   -10.3690     3.3590 H     1 <1>   0.1500 
 44 H       -2.0200    -9.9220     4.1430 H     1 <1>   0.1500 
@<TRIPOS>BOND
  1   1   2  1   
  2   1   3  1   
  3   2   4  ar  
  4   2   5  ar  
  5   3   6  2   
  6   3   7  1   
  7   4   8  ar  
  8   5   6  1   
  9   5   9  ar  
 10   6  10  1   
 11   7  25  1   
 12   7  26  1   
 13   7  27  1   
 14   8  11  ar  
 15   8  28  1   
 16   9  11  ar  
 17   9  12  1   
 18  10  29  1   
 19  10  30  1   
 20  10  31  1   
 21  12  13  1   
 22  12  14  1   
 23  13  15  1   
 24  13  32  1   
 25  13  33  1   
 26  14  16  1   
 27  14  34  1   
 28  14  35  1   
 29  15  16  1   
 30  15  17  1   
 31  15  36  1   
 32  16  18  1   
 33  16  37  1   
 34  17  38  1   
 35  18  19  1   
 36  18  39  1   
 37  18  40  1   
 38  19  20  ar  
 39  19  21  ar  
 40  20  22  ar  
 41  21  23  ar  
 42  21  41  1   
 43  22  24  ar  
 44  22  42  1   
 45  23  24  ar  
 46  23  43  1   
 47  24  44  1   
@<TRIPOS>SUBSTRUCTURE
  1 ****  14 GROUP 4 **** **** 0

# MOE 2024.06 (io_trps.svl 2023.06)
