@<TRIPOS>MOLECULE
NONAME
44 46 1 0 0 
SMALL
USER_CHARGES


@<TRIPOS>ATOM
  1 O        1.2740     0.1720    -1.0260 O.3   1 <1>  -0.6800 
  2 C        1.3530    -0.0660     0.3320 C.3   1 <1>   0.2800 
  3 C        2.8290     0.0900     0.7810 C.3   1 <1>  -0.0800 
  4 C        0.8820    -1.5100     0.5790 C.3   1 <1>  -0.1600 
  5 C        0.3950     0.9260     1.0290 C.3   1 <1>  -0.1600 
  6 C        3.7070    -1.1730     0.6430 C.3   1 <1>  -0.0800 
  7 C        3.5930     1.1600     0.0110 C.3   1 <1>   0.3430 
  8 C        1.7280    -2.5870    -0.1320 C.3   1 <1>  -0.1600 
  9 C        0.6910     2.4220     0.8220 C.3   1 <1>  -0.2400 
 10 C        3.1740    -2.1510    -0.4190 C.3   1 <1>  -0.1600 
 11 C        5.1060    -0.6760     0.2650 C.3   1 <1>   0.3430 
 12 N        5.0170     0.8020     0.1960 N.4   1 <1>  -0.9590 
 13 C        5.9160     1.4610    -0.7940 C.3   1 <1>   0.4860 
 14 C        6.0570     2.9370    -0.4280 C.ar  1 <1>   0.1670 
 15 N        6.1590     3.2120     0.8690 N.ar  1 <1>  -0.6200 
 16 C        6.0620     3.8970    -1.4300 C.ar  1 <1>  -0.1500 
 17 C        6.2820     4.4970     1.1740 C.ar  1 <1>   0.1600 
 18 C        6.1840     5.2280    -1.0940 C.ar  1 <1>  -0.1500 
 19 C        6.2980     5.5240     0.2470 C.ar  1 <1>  -0.1500 
 20 H        0.3610    -0.0030    -1.3300 H     1 <1>   0.4000 
 21 H        2.8340     0.3670     1.8200 H     1 <1>   0.0800 
 22 H        0.9340    -1.6940     1.6380 H     1 <1>   0.0800 
 23 H       -0.1510    -1.6230     0.2990 H     1 <1>   0.0800 
 24 H       -0.6080     0.7310     0.6890 H     1 <1>   0.0800 
 25 H        0.4000     0.7270     2.0870 H     1 <1>   0.0800 
 26 H        3.7530    -1.6900     1.5860 H     1 <1>   0.0800 
 27 H        3.3830     2.1510     0.3780 H     1 <1>   0.0800 
 28 H        3.3380     1.1050    -1.0350 H     1 <1>   0.0800 
 29 H        1.7330    -3.4760     0.4770 H     1 <1>   0.0800 
 30 H        1.2600    -2.8470    -1.0670 H     1 <1>   0.0800 
 31 H        0.7640     2.6600    -0.2250 H     1 <1>   0.0800 
 32 H        1.5990     2.7110     1.3180 H     1 <1>   0.0800 
 33 H       -0.1090     3.0070     1.2400 H     1 <1>   0.0800 
 34 H        3.1970    -1.6710    -1.3830 H     1 <1>   0.0800 
 35 H        3.8020    -3.0230    -0.4780 H     1 <1>   0.0800 
 36 H        5.3820    -1.0770    -0.6970 H     1 <1>   0.0800 
 37 H        5.8360    -0.9820     0.9980 H     1 <1>   0.0800 
 38 H        5.3070     1.2220     1.0970 H     1 <1>   0.4500 
 39 H        6.8920     1.0090    -0.7520 H     1 <1>   0.0800 
 40 H        5.5240     1.3540    -1.7910 H     1 <1>   0.0800 
 41 H        5.9730     3.6210    -2.4660 H     1 <1>   0.1500 
 42 H        6.3750     4.7480     2.2180 H     1 <1>   0.1500 
 43 H        6.1940     6.0040    -1.8420 H     1 <1>   0.1500 
 44 H        6.4000     6.5440     0.5740 H     1 <1>   0.1500 
@<TRIPOS>BOND
  1   1   2  1   
  2   1  20  1   
  3   2   3  1   
  4   2   4  1   
  5   2   5  1   
  6   3   6  1   
  7   3   7  1   
  8   3  21  1   
  9   4   8  1   
 10   4  22  1   
 11   4  23  1   
 12   5   9  1   
 13   5  24  1   
 14   5  25  1   
 15   6  10  1   
 16   6  11  1   
 17   6  26  1   
 18   7  12  1   
 19   7  27  1   
 20   7  28  1   
 21   8  10  1   
 22   8  29  1   
 23   8  30  1   
 24   9  31  1   
 25   9  32  1   
 26   9  33  1   
 27  10  34  1   
 28  10  35  1   
 29  11  12  1   
 30  11  36  1   
 31  11  37  1   
 32  12  13  1   
 33  12  38  1   
 34  13  14  1   
 35  13  39  1   
 36  13  40  1   
 37  14  15  ar  
 38  14  16  ar  
 39  15  17  ar  
 40  16  18  ar  
 41  16  41  1   
 42  17  19  ar  
 43  17  42  1   
 44  18  19  ar  
 45  18  43  1   
 46  19  44  1   
@<TRIPOS>SUBSTRUCTURE
  1 ****   7 GROUP 4 **** **** 0

# MOE 2024.06 (io_trps.svl 2023.06)
