@<TRIPOS>MOLECULE
NONAME
41 43 1 0 0 
SMALL
USER_CHARGES


@<TRIPOS>ATOM
  1 O       -0.3300     0.2450    -0.3740 O.2   1 <1>  -0.5700 
  2 C       -1.3320     0.8370    -0.0240 C.2   1 <1>   0.5440 
  3 N       -2.4930     0.1180     0.1590 N.am  1 <1>  -0.6600 
  4 C       -1.2760     2.2610     0.1700 C.ar  1 <1>   0.0860 
  5 C       -3.8650     0.6830     0.0630 C.3   1 <1>   0.1400 
  6 C       -2.5320    -1.3590    -0.0120 C.3   1 <1>   0.1400 
  7 C       -1.8740     2.9030     1.2390 C.ar  1 <1>   0.1600 
  8 C       -0.6030     3.0910    -0.7070 C.ar  1 <1>   0.1600 
  9 C       -4.7520    -0.4970    -0.3360 C.3   1 <1>   0.2000 
 10 C       -4.0060    -1.7450     0.1290 C.3   1 <1>  -0.0800 
 11 N       -1.8530     4.2030     1.4060 N.ar  1 <1>  -0.6200 
 12 N       -0.5580     4.3950    -0.5730 N.ar  1 <1>  -0.6200 
 13 O       -5.9950    -0.4330     0.2740 O.3   1 <1>  -0.6800 
 14 C       -4.4110    -3.0030    -0.6600 C.3   1 <1>  -0.0170 
 15 C       -1.1940     4.8910     0.4840 C.ar  1 <1>   0.7200 
 16 C       -3.7240    -4.2520    -0.1300 C.ar  1 <1>   0.1670 
 17 N       -1.1920     6.2250     0.6770 N.pl3 1 <1>  -0.8690 
 18 N       -2.4800    -4.4570    -0.5280 N.ar  1 <1>  -0.6200 
 19 C       -4.4070    -5.1110     0.7300 C.ar  1 <1>   0.1600 
 20 C       -0.4990     7.2600    -0.1300 C.3   1 <1>   0.1290 
 21 C       -1.9680    -5.5630    -0.0150 C.ar  1 <1>   0.1600 
 22 N       -3.8970    -6.2160     1.2470 N.ar  1 <1>  -0.6200 
 23 C       -2.6540    -6.4140     0.8440 C.ar  1 <1>   0.1600 
 24 H       -4.1600     1.0690     1.0230 H     1 <1>   0.0800 
 25 H       -3.9080     1.4590    -0.6820 H     1 <1>   0.0800 
 26 H       -2.1590    -1.6110    -0.9910 H     1 <1>   0.0800 
 27 H       -1.9210    -1.8470     0.7290 H     1 <1>   0.0800 
 28 H       -2.3830     2.3120     1.9800 H     1 <1>   0.1500 
 29 H       -0.0920     2.6500    -1.5470 H     1 <1>   0.1500 
 30 H       -4.8950    -0.5010    -1.4030 H     1 <1>   0.0800 
 31 H       -4.1930    -1.9040     1.1760 H     1 <1>   0.0800 
 32 H       -5.9030    -0.4360     1.2470 H     1 <1>   0.4000 
 33 H       -4.1620    -2.8820    -1.7000 H     1 <1>   0.0800 
 34 H       -5.4770    -3.1280    -0.5980 H     1 <1>   0.0800 
 35 H       -1.6740     6.5260     1.5240 H     1 <1>   0.4000 
 36 H       -5.4200    -4.8730     1.0040 H     1 <1>   0.1500 
 37 H       -0.0410     6.8240    -1.0020 H     1 <1>   0.0800 
 38 H        0.2650     7.7300     0.4630 H     1 <1>   0.0800 
 39 H       -1.2080     8.0030    -0.4500 H     1 <1>   0.0800 
 40 H       -0.9570    -5.8100    -0.2870 H     1 <1>   0.1500 
 41 H       -2.1520    -7.2910     1.2110 H     1 <1>   0.1500 
@<TRIPOS>BOND
  1   1   2  2   
  2   2   3  am  
  3   2   4  1   
  4   3   5  1   
  5   3   6  1   
  6   4   7  ar  
  7   4   8  ar  
  8   5   9  1   
  9   5  24  1   
 10   5  25  1   
 11   6  10  1   
 12   6  26  1   
 13   6  27  1   
 14   7  11  ar  
 15   7  28  1   
 16   8  12  ar  
 17   8  29  1   
 18   9  10  1   
 19   9  13  1   
 20   9  30  1   
 21  10  14  1   
 22  10  31  1   
 23  11  15  ar  
 24  12  15  ar  
 25  13  32  1   
 26  14  16  1   
 27  14  33  1   
 28  14  34  1   
 29  15  17  1   
 30  16  18  ar  
 31  16  19  ar  
 32  17  20  1   
 33  17  35  1   
 34  18  21  ar  
 35  19  22  ar  
 36  19  36  1   
 37  20  37  1   
 38  20  38  1   
 39  20  39  1   
 40  21  23  ar  
 41  21  40  1   
 42  22  23  ar  
 43  23  41  1   
@<TRIPOS>SUBSTRUCTURE
  1 ****   3 GROUP 4 **** **** 0

# MOE 2024.06 (io_trps.svl 2023.06)
