@<TRIPOS>MOLECULE
NONAME
44 46 1 0 0 
SMALL
USER_CHARGES


@<TRIPOS>ATOM
  1 F        0.0910     1.6380    -2.2070 F     1 <1>  -0.1900 
  2 C        0.6030     2.6200    -1.5150 C.ar  1 <1>   0.1900 
  3 C        1.8440     3.1110    -1.8670 C.ar  1 <1>  -0.1500 
  4 C       -0.1140     3.1360    -0.4540 C.ar  1 <1>  -0.1500 
  5 C        2.3780     4.1520    -1.1280 C.ar  1 <1>  -0.1500 
  6 C        0.4360     4.1770     0.2740 C.ar  1 <1>  -0.1500 
  7 C        1.6920     4.7110    -0.0420 C.ar  1 <1>   0.0540 
  8 C        2.2710     5.8040     0.7230 C.2   1 <1>   0.4620 
  9 N        1.6240     6.4090     1.7290 N.2   1 <1>  -0.2270 
 10 N        3.4490     6.3010     0.5220 N.2   1 <1>  -0.7070 
 11 N        2.4000     7.3110     2.1760 N.2   1 <1>  -0.4180 
 12 N        3.4920     7.2400     1.4390 N.pl3 1 <1>   0.5800 
 13 C        4.6610     8.1190     1.6380 C.3   1 <1>   0.0960 
 14 C        4.6260     9.3250     0.6870 C.3   1 <1>  -0.1600 
 15 C        5.8570    10.2340     0.8770 C.3   1 <1>  -0.0990 
 16 C        5.8830    11.4480    -0.0450 C.2   1 <1>   0.5690 
 17 O        4.9350    11.6660    -0.7610 O.2   1 <1>  -0.5700 
 18 N        6.9770    12.2660    -0.0450 N.am  1 <1>  -0.6600 
 19 C        7.0570    13.4780    -0.9000 C.3   1 <1>   0.1400 
 20 C        8.2060    12.1160     0.7640 C.3   1 <1>   0.1400 
 21 C        8.5020    13.9600    -0.7830 C.3   1 <1>   0.2000 
 22 C        8.9870    13.4110     0.5560 C.3   1 <1>  -0.1600 
 23 O        8.5390    15.3540    -0.7840 O.3   1 <1>  -0.5600 
 24 C        9.7980    15.9090    -0.9960 C.3   1 <1>   0.0400 
 25 H        2.3750     2.6870    -2.7000 H     1 <1>   0.1500 
 26 H       -1.0780     2.7300    -0.2070 H     1 <1>   0.1500 
 27 H        3.3450     4.5440    -1.3950 H     1 <1>   0.1500 
 28 H       -0.1190     4.5820     1.1030 H     1 <1>   0.1500 
 29 H        5.5450     7.5340     1.4650 H     1 <1>   0.0800 
 30 H        4.6590     8.4510     2.6600 H     1 <1>   0.0800 
 31 H        3.7320     9.8980     0.8690 H     1 <1>   0.0800 
 32 H        4.6010     8.9760    -0.3320 H     1 <1>   0.0800 
 33 H        6.7470     9.6600     0.6970 H     1 <1>   0.0800 
 34 H        5.8800    10.5910     1.8900 H     1 <1>   0.0800 
 35 H        6.3800    14.2220    -0.5170 H     1 <1>   0.0800 
 36 H        6.8050    13.2400    -1.9180 H     1 <1>   0.0800 
 37 H        8.7710    11.2770     0.3940 H     1 <1>   0.0800 
 38 H        7.9690    11.9690     1.8040 H     1 <1>   0.0800 
 39 H        9.0770    13.5770    -1.6090 H     1 <1>   0.0800 
 40 H       10.0460    13.2330     0.5620 H     1 <1>   0.0800 
 41 H        8.7310    14.0980     1.3440 H     1 <1>   0.0800 
 42 H        9.6940    16.9800    -0.9940 H     1 <1>   0.0800 
 43 H       10.1750    15.5850    -1.9510 H     1 <1>   0.0800 
 44 H       10.4620    15.6100    -0.2040 H     1 <1>   0.0800 
@<TRIPOS>BOND
  1   1   2  1   
  2   2   3  ar  
  3   2   4  ar  
  4   3   5  ar  
  5   3  25  1   
  6   4   6  ar  
  7   4  26  1   
  8   5   7  ar  
  9   5  27  1   
 10   6   7  ar  
 11   6  28  1   
 12   7   8  1   
 13   8   9  1   
 14   8  10  2   
 15   9  11  2   
 16  10  12  1   
 17  11  12  1   
 18  12  13  1   
 19  13  14  1   
 20  13  29  1   
 21  13  30  1   
 22  14  15  1   
 23  14  31  1   
 24  14  32  1   
 25  15  16  1   
 26  15  33  1   
 27  15  34  1   
 28  16  17  2   
 29  16  18  am  
 30  18  19  1   
 31  18  20  1   
 32  19  21  1   
 33  19  35  1   
 34  19  36  1   
 35  20  22  1   
 36  20  37  1   
 37  20  38  1   
 38  21  22  1   
 39  21  23  1   
 40  21  39  1   
 41  22  40  1   
 42  22  41  1   
 43  23  24  1   
 44  24  42  1   
 45  24  43  1   
 46  24  44  1   
@<TRIPOS>SUBSTRUCTURE
  1 ****  14 GROUP 4 **** **** 0

# MOE 2024.06 (io_trps.svl 2023.06)
