@<TRIPOS>MOLECULE
NONAME
49 50 1 0 0 
SMALL
USER_CHARGES


@<TRIPOS>ATOM
  1 O       -0.4020     0.2170     1.9070 O.2   1 <1>  -0.5700 
  2 C       -1.2520     0.9350     1.4310 C.2   1 <1>   0.5690 
  3 N       -2.4190     0.4250     0.9170 N.am  1 <1>  -0.6600 
  4 C       -1.0040     2.4330     1.4280 C.3   1 <1>  -0.0990 
  5 C       -3.5630     1.2320     0.4090 C.3   1 <1>   0.1400 
  6 C       -2.6220    -1.0440     0.7780 C.3   1 <1>   0.1400 
  7 C        0.4520     2.7870     1.7200 C.3   1 <1>   0.2090 
  8 C       -3.7840     0.9210    -1.0750 C.3   1 <1>  -0.1600 
  9 C       -2.8450    -1.3890    -0.6990 C.3   1 <1>  -0.1600 
 10 N        0.6030     4.2650     1.7370 N.pl3 1 <1>  -0.8690 
 11 C       -4.0050    -0.5830    -1.3060 C.3   1 <1>  -0.0800 
 12 C        0.9030     5.0070     0.6190 C.ar  1 <1>   0.4100 
 13 C       -4.1470    -0.8840    -2.8020 C.3   1 <1>  -0.2400 
 14 N        0.7830     4.4340    -0.5640 N.ar  1 <1>  -0.6200 
 15 C        1.3110     6.3130     0.7360 C.ar  1 <1>  -0.1500 
 16 C        1.0890     5.1980    -1.5930 C.ar  1 <1>   0.4700 
 17 C        1.5970     7.0160    -0.4090 C.ar  1 <1>   0.4100 
 18 N        1.4900     6.4530    -1.5990 N.ar  1 <1>  -0.6200 
 19 N        1.9920     8.3380    -0.3470 N.pl3 1 <1>  -0.8380 
 20 C        2.9560     8.8620    -1.3500 C.3   1 <1>   0.2090 
 21 C        1.0270     9.3320     0.1960 C.3   1 <1>   0.1290 
 22 C        3.9930     9.7350    -0.6520 C.3   1 <1>  -0.2400 
 23 H       -1.6360     2.8870     2.1670 H     1 <1>   0.0800 
 24 H       -1.2510     2.8230     0.4590 H     1 <1>   0.0800 
 25 H       -3.3960     2.2850     0.5380 H     1 <1>   0.0800 
 26 H       -4.4460     0.9710     0.9670 H     1 <1>   0.0800 
 27 H       -3.4800    -1.3360     1.3590 H     1 <1>   0.0800 
 28 H       -1.7690    -1.5860     1.1480 H     1 <1>   0.0800 
 29 H        1.0930     2.3560     0.9670 H     1 <1>   0.0800 
 30 H        0.7440     2.3870     2.6770 H     1 <1>   0.0800 
 31 H       -2.9260     1.2580    -1.6290 H     1 <1>   0.0800 
 32 H       -4.6400     1.4700    -1.4250 H     1 <1>   0.0800 
 33 H       -3.0480    -2.4420    -0.7850 H     1 <1>   0.0800 
 34 H       -1.9340    -1.1860    -1.2360 H     1 <1>   0.0800 
 35 H        0.9310     4.6400     2.6290 H     1 <1>   0.4000 
 36 H       -4.9170    -0.8750    -0.8120 H     1 <1>   0.0800 
 37 H       -3.2530    -0.6040    -3.3320 H     1 <1>   0.0800 
 38 H       -4.9770    -0.3390    -3.2160 H     1 <1>   0.0800 
 39 H       -4.3220    -1.9340    -2.9560 H     1 <1>   0.0800 
 40 H        1.4090     6.7800     1.6920 H     1 <1>   0.1500 
 41 H        0.9980     4.7340    -2.5610 H     1 <1>   0.1500 
 42 H        2.4300     9.4230    -2.1040 H     1 <1>   0.0800 
 43 H        3.4610     8.0420    -1.8340 H     1 <1>   0.0800 
 44 H        0.1690     8.8340     0.6140 H     1 <1>   0.0800 
 45 H        0.6920     9.9870    -0.5890 H     1 <1>   0.0800 
 46 H        1.5000     9.9140     0.9670 H     1 <1>   0.0800 
 47 H        3.5310    10.6050    -0.2230 H     1 <1>   0.0800 
 48 H        4.7290    10.0580    -1.3640 H     1 <1>   0.0800 
 49 H        4.4850     9.1700     0.1190 H     1 <1>   0.0800 
@<TRIPOS>BOND
  1   1   2  2   
  2   2   3  am  
  3   2   4  1   
  4   3   5  1   
  5   3   6  1   
  6   4   7  1   
  7   4  23  1   
  8   4  24  1   
  9   5   8  1   
 10   5  25  1   
 11   5  26  1   
 12   6   9  1   
 13   6  27  1   
 14   6  28  1   
 15   7  10  1   
 16   7  29  1   
 17   7  30  1   
 18   8  11  1   
 19   8  31  1   
 20   8  32  1   
 21   9  11  1   
 22   9  33  1   
 23   9  34  1   
 24  10  12  1   
 25  10  35  1   
 26  11  13  1   
 27  11  36  1   
 28  12  14  ar  
 29  12  15  ar  
 30  13  37  1   
 31  13  38  1   
 32  13  39  1   
 33  14  16  ar  
 34  15  17  ar  
 35  15  40  1   
 36  16  18  ar  
 37  16  41  1   
 38  17  18  ar  
 39  17  19  1   
 40  19  20  1   
 41  19  21  1   
 42  20  22  1   
 43  20  42  1   
 44  20  43  1   
 45  21  44  1   
 46  21  45  1   
 47  21  46  1   
 48  22  47  1   
 49  22  48  1   
 50  22  49  1   
@<TRIPOS>SUBSTRUCTURE
  1 ****  14 GROUP 4 **** **** 0

# MOE 2024.06 (io_trps.svl 2023.06)
