@<TRIPOS>MOLECULE
NONAME
61 65 1 0 0 
SMALL
USER_CHARGES


@<TRIPOS>ATOM
  1 O       -0.2490     0.3390    -0.1840 O.2   1 <1>  -0.5700 
  2 C       -1.3030     0.9230    -0.0060 C.2   1 <1>   0.5440 
  3 N       -2.4630     0.1830     0.0500 N.am  1 <1>  -0.6600 
  4 C       -1.3160     2.3640     0.1240 C.ar  1 <1>   0.0860 
  5 C       -3.8210     0.7320    -0.1940 C.3   1 <1>   0.1400 
  6 C       -2.4650    -1.2940    -0.0990 C.3   1 <1>   0.1400 
  7 C       -0.6570     3.1730    -0.8020 C.ar  1 <1>  -0.1500 
  8 C       -1.9810     3.0030     1.1710 C.ar  1 <1>  -0.1500 
  9 C       -4.6580    -0.4650    -0.6430 C.3   1 <1>   0.2000 
 10 C       -3.9410    -1.6950    -0.0910 C.3   1 <1>  -0.0800 
 11 C       -0.6710     4.5530    -0.7120 C.ar  1 <1>  -0.1440 
 12 C       -2.0020     4.3790     1.2720 C.ar  1 <1>  -0.1500 
 13 O       -5.9490    -0.4040    -0.1420 O.3   1 <1>  -0.6800 
 14 C       -4.2450    -2.9710    -0.8940 C.3   1 <1>  -0.0170 
 15 C       -1.3540     5.1750     0.3340 C.ar  1 <1>   0.1000 
 16 C        0.0610     5.3870    -1.7540 C.3   1 <1>  -0.0970 
 17 C       -3.5370    -4.1780    -0.3020 C.ar  1 <1>   0.1670 
 18 N       -1.3830     6.5550     0.4500 N.pl3 1 <1>  -0.8380 
 19 N       -2.3280    -4.4190    -0.7060 N.ar  1 <1>  -0.6200 
 20 C       -4.2100    -4.9610     0.6500 C.ar  1 <1>  -0.1500 
 21 C       -0.5370     7.1680     1.5130 C.3   1 <1>   0.2090 
 22 C       -2.6960     7.2440     0.2990 C.3   1 <1>   0.2090 
 23 C       -1.6830    -5.4870    -0.1710 C.ar  1 <1>   0.3100 
 24 C       -3.5880    -6.0400     1.2000 C.ar  1 <1>  -0.1500 
 25 C       -0.4600     8.6950     1.3350 C.3   1 <1>   0.1200 
 26 C       -2.5010     8.7660     0.1840 C.3   1 <1>   0.1200 
 27 C       -2.2770    -6.3320     0.7920 C.ar  1 <1>   0.0000 
 28 C       -0.3700    -5.7640    -0.5850 C.ar  1 <1>  -0.1500 
 29 O       -1.7420     9.2590     1.2560 O.3   1 <1>  -0.5600 
 30 C       -1.5370    -7.4200     1.2970 C.ar  1 <1>  -0.1500 
 31 C        0.3330    -6.8260    -0.0800 C.ar  1 <1>  -0.1500 
 32 C       -0.2590    -7.6630     0.8710 C.ar  1 <1>  -0.1500 
 33 H       -4.2050     1.1440     0.7220 H     1 <1>   0.0800 
 34 H       -3.7920     1.4880    -0.9600 H     1 <1>   0.0800 
 35 H       -1.9980    -1.5540    -1.0350 H     1 <1>   0.0800 
 36 H       -1.9200    -1.7610     0.7040 H     1 <1>   0.0800 
 37 H       -0.1250     2.6890    -1.6020 H     1 <1>   0.1500 
 38 H       -2.4780     2.4050     1.9140 H     1 <1>   0.1500 
 39 H       -4.7090    -0.4910    -1.7190 H     1 <1>   0.0800 
 40 H       -4.2220    -1.8440     0.9360 H     1 <1>   0.0800 
 41 H       -2.5180     4.8530     2.0860 H     1 <1>   0.1500 
 42 H       -5.9330    -0.3950     0.8350 H     1 <1>   0.4000 
 43 H       -3.9290    -2.8460    -1.9150 H     1 <1>   0.0800 
 44 H       -5.3060    -3.1460    -0.9030 H     1 <1>   0.0800 
 45 H        0.5210     4.7650    -2.5000 H     1 <1>   0.0800 
 46 H        0.8230     5.9740    -1.2750 H     1 <1>   0.0800 
 47 H       -0.6320     6.0520    -2.2360 H     1 <1>   0.0800 
 48 H       -5.2120    -4.6980     0.9340 H     1 <1>   0.1500 
 49 H       -0.9530     6.9440     2.4800 H     1 <1>   0.0800 
 50 H        0.4530     6.7480     1.4670 H     1 <1>   0.0800 
 51 H       -3.1910     6.8750    -0.5820 H     1 <1>   0.0800 
 52 H       -3.3170     7.0300     1.1510 H     1 <1>   0.0800 
 53 H       -4.0710    -6.6640     1.9310 H     1 <1>   0.1500 
 54 H        0.0790     8.9380     0.4370 H     1 <1>   0.0800 
 55 H        0.0440     9.1420     2.1740 H     1 <1>   0.0800 
 56 H       -3.4530     9.2650     0.1990 H     1 <1>   0.0800 
 57 H       -1.9970     9.0090    -0.7350 H     1 <1>   0.0800 
 58 H        0.0660    -5.1070    -1.3150 H     1 <1>   0.1500 
 59 H       -1.9970    -8.0590     2.0290 H     1 <1>   0.1500 
 60 H        1.3390    -7.0260    -0.4060 H     1 <1>   0.1500 
 61 H        0.3050    -8.4940     1.2590 H     1 <1>   0.1500 
@<TRIPOS>BOND
  1   1   2  2   
  2   2   3  am  
  3   2   4  1   
  4   3   5  1   
  5   3   6  1   
  6   4   7  ar  
  7   4   8  ar  
  8   5   9  1   
  9   5  33  1   
 10   5  34  1   
 11   6  10  1   
 12   6  35  1   
 13   6  36  1   
 14   7  11  ar  
 15   7  37  1   
 16   8  12  ar  
 17   8  38  1   
 18   9  10  1   
 19   9  13  1   
 20   9  39  1   
 21  10  14  1   
 22  10  40  1   
 23  11  15  ar  
 24  11  16  1   
 25  12  15  ar  
 26  12  41  1   
 27  13  42  1   
 28  14  17  1   
 29  14  43  1   
 30  14  44  1   
 31  15  18  1   
 32  16  45  1   
 33  16  46  1   
 34  16  47  1   
 35  17  19  ar  
 36  17  20  ar  
 37  18  21  1   
 38  18  22  1   
 39  19  23  ar  
 40  20  24  ar  
 41  20  48  1   
 42  21  25  1   
 43  21  49  1   
 44  21  50  1   
 45  22  26  1   
 46  22  51  1   
 47  22  52  1   
 48  23  27  ar  
 49  23  28  ar  
 50  24  27  ar  
 51  24  53  1   
 52  25  29  1   
 53  25  54  1   
 54  25  55  1   
 55  26  29  1   
 56  26  56  1   
 57  26  57  1   
 58  27  30  ar  
 59  28  31  ar  
 60  28  58  1   
 61  30  32  ar  
 62  30  59  1   
 63  31  32  ar  
 64  31  60  1   
 65  32  61  1   
@<TRIPOS>SUBSTRUCTURE
  1 ****   3 GROUP 4 **** **** 0

# MOE 2024.06 (io_trps.svl 2023.06)
