@<TRIPOS>MOLECULE
NONAME
52 55 1 0 0 
SMALL
USER_CHARGES


@<TRIPOS>ATOM
  1 CL      -0.2070     0.0640     0.4050 Cl    1 <1>  -0.1400 
  2 C       -0.1080     1.8000     0.2620 C.2   1 <1>   0.1400 
  3 C        1.0980     2.4390     0.3420 C.2   1 <1>   0.1910 
  4 C       -1.2870     2.5230     0.0640 C.2   1 <1>  -0.1500 
  5 N        1.1820     3.8130     0.2290 N.pl3 1 <1>  -0.5760 
  6 C       -1.1910     3.8870    -0.0470 C.2   1 <1>  -0.1800 
  7 C        2.4160     4.4700     0.3110 C.2   1 <1>   0.9370 
  8 C        0.0510     4.5420     0.0350 C.cat 1 <1>   0.7390 
  9 O        3.4250     3.8270     0.4880 O.2   1 <1>  -0.5700 
 10 C        2.4600     5.8770     0.1880 C.2   1 <1>  -0.1360 
 11 N        0.1420     5.8910    -0.0760 N.pl3 1 <1>  -0.6450 
 12 C        1.3330     6.5900    -0.0080 C.2   1 <1>   0.2030 
 13 C        1.2940     8.1210    -0.1460 C.3   1 <1>   0.2480 
 14 N        2.6200     8.7250    -0.4480 N.3   1 <1>  -0.8100 
 15 C        2.5840    10.1910    -0.1750 C.3   1 <1>   0.1100 
 16 C        2.9860     8.4720    -1.8600 C.3   1 <1>   0.0300 
 17 C        3.9450    10.9400    -0.2930 C.3   1 <1>   0.4230 
 18 N        4.9570    10.6050     0.7740 N.4   1 <1>  -0.9590 
 19 C        3.6900    12.4560    -0.2720 C.3   1 <1>  -0.0170 
 20 C        6.2840    11.1720     0.4000 C.3   1 <1>   0.4860 
 21 C        5.0970     9.1500     1.0800 C.3   1 <1>   0.2630 
 22 C        4.9680    13.2710    -0.1610 C.ar  1 <1>  -0.1430 
 23 C        6.1780    12.6680     0.1670 C.ar  1 <1>  -0.1430 
 24 C        4.9160    14.6380    -0.3770 C.ar  1 <1>  -0.1500 
 25 C        7.3220    13.4460     0.2740 C.ar  1 <1>  -0.1500 
 26 C        6.0600    15.4070    -0.2690 C.ar  1 <1>  -0.1500 
 27 C        7.2640    14.8100     0.0570 C.ar  1 <1>  -0.1500 
 28 H        2.0000     1.8640     0.4950 H     1 <1>   0.1500 
 29 H       -2.2280     1.9980     0.0040 H     1 <1>   0.1500 
 30 H       -2.0800     4.4720    -0.2000 H     1 <1>   0.1500 
 31 H        3.4320     6.3240     0.2600 H     1 <1>   0.1500 
 32 H       -0.7370     6.4000    -0.2200 H     1 <1>   0.4500 
 33 H        0.9220     8.5200     0.7830 H     1 <1>   0.0800 
 34 H        0.5960     8.3950    -0.9210 H     1 <1>   0.0800 
 35 H        2.2000    10.3620     0.8170 H     1 <1>   0.0800 
 36 H        1.8900    10.6460    -0.8630 H     1 <1>   0.0800 
 37 H        2.9700     7.4170    -2.0770 H     1 <1>   0.0800 
 38 H        3.9820     8.8270    -2.0640 H     1 <1>   0.0800 
 39 H        2.3000     8.9660    -2.5300 H     1 <1>   0.0800 
 40 H        4.3700    10.7020    -1.2540 H     1 <1>   0.0800 
 41 H        4.6750    11.1080     1.6260 H     1 <1>   0.4500 
 42 H        3.0520    12.7080     0.5580 H     1 <1>   0.0800 
 43 H        3.1730    12.7360    -1.1730 H     1 <1>   0.0800 
 44 H        6.6460    10.7010    -0.4990 H     1 <1>   0.0800 
 45 H        6.9950    10.9890     1.1880 H     1 <1>   0.0800 
 46 H        5.3520     8.6040     0.1860 H     1 <1>   0.0800 
 47 H        4.1690     8.7600     1.4640 H     1 <1>   0.0800 
 48 H        5.8660     8.9920     1.8190 H     1 <1>   0.0800 
 49 H        3.9870    15.1210    -0.6290 H     1 <1>   0.1500 
 50 H        8.2720    13.0040     0.5250 H     1 <1>   0.1500 
 51 H        6.0150    16.4690    -0.4380 H     1 <1>   0.1500 
 52 H        8.1540    15.4110     0.1410 H     1 <1>   0.1500 
@<TRIPOS>BOND
  1   1   2  1   
  2   2   3  2   
  3   2   4  1   
  4   3   5  1   
  5   3  28  1   
  6   4   6  2   
  7   4  29  1   
  8   5   7  1   
  9   5   8  ar  
 10   6   8  1   
 11   6  30  1   
 12   7   9  2   
 13   7  10  1   
 14   8  11  ar  
 15  10  12  2   
 16  10  31  1   
 17  11  12  1   
 18  11  32  1   
 19  12  13  1   
 20  13  14  1   
 21  13  33  1   
 22  13  34  1   
 23  14  15  1   
 24  14  16  1   
 25  15  17  1   
 26  15  35  1   
 27  15  36  1   
 28  16  37  1   
 29  16  38  1   
 30  16  39  1   
 31  17  18  1   
 32  17  19  1   
 33  17  40  1   
 34  18  20  1   
 35  18  21  1   
 36  18  41  1   
 37  19  22  1   
 38  19  42  1   
 39  19  43  1   
 40  20  23  1   
 41  20  44  1   
 42  20  45  1   
 43  21  46  1   
 44  21  47  1   
 45  21  48  1   
 46  22  23  ar  
 47  22  24  ar  
 48  23  25  ar  
 49  24  26  ar  
 50  24  49  1   
 51  25  27  ar  
 52  25  50  1   
 53  26  27  ar  
 54  26  51  1   
 55  27  52  1   
@<TRIPOS>SUBSTRUCTURE
  1 ****  14 GROUP 4 **** **** 0

# MOE 2024.06 (io_trps.svl 2023.06)
