@<TRIPOS>MOLECULE
NONAME
38 39 1 0 0 
SMALL
USER_CHARGES


@<TRIPOS>ATOM
  1 F        1.8570     1.9340     0.5480 F     1 <1>  -0.3400 
  2 C        0.8920     1.9240    -0.3670 C.3   1 <1>   0.7810 
  3 F        1.5270     2.1330    -1.5180 F     1 <1>  -0.3400 
  4 C       -0.1050     3.0600    -0.0990 C.2   1 <1>   0.1080 
  5 N       -1.3890     2.8880     0.0670 N.2   1 <1>  -0.7070 
  6 C        0.2410     4.3970    -0.0040 C.2   1 <1>  -0.1500 
  7 N       -1.8860     4.1180     0.2750 N.pl3 1 <1>   0.3140 
  8 C       -0.9180     5.0750     0.2370 C.2   1 <1>  -0.2370 
  9 C       -3.3320     4.2910     0.5020 C.3   1 <1>   0.0160 
 10 C       -1.1370     6.4840     0.4180 C.2   1 <1>   0.7150 
 11 O       -2.2210     6.9210     0.7560 O.2   1 <1>  -0.5700 
 12 N       -0.0850     7.3330     0.1920 N.am  1 <1>  -0.4940 
 13 C        0.0120     8.7400     0.3370 C.2   1 <1>  -0.0880 
 14 N        1.1070     9.4820     0.0180 N.pl3 1 <1>   0.3140 
 15 C       -0.9070     9.6190     0.8030 C.2   1 <1>  -0.1500 
 16 N        0.9110    10.7950     0.2690 N.2   1 <1>  -0.7070 
 17 C        2.3810     9.0020    -0.5550 C.3   1 <1>   0.0960 
 18 C       -0.2930    10.8630     0.7370 C.2   1 <1>   0.1080 
 19 C        3.2670     8.3610     0.5230 C.3   1 <1>  -0.1600 
 20 C       -0.9270    12.1690     1.1540 C.3   1 <1>  -0.0590 
 21 C        4.5640     7.8080    -0.0780 C.3   1 <1>  -0.2400 
 22 H        0.4460     0.9470    -0.3900 H     1 <1>   0.0800 
 23 H        1.2430     4.7740    -0.1030 H     1 <1>   0.1500 
 24 H       -3.8210     3.3380     0.4300 H     1 <1>   0.0800 
 25 H       -3.7300     4.9570    -0.2410 H     1 <1>   0.0800 
 26 H       -3.4890     4.7040     1.4810 H     1 <1>   0.0800 
 27 H        0.7540     6.8510    -0.1190 H     1 <1>   0.3700 
 28 H       -1.9020     9.4180     1.1550 H     1 <1>   0.1500 
 29 H        2.8870     9.8430    -0.9930 H     1 <1>   0.0800 
 30 H        2.1590     8.2970    -1.3350 H     1 <1>   0.0800 
 31 H        2.7360     7.5620     1.0110 H     1 <1>   0.0800 
 32 H        3.5100     9.1060     1.2630 H     1 <1>   0.0800 
 33 H       -1.9260    12.0060     1.5100 H     1 <1>   0.0800 
 34 H       -0.9550    12.8370     0.3130 H     1 <1>   0.0800 
 35 H       -0.3410    12.6170     1.9350 H     1 <1>   0.0800 
 36 H        4.3530     7.0480    -0.8100 H     1 <1>   0.0800 
 37 H        5.1720     7.3740     0.6970 H     1 <1>   0.0800 
 38 H        5.1270     8.5960    -0.5470 H     1 <1>   0.0800 
@<TRIPOS>BOND
  1   1   2  1   
  2   2   3  1   
  3   2   4  1   
  4   2  22  1   
  5   4   5  2   
  6   4   6  1   
  7   5   7  1   
  8   6   8  2   
  9   6  23  1   
 10   7   8  1   
 11   7   9  1   
 12   8  10  1   
 13   9  24  1   
 14   9  25  1   
 15   9  26  1   
 16  10  11  2   
 17  10  12  am  
 18  12  13  1   
 19  12  27  1   
 20  13  14  1   
 21  13  15  2   
 22  14  16  1   
 23  14  17  1   
 24  15  18  1   
 25  15  28  1   
 26  16  18  2   
 27  17  19  1   
 28  17  29  1   
 29  17  30  1   
 30  18  20  1   
 31  19  21  1   
 32  19  31  1   
 33  19  32  1   
 34  20  33  1   
 35  20  34  1   
 36  20  35  1   
 37  21  36  1   
 38  21  37  1   
 39  21  38  1   
@<TRIPOS>SUBSTRUCTURE
  1 ****  12 GROUP 4 **** **** 0

# MOE 2024.06 (io_trps.svl 2023.06)
