@<TRIPOS>MOLECULE
NONAME
52 53 1 0 0 
SMALL
USER_CHARGES


@<TRIPOS>ATOM
  1 S        0.0230     0.3160     0.3290 S.3   1 <1>  -0.4600 
  2 C        1.4490     0.1430    -0.7760 C.3   1 <1>   0.2510 
  3 C       -0.9980    -1.1230    -0.0770 C.3   1 <1>   0.0700 
  4 C        2.3480     1.3490    -0.5800 C.2   1 <1>  -0.1810 
  5 C       -2.2420    -1.0780     0.8110 C.3   1 <1>  -0.1600 
  6 C        3.5720     1.4380    -0.0150 C.2   1 <1>  -0.0400 
  7 C        2.0300     2.6470    -0.9800 C.2   1 <1>  -0.1500 
  8 C       -3.1670    -2.2690     0.5300 C.3   1 <1>  -0.1600 
  9 O        4.0000     2.6790    -0.0540 O.3   1 <1>  -0.2800 
 10 C        4.4620     0.3920     0.6220 C.3   1 <1>  -0.0600 
 11 C        3.0790     3.4440    -0.6360 C.2   1 <1>   0.0550 
 12 C       -4.4110    -2.2200     1.4210 C.3   1 <1>  -0.2400 
 13 C        3.2430     4.8720    -0.8280 C.2   1 <1>   0.7150 
 14 O        2.4100     5.4930    -1.4660 O.2   1 <1>  -0.5700 
 15 N        4.3020     5.6080    -0.3250 N.am  1 <1>  -0.6600 
 16 C        5.4160     5.1020     0.5150 C.3   1 <1>   0.1400 
 17 C        4.3550     7.0870    -0.4390 C.3   1 <1>   0.1400 
 18 C        6.3540     6.2990     0.6820 C.3   1 <1>   0.2000 
 19 C        5.4380     7.5340     0.5510 C.3   1 <1>   0.4230 
 20 O        6.9960     6.2910     1.9190 O.3   1 <1>  -0.6800 
 21 N        6.1250     8.8400     0.1970 N.4   1 <1>  -0.9590 
 22 C        6.8930     8.8040    -1.0910 C.3   1 <1>   0.2630 
 23 C        7.0210     9.2660     1.3210 C.3   1 <1>   0.2630 
 24 H        1.9460    -0.7740    -0.5170 H     1 <1>   0.0800 
 25 H        1.0770     0.0950    -1.7840 H     1 <1>   0.0800 
 26 H       -1.2530    -1.0560    -1.1200 H     1 <1>   0.0800 
 27 H       -0.4080    -2.0030     0.1120 H     1 <1>   0.0800 
 28 H       -1.9370    -1.0930     1.8430 H     1 <1>   0.0800 
 29 H       -2.7700    -0.1580     0.6290 H     1 <1>   0.0800 
 30 H        1.1150     2.9490    -1.4620 H     1 <1>   0.1500 
 31 H       -3.4710    -2.2550    -0.5030 H     1 <1>   0.0800 
 32 H       -2.6380    -3.1890     0.7110 H     1 <1>   0.0800 
 33 H        3.9900    -0.5720     0.6050 H     1 <1>   0.0800 
 34 H        4.6610     0.6620     1.6430 H     1 <1>   0.0800 
 35 H        5.3930     0.3350     0.0880 H     1 <1>   0.0800 
 36 H       -4.9670    -1.3160     1.2410 H     1 <1>   0.0800 
 37 H       -4.1320    -2.2530     2.4590 H     1 <1>   0.0800 
 38 H       -5.0480    -3.0610     1.2110 H     1 <1>   0.0800 
 39 H        5.0240     4.7780     1.4650 H     1 <1>   0.0800 
 40 H        5.9200     4.2880     0.0210 H     1 <1>   0.0800 
 41 H        4.6040     7.3400    -1.4530 H     1 <1>   0.0800 
 42 H        3.3990     7.5120    -0.1820 H     1 <1>   0.0800 
 43 H        7.0970     6.2740    -0.0940 H     1 <1>   0.0800 
 44 H        4.9440     7.6540     1.5010 H     1 <1>   0.0800 
 45 H        7.4910     5.4540     2.0600 H     1 <1>   0.4000 
 46 H        5.3860     9.5540     0.1090 H     1 <1>   0.4500 
 47 H        7.6990     8.0920    -1.0290 H     1 <1>   0.0800 
 48 H        7.3120     9.7750    -1.3010 H     1 <1>   0.0800 
 49 H        6.2490     8.5290    -1.9100 H     1 <1>   0.0800 
 50 H        7.8230     8.5580     1.4500 H     1 <1>   0.0800 
 51 H        6.4650     9.3190     2.2430 H     1 <1>   0.0800 
 52 H        7.4460    10.2360     1.1180 H     1 <1>   0.0800 
@<TRIPOS>BOND
  1   1   2  1   
  2   1   3  1   
  3   2   4  1   
  4   2  24  1   
  5   2  25  1   
  6   3   5  1   
  7   3  26  1   
  8   3  27  1   
  9   4   6  2   
 10   4   7  1   
 11   5   8  1   
 12   5  28  1   
 13   5  29  1   
 14   6   9  1   
 15   6  10  1   
 16   7  11  2   
 17   7  30  1   
 18   8  12  1   
 19   8  31  1   
 20   8  32  1   
 21   9  11  1   
 22  10  33  1   
 23  10  34  1   
 24  10  35  1   
 25  11  13  1   
 26  12  36  1   
 27  12  37  1   
 28  12  38  1   
 29  13  14  2   
 30  13  15  am  
 31  15  16  1   
 32  15  17  1   
 33  16  18  1   
 34  16  39  1   
 35  16  40  1   
 36  17  19  1   
 37  17  41  1   
 38  17  42  1   
 39  18  19  1   
 40  18  20  1   
 41  18  43  1   
 42  19  21  1   
 43  19  44  1   
 44  20  45  1   
 45  21  22  1   
 46  21  23  1   
 47  21  46  1   
 48  22  47  1   
 49  22  48  1   
 50  22  49  1   
 51  23  50  1   
 52  23  51  1   
 53  23  52  1   
@<TRIPOS>SUBSTRUCTURE
  1 ****  11 GROUP 4 **** **** 0

# MOE 2024.06 (io_trps.svl 2023.06)
