@<TRIPOS>MOLECULE
NONAME
53 55 1 0 0 
SMALL
USER_CHARGES


@<TRIPOS>ATOM
  1 F        2.0550     0.7760    -0.4250 F     1 <1>  -0.3400 
  2 C        2.1810     0.0630     0.6840 C.3   1 <1>   1.1640 
  3 F        1.3550     0.5900     1.5750 F     1 <1>  -0.3400 
  4 F        3.4110     0.2780     1.1340 F     1 <1>  -0.3400 
  5 C        1.8950    -1.4330     0.4440 C.ar  1 <1>  -0.1440 
  6 C        2.8370    -2.4200     0.6460 C.ar  1 <1>  -0.1500 
  7 C        0.6330    -1.8240    -0.0190 C.ar  1 <1>  -0.1500 
  8 C        2.5480    -3.7740     0.4170 C.ar  1 <1>   0.3610 
  9 C        0.3310    -3.1460    -0.2200 C.ar  1 <1>  -0.1500 
 10 N        3.5500    -4.7140     0.4900 N.ar  1 <1>  -0.1790 
 11 C        1.2470    -4.1800     0.0560 C.ar  1 <1>   0.0000 
 12 C        3.3340    -6.0130     0.2270 C.ar  1 <1>   0.2180 
 13 C        0.9610    -5.5850    -0.0650 C.ar  1 <1>   0.1000 
 14 C        2.0640    -6.4460    -0.0520 C.ar  1 <1>  -0.1500 
 15 C        4.5170    -6.9660     0.2660 C.3   1 <1>  -0.0970 
 16 N       -0.2960    -6.1100    -0.1450 N.pl3 1 <1>  -0.8380 
 17 C       -0.5750    -7.4330    -0.8220 C.3   1 <1>   0.2090 
 18 C       -1.4950    -5.4980     0.5240 C.3   1 <1>   0.2090 
 19 C       -2.0730    -7.6430    -1.1050 C.3   1 <1>   0.2000 
 20 C       -2.3440    -6.5830     1.1940 C.3   1 <1>  -0.1600 
 21 O       -2.2510    -8.8170    -1.8360 O.3   1 <1>  -0.6800 
 22 C       -2.9340    -7.6250     0.1970 C.3   1 <1>   0.0000 
 23 C       -2.8960    -9.0230     0.8770 C.3   1 <1>   0.1200 
 24 C       -4.4180    -7.3010    -0.1530 C.3   1 <1>  -0.1600 
 25 O       -3.5680    -9.0250     2.0920 O.3   1 <1>  -0.6800 
 26 C       -4.7120    -5.8990    -0.7210 C.3   1 <1>  -0.1600 
 27 C       -6.2060    -5.7390    -1.0150 C.3   1 <1>  -0.2400 
 28 H        3.8260    -2.1510     0.9780 H     1 <1>   0.1500 
 29 H       -0.1120    -1.0690    -0.2260 H     1 <1>   0.1500 
 30 H       -0.6360    -3.3920    -0.6180 H     1 <1>   0.1500 
 31 H        4.4920    -4.3910     0.7180 H     1 <1>   0.4570 
 32 H        1.9110    -7.4930    -0.2300 H     1 <1>   0.1500 
 33 H        4.2040    -7.9710     0.0380 H     1 <1>   0.0800 
 34 H        4.9650    -6.9710     1.2450 H     1 <1>   0.0800 
 35 H        5.2580    -6.6770    -0.4580 H     1 <1>   0.0800 
 36 H       -0.0410    -7.4650    -1.7560 H     1 <1>   0.0800 
 37 H       -0.2260    -8.2290    -0.1900 H     1 <1>   0.0800 
 38 H       -1.1760    -4.7950     1.2750 H     1 <1>   0.0800 
 39 H       -2.0870    -4.9740    -0.2070 H     1 <1>   0.0800 
 40 H       -2.3710    -6.8460    -1.7610 H     1 <1>   0.0800 
 41 H       -1.7030    -7.0670     1.9100 H     1 <1>   0.0800 
 42 H       -3.1370    -6.1190     1.7550 H     1 <1>   0.0800 
 43 H       -2.1060    -9.6090    -1.2860 H     1 <1>   0.4000 
 44 H       -1.8820    -9.3300     1.0670 H     1 <1>   0.0800 
 45 H       -3.3730    -9.7630     0.2570 H     1 <1>   0.0800 
 46 H       -4.7660    -8.0330    -0.8630 H     1 <1>   0.0800 
 47 H       -5.0210    -7.4230     0.7310 H     1 <1>   0.0800 
 48 H       -3.2250    -8.3270     2.6820 H     1 <1>   0.4000 
 49 H       -4.4250    -5.1410    -0.0150 H     1 <1>   0.0800 
 50 H       -4.1710    -5.7340    -1.6360 H     1 <1>   0.0800 
 51 H       -6.7840    -5.8680    -0.1170 H     1 <1>   0.0800 
 52 H       -6.5260    -6.4670    -1.7400 H     1 <1>   0.0800 
 53 H       -6.4020    -4.7570    -1.4090 H     1 <1>   0.0800 
@<TRIPOS>BOND
  1   1   2  1   
  2   2   3  1   
  3   2   4  1   
  4   2   5  1   
  5   5   6  ar  
  6   5   7  ar  
  7   6   8  ar  
  8   6  28  1   
  9   7   9  ar  
 10   7  29  1   
 11   8  10  ar  
 12   8  11  ar  
 13   9  11  ar  
 14   9  30  1   
 15  10  12  ar  
 16  10  31  1   
 17  11  13  ar  
 18  12  14  ar  
 19  12  15  1   
 20  13  14  ar  
 21  13  16  1   
 22  14  32  1   
 23  15  33  1   
 24  15  34  1   
 25  15  35  1   
 26  16  17  1   
 27  16  18  1   
 28  17  19  1   
 29  17  36  1   
 30  17  37  1   
 31  18  20  1   
 32  18  38  1   
 33  18  39  1   
 34  19  21  1   
 35  19  22  1   
 36  19  40  1   
 37  20  22  1   
 38  20  41  1   
 39  20  42  1   
 40  21  43  1   
 41  22  23  1   
 42  22  24  1   
 43  23  25  1   
 44  23  44  1   
 45  23  45  1   
 46  24  26  1   
 47  24  46  1   
 48  24  47  1   
 49  25  48  1   
 50  26  27  1   
 51  26  49  1   
 52  26  50  1   
 53  27  51  1   
 54  27  52  1   
 55  27  53  1   
@<TRIPOS>SUBSTRUCTURE
  1 ****  13 GROUP 4 **** **** 0

# MOE 2024.06 (io_trps.svl 2023.06)
