@<TRIPOS>MOLECULE
NONAME
43 45 1 0 0 
SMALL
USER_CHARGES


@<TRIPOS>ATOM
  1 O       -0.4780     0.2440     0.3140 O.2   1 <1>  -0.5700 
  2 C       -1.5330     0.8590     0.3120 C.2   1 <1>   0.5440 
  3 N       -2.6880     0.1020     0.2060 N.am  1 <1>  -0.6600 
  4 C       -1.5100     2.3280     0.3940 C.ar  1 <1>   0.3960 
  5 C       -4.0640     0.6180     0.0010 C.3   1 <1>   0.1400 
  6 C       -2.6730    -1.3810     0.1480 C.3   1 <1>   0.1400 
  7 N       -2.5530     3.0090     0.9120 N.ar  1 <1>  -0.6200 
  8 C       -0.3830     3.0030    -0.0710 C.ar  1 <1>  -0.1500 
  9 C       -4.8740    -0.5970    -0.4460 C.3   1 <1>   0.2000 
 10 C       -4.1430    -1.8030     0.1380 C.3   1 <1>  -0.0800 
 11 C       -2.4590     4.3250     0.9590 C.ar  1 <1>   0.1600 
 12 C       -0.2960     4.3760    -0.0210 C.ar  1 <1>   0.0830 
 13 O       -6.1760    -0.5490     0.0260 O.3   1 <1>  -0.6800 
 14 C       -4.4060    -3.1020    -0.6380 C.3   1 <1>   0.0210 
 15 C       -1.3740     5.0540     0.5150 C.ar  1 <1>  -0.1500 
 16 O        0.8240     4.9630    -0.4930 O.3   1 <1>  -0.3630 
 17 C       -3.5830    -4.2460    -0.0810 C.2   1 <1>   0.1080 
 18 C        1.0000     6.3620    -0.4540 C.3   1 <1>   0.0400 
 19 N       -3.7700    -4.7350     1.1050 N.2   1 <1>  -0.7070 
 20 C       -2.5470    -4.8840    -0.7550 C.2   1 <1>  -0.1500 
 21 N       -2.8490    -5.7100     1.2210 N.pl3 1 <1>   0.3000 
 22 C       -2.0940    -5.8190     0.1070 C.2   1 <1>  -0.3320 
 23 C       -0.9710    -6.8230    -0.0670 C.3   1 <1>  -0.0600 
 24 H       -4.4350     1.0050     0.9340 H     1 <1>   0.0800 
 25 H       -4.0740     1.3870    -0.7520 H     1 <1>   0.0800 
 26 H       -2.1730    -1.6890    -0.7540 H     1 <1>   0.0800 
 27 H       -2.1530    -1.7920     0.9980 H     1 <1>   0.0800 
 28 H        0.4400     2.4450    -0.4770 H     1 <1>   0.1500 
 29 H       -4.9030    -0.6360    -1.5210 H     1 <1>   0.0800 
 30 H       -4.4360    -1.9420     1.1640 H     1 <1>   0.0800 
 31 H       -3.2970     4.8570     1.3780 H     1 <1>   0.1500 
 32 H       -6.1820    -0.6230     1.0000 H     1 <1>   0.4000 
 33 H       -4.1700    -2.9670    -1.6780 H     1 <1>   0.0800 
 34 H       -5.4480    -3.3590    -0.5620 H     1 <1>   0.0800 
 35 H       -1.3890     6.1230     0.5940 H     1 <1>   0.1500 
 36 H        1.9640     6.5890    -0.8740 H     1 <1>   0.0800 
 37 H        0.9610     6.6910     0.5690 H     1 <1>   0.0800 
 38 H        0.2280     6.8280    -1.0400 H     1 <1>   0.0800 
 39 H       -2.2000    -4.6590    -1.7480 H     1 <1>   0.1500 
 40 H       -2.7610    -6.2810     2.0700 H     1 <1>   0.2700 
 41 H       -0.5220    -6.7110    -1.0390 H     1 <1>   0.0800 
 42 H       -1.3500    -7.8260     0.0210 H     1 <1>   0.0800 
 43 H       -0.2120    -6.6670     0.6790 H     1 <1>   0.0800 
@<TRIPOS>BOND
  1   1   2  2   
  2   2   3  am  
  3   2   4  1   
  4   3   5  1   
  5   3   6  1   
  6   4   7  ar  
  7   4   8  ar  
  8   5   9  1   
  9   5  24  1   
 10   5  25  1   
 11   6  10  1   
 12   6  26  1   
 13   6  27  1   
 14   7  11  ar  
 15   8  12  ar  
 16   8  28  1   
 17   9  10  1   
 18   9  13  1   
 19   9  29  1   
 20  10  14  1   
 21  10  30  1   
 22  11  15  ar  
 23  11  31  1   
 24  12  15  ar  
 25  12  16  1   
 26  13  32  1   
 27  14  17  1   
 28  14  33  1   
 29  14  34  1   
 30  15  35  1   
 31  16  18  1   
 32  17  19  2   
 33  17  20  1   
 34  18  36  1   
 35  18  37  1   
 36  18  38  1   
 37  19  21  1   
 38  20  22  2   
 39  20  39  1   
 40  21  22  1   
 41  21  40  1   
 42  22  23  1   
 43  23  41  1   
 44  23  42  1   
 45  23  43  1   
@<TRIPOS>SUBSTRUCTURE
  1 ****   3 GROUP 4 **** **** 0

# MOE 2024.06 (io_trps.svl 2023.06)
