@<TRIPOS>MOLECULE
NONAME
45 47 1 0 0 
SMALL
USER_CHARGES


@<TRIPOS>ATOM
  1 F       -5.4930     0.1710    -1.8530 F     1 <1>  -0.3400 
  2 C       -4.7160    -0.8130    -1.4140 C.3   1 <1>   1.1640 
  3 F       -3.9970    -1.1910    -2.4600 F     1 <1>  -0.3400 
  4 F       -5.5460    -1.8090    -1.1270 F     1 <1>  -0.3400 
  5 C       -3.8510    -0.3780    -0.2140 C.ar  1 <1>  -0.1440 
  6 C       -3.2090    -1.3350     0.5840 C.ar  1 <1>   0.0860 
  7 C       -3.7070     0.9740     0.0910 C.ar  1 <1>  -0.1500 
  8 C       -3.2840    -2.7620     0.3430 C.2   1 <1>   0.5440 
  9 C       -2.4580    -0.8890     1.6700 C.ar  1 <1>  -0.1500 
 10 C       -2.9510     1.4100     1.1740 C.ar  1 <1>  -0.1440 
 11 O       -2.8730    -3.2390    -0.6920 O.2   1 <1>  -0.5700 
 12 N       -3.8340    -3.5850     1.2770 N.am  1 <1>  -0.7300 
 13 C       -2.3290     0.4530     1.9650 C.ar  1 <1>  -0.1500 
 14 C       -2.8240     2.9130     1.4810 C.3   1 <1>   1.1640 
 15 C       -4.0620    -5.0340     1.0910 C.3   1 <1>   0.2200 
 16 F       -2.6250     3.6360     0.3860 F     1 <1>  -0.3400 
 17 F       -3.9200     3.3930     2.0520 F     1 <1>  -0.3400 
 18 F       -1.8190     3.1970     2.3020 F     1 <1>  -0.3400 
 19 C       -5.4920    -5.2520     0.6250 C.3   1 <1>  -0.0800 
 20 C       -4.0710    -5.7250     2.4470 C.3   1 <1>   0.1200 
 21 C       -6.2740    -5.3210     1.9450 C.3   1 <1>   0.1200 
 22 C       -5.6220    -6.5440    -0.2040 C.3   1 <1>  -0.0160 
 23 O       -5.3400    -5.4890     2.9730 O.3   1 <1>  -0.5600 
 24 C       -7.0520    -6.7620    -0.6750 C.ar  1 <1>  -0.1430 
 25 C       -7.8570    -7.7530    -0.1510 C.ar  1 <1>  -0.1500 
 26 C       -7.6180    -5.9740    -1.6570 C.ar  1 <1>  -0.1500 
 27 C       -9.1530    -7.9010    -0.6180 C.ar  1 <1>   0.1600 
 28 C       -8.9240    -6.2060    -2.0530 C.ar  1 <1>   0.1600 
 29 N       -9.7070    -7.1500    -1.5560 N.ar  1 <1>  -0.6200 
 30 H       -4.1920     1.7180    -0.5230 H     1 <1>   0.1500 
 31 H       -1.9580    -1.6140     2.2900 H     1 <1>   0.1500 
 32 H       -4.2810    -3.2010     2.1140 H     1 <1>   0.3700 
 33 H       -1.7360     0.7450     2.8180 H     1 <1>   0.1500 
 34 H       -3.3240    -5.4490     0.4230 H     1 <1>   0.0800 
 35 H       -5.8320    -4.4270     0.0240 H     1 <1>   0.0800 
 36 H       -3.3220    -5.3410     3.1170 H     1 <1>   0.0800 
 37 H       -3.9530    -6.7890     2.3370 H     1 <1>   0.0800 
 38 H       -6.9700    -6.1400     1.9750 H     1 <1>   0.0800 
 39 H       -6.8000    -4.4000     2.1280 H     1 <1>   0.0800 
 40 H       -5.2980    -7.3920     0.3740 H     1 <1>   0.0800 
 41 H       -4.9840    -6.4750    -1.0680 H     1 <1>   0.0800 
 42 H       -7.4930    -8.4120     0.6160 H     1 <1>   0.1500 
 43 H       -7.0540    -5.1820    -2.1180 H     1 <1>   0.1500 
 44 H       -9.7670    -8.6790    -0.1970 H     1 <1>   0.1500 
 45 H       -9.3480    -5.5800    -2.8200 H     1 <1>   0.1500 
@<TRIPOS>BOND
  1   1   2  1   
  2   2   3  1   
  3   2   4  1   
  4   2   5  1   
  5   5   6  ar  
  6   5   7  ar  
  7   6   8  1   
  8   6   9  ar  
  9   7  10  ar  
 10   7  30  1   
 11   8  11  2   
 12   8  12  am  
 13   9  13  ar  
 14   9  31  1   
 15  10  13  ar  
 16  10  14  1   
 17  12  15  1   
 18  12  32  1   
 19  13  33  1   
 20  14  16  1   
 21  14  17  1   
 22  14  18  1   
 23  15  19  1   
 24  15  20  1   
 25  15  34  1   
 26  19  21  1   
 27  19  22  1   
 28  19  35  1   
 29  20  23  1   
 30  20  36  1   
 31  20  37  1   
 32  21  23  1   
 33  21  38  1   
 34  21  39  1   
 35  22  24  1   
 36  22  40  1   
 37  22  41  1   
 38  24  25  ar  
 39  24  26  ar  
 40  25  27  ar  
 41  25  42  1   
 42  26  28  ar  
 43  26  43  1   
 44  27  29  ar  
 45  27  44  1   
 46  28  29  ar  
 47  28  45  1   
@<TRIPOS>SUBSTRUCTURE
  1 ****   8 GROUP 4 **** **** 0

# MOE 2024.06 (io_trps.svl 2023.06)
