@<TRIPOS>MOLECULE
NONAME
24 24 1 0 0 
SMALL
USER_CHARGES


@<TRIPOS>ATOM
  1 F        4.8360     3.5780     0.4370 F     1 <1>  -0.3400 
  2 C        4.9270     2.5010    -0.3250 C.3   1 <1>   0.6000 
  3 F        3.7570     1.8930    -0.1860 F     1 <1>  -0.3400 
  4 C        6.0560     1.6020     0.2070 C.3   1 <1>  -0.1600 
  5 C        6.0040     0.1230    -0.2480 C.3   1 <1>  -0.0800 
  6 C        4.8890    -0.6640     0.4750 C.3   1 <1>   0.3430 
  7 C        7.3720    -0.5390     0.0050 C.3   1 <1>  -0.1600 
  8 N        4.9180    -2.1020     0.0810 N.4   1 <1>  -0.9060 
  9 C        7.3410    -2.0350    -0.3400 C.3   1 <1>  -0.1600 
 10 C        6.2130    -2.7640     0.3910 C.3   1 <1>   0.3430 
 11 H        5.0320     2.8100    -1.3500 H     1 <1>   0.0800 
 12 H        6.0600     1.6510     1.2830 H     1 <1>   0.0800 
 13 H        6.9770     2.0420    -0.1330 H     1 <1>   0.0800 
 14 H        5.8070     0.1040    -1.3070 H     1 <1>   0.0800 
 15 H        3.9250    -0.2490     0.2350 H     1 <1>   0.0800 
 16 H        5.0310    -0.5790     1.5410 H     1 <1>   0.0800 
 17 H        7.6470    -0.4220     1.0410 H     1 <1>   0.0800 
 18 H        8.1310    -0.0560    -0.5880 H     1 <1>   0.0800 
 19 H        4.7420    -2.1720    -0.9280 H     1 <1>   0.4500 
 20 H        4.1520    -2.6000     0.5520 H     1 <1>   0.4500 
 21 H        8.2810    -2.4820    -0.0650 H     1 <1>   0.0800 
 22 H        7.2260    -2.1670    -1.4030 H     1 <1>   0.0800 
 23 H        6.1870    -3.7980     0.0820 H     1 <1>   0.0800 
 24 H        6.3950    -2.7320     1.4540 H     1 <1>   0.0800 
@<TRIPOS>BOND
  1   1   2  1   
  2   2   3  1   
  3   2   4  1   
  4   2  11  1   
  5   4   5  1   
  6   4  12  1   
  7   4  13  1   
  8   5   6  1   
  9   5   7  1   
 10   5  14  1   
 11   6   8  1   
 12   6  15  1   
 13   6  16  1   
 14   7   9  1   
 15   7  17  1   
 16   7  18  1   
 17   8  10  1   
 18   8  19  1   
 19   8  20  1   
 20   9  10  1   
 21   9  21  1   
 22   9  22  1   
 23  10  23  1   
 24  10  24  1   
@<TRIPOS>SUBSTRUCTURE
  1 ****   5 GROUP 4 **** **** 0

# MOE 2024.06 (io_trps.svl 2023.06)
