@<TRIPOS>MOLECULE
NONAME
53 55 1 0 0 
SMALL
USER_CHARGES


@<TRIPOS>ATOM
  1 O       -1.7750    -0.2510    -1.8800 O.2   1 <1>  -0.5700 
  2 C       -2.1280     0.9100    -2.0410 C.2   1 <1>   0.7160 
  3 N       -3.0790     1.1320    -3.0300 N.am  1 <1>  -0.6600 
  4 C       -1.5650     1.9320    -1.1530 C.2   1 <1>   0.2030 
  5 C       -3.8950    -0.0080    -3.5430 C.3   1 <1>   0.1400 
  6 C       -3.5800     2.4670    -3.4600 C.3   1 <1>   0.1400 
  7 N       -1.7960     3.2360    -1.1270 N.2   1 <1>  -0.7070 
  8 C       -0.6700     1.6030    -0.1230 C.2   1 <1>  -0.1500 
  9 C       -4.9880    -0.4210    -2.5370 C.3   1 <1>   0.1400 
 10 C       -4.8120     2.9180    -2.6580 C.3   1 <1>  -0.1600 
 11 N       -1.0790     3.7160    -0.1030 N.pl3 1 <1>   0.3000 
 12 C       -0.3890     2.7480     0.5270 C.2   1 <1>  -0.3320 
 13 N       -5.5550     0.7350    -1.7660 N.am  1 <1>  -0.6600 
 14 C       -5.9670     1.9050    -2.5870 C.3   1 <1>   0.1400 
 15 C        0.5080     2.9790     1.7280 C.3   1 <1>   0.0200 
 16 C       -5.5430     0.8630    -0.3960 C.2   1 <1>   0.5690 
 17 C       -0.3230     3.3730     2.9540 C.3   1 <1>  -0.1600 
 18 O       -6.2710     1.6560     0.1570 O.2   1 <1>  -0.5700 
 19 C       -4.5840     0.0430     0.4770 C.3   1 <1>  -0.0190 
 20 C        0.5590     3.5740     4.1920 C.3   1 <1>  -0.2400 
 21 C       -5.2630    -1.1860     1.1010 C.3   1 <1>  -0.1600 
 22 C       -3.9460     0.8810     1.5980 C.3   1 <1>  -0.1600 
 23 C       -4.2760    -1.9390     2.0020 C.3   1 <1>   0.1200 
 24 C       -3.0300     0.0080     2.4600 C.3   1 <1>   0.1200 
 25 O       -3.7590    -1.0710     2.9640 O.3   1 <1>  -0.5600 
 26 H       -3.2600    -0.8530    -3.7470 H     1 <1>   0.0800 
 27 H       -4.3580     0.2680    -4.4740 H     1 <1>   0.0800 
 28 H       -3.8380     2.4200    -4.5040 H     1 <1>   0.0800 
 29 H       -2.7980     3.2000    -3.3740 H     1 <1>   0.0800 
 30 H       -0.3070     0.6100     0.0790 H     1 <1>   0.1500 
 31 H       -4.5790    -1.1580    -1.8720 H     1 <1>   0.0800 
 32 H       -5.7860    -0.9040    -3.0730 H     1 <1>   0.0800 
 33 H       -5.1850     3.8190    -3.1090 H     1 <1>   0.0800 
 34 H       -4.5110     3.1800    -1.6590 H     1 <1>   0.0800 
 35 H       -1.0790     4.7120     0.1510 H     1 <1>   0.2700 
 36 H       -6.2570     1.5880    -3.5730 H     1 <1>   0.0800 
 37 H       -6.8220     2.3740    -2.1290 H     1 <1>   0.0800 
 38 H        1.2260     3.7490     1.5020 H     1 <1>   0.0800 
 39 H        1.0510     2.0730     1.9410 H     1 <1>   0.0800 
 40 H       -1.0440     2.5990     3.1550 H     1 <1>   0.0800 
 41 H       -0.8620     4.2820     2.7520 H     1 <1>   0.0800 
 42 H       -3.7720    -0.2990    -0.1320 H     1 <1>   0.0800 
 43 H        1.0860     2.6670     4.4310 H     1 <1>   0.0800 
 44 H       -0.0500     3.8460     5.0360 H     1 <1>   0.0800 
 45 H        1.2760     4.3580     4.0220 H     1 <1>   0.0800 
 46 H       -5.6200    -1.8420     0.3280 H     1 <1>   0.0800 
 47 H       -6.1090    -0.8750     1.6890 H     1 <1>   0.0800 
 48 H       -4.7090     1.3070     2.2260 H     1 <1>   0.0800 
 49 H       -3.3810     1.6910     1.1730 H     1 <1>   0.0800 
 50 H       -3.4570    -2.3440     1.4320 H     1 <1>   0.0800 
 51 H       -4.7750    -2.7410     2.5190 H     1 <1>   0.0800 
 52 H       -2.6540     0.5690     3.2980 H     1 <1>   0.0800 
 53 H       -2.2010    -0.3720     1.8890 H     1 <1>   0.0800 
@<TRIPOS>BOND
  1   1   2  2   
  2   2   3  am  
  3   2   4  1   
  4   3   5  1   
  5   3   6  1   
  6   4   7  2   
  7   4   8  1   
  8   5   9  1   
  9   5  26  1   
 10   5  27  1   
 11   6  10  1   
 12   6  28  1   
 13   6  29  1   
 14   7  11  1   
 15   8  12  2   
 16   8  30  1   
 17   9  13  1   
 18   9  31  1   
 19   9  32  1   
 20  10  14  1   
 21  10  33  1   
 22  10  34  1   
 23  11  12  1   
 24  11  35  1   
 25  12  15  1   
 26  13  14  1   
 27  13  16  am  
 28  14  36  1   
 29  14  37  1   
 30  15  17  1   
 31  15  38  1   
 32  15  39  1   
 33  16  18  2   
 34  16  19  1   
 35  17  20  1   
 36  17  40  1   
 37  17  41  1   
 38  19  21  1   
 39  19  22  1   
 40  19  42  1   
 41  20  43  1   
 42  20  44  1   
 43  20  45  1   
 44  21  23  1   
 45  21  46  1   
 46  21  47  1   
 47  22  24  1   
 48  22  48  1   
 49  22  49  1   
 50  23  25  1   
 51  23  50  1   
 52  23  51  1   
 53  24  25  1   
 54  24  52  1   
 55  24  53  1   
@<TRIPOS>SUBSTRUCTURE
  1 ****   4 GROUP 4 **** **** 0

# MOE 2024.06 (io_trps.svl 2023.06)
