@<TRIPOS>MOLECULE
NONAME
45 47 1 0 0 
SMALL
USER_CHARGES


@<TRIPOS>ATOM
  1 F       -1.7080    -1.7820    -1.4860 F     1 <1>  -0.1900 
  2 C       -2.5160    -0.7740    -1.2980 C.ar  1 <1>   0.1900 
  3 C       -3.2320    -0.7010    -0.1200 C.ar  1 <1>  -0.1500 
  4 C       -2.6260     0.1810    -2.2860 C.ar  1 <1>  -0.1500 
  5 C       -4.0990     0.3640     0.0870 C.ar  1 <1>  -0.1440 
  6 C       -3.4830     1.2470    -2.0750 C.ar  1 <1>  -0.1500 
  7 C       -4.2170     1.3490    -0.8980 C.ar  1 <1>  -0.1440 
  8 C       -4.8900     0.4010     1.4000 C.3   1 <1>   0.0440 
  9 C       -5.1270     2.5590    -0.7300 C.3   1 <1>  -0.0960 
 10 C       -5.5340    -0.9300     1.7730 C.2   1 <1>   0.5690 
 11 O       -5.2840    -1.3900     2.8620 O.2   1 <1>  -0.5700 
 12 N       -6.3840    -1.5710     0.9110 N.am  1 <1>  -0.6600 
 13 C       -6.7890    -1.1160    -0.4410 C.3   1 <1>   0.1400 
 14 C       -6.9590    -2.9090     1.1980 C.3   1 <1>   0.1400 
 15 C       -8.0000    -1.9800    -0.7810 C.3   1 <1>   0.2000 
 16 C       -7.7350    -3.3100    -0.0690 C.3   1 <1>  -0.0800 
 17 O       -9.1210    -1.4030    -0.2060 O.3   1 <1>  -0.6800 
 18 C       -6.9200    -4.2610    -0.9680 C.3   1 <1>  -0.0170 
 19 C       -6.8070    -5.6520    -0.3640 C.ar  1 <1>   0.1670 
 20 N       -5.7150    -5.9050     0.3390 N.ar  1 <1>  -0.6200 
 21 C       -7.8250    -6.5710    -0.5720 C.ar  1 <1>  -0.1500 
 22 C       -5.6330    -7.1190     0.8580 C.ar  1 <1>   0.1600 
 23 C       -7.7270    -7.8330    -0.0250 C.ar  1 <1>  -0.1500 
 24 C       -6.5940    -8.1050     0.7090 C.ar  1 <1>  -0.1500 
 25 H       -3.1060    -1.4750     0.6170 H     1 <1>   0.1500 
 26 H       -2.0540     0.0920    -3.1910 H     1 <1>   0.1500 
 27 H       -3.5710     2.0000    -2.8390 H     1 <1>   0.1500 
 28 H       -5.6740     1.1300     1.3740 H     1 <1>   0.0800 
 29 H       -4.2190     0.6840     2.1890 H     1 <1>   0.0800 
 30 H       -5.0070     3.2510    -1.5440 H     1 <1>   0.0800 
 31 H       -4.8890     3.0770     0.1810 H     1 <1>   0.0800 
 32 H       -6.1560     2.2490    -0.7040 H     1 <1>   0.0800 
 33 H       -7.0300    -0.0680    -0.4620 H     1 <1>   0.0800 
 34 H       -5.9890    -1.3180    -1.1330 H     1 <1>   0.0800 
 35 H       -6.1770    -3.6070     1.4440 H     1 <1>   0.0800 
 36 H       -7.6270    -2.8300     2.0390 H     1 <1>   0.0800 
 37 H       -8.1730    -2.0730    -1.8390 H     1 <1>   0.0800 
 38 H       -8.6600    -3.7960     0.1880 H     1 <1>   0.0800 
 39 H       -8.9330    -1.2350     0.7400 H     1 <1>   0.4000 
 40 H       -5.9330    -3.8650    -1.1360 H     1 <1>   0.0800 
 41 H       -7.4000    -4.3470    -1.9260 H     1 <1>   0.0800 
 42 H       -8.6880    -6.3040    -1.1540 H     1 <1>   0.1500 
 43 H       -4.7500    -7.3410     1.4330 H     1 <1>   0.1500 
 44 H       -8.4990    -8.5710    -0.1660 H     1 <1>   0.1500 
 45 H       -6.4530    -9.0680     1.1640 H     1 <1>   0.1500 
@<TRIPOS>BOND
  1   1   2  1   
  2   2   3  ar  
  3   2   4  ar  
  4   3   5  ar  
  5   3  25  1   
  6   4   6  ar  
  7   4  26  1   
  8   5   7  ar  
  9   5   8  1   
 10   6   7  ar  
 11   6  27  1   
 12   7   9  1   
 13   8  10  1   
 14   8  28  1   
 15   8  29  1   
 16   9  30  1   
 17   9  31  1   
 18   9  32  1   
 19  10  11  2   
 20  10  12  am  
 21  12  13  1   
 22  12  14  1   
 23  13  15  1   
 24  13  33  1   
 25  13  34  1   
 26  14  16  1   
 27  14  35  1   
 28  14  36  1   
 29  15  16  1   
 30  15  17  1   
 31  15  37  1   
 32  16  18  1   
 33  16  38  1   
 34  17  39  1   
 35  18  19  1   
 36  18  40  1   
 37  18  41  1   
 38  19  20  ar  
 39  19  21  ar  
 40  20  22  ar  
 41  21  23  ar  
 42  21  42  1   
 43  22  24  ar  
 44  22  43  1   
 45  23  24  ar  
 46  23  44  1   
 47  24  45  1   
@<TRIPOS>SUBSTRUCTURE
  1 ****  12 GROUP 4 **** **** 0

# MOE 2024.06 (io_trps.svl 2023.06)
