@<TRIPOS>MOLECULE
NONAME
52 54 1 0 0 
SMALL
USER_CHARGES


@<TRIPOS>ATOM
  1 O       -0.6850    -1.4710    -0.9250 O.2   1 <1>  -0.5700 
  2 C        0.2090    -2.1420    -0.4790 C.2   1 <1>   0.5690 
  3 N       -0.0350    -3.2190     0.2950 N.am  1 <1>  -0.7300 
  4 C        1.6570    -1.7980    -0.7590 C.3   1 <1>  -0.0990 
  5 C        1.0360    -4.0710     0.8500 C.3   1 <1>   0.1400 
  6 C        2.4680    -3.0670    -1.0920 C.3   1 <1>  -0.0800 
  7 C        2.1170    -4.3000    -0.2240 C.3   1 <1>  -0.0800 
  8 C        3.9830    -2.8720    -0.9610 C.3   1 <1>  -0.1600 
  9 C        3.4470    -4.7910     0.3630 C.3   1 <1>  -0.1600 
 10 C        4.5180    -4.2530    -0.5820 C.3   1 <1>   0.2200 
 11 N        5.8610    -4.2350     0.0590 N.am  1 <1>  -0.6600 
 12 C        6.7920    -3.3060    -0.3340 C.2   1 <1>   0.5440 
 13 C        6.3700    -5.5890     0.4180 C.3   1 <1>   0.0600 
 14 O        7.5320    -3.5900    -1.2580 O.2   1 <1>  -0.5700 
 15 C        6.9270    -2.0240     0.3400 C.ar  1 <1>   0.0860 
 16 C        7.6490    -0.9880    -0.2530 C.ar  1 <1>  -0.1500 
 17 C        6.3730    -1.7740     1.5960 C.ar  1 <1>  -0.1500 
 18 C        7.8420     0.2310     0.3770 C.ar  1 <1>  -0.1430 
 19 C        6.5400    -0.5560     2.2280 C.ar  1 <1>  -0.1500 
 20 C        7.2750     0.4470     1.6240 C.ar  1 <1>  -0.1500 
 21 C        8.6740     1.3070    -0.2940 C.3   1 <1>   0.4860 
 22 N       10.0680     1.2250     0.2310 N.4   1 <1>  -0.9590 
 23 C       10.8710     2.4200    -0.1660 C.3   1 <1>   0.2630 
 24 C       10.7480    -0.0430    -0.1870 C.3   1 <1>   0.2630 
 25 H       -1.0100    -3.4360     0.5140 H     1 <1>   0.3700 
 26 H        1.7100    -1.0990    -1.5740 H     1 <1>   0.0800 
 27 H        2.0480    -1.3200     0.1200 H     1 <1>   0.0800 
 28 H        1.4580    -3.5720     1.7060 H     1 <1>   0.0800 
 29 H        0.6270    -5.0150     1.1700 H     1 <1>   0.0800 
 30 H        2.2510    -3.3310    -2.1150 H     1 <1>   0.0800 
 31 H        1.7490    -5.0640    -0.8890 H     1 <1>   0.0800 
 32 H        4.1840    -2.1770    -0.1660 H     1 <1>   0.0800 
 33 H        4.4170    -2.5160    -1.8790 H     1 <1>   0.0800 
 34 H        3.4720    -5.8650     0.4250 H     1 <1>   0.0800 
 35 H        3.5990    -4.3670     1.3400 H     1 <1>   0.0800 
 36 H        4.5550    -4.8670    -1.4670 H     1 <1>   0.0800 
 37 H        5.8430    -5.9660     1.2770 H     1 <1>   0.0800 
 38 H        7.4200    -5.5400     0.6520 H     1 <1>   0.0800 
 39 H        6.2360    -6.2630    -0.4100 H     1 <1>   0.0800 
 40 H        8.0680    -1.1650    -1.2300 H     1 <1>   0.1500 
 41 H        5.8070    -2.5500     2.0830 H     1 <1>   0.1500 
 42 H        6.0960    -0.3920     3.1970 H     1 <1>   0.1500 
 43 H        7.3930     1.3880     2.1360 H     1 <1>   0.1500 
 44 H        8.2490     2.2730    -0.0720 H     1 <1>   0.0800 
 45 H        8.6670     1.1680    -1.3630 H     1 <1>   0.0800 
 46 H        9.9800     1.2010     1.2590 H     1 <1>   0.4500 
 47 H       10.9670     2.4680    -1.2390 H     1 <1>   0.0800 
 48 H       11.8580     2.3670     0.2650 H     1 <1>   0.0800 
 49 H       10.3960     3.3240     0.1800 H     1 <1>   0.0800 
 50 H       10.8090    -0.1020    -1.2620 H     1 <1>   0.0800 
 51 H       10.2000    -0.9000     0.1730 H     1 <1>   0.0800 
 52 H       11.7450    -0.0850     0.2180 H     1 <1>   0.0800 
@<TRIPOS>BOND
  1   1   2  2   
  2   2   3  am  
  3   2   4  1   
  4   3   5  1   
  5   3  25  1   
  6   4   6  1   
  7   4  26  1   
  8   4  27  1   
  9   5   7  1   
 10   5  28  1   
 11   5  29  1   
 12   6   7  1   
 13   6   8  1   
 14   6  30  1   
 15   7   9  1   
 16   7  31  1   
 17   8  10  1   
 18   8  32  1   
 19   8  33  1   
 20   9  10  1   
 21   9  34  1   
 22   9  35  1   
 23  10  11  1   
 24  10  36  1   
 25  11  12  am  
 26  11  13  1   
 27  12  14  2   
 28  12  15  1   
 29  13  37  1   
 30  13  38  1   
 31  13  39  1   
 32  15  16  ar  
 33  15  17  ar  
 34  16  18  ar  
 35  16  40  1   
 36  17  19  ar  
 37  17  41  1   
 38  18  20  ar  
 39  18  21  1   
 40  19  20  ar  
 41  19  42  1   
 42  20  43  1   
 43  21  22  1   
 44  21  44  1   
 45  21  45  1   
 46  22  23  1   
 47  22  24  1   
 48  22  46  1   
 49  23  47  1   
 50  23  48  1   
 51  23  49  1   
 52  24  50  1   
 53  24  51  1   
 54  24  52  1   
@<TRIPOS>SUBSTRUCTURE
  1 ****  15 GROUP 4 **** **** 0

# MOE 2024.06 (io_trps.svl 2023.06)
