@<TRIPOS>MOLECULE
NONAME
53 55 1 0 0 
SMALL
USER_CHARGES


@<TRIPOS>ATOM
  1 O       -0.3220     1.2420    -1.4130 O.2   1 <1>  -0.5700 
  2 C       -0.5050     2.4270    -1.2620 C.2   1 <1>   0.5690 
  3 N       -1.2610     2.9560    -0.2440 N.am  1 <1>  -0.6600 
  4 C        0.1470     3.3700    -2.2710 C.3   1 <1>   0.1810 
  5 C       -1.4210     4.4440    -0.1070 C.3   1 <1>   0.3640 
  6 C       -1.8460     2.1610     0.8740 C.3   1 <1>   0.2200 
  7 O        0.4730     4.6070    -1.6950 O.3   1 <1>  -0.5600 
  8 C       -2.9020     4.8210    -0.1520 C.ar  1 <1>  -0.1440 
  9 C       -0.6420     5.2870    -1.1500 C.3   1 <1>   0.2610 
 10 C       -0.7320     1.5370     1.7130 C.3   1 <1>  -0.2400 
 11 C       -2.8330     1.1110     0.3620 C.3   1 <1>  -0.2400 
 12 C       -3.7530     4.2820    -1.1100 C.ar  1 <1>  -0.1500 
 13 C       -3.4130     5.7240     0.7690 C.ar  1 <1>  -0.1500 
 14 C       -0.2460     6.6280    -0.5130 C.2   1 <1>   0.5690 
 15 C       -5.0910     4.6350    -1.1410 C.ar  1 <1>  -0.1500 
 16 C       -4.7510     6.0780     0.7390 C.ar  1 <1>  -0.1500 
 17 O       -0.9160     7.5890    -0.8180 O.2   1 <1>  -0.5700 
 18 N        0.7910     6.7490     0.3890 N.am  1 <1>  -0.6600 
 19 C       -5.5910     5.5320    -0.2150 C.ar  1 <1>  -0.1500 
 20 C        1.1920     8.0920     0.9060 C.3   1 <1>   0.2840 
 21 C        1.7310     5.6480     0.7560 C.3   1 <1>   0.0600 
 22 C        2.5830     8.4590     0.4070 C.ar  1 <1>  -0.1440 
 23 C        3.6420     8.6020     1.2930 C.ar  1 <1>  -0.1500 
 24 C        2.8000     8.6540    -0.9480 C.ar  1 <1>  -0.1500 
 25 C        4.9020     8.9330     0.8260 C.ar  1 <1>  -0.1500 
 26 C        4.0600     8.9850    -1.4160 C.ar  1 <1>  -0.1500 
 27 C        5.1120     9.1250    -0.5280 C.ar  1 <1>  -0.1500 
 28 H       -0.5150     3.5360    -3.1010 H     1 <1>   0.0800 
 29 H        1.0580     2.9290    -2.6330 H     1 <1>   0.0800 
 30 H       -1.0460     4.7070     0.8670 H     1 <1>   0.0800 
 31 H       -2.4000     2.8260     1.5170 H     1 <1>   0.0800 
 32 H       -1.2980     5.5080    -1.9730 H     1 <1>   0.0800 
 33 H       -0.1860     0.8070     1.1430 H     1 <1>   0.0800 
 34 H       -1.1540     1.0440     2.5700 H     1 <1>   0.0800 
 35 H       -0.0550     2.2970     2.0570 H     1 <1>   0.0800 
 36 H       -2.3340     0.3520    -0.2120 H     1 <1>   0.0800 
 37 H       -3.5900     1.5740    -0.2430 H     1 <1>   0.0800 
 38 H       -3.3150     0.6330     1.1940 H     1 <1>   0.0800 
 39 H       -3.3790     3.5810    -1.8350 H     1 <1>   0.1500 
 40 H       -2.7740     6.1670     1.5140 H     1 <1>   0.1500 
 41 H       -5.7420     4.2100    -1.8840 H     1 <1>   0.1500 
 42 H       -5.1380     6.7810     1.4560 H     1 <1>   0.1500 
 43 H       -6.6310     5.8080    -0.2390 H     1 <1>   0.1500 
 44 H        0.4980     8.8510     0.5880 H     1 <1>   0.0800 
 45 H        1.1760     8.0720     1.9810 H     1 <1>   0.0800 
 46 H        2.1040     5.7960     1.7540 H     1 <1>   0.0800 
 47 H        2.5630     5.6470     0.0710 H     1 <1>   0.0800 
 48 H        1.2490     4.6880     0.7140 H     1 <1>   0.0800 
 49 H        3.4920     8.4560     2.3480 H     1 <1>   0.1500 
 50 H        1.9830     8.5420    -1.6420 H     1 <1>   0.1500 
 51 H        5.7210     9.0440     1.5160 H     1 <1>   0.1500 
 52 H        4.2200     9.1330    -2.4690 H     1 <1>   0.1500 
 53 H        6.0920     9.3830    -0.8910 H     1 <1>   0.1500 
@<TRIPOS>BOND
  1   1   2  2   
  2   2   3  am  
  3   2   4  1   
  4   3   5  1   
  5   3   6  1   
  6   4   7  1   
  7   4  28  1   
  8   4  29  1   
  9   5   8  1   
 10   5   9  1   
 11   5  30  1   
 12   6  10  1   
 13   6  11  1   
 14   6  31  1   
 15   7   9  1   
 16   8  12  ar  
 17   8  13  ar  
 18   9  14  1   
 19   9  32  1   
 20  10  33  1   
 21  10  34  1   
 22  10  35  1   
 23  11  36  1   
 24  11  37  1   
 25  11  38  1   
 26  12  15  ar  
 27  12  39  1   
 28  13  16  ar  
 29  13  40  1   
 30  14  17  2   
 31  14  18  am  
 32  15  19  ar  
 33  15  41  1   
 34  16  19  ar  
 35  16  42  1   
 36  18  20  1   
 37  18  21  1   
 38  19  43  1   
 39  20  22  1   
 40  20  44  1   
 41  20  45  1   
 42  21  46  1   
 43  21  47  1   
 44  21  48  1   
 45  22  23  ar  
 46  22  24  ar  
 47  23  25  ar  
 48  23  49  1   
 49  24  26  ar  
 50  24  50  1   
 51  25  27  ar  
 52  25  51  1   
 53  26  27  ar  
 54  26  52  1   
 55  27  53  1   
@<TRIPOS>SUBSTRUCTURE
  1 ****   9 GROUP 4 **** **** 0

# MOE 2024.06 (io_trps.svl 2023.06)
