@<TRIPOS>MOLECULE
NONAME
48 49 1 0 0 
SMALL
USER_CHARGES


@<TRIPOS>ATOM
  1 S        0.6660    -0.3290     0.1460 S.o2  1 <1>   1.0900 
  2 O        0.6590    -1.0880    -1.0810 O.2   1 <1>  -0.6500 
  3 O        0.3640    -0.9130     1.4310 O.2   1 <1>  -0.6500 
  4 C        2.2210     0.5410     0.2620 C.3   1 <1>  -0.0550 
  5 C       -0.3150     1.1510    -0.0540 C.3   1 <1>  -0.0550 
  6 C        1.9160     2.0220     0.5420 C.3   1 <1>  -0.0800 
  7 C        0.6380     2.3420    -0.2550 C.3   1 <1>  -0.1600 
  8 C        3.1070     2.9280     0.1850 C.3   1 <1>  -0.1600 
  9 C        2.8380     4.3970     0.5330 C.3   1 <1>   0.3430 
 10 N        4.0560     5.2180     0.3150 N.4   1 <1>  -0.9590 
 11 C        3.9520     6.5390     0.9960 C.3   1 <1>   0.4860 
 12 C        4.4070     5.3820    -1.1160 C.3   1 <1>   0.4810 
 13 C        5.3190     7.1880     1.0360 C.ar  1 <1>  -0.1430 
 14 C        5.7860     4.7900    -1.2760 C.2   1 <1>  -0.2880 
 15 C        5.6180     8.2160     0.1480 C.ar  1 <1>   0.0820 
 16 C        6.2720     6.7640     1.9520 C.ar  1 <1>  -0.1500 
 17 C        6.0790     3.6520    -1.9140 C.2   1 <1>  -0.3000 
 18 O        4.6430     8.5910    -0.7200 O.3   1 <1>  -0.3630 
 19 C        6.8790     8.8040     0.1770 C.ar  1 <1>  -0.1500 
 20 C        7.5230     7.3540     1.9750 C.ar  1 <1>  -0.1500 
 21 C        4.7950     9.7320    -1.5410 C.3   1 <1>   0.0400 
 22 C        7.8260     8.3710     1.0880 C.ar  1 <1>  -0.1500 
 23 H        2.7340     0.4530    -0.6780 H     1 <1>   0.0800 
 24 H        2.8420     0.1170     1.0280 H     1 <1>   0.0800 
 25 H       -0.8910     1.3090     0.8390 H     1 <1>   0.0800 
 26 H       -0.9940     1.0560    -0.8810 H     1 <1>   0.0800 
 27 H        1.6940     2.1160     1.5940 H     1 <1>   0.0800 
 28 H        0.1710     3.2570     0.0680 H     1 <1>   0.0800 
 29 H        0.8710     2.4190    -1.3040 H     1 <1>   0.0800 
 30 H        3.3170     2.8300    -0.8650 H     1 <1>   0.0800 
 31 H        3.9690     2.5900     0.7360 H     1 <1>   0.0800 
 32 H        2.5480     4.4550     1.5700 H     1 <1>   0.0800 
 33 H        2.0240     4.7750    -0.0650 H     1 <1>   0.0800 
 34 H        4.8690     4.7420     0.7250 H     1 <1>   0.4500 
 35 H        3.6020     6.4090     2.0070 H     1 <1>   0.0800 
 36 H        3.2540     7.1760     0.4770 H     1 <1>   0.0800 
 37 H        4.4080     6.4190    -1.4090 H     1 <1>   0.0800 
 38 H        3.7080     4.8510    -1.7400 H     1 <1>   0.0800 
 39 H        6.5500     5.4000    -0.8190 H     1 <1>   0.1500 
 40 H        6.0580     5.9810     2.6580 H     1 <1>   0.1500 
 41 H        7.0820     3.2650    -2.0130 H     1 <1>   0.1500 
 42 H        5.3650     3.0080    -2.3990 H     1 <1>   0.1500 
 43 H        7.1470     9.5970    -0.4960 H     1 <1>   0.1500 
 44 H        8.2640     7.0260     2.6850 H     1 <1>   0.1500 
 45 H        3.8810     9.8800    -2.0890 H     1 <1>   0.0800 
 46 H        5.6070     9.5670    -2.2280 H     1 <1>   0.0800 
 47 H        4.9880    10.5890    -0.9200 H     1 <1>   0.0800 
 48 H        8.8020     8.8280     1.1090 H     1 <1>   0.1500 
@<TRIPOS>BOND
  1   1   2  2   
  2   1   3  2   
  3   1   4  1   
  4   1   5  1   
  5   4   6  1   
  6   4  23  1   
  7   4  24  1   
  8   5   7  1   
  9   5  25  1   
 10   5  26  1   
 11   6   7  1   
 12   6   8  1   
 13   6  27  1   
 14   7  28  1   
 15   7  29  1   
 16   8   9  1   
 17   8  30  1   
 18   8  31  1   
 19   9  10  1   
 20   9  32  1   
 21   9  33  1   
 22  10  11  1   
 23  10  12  1   
 24  10  34  1   
 25  11  13  1   
 26  11  35  1   
 27  11  36  1   
 28  12  14  1   
 29  12  37  1   
 30  12  38  1   
 31  13  15  ar  
 32  13  16  ar  
 33  14  17  2   
 34  14  39  1   
 35  15  18  1   
 36  15  19  ar  
 37  16  20  ar  
 38  16  40  1   
 39  17  41  1   
 40  17  42  1   
 41  18  21  1   
 42  19  22  ar  
 43  19  43  1   
 44  20  22  ar  
 45  20  44  1   
 46  21  45  1   
 47  21  46  1   
 48  21  47  1   
 49  22  48  1   
@<TRIPOS>SUBSTRUCTURE
  1 ****  10 GROUP 4 **** **** 0

# MOE 2024.06 (io_trps.svl 2023.06)
