@<TRIPOS>MOLECULE
NONAME
31 33 1 0 0 
SMALL
USER_CHARGES


@<TRIPOS>ATOM
  1 CL       0.0650     1.4860     1.5750 Cl    1 <1>  -0.2900 
  2 C        0.6810     1.7000    -0.0630 C.3   1 <1>   0.2740 
  3 C        2.1840     1.9390    -0.0420 C.ar  1 <1>   0.4760 
  4 N        2.5710     3.2030     0.1030 N.ar  1 <1>  -0.6200 
  5 N        2.9460     0.8690    -0.1850 N.ar  1 <1>  -0.5670 
  6 C        3.8660     3.4240     0.1200 C.ar  1 <1>   0.4100 
  7 C        4.2320     1.1480    -0.1680 C.ar  1 <1>   0.2970 
  8 N        4.2010     4.7230     0.3150 N.pl3 1 <1>  -0.9000 
  9 C        4.7960     2.3950    -0.0310 C.ar  1 <1>   0.0000 
 10 S        5.4780    -0.0920    -0.3240 S.3   1 <1>  -0.0800 
 11 C        6.2410     2.3550    -0.0750 C.2   1 <1>  -0.1810 
 12 C        6.7490     1.1210    -0.2080 C.2   1 <1>  -0.1400 
 13 C        7.1510     3.5710     0.0110 C.3   1 <1>   0.0210 
 14 C        8.2030     0.7070    -0.2750 C.3   1 <1>   0.0200 
 15 C        8.5910     3.2230    -0.4220 C.3   1 <1>  -0.1600 
 16 C        9.0850     1.8880     0.1800 C.3   1 <1>  -0.0800 
 17 C       10.5550     1.6400    -0.1820 C.3   1 <1>  -0.2400 
 18 H        0.1720     2.5410    -0.4930 H     1 <1>   0.0800 
 19 H        0.4480     0.8090    -0.6150 H     1 <1>   0.0800 
 20 H        5.0940     4.9610     0.7420 H     1 <1>   0.4000 
 21 H        3.4300     5.3520     0.5450 H     1 <1>   0.4000 
 22 H        7.1550     3.9290     1.0250 H     1 <1>   0.0800 
 23 H        6.7770     4.3520    -0.6280 H     1 <1>   0.0800 
 24 H        8.4340     0.4290    -1.2880 H     1 <1>   0.0800 
 25 H        8.3720    -0.1430     0.3620 H     1 <1>   0.0800 
 26 H        9.2470     4.0240    -0.1300 H     1 <1>   0.0800 
 27 H        8.6200     3.1500    -1.4950 H     1 <1>   0.0800 
 28 H        9.0110     1.9620     1.2530 H     1 <1>   0.0800 
 29 H       10.6780     1.5760    -1.2490 H     1 <1>   0.0800 
 30 H       10.8980     0.7210     0.2600 H     1 <1>   0.0800 
 31 H       11.1700     2.4420     0.1860 H     1 <1>   0.0800 
@<TRIPOS>BOND
  1   1   2  1   
  2   2   3  1   
  3   2  18  1   
  4   2  19  1   
  5   3   4  ar  
  6   3   5  ar  
  7   4   6  ar  
  8   5   7  ar  
  9   6   8  1   
 10   6   9  ar  
 11   7   9  ar  
 12   7  10  1   
 13   8  20  1   
 14   8  21  1   
 15   9  11  1   
 16  10  12  1   
 17  11  12  2   
 18  11  13  1   
 19  12  14  1   
 20  13  15  1   
 21  13  22  1   
 22  13  23  1   
 23  14  16  1   
 24  14  24  1   
 25  14  25  1   
 26  15  16  1   
 27  15  26  1   
 28  15  27  1   
 29  16  17  1   
 30  16  28  1   
 31  17  29  1   
 32  17  30  1   
 33  17  31  1   
@<TRIPOS>SUBSTRUCTURE
  1 ****   9 GROUP 4 **** **** 0

# MOE 2024.06 (io_trps.svl 2023.06)
