@<TRIPOS>MOLECULE
NONAME
63 65 1 0 0 
SMALL
USER_CHARGES


@<TRIPOS>ATOM
  1 O        0.1310    -0.0010     0.4260 O.3   1 <1>  -0.3630 
  2 C       -0.0890    -1.2320    -0.0750 C.ar  1 <1>   0.0830 
  3 C        0.8440     0.8850    -0.4040 C.3   1 <1>   0.2580 
  4 C        0.6930    -2.3070     0.3310 C.ar  1 <1>  -0.1440 
  5 C       -1.1140    -1.4120    -0.9900 C.ar  1 <1>  -0.1500 
  6 C        1.1350     2.1440     0.3910 C.2   1 <1>  -0.2880 
  7 C        0.4360    -3.5620    -0.1980 C.ar  1 <1>  -0.1500 
  8 C        1.8270    -2.1230     1.3340 C.3   1 <1>   0.1220 
  9 C       -1.3640    -2.6680    -1.5100 C.ar  1 <1>  -0.1500 
 10 C        2.3460     2.6760     0.5840 C.2   1 <1>  -0.3000 
 11 C       -0.5950    -3.7510    -1.1090 C.ar  1 <1>  -0.1430 
 12 C        3.1440    -1.9110     0.6070 C.2   1 <1>  -0.2880 
 13 C       -0.8880    -5.1350    -1.6490 C.3   1 <1>   0.4860 
 14 C        3.9320    -0.8420     0.7510 C.2   1 <1>  -0.3000 
 15 N       -1.5460    -5.9180    -0.5620 N.4   1 <1>  -0.9590 
 16 C       -1.6040    -7.3880    -0.8950 C.3   1 <1>   0.3430 
 17 C       -2.8990    -5.3490    -0.2730 C.3   1 <1>   0.3430 
 18 C       -2.3460    -8.2490     0.1790 C.3   1 <1>   0.4230 
 19 C       -3.5620    -6.1370     0.8610 C.3   1 <1>  -0.1600 
 20 N       -2.3900    -9.7530    -0.0970 N.4   1 <1>  -0.9590 
 21 C       -3.7310    -7.6520     0.5670 C.3   1 <1>   0.0000 
 22 C       -3.3910   -10.4950     0.7460 C.3   1 <1>   0.3430 
 23 C       -2.6010   -10.1310    -1.5370 C.3   1 <1>   0.2630 
 24 C       -4.2170    -8.3470     1.8710 C.3   1 <1>  -0.1600 
 25 C       -4.8270    -7.8440    -0.5230 C.3   1 <1>   0.1200 
 26 C       -3.6500    -9.7690     2.0670 C.3   1 <1>  -0.1600 
 27 O       -4.3720    -7.4740    -1.7800 O.3   1 <1>  -0.6800 
 28 H        1.7550     0.4060    -0.7160 H     1 <1>   0.0800 
 29 H        0.2380     1.1100    -1.2630 H     1 <1>   0.0800 
 30 H       -1.7100    -0.5670    -1.2860 H     1 <1>   0.1500 
 31 H        0.2380     2.5780     0.7990 H     1 <1>   0.1500 
 32 H        1.0580    -4.3850     0.1080 H     1 <1>   0.1500 
 33 H        1.6260    -1.2870     1.9820 H     1 <1>   0.0800 
 34 H        1.9060    -2.9940     1.9590 H     1 <1>   0.0800 
 35 H       -2.1620    -2.7810    -2.2250 H     1 <1>   0.1500 
 36 H        2.5230     3.5700     1.1560 H     1 <1>   0.1500 
 37 H        3.2600     2.2660     0.1900 H     1 <1>   0.1500 
 38 H        3.3930    -2.7240    -0.0530 H     1 <1>   0.1500 
 39 H        0.0400    -5.6010    -1.9420 H     1 <1>   0.0800 
 40 H       -1.5290    -5.0710    -2.5140 H     1 <1>   0.0800 
 41 H        4.8640    -0.7060     0.2290 H     1 <1>   0.1500 
 42 H        3.7120    -0.0120     1.4030 H     1 <1>   0.1500 
 43 H       -0.9690    -5.7450     0.2730 H     1 <1>   0.4500 
 44 H       -2.1080    -7.5050    -1.8390 H     1 <1>   0.0800 
 45 H       -0.6000    -7.7630    -1.0050 H     1 <1>   0.0800 
 46 H       -2.8090    -4.3140     0.0190 H     1 <1>   0.0800 
 47 H       -3.5160    -5.3910    -1.1570 H     1 <1>   0.0800 
 48 H       -1.7500    -8.1390     1.0690 H     1 <1>   0.0800 
 49 H       -2.9720    -5.9870     1.7500 H     1 <1>   0.0800 
 50 H       -4.5260    -5.6980     1.0570 H     1 <1>   0.0800 
 51 H       -1.4730   -10.1360     0.1810 H     1 <1>   0.4500 
 52 H       -4.3250   -10.5800     0.2160 H     1 <1>   0.0800 
 53 H       -3.0360   -11.4950     0.9440 H     1 <1>   0.0800 
 54 H       -3.5470    -9.7560    -1.8930 H     1 <1>   0.0800 
 55 H       -2.6000   -11.2040    -1.6450 H     1 <1>   0.0800 
 56 H       -1.8170    -9.7310    -2.1580 H     1 <1>   0.0800 
 57 H       -3.9410    -7.7750     2.7410 H     1 <1>   0.0800 
 58 H       -5.2940    -8.3920     1.8800 H     1 <1>   0.0800 
 59 H       -5.6930    -7.2440    -0.2930 H     1 <1>   0.0800 
 60 H       -5.1480    -8.8690    -0.5840 H     1 <1>   0.0800 
 61 H       -4.3460   -10.3460     2.6540 H     1 <1>   0.0800 
 62 H       -2.7330    -9.7290     2.6300 H     1 <1>   0.0800 
 63 H       -5.1240    -7.4480    -2.4180 H     1 <1>   0.4000 
@<TRIPOS>BOND
  1   1   2  1   
  2   1   3  1   
  3   2   4  ar  
  4   2   5  ar  
  5   3   6  1   
  6   3  28  1   
  7   3  29  1   
  8   4   7  ar  
  9   4   8  1   
 10   5   9  ar  
 11   5  30  1   
 12   6  10  2   
 13   6  31  1   
 14   7  11  ar  
 15   7  32  1   
 16   8  12  1   
 17   8  33  1   
 18   8  34  1   
 19   9  11  ar  
 20   9  35  1   
 21  10  36  1   
 22  10  37  1   
 23  11  13  1   
 24  12  14  2   
 25  12  38  1   
 26  13  15  1   
 27  13  39  1   
 28  13  40  1   
 29  14  41  1   
 30  14  42  1   
 31  15  16  1   
 32  15  17  1   
 33  15  43  1   
 34  16  18  1   
 35  16  44  1   
 36  16  45  1   
 37  17  19  1   
 38  17  46  1   
 39  17  47  1   
 40  18  20  1   
 41  18  21  1   
 42  18  48  1   
 43  19  21  1   
 44  19  49  1   
 45  19  50  1   
 46  20  22  1   
 47  20  23  1   
 48  20  51  1   
 49  21  24  1   
 50  21  25  1   
 51  22  26  1   
 52  22  52  1   
 53  22  53  1   
 54  23  54  1   
 55  23  55  1   
 56  23  56  1   
 57  24  26  1   
 58  24  57  1   
 59  24  58  1   
 60  25  27  1   
 61  25  59  1   
 62  25  60  1   
 63  26  61  1   
 64  26  62  1   
 65  27  63  1   
@<TRIPOS>SUBSTRUCTURE
  1 ****  11 GROUP 4 **** **** 0

# MOE 2024.06 (io_trps.svl 2023.06)
