@<TRIPOS>MOLECULE
NONAME
54 56 1 0 0 
SMALL
USER_CHARGES


@<TRIPOS>ATOM
  1 S        0.9380    -0.0400    -0.4740 S.o2  1 <1>   1.3330 
  2 O        1.3430    -0.1850    -1.8520 O.2   1 <1>  -0.6500 
  3 O        1.9240     0.3270     0.5180 O.2   1 <1>  -0.6500 
  4 N        0.1170    -1.4330     0.0310 N.am  1 <1>  -0.8490 
  5 C       -0.3060     1.2460    -0.4040 C.3   1 <1>  -0.0550 
  6 C        1.0040    -2.3970     0.6900 C.3   1 <1>   0.1160 
  7 C       -0.6220    -2.0990    -1.0480 C.3   1 <1>   0.1160 
  8 C        0.2370     2.6110    -0.8880 C.3   1 <1>  -0.0800 
  9 C       -0.7390     3.7810    -0.7640 C.3   1 <1>   0.2000 
 10 C        1.4840     3.0960    -0.1420 C.3   1 <1>   0.3430 
 11 O       -1.3960     3.7200     0.4610 O.3   1 <1>  -0.6800 
 12 C        0.1600     5.0220    -0.7990 C.3   1 <1>   0.3430 
 13 N        1.5080     4.5730    -0.3210 N.4   1 <1>  -0.9590 
 14 C        2.0120     5.3240     0.8560 C.3   1 <1>   0.4860 
 15 C        2.1320     6.7810     0.4650 C.ar  1 <1>  -0.1430 
 16 C        2.9970     7.1580    -0.5630 C.ar  1 <1>   0.0820 
 17 C        1.3740     7.7360     1.1280 C.ar  1 <1>  -0.1500 
 18 O        3.7070     6.1740    -1.1800 O.3   1 <1>  -0.3630 
 19 C        3.0980     8.5000    -0.9260 C.ar  1 <1>  -0.1500 
 20 C        1.4850     9.0610     0.7530 C.ar  1 <1>  -0.1430 
 21 C        4.7820     6.4890    -2.0440 C.3   1 <1>   0.0400 
 22 C        2.3330     9.4360    -0.2580 C.ar  1 <1>  -0.1430 
 23 C        0.7630    10.2530     1.3330 C.3   1 <1>  -0.0170 
 24 C        2.2880    10.9270    -0.4870 C.3   1 <1>  -0.0170 
 25 C        1.0610    11.3760     0.3240 C.3   1 <1>  -0.1600 
 26 H       -1.1410     0.9670    -1.0170 H     1 <1>   0.0800 
 27 H       -0.6580     1.3200     0.6070 H     1 <1>   0.0800 
 28 H        0.4440    -3.2540     1.0220 H     1 <1>   0.0800 
 29 H        1.4670    -1.9450     1.5520 H     1 <1>   0.0800 
 30 H        1.7780    -2.7200     0.0130 H     1 <1>   0.0800 
 31 H       -1.1880    -2.9260    -0.6540 H     1 <1>   0.0800 
 32 H        0.0580    -2.4670    -1.8000 H     1 <1>   0.0800 
 33 H       -1.3080    -1.4110    -1.5110 H     1 <1>   0.0800 
 34 H        0.5090     2.5100    -1.9250 H     1 <1>   0.0800 
 35 H       -1.4850     3.7950    -1.5410 H     1 <1>   0.0800 
 36 H        2.3810     2.6340    -0.5270 H     1 <1>   0.0800 
 37 H        1.3930     2.8520     0.9050 H     1 <1>   0.0800 
 38 H       -0.7860     3.7130     1.2230 H     1 <1>   0.4000 
 39 H       -0.2500     5.8120    -0.1910 H     1 <1>   0.0800 
 40 H        0.2440     5.3730    -1.8150 H     1 <1>   0.0800 
 41 H        2.1940     4.8200    -1.0570 H     1 <1>   0.4500 
 42 H        1.3400     5.2160     1.6910 H     1 <1>   0.0800 
 43 H        2.9850     4.9550     1.1410 H     1 <1>   0.0800 
 44 H        0.7030     7.4720     1.9280 H     1 <1>   0.1500 
 45 H        3.7490     8.8330    -1.7120 H     1 <1>   0.1500 
 46 H        5.2650     5.5720    -2.3320 H     1 <1>   0.0800 
 47 H        5.4810     7.1180    -1.5210 H     1 <1>   0.0800 
 48 H        4.3990     6.9870    -2.9170 H     1 <1>   0.0800 
 49 H       -0.2940    10.0760     1.4230 H     1 <1>   0.0800 
 50 H        1.1790    10.4910     2.2960 H     1 <1>   0.0800 
 51 H        3.1850    11.3770    -0.0980 H     1 <1>   0.0800 
 52 H        2.1810    11.1670    -1.5300 H     1 <1>   0.0800 
 53 H        1.2290    12.3190     0.8140 H     1 <1>   0.0800 
 54 H        0.2220    11.4740    -0.3430 H     1 <1>   0.0800 
@<TRIPOS>BOND
  1   1   2  2   
  2   1   3  2   
  3   1   4  am  
  4   1   5  1   
  5   4   6  1   
  6   4   7  1   
  7   5   8  1   
  8   5  26  1   
  9   5  27  1   
 10   6  28  1   
 11   6  29  1   
 12   6  30  1   
 13   7  31  1   
 14   7  32  1   
 15   7  33  1   
 16   8   9  1   
 17   8  10  1   
 18   8  34  1   
 19   9  11  1   
 20   9  12  1   
 21   9  35  1   
 22  10  13  1   
 23  10  36  1   
 24  10  37  1   
 25  11  38  1   
 26  12  13  1   
 27  12  39  1   
 28  12  40  1   
 29  13  14  1   
 30  13  41  1   
 31  14  15  1   
 32  14  42  1   
 33  14  43  1   
 34  15  16  ar  
 35  15  17  ar  
 36  16  18  1   
 37  16  19  ar  
 38  17  20  ar  
 39  17  44  1   
 40  18  21  1   
 41  19  22  ar  
 42  19  45  1   
 43  20  22  ar  
 44  20  23  1   
 45  21  46  1   
 46  21  47  1   
 47  21  48  1   
 48  22  24  1   
 49  23  25  1   
 50  23  49  1   
 51  23  50  1   
 52  24  25  1   
 53  24  51  1   
 54  24  52  1   
 55  25  53  1   
 56  25  54  1   
@<TRIPOS>SUBSTRUCTURE
  1 ****  13 GROUP 4 **** **** 0

# MOE 2024.06 (io_trps.svl 2023.06)
