@<TRIPOS>MOLECULE
NONAME
52 55 1 0 0 
SMALL
USER_CHARGES


@<TRIPOS>ATOM
  1 O       -2.6720     0.5830     0.3790 O.2   1 <1>  -0.5700 
  2 C       -2.7470     1.4630    -0.4620 C.2   1 <1>   0.5440 
  3 N       -3.7620     1.3350    -1.3770 N.am  1 <1>  -0.6600 
  4 C       -1.8360     2.5980    -0.4660 C.ar  1 <1>   0.0860 
  5 C       -5.1210     1.8000    -0.9540 C.3   1 <1>   0.1400 
  6 C       -3.8160     0.0690    -2.1810 C.3   1 <1>   0.1400 
  7 C       -0.8900     2.7660     0.5470 C.ar  1 <1>  -0.1500 
  8 C       -1.8650     3.5620    -1.4760 C.ar  1 <1>  -0.1500 
  9 C       -5.8610     0.7240    -0.1090 C.3   1 <1>   0.4230 
 10 C       -4.7770    -0.9790    -1.5670 C.3   1 <1>   0.3430 
 11 C       -0.0090     3.8410     0.5680 C.ar  1 <1>  -0.0230 
 12 C       -0.9980     4.6380    -1.4710 C.ar  1 <1>  -0.1500 
 13 N       -5.1570    -0.6140    -0.1570 N.4   1 <1>  -0.9590 
 14 C       -7.3390     0.5860    -0.5370 C.3   1 <1>   0.1200 
 15 N        0.9420     3.9810     1.6140 N.pl3 1 <1>   0.3260 
 16 C       -0.0730     4.7790    -0.4550 C.ar  1 <1>  -0.1500 
 17 C       -5.9290    -1.6400     0.6140 C.3   1 <1>   0.4230 
 18 O       -7.9820    -0.4060     0.2120 O.3   1 <1>  -0.5600 
 19 C        1.2510     5.0640     2.3400 C.2   1 <1>   0.0360 
 20 C        1.7730     3.0670     2.1340 C.2   1 <1>   0.0360 
 21 C       -7.4040    -1.6820     0.1480 C.3   1 <1>   0.1200 
 22 C       -5.2330    -3.0090     0.5430 C.3   1 <1>  -0.1600 
 23 N        2.1710     4.8310     3.2090 N.2   1 <1>  -0.3380 
 24 N        2.5070     3.5470     3.0770 N.2   1 <1>  -0.3380 
 25 C       -5.7710    -3.9960     1.5910 C.3   1 <1>  -0.1600 
 26 C       -4.9990    -5.3170     1.5420 C.3   1 <1>  -0.2400 
 27 H       -5.0320     2.7030    -0.3730 H     1 <1>   0.0800 
 28 H       -5.6930     2.0440    -1.8330 H     1 <1>   0.0800 
 29 H       -4.1190     0.2930    -3.1890 H     1 <1>   0.0800 
 30 H       -2.8280    -0.3570    -2.2330 H     1 <1>   0.0800 
 31 H       -0.8480     2.0370     1.3390 H     1 <1>   0.1500 
 32 H       -2.5720     3.4720    -2.2820 H     1 <1>   0.1500 
 33 H       -5.8620     1.0670     0.9120 H     1 <1>   0.0800 
 34 H       -4.2890    -1.9400    -1.5870 H     1 <1>   0.0800 
 35 H       -5.6620    -1.0500    -2.1760 H     1 <1>   0.0800 
 36 H       -1.0390     5.3680    -2.2630 H     1 <1>   0.1500 
 37 H       -4.2460    -0.4410     0.3200 H     1 <1>   0.4500 
 38 H       -7.4250     0.3360    -1.5800 H     1 <1>   0.0800 
 39 H       -7.8630     1.5100    -0.3640 H     1 <1>   0.0800 
 40 H        0.6010     5.6190    -0.4660 H     1 <1>   0.1500 
 41 H       -5.9370    -1.3410     1.6500 H     1 <1>   0.0800 
 42 H        0.7660     6.0110     2.1960 H     1 <1>   0.1500 
 43 H        1.8080     2.0530     1.7840 H     1 <1>   0.1500 
 44 H       -7.9800    -2.3240     0.7910 H     1 <1>   0.0800 
 45 H       -7.4860    -2.0500    -0.8600 H     1 <1>   0.0800 
 46 H       -5.3620    -3.4430    -0.4340 H     1 <1>   0.0800 
 47 H       -4.1810    -2.8740     0.7240 H     1 <1>   0.0800 
 48 H       -5.6740    -3.5740     2.5780 H     1 <1>   0.0800 
 49 H       -6.8140    -4.2040     1.4180 H     1 <1>   0.0800 
 50 H       -3.9540    -5.1560     1.7470 H     1 <1>   0.0800 
 51 H       -5.0950    -5.7810     0.5760 H     1 <1>   0.0800 
 52 H       -5.3850    -5.9960     2.2820 H     1 <1>   0.0800 
@<TRIPOS>BOND
  1   1   2  2   
  2   2   3  am  
  3   2   4  1   
  4   3   5  1   
  5   3   6  1   
  6   4   7  ar  
  7   4   8  ar  
  8   5   9  1   
  9   5  27  1   
 10   5  28  1   
 11   6  10  1   
 12   6  29  1   
 13   6  30  1   
 14   7  11  ar  
 15   7  31  1   
 16   8  12  ar  
 17   8  32  1   
 18   9  13  1   
 19   9  14  1   
 20   9  33  1   
 21  10  13  1   
 22  10  34  1   
 23  10  35  1   
 24  11  15  1   
 25  11  16  ar  
 26  12  16  ar  
 27  12  36  1   
 28  13  17  1   
 29  13  37  1   
 30  14  18  1   
 31  14  38  1   
 32  14  39  1   
 33  15  19  1   
 34  15  20  1   
 35  16  40  1   
 36  17  21  1   
 37  17  22  1   
 38  17  41  1   
 39  18  21  1   
 40  19  23  2   
 41  19  42  1   
 42  20  24  2   
 43  20  43  1   
 44  21  44  1   
 45  21  45  1   
 46  22  25  1   
 47  22  46  1   
 48  22  47  1   
 49  23  24  1   
 50  25  26  1   
 51  25  48  1   
 52  25  49  1   
 53  26  50  1   
 54  26  51  1   
 55  26  52  1   
@<TRIPOS>SUBSTRUCTURE
  1 ****   1 GROUP 4 **** **** 0

# MOE 2024.06 (io_trps.svl 2023.06)
