@<TRIPOS>MOLECULE
NONAME
54 57 1 0 0 
SMALL
USER_CHARGES


@<TRIPOS>ATOM
  1 O       -0.0240     0.1350    -1.4860 O.2   1 <1>  -0.5700 
  2 C       -0.5150     1.2310    -1.3440 C.2   1 <1>   0.5690 
  3 N       -1.8350     1.3830    -0.9940 N.am  1 <1>  -0.6600 
  4 C        0.3900     2.4370    -1.5610 C.3   1 <1>  -0.0990 
  5 C       -2.5990     2.6710    -0.9650 C.3   1 <1>   0.1400 
  6 C       -2.6480     0.2230    -0.5320 C.3   1 <1>   0.1400 
  7 C        1.8110     2.2050    -1.0320 C.3   1 <1>  -0.0160 
  8 C       -3.0580     2.9970     0.4690 C.3   1 <1>   0.1440 
  9 C       -3.1440     0.4820     0.8980 C.3   1 <1>  -0.1600 
 10 C        2.6080     3.5030    -1.0800 C.ar  1 <1>  -0.1440 
 11 C       -3.8250     4.3060     0.4340 C.ar  1 <1>   0.1660 
 12 C       -3.8980     1.8210     1.0160 C.3   1 <1>  -0.1600 
 13 C       -1.8640     3.3450     1.3990 C.3   1 <1>  -0.1600 
 14 C        2.5160     4.4490    -0.0600 C.ar  1 <1>   0.0820 
 15 C        3.4390     3.7450    -2.1630 C.ar  1 <1>  -0.1500 
 16 N       -5.0450     4.4670    -0.0300 N.ar  1 <1>  -0.6200 
 17 C       -3.0810     5.3340     0.9310 C.ar  1 <1>  -0.1440 
 18 C       -1.7150     4.8750     1.3750 C.3   1 <1>  -0.0170 
 19 O        1.6890     4.1860     0.9880 O.3   1 <1>  -0.3620 
 20 C        3.2600     5.6240    -0.1410 C.ar  1 <1>  -0.1500 
 21 C        4.1770     4.9130    -2.2370 C.ar  1 <1>  -0.1500 
 22 C       -5.4970     5.7110     0.0390 C.ar  1 <1>   0.4770 
 23 C       -3.6480     6.5840     0.9510 C.ar  1 <1>   0.1600 
 24 C        1.8570     4.8430     2.2250 C.3   1 <1>   0.0400 
 25 C        4.0870     5.8530    -1.2260 C.ar  1 <1>  -0.1500 
 26 N       -4.8700     6.7840     0.5040 N.ar  1 <1>  -0.6200 
 27 C       -6.9000     5.9380    -0.4700 C.3   1 <1>  -0.0970 
 28 H        0.0030     3.2940    -1.0510 H     1 <1>   0.0800 
 29 H        0.4270     2.6570    -2.6110 H     1 <1>   0.0800 
 30 H       -3.4700     2.5630    -1.5890 H     1 <1>   0.0800 
 31 H       -2.0290     3.4860    -1.3680 H     1 <1>   0.0800 
 32 H       -2.0680    -0.6840    -0.5520 H     1 <1>   0.0800 
 33 H       -3.4860     0.0960    -1.1960 H     1 <1>   0.0800 
 34 H        2.2980     1.4460    -1.6200 H     1 <1>   0.0800 
 35 H        1.7660     1.8440    -0.0190 H     1 <1>   0.0800 
 36 H       -2.2980     0.4760     1.5620 H     1 <1>   0.0800 
 37 H       -3.7940    -0.3220     1.1950 H     1 <1>   0.0800 
 38 H       -4.8090     1.7530     0.4470 H     1 <1>   0.0800 
 39 H       -4.1730     2.0060     2.0390 H     1 <1>   0.0800 
 40 H       -0.9520     2.8480     1.1220 H     1 <1>   0.0800 
 41 H       -2.1050     3.0530     2.4060 H     1 <1>   0.0800 
 42 H        3.5170     3.0220    -2.9560 H     1 <1>   0.1500 
 43 H       -0.9760     5.1730     0.6500 H     1 <1>   0.0800 
 44 H       -1.4560     5.2630     2.3450 H     1 <1>   0.0800 
 45 H        3.2040     6.3720     0.6250 H     1 <1>   0.1500 
 46 H        4.8200     5.0900    -3.0810 H     1 <1>   0.1500 
 47 H       -3.0990     7.4270     1.3350 H     1 <1>   0.1500 
 48 H        1.2250     4.3610     2.9480 H     1 <1>   0.0800 
 49 H        1.5700     5.8730     2.1160 H     1 <1>   0.0800 
 50 H        2.8870     4.7600     2.5270 H     1 <1>   0.0800 
 51 H        4.6610     6.7610    -1.2850 H     1 <1>   0.1500 
 52 H       -7.1690     5.1720    -1.1740 H     1 <1>   0.0800 
 53 H       -6.9640     6.8940    -0.9550 H     1 <1>   0.0800 
 54 H       -7.5840     5.9140     0.3560 H     1 <1>   0.0800 
@<TRIPOS>BOND
  1   1   2  2   
  2   2   3  am  
  3   2   4  1   
  4   3   5  1   
  5   3   6  1   
  6   4   7  1   
  7   4  28  1   
  8   4  29  1   
  9   5   8  1   
 10   5  30  1   
 11   5  31  1   
 12   6   9  1   
 13   6  32  1   
 14   6  33  1   
 15   7  10  1   
 16   7  34  1   
 17   7  35  1   
 18   8  11  1   
 19   8  12  1   
 20   8  13  1   
 21   9  12  1   
 22   9  36  1   
 23   9  37  1   
 24  10  14  ar  
 25  10  15  ar  
 26  11  16  ar  
 27  11  17  ar  
 28  12  38  1   
 29  12  39  1   
 30  13  18  1   
 31  13  40  1   
 32  13  41  1   
 33  14  19  1   
 34  14  20  ar  
 35  15  21  ar  
 36  15  42  1   
 37  16  22  ar  
 38  17  18  1   
 39  17  23  ar  
 40  18  43  1   
 41  18  44  1   
 42  19  24  1   
 43  20  25  ar  
 44  20  45  1   
 45  21  25  ar  
 46  21  46  1   
 47  22  26  ar  
 48  22  27  1   
 49  23  26  ar  
 50  23  47  1   
 51  24  48  1   
 52  24  49  1   
 53  24  50  1   
 54  25  51  1   
 55  27  52  1   
 56  27  53  1   
 57  27  54  1   
@<TRIPOS>SUBSTRUCTURE
  1 ****  13 GROUP 4 **** **** 0

# MOE 2024.06 (io_trps.svl 2023.06)
