@<TRIPOS>MOLECULE
NONAME
33 34 1 0 0 
SMALL
USER_CHARGES


@<TRIPOS>ATOM
  1 S       -0.2490     0.5860     2.0430 S.o2  1 <1>   1.4470 
  2 O        0.3700    -0.2200     3.0750 O.2   1 <1>  -0.6500 
  3 O       -0.7860     1.8780     2.4130 O.2   1 <1>  -0.6500 
  4 N       -1.5140    -0.3480     1.4120 N.am  1 <1>  -0.8490 
  5 C        0.9500     0.7550     0.6920 C.ar  1 <1>  -0.0090 
  6 C       -1.1250    -1.7490     1.1210 C.3   1 <1>   0.1960 
  7 C       -2.2780     0.2940     0.3410 C.3   1 <1>   0.1960 
  8 C        0.8000     1.6910    -0.3210 C.ar  1 <1>   0.1900 
  9 C        2.0710    -0.0680     0.6140 C.ar  1 <1>  -0.1500 
 10 C       -2.0120    -2.4690     0.0830 C.3   1 <1>   0.2000 
 11 C       -3.5900    -0.4600     0.0730 C.3   1 <1>  -0.1600 
 12 F       -0.2250     2.5000    -0.3180 F     1 <1>  -0.1900 
 13 C        1.6950     1.8250    -1.3670 C.ar  1 <1>  -0.1500 
 14 C        2.9840     0.0460    -0.4240 C.ar  1 <1>  -0.1500 
 15 O       -1.5410    -2.1920    -1.1930 O.3   1 <1>  -0.6800 
 16 C       -3.4670    -2.0020     0.1790 C.3   1 <1>  -0.1860 
 17 C        2.7980     0.9920    -1.4170 C.ar  1 <1>  -0.1500 
 18 C       -4.3230    -2.7370    -0.8330 C.2   1 <1>   0.9060 
 19 O       -5.3170    -3.3510    -0.4400 O.co2 1 <1>  -0.9000 
 20 O       -3.9750    -2.7160    -2.0220 O.co2 1 <1>  -0.9000 
 21 H       -0.1070    -1.8020     0.7780 H     1 <1>   0.0800 
 22 H       -1.1810    -2.2950     2.0470 H     1 <1>   0.0800 
 23 H       -2.5110     1.3120     0.6080 H     1 <1>   0.0800 
 24 H       -1.6900     0.3090    -0.5610 H     1 <1>   0.0800 
 25 H        2.2350    -0.8110     1.3780 H     1 <1>   0.1500 
 26 H       -1.9530    -3.5350     0.2150 H     1 <1>   0.0800 
 27 H       -4.3430    -0.1230     0.7620 H     1 <1>   0.0800 
 28 H       -3.9240    -0.1960    -0.9150 H     1 <1>   0.0800 
 29 H        1.5280     2.5680    -2.1270 H     1 <1>   0.1500 
 30 H        3.8420    -0.6050    -0.4580 H     1 <1>   0.1500 
 31 H       -2.3160    -2.3810    -1.8060 H     1 <1>   0.4000 
 32 H       -3.8230    -2.2890     1.1500 H     1 <1>   0.0800 
 33 H        3.5070     1.0780    -2.2230 H     1 <1>   0.1500 
@<TRIPOS>BOND
  1   1   2  2   
  2   1   3  2   
  3   1   4  am  
  4   1   5  1   
  5   4   6  1   
  6   4   7  1   
  7   5   8  ar  
  8   5   9  ar  
  9   6  10  1   
 10   6  21  1   
 11   6  22  1   
 12   7  11  1   
 13   7  23  1   
 14   7  24  1   
 15   8  12  1   
 16   8  13  ar  
 17   9  14  ar  
 18   9  25  1   
 19  10  15  1   
 20  10  16  1   
 21  10  26  1   
 22  11  16  1   
 23  11  27  1   
 24  11  28  1   
 25  13  17  ar  
 26  13  29  1   
 27  14  17  ar  
 28  14  30  1   
 29  15  31  1   
 30  16  18  1   
 31  16  32  1   
 32  17  33  1   
 33  18  19  ar  
 34  18  20  ar  
@<TRIPOS>SUBSTRUCTURE
  1 ****   4 GROUP 4 **** **** 0

# MOE 2024.06 (io_trps.svl 2023.06)
