@<TRIPOS>MOLECULE
NONAME
39 41 1 0 0 
SMALL
USER_CHARGES


@<TRIPOS>ATOM
  1 O        0.7670     0.4810     0.3330 O.co2 1 <1>  -0.9000 
  2 C        0.2140     1.4430    -0.2400 C.2   1 <1>   1.0330 
  3 O       -0.7560     1.2010    -0.9840 O.co2 1 <1>  -0.9000 
  4 C        0.7200     2.7960    -0.0020 C.2   1 <1>  -0.0060 
  5 N        0.2800     3.9890    -0.5320 N.2   1 <1>  -0.5650 
  6 C        1.7470     3.0930     0.8210 C.2   1 <1>  -0.0100 
  7 C        1.0530     4.8680    -0.0080 C.2   1 <1>   0.2980 
  8 O        1.9470     4.3790     0.8190 O.3   1 <1>  -0.2800 
  9 C        0.9790     6.3750    -0.2370 C.3   1 <1>   0.2900 
 10 N        2.2010     6.9540    -0.8400 N.3   1 <1>  -0.6890 
 11 C        2.1750     8.4420    -0.8350 C.3   1 <1>   0.2100 
 12 C        3.3410     6.9960     0.1200 C.3   1 <1>   0.2100 
 13 C        3.6650     8.3980    -0.4340 C.3   1 <1>   0.2580 
 14 O        3.9710     9.3090     0.6060 O.3   1 <1>  -0.3400 
 15 C        4.5660    10.4630     0.2300 C.ar  1 <1>   0.0830 
 16 C        5.9280    10.4800    -0.0730 C.ar  1 <1>  -0.1440 
 17 C        3.8090    11.6320     0.1640 C.ar  1 <1>  -0.1440 
 18 C        6.5120    11.6670    -0.4820 C.ar  1 <1>  -0.1500 
 19 C        6.7960     9.2340     0.0450 C.3   1 <1>  -0.0960 
 20 C        4.4160    12.8070    -0.2470 C.ar  1 <1>  -0.1500 
 21 C        2.3330    11.6520     0.5330 C.3   1 <1>  -0.0970 
 22 C        5.7610    12.8250    -0.5730 C.ar  1 <1>  -0.1500 
 23 H        2.3550     2.4380     1.4190 H     1 <1>   0.1500 
 24 H        0.7690     6.8460     0.7060 H     1 <1>   0.0800 
 25 H        0.1510     6.5650    -0.8960 H     1 <1>   0.0800 
 26 H        1.5330     8.8350    -0.0660 H     1 <1>   0.0000 
 27 H        1.9940     8.8370    -1.8190 H     1 <1>   0.0000 
 28 H        4.0790     6.2490    -0.1100 H     1 <1>   0.0000 
 29 H        3.0130     7.0060     1.1460 H     1 <1>   0.0000 
 30 H        4.3710     8.4200    -1.2460 H     1 <1>   0.0000 
 31 H        7.5590    11.6990    -0.7290 H     1 <1>   0.1500 
 32 H        6.4880     8.6410     0.8880 H     1 <1>   0.0800 
 33 H        7.8270     9.5030     0.1860 H     1 <1>   0.0800 
 34 H        6.7130     8.6420    -0.8480 H     1 <1>   0.0800 
 35 H        3.8470    13.7170    -0.3140 H     1 <1>   0.1500 
 36 H        2.1420    10.9900     1.3580 H     1 <1>   0.0800 
 37 H        1.7420    11.3450    -0.3100 H     1 <1>   0.0800 
 38 H        2.0300    12.6420     0.8230 H     1 <1>   0.0800 
 39 H        6.2230    13.7420    -0.8930 H     1 <1>   0.1500 
@<TRIPOS>BOND
  1   1   2  ar  
  2   2   3  ar  
  3   2   4  1   
  4   4   5  1   
  5   4   6  2   
  6   5   7  2   
  7   6   8  1   
  8   6  23  1   
  9   7   8  1   
 10   7   9  1   
 11   9  10  1   
 12   9  24  1   
 13   9  25  1   
 14  10  11  1   
 15  10  12  1   
 16  11  13  1   
 17  11  26  1   
 18  11  27  1   
 19  12  13  1   
 20  12  28  1   
 21  12  29  1   
 22  13  14  1   
 23  13  30  1   
 24  14  15  1   
 25  15  16  ar  
 26  15  17  ar  
 27  16  18  ar  
 28  16  19  1   
 29  17  20  ar  
 30  17  21  1   
 31  18  22  ar  
 32  18  31  1   
 33  19  32  1   
 34  19  33  1   
 35  19  34  1   
 36  20  22  ar  
 37  20  35  1   
 38  21  36  1   
 39  21  37  1   
 40  21  38  1   
 41  22  39  1   
@<TRIPOS>SUBSTRUCTURE
  1 ****  12 GROUP 4 **** **** 0

# MOE 2024.06 (io_trps.svl 2023.06)
