@<TRIPOS>MOLECULE
NONAME
55 58 1 0 0 
SMALL
USER_CHARGES


@<TRIPOS>ATOM
  1 O       -0.2390     1.5050    -1.7210 O.2   1 <1>  -0.5700 
  2 C       -0.5160     2.6500    -1.4480 C.2   1 <1>   0.5690 
  3 N       -1.2710     3.0080    -0.3630 N.am  1 <1>  -0.5090 
  4 C       -0.0200     3.7500    -2.3810 C.3   1 <1>   0.1810 
  5 C       -1.7690     4.4120    -0.1990 C.3   1 <1>   0.3640 
  6 C       -1.7820     2.0300     0.6250 C.3   1 <1>   0.0490 
  7 O        0.1330     4.9700    -1.7040 O.3   1 <1>  -0.5600 
  8 C       -3.2810     4.4520    -0.4450 C.ar  1 <1>  -0.1440 
  9 C       -1.0600     5.4590    -1.1020 C.3   1 <1>   0.2610 
 10 C       -1.4050     2.2080     2.0630 C.3   1 <1>  -0.2000 
 11 C       -0.8370     1.0710     1.2770 C.3   1 <1>  -0.2000 
 12 C       -4.0900     5.2140     0.3880 C.ar  1 <1>  -0.1500 
 13 C       -3.8710     3.7510    -1.4900 C.ar  1 <1>  -0.1500 
 14 C       -0.7610     6.7200    -0.2820 C.2   1 <1>   0.5690 
 15 C       -5.4570     5.2770     0.1860 C.ar  1 <1>  -0.1500 
 16 C       -5.2380     3.8110    -1.6940 C.ar  1 <1>  -0.1500 
 17 O       -1.6620     7.2750     0.3020 O.2   1 <1>  -0.5700 
 18 N        0.5160     7.1770    -0.2190 N.am  1 <1>  -0.7300 
 19 C       -6.0410     4.5720    -0.8620 C.ar  1 <1>   0.0830 
 20 C        0.9880     8.3600     0.5140 C.3   1 <1>   0.2200 
 21 O       -7.3700     4.5800    -1.1320 O.3   1 <1>  -0.3630 
 22 C        1.6440     9.3260    -0.4780 C.3   1 <1>  -0.1600 
 23 C        1.9780     7.9120     1.5940 C.3   1 <1>  -0.1600 
 24 C       -8.2690     5.3450    -0.3600 C.3   1 <1>   0.0400 
 25 C        2.2550    10.5350     0.2460 C.3   1 <1>  -0.1600 
 26 C        2.5890     9.1190     2.3220 C.3   1 <1>  -0.1600 
 27 C        3.2450    10.0910     1.3310 C.3   1 <1>  -0.1600 
 28 H       -0.7110     3.8840    -3.1920 H     1 <1>   0.0800 
 29 H        0.9390     3.4720    -2.7790 H     1 <1>   0.0800 
 30 H       -1.5920     4.6900     0.8260 H     1 <1>   0.0800 
 31 H       -2.7770     1.6850     0.3920 H     1 <1>   0.1000 
 32 H       -1.7220     5.7450    -1.8990 H     1 <1>   0.0800 
 33 H       -0.7360     3.0010     2.3490 H     1 <1>   0.1000 
 34 H       -2.1340     1.9850     2.8220 H     1 <1>   0.1000 
 35 H       -1.1850     0.0740     1.4840 H     1 <1>   0.1000 
 36 H        0.1980     1.0940     0.9830 H     1 <1>   0.1000 
 37 H       -3.6580     5.7730     1.2010 H     1 <1>   0.1500 
 38 H       -3.2770     3.1450    -2.1530 H     1 <1>   0.1500 
 39 H       -6.0470     5.8800     0.8500 H     1 <1>   0.1500 
 40 H       -5.6930     3.2660    -2.5010 H     1 <1>   0.1500 
 41 H        1.2260     6.6540    -0.7400 H     1 <1>   0.3700 
 42 H        0.1510     8.8530     0.9840 H     1 <1>   0.0800 
 43 H        2.4210     8.8140    -1.0190 H     1 <1>   0.0800 
 44 H        0.9060     9.6690    -1.1810 H     1 <1>   0.0800 
 45 H        1.4670     7.2890     2.3060 H     1 <1>   0.0800 
 46 H        2.7680     7.3390     1.1420 H     1 <1>   0.0800 
 47 H       -9.2560     5.2040    -0.7600 H     1 <1>   0.0800 
 48 H       -7.9910     6.3820    -0.4280 H     1 <1>   0.0800 
 49 H       -8.2340     5.0010     0.6580 H     1 <1>   0.0800 
 50 H        2.7580    11.1660    -0.4660 H     1 <1>   0.0800 
 51 H        1.4670    11.1140     0.6980 H     1 <1>   0.0800 
 52 H        1.8160     9.6350     2.8660 H     1 <1>   0.0800 
 53 H        3.3220     8.7790     3.0330 H     1 <1>   0.0800 
 54 H        3.6090    10.9540     1.8610 H     1 <1>   0.0800 
 55 H        4.0900     9.6100     0.8670 H     1 <1>   0.0800 
@<TRIPOS>BOND
  1   1   2  2   
  2   2   3  am  
  3   2   4  1   
  4   3   5  1   
  5   3   6  1   
  6   4   7  1   
  7   4  28  1   
  8   4  29  1   
  9   5   8  1   
 10   5   9  1   
 11   5  30  1   
 12   6  10  1   
 13   6  11  1   
 14   6  31  1   
 15   7   9  1   
 16   8  12  ar  
 17   8  13  ar  
 18   9  14  1   
 19   9  32  1   
 20  10  11  1   
 21  10  33  1   
 22  10  34  1   
 23  11  35  1   
 24  11  36  1   
 25  12  15  ar  
 26  12  37  1   
 27  13  16  ar  
 28  13  38  1   
 29  14  17  2   
 30  14  18  am  
 31  15  19  ar  
 32  15  39  1   
 33  16  19  ar  
 34  16  40  1   
 35  18  20  1   
 36  18  41  1   
 37  19  21  1   
 38  20  22  1   
 39  20  23  1   
 40  20  42  1   
 41  21  24  1   
 42  22  25  1   
 43  22  43  1   
 44  22  44  1   
 45  23  26  1   
 46  23  45  1   
 47  23  46  1   
 48  24  47  1   
 49  24  48  1   
 50  24  49  1   
 51  25  27  1   
 52  25  50  1   
 53  25  51  1   
 54  26  27  1   
 55  26  52  1   
 56  26  53  1   
 57  27  54  1   
 58  27  55  1   
@<TRIPOS>SUBSTRUCTURE
  1 ****   5 GROUP 4 **** **** 0

# MOE 2024.06 (io_trps.svl 2023.06)
