@<TRIPOS>MOLECULE
NONAME
65 67 1 0 0 
SMALL
USER_CHARGES


@<TRIPOS>ATOM
  1 O       -0.9460     0.1560     0.4650 O.2   1 <1>  -0.5700 
  2 C       -0.1520     1.0530     0.2370 C.2   1 <1>   0.5440 
  3 N       -0.4570     2.2100    -0.4390 N.am  1 <1>  -0.6600 
  4 C        1.2270     1.0480     0.6300 C.ar  1 <1>   0.0860 
  5 C       -1.8390     2.7070    -0.7940 C.3   1 <1>   0.3000 
  6 C        0.7660     3.0780    -0.4850 C.3   1 <1>   0.2840 
  7 C        1.8070     2.2290     0.2180 C.ar  1 <1>  -0.1440 
  8 C        1.9930     0.1060     1.3070 C.ar  1 <1>  -0.1500 
  9 C       -2.6340     2.8510     0.5240 C.3   1 <1>  -0.1600 
 10 C       -1.8090     4.1010    -1.4960 C.3   1 <1>  -0.1600 
 11 C       -2.4530     1.6790    -1.7790 C.3   1 <1>  -0.0990 
 12 C        3.1390     2.5030     0.4630 C.ar  1 <1>  -0.1500 
 13 C        3.3300     0.3680     1.5580 C.ar  1 <1>  -0.1500 
 14 C       -1.9880     3.8670     1.4770 C.3   1 <1>   0.1400 
 15 C       -2.1200     5.3070    -0.5940 C.3   1 <1>   0.1400 
 16 C       -3.9680     1.6940    -1.8310 C.2   1 <1>   0.5690 
 17 C        3.9010     1.5610     1.1370 C.ar  1 <1>  -0.1500 
 18 N       -1.5620     5.1130     0.7700 N.am  1 <1>  -0.6600 
 19 O       -4.5230     2.5600    -2.4520 O.2   1 <1>  -0.5700 
 20 N       -4.7190     0.7470    -1.2150 N.am  1 <1>  -0.7300 
 21 C       -0.7290     5.9930     1.4100 C.2   1 <1>   0.5690 
 22 C       -4.2960    -0.3430    -0.2980 C.3   1 <1>   0.1400 
 23 O       -0.2520     5.7460     2.4900 O.2   1 <1>  -0.5700 
 24 C       -0.3610     7.3150     0.7780 C.3   1 <1>  -0.1790 
 25 C       -4.0270    -1.6390    -1.0840 C.3   1 <1>   0.3430 
 26 N       -3.6700    -2.8060    -0.2060 N.4   1 <1>  -0.9590 
 27 C       -2.3300    -2.6290     0.4250 C.3   1 <1>   0.3430 
 28 C       -3.7350    -4.0660    -0.9920 C.3   1 <1>   0.3430 
 29 C       -2.5210    -2.3690     1.9130 C.3   1 <1>  -0.2400 
 30 C       -3.8220    -5.2560    -0.0430 C.3   1 <1>  -0.2400 
 31 H        0.6170     3.9980     0.0490 H     1 <1>   0.0800 
 32 H        1.0600     3.2700    -1.5010 H     1 <1>   0.0800 
 33 H        1.5410    -0.8130     1.6330 H     1 <1>   0.1500 
 34 H       -2.7180     1.9110     1.0330 H     1 <1>   0.0800 
 35 H       -3.6360     3.1830     0.3190 H     1 <1>   0.0800 
 36 H       -2.5640     4.1330    -2.2590 H     1 <1>   0.0800 
 37 H       -0.8900     4.2620    -2.0230 H     1 <1>   0.0800 
 38 H       -2.1370     0.6840    -1.5590 H     1 <1>   0.0800 
 39 H       -2.0900     1.8870    -2.7690 H     1 <1>   0.0800 
 40 H        3.5810     3.4310     0.1420 H     1 <1>   0.1500 
 41 H        3.9320    -0.3550     2.0830 H     1 <1>   0.1500 
 42 H       -1.1230     3.4210     1.9390 H     1 <1>   0.0800 
 43 H       -2.6780     4.1270     2.2610 H     1 <1>   0.0800 
 44 H       -3.1880     5.4160    -0.5050 H     1 <1>   0.0800 
 45 H       -1.7440     6.2020    -1.0550 H     1 <1>   0.0800 
 46 H        4.9410     1.7580     1.3380 H     1 <1>   0.1500 
 47 H       -5.7300     0.8960    -1.3160 H     1 <1>   0.3700 
 48 H       -5.0770    -0.5070     0.4240 H     1 <1>   0.0800 
 49 H       -3.4080    -0.0420     0.2250 H     1 <1>   0.0800 
 50 H       -1.2500     7.8750     0.5580 H     1 <1>   0.0800 
 51 H        0.1990     7.1460    -0.1220 H     1 <1>   0.0800 
 52 H        0.2440     7.8850     1.4590 H     1 <1>   0.0800 
 53 H       -3.2280    -1.4610    -1.7850 H     1 <1>   0.0800 
 54 H       -4.9160    -1.8780    -1.6430 H     1 <1>   0.0800 
 55 H       -4.3610    -2.8810     0.5510 H     1 <1>   0.4500 
 56 H       -1.8010    -1.8110    -0.0360 H     1 <1>   0.0800 
 57 H       -1.7350    -3.5190     0.2980 H     1 <1>   0.0800 
 58 H       -2.8680    -4.1570    -1.6270 H     1 <1>   0.0800 
 59 H       -4.6130    -4.0600    -1.6190 H     1 <1>   0.0800 
 60 H       -3.0810    -1.4680     2.0850 H     1 <1>   0.0800 
 61 H       -1.5550    -2.2410     2.3690 H     1 <1>   0.0800 
 62 H       -3.0070    -3.2010     2.3910 H     1 <1>   0.0800 
 63 H       -2.9360    -5.3480     0.5590 H     1 <1>   0.0800 
 64 H       -3.9190    -6.1590    -0.6200 H     1 <1>   0.0800 
 65 H       -4.6860    -5.1760     0.5930 H     1 <1>   0.0800 
@<TRIPOS>BOND
  1   1   2  2   
  2   2   3  am  
  3   2   4  1   
  4   3   5  1   
  5   3   6  1   
  6   4   7  ar  
  7   4   8  ar  
  8   5   9  1   
  9   5  10  1   
 10   5  11  1   
 11   6   7  1   
 12   6  31  1   
 13   6  32  1   
 14   7  12  ar  
 15   8  13  ar  
 16   8  33  1   
 17   9  14  1   
 18   9  34  1   
 19   9  35  1   
 20  10  15  1   
 21  10  36  1   
 22  10  37  1   
 23  11  16  1   
 24  11  38  1   
 25  11  39  1   
 26  12  17  ar  
 27  12  40  1   
 28  13  17  ar  
 29  13  41  1   
 30  14  18  1   
 31  14  42  1   
 32  14  43  1   
 33  15  18  1   
 34  15  44  1   
 35  15  45  1   
 36  16  19  2   
 37  16  20  am  
 38  17  46  1   
 39  18  21  am  
 40  20  22  1   
 41  20  47  1   
 42  21  23  2   
 43  21  24  1   
 44  22  25  1   
 45  22  48  1   
 46  22  49  1   
 47  24  50  1   
 48  24  51  1   
 49  24  52  1   
 50  25  26  1   
 51  25  53  1   
 52  25  54  1   
 53  26  27  1   
 54  26  28  1   
 55  26  55  1   
 56  27  29  1   
 57  27  56  1   
 58  27  57  1   
 59  28  30  1   
 60  28  58  1   
 61  28  59  1   
 62  29  60  1   
 63  29  61  1   
 64  29  62  1   
 65  30  63  1   
 66  30  64  1   
 67  30  65  1   
@<TRIPOS>SUBSTRUCTURE
  1 ****   3 GROUP 4 **** **** 0

# MOE 2024.06 (io_trps.svl 2023.06)
