@<TRIPOS>MOLECULE
NONAME
47 50 1 0 0 
SMALL
USER_CHARGES


@<TRIPOS>ATOM
  1 O       -1.8440     1.6060    -2.2810 O.co2 1 <1>  -0.9000 
  2 C       -2.2240     1.1520    -1.1790 C.2   1 <1>   0.9790 
  3 O       -1.3600     1.0480    -0.2840 O.co2 1 <1>  -0.9000 
  4 C       -3.6300     0.7780    -0.9870 C.ar  1 <1>   0.1310 
  5 N       -4.0790     0.3160     0.2010 N.ar  1 <1>  -0.3100 
  6 C       -4.5180     0.9070    -2.0510 C.ar  1 <1>  -0.1500 
  7 N       -5.3370    -0.0060     0.3790 N.ar  1 <1>  -0.3100 
  8 C       -5.8340     0.5760    -1.8640 C.ar  1 <1>  -0.1500 
  9 C       -6.2210     0.1270    -0.6160 C.ar  1 <1>   0.4100 
 10 N       -7.5540    -0.1720    -0.3680 N.pl3 1 <1>  -0.8380 
 11 C       -8.5670     0.9100    -0.6070 C.3   1 <1>   0.2090 
 12 C       -7.8780    -1.1730     0.6950 C.3   1 <1>   0.2090 
 13 C       -9.3550     1.2570     0.6720 C.3   1 <1>   0.1440 
 14 C       -9.3940    -1.3250     0.8540 C.3   1 <1>  -0.1600 
 15 C      -10.2870     2.4120     0.3470 C.ar  1 <1>   0.1660 
 16 C      -10.1100     0.0020     1.1880 C.3   1 <1>  -0.1600 
 17 C       -8.4270     1.8830     1.7560 C.3   1 <1>  -0.1600 
 18 N      -11.3750     2.3290    -0.3770 N.ar  1 <1>  -0.6200 
 19 C       -9.8430     3.5840     0.8800 C.ar  1 <1>  -0.1440 
 20 C       -8.5520     3.4100     1.6360 C.3   1 <1>  -0.0170 
 21 C      -12.0420     3.4730    -0.5470 C.ar  1 <1>   0.7200 
 22 C      -10.5910     4.7120     0.6550 C.ar  1 <1>   0.1600 
 23 N      -11.6940     4.6670    -0.0550 N.ar  1 <1>  -0.6200 
 24 N      -13.2020     3.4170    -1.3000 N.pl3 1 <1>  -0.8380 
 25 C      -14.0940     4.6020    -1.4410 C.3   1 <1>   0.1290 
 26 C      -13.7840     2.1150    -1.7320 C.3   1 <1>   0.1290 
 27 H       -4.1620     1.2640    -3.0020 H     1 <1>   0.1500 
 28 H       -6.5510     0.6560    -2.6570 H     1 <1>   0.1500 
 29 H       -9.2550     0.5800    -1.3660 H     1 <1>   0.0800 
 30 H       -8.0780     1.7980    -0.9700 H     1 <1>   0.0800 
 31 H       -7.4480    -0.8590     1.6320 H     1 <1>   0.0800 
 32 H       -7.4380    -2.1190     0.4290 H     1 <1>   0.0800 
 33 H       -9.6040    -2.0510     1.6180 H     1 <1>   0.0800 
 34 H       -9.7810    -1.7140    -0.0720 H     1 <1>   0.0800 
 35 H      -11.0860    -0.0390     0.7380 H     1 <1>   0.0800 
 36 H      -10.2680     0.0750     2.2490 H     1 <1>   0.0800 
 37 H       -7.4010     1.5740     1.6570 H     1 <1>   0.0800 
 38 H       -8.7620     1.6010     2.7380 H     1 <1>   0.0800 
 39 H       -7.7350     3.8100     1.0590 H     1 <1>   0.0800 
 40 H       -8.5840     3.8820     2.6020 H     1 <1>   0.0800 
 41 H      -10.2820     5.6600     1.0590 H     1 <1>   0.1500 
 42 H      -13.5100     5.4900    -1.6140 H     1 <1>   0.0800 
 43 H      -14.6660     4.7310    -0.5390 H     1 <1>   0.0800 
 44 H      -14.7640     4.4730    -2.2720 H     1 <1>   0.0800 
 45 H      -13.0120     1.4700    -2.1140 H     1 <1>   0.0800 
 46 H      -14.5110     2.2670    -2.5100 H     1 <1>   0.0800 
 47 H      -14.2570     1.6360    -0.8930 H     1 <1>   0.0800 
@<TRIPOS>BOND
  1   1   2  ar  
  2   2   3  ar  
  3   2   4  1   
  4   4   5  ar  
  5   4   6  ar  
  6   5   7  ar  
  7   6   8  ar  
  8   6  27  1   
  9   7   9  ar  
 10   8   9  ar  
 11   8  28  1   
 12   9  10  1   
 13  10  11  1   
 14  10  12  1   
 15  11  13  1   
 16  11  29  1   
 17  11  30  1   
 18  12  14  1   
 19  12  31  1   
 20  12  32  1   
 21  13  15  1   
 22  13  16  1   
 23  13  17  1   
 24  14  16  1   
 25  14  33  1   
 26  14  34  1   
 27  15  18  ar  
 28  15  19  ar  
 29  16  35  1   
 30  16  36  1   
 31  17  20  1   
 32  17  37  1   
 33  17  38  1   
 34  18  21  ar  
 35  19  20  1   
 36  19  22  ar  
 37  20  39  1   
 38  20  40  1   
 39  21  23  ar  
 40  21  24  1   
 41  22  23  ar  
 42  22  41  1   
 43  24  25  1   
 44  24  26  1   
 45  25  42  1   
 46  25  43  1   
 47  25  44  1   
 48  26  45  1   
 49  26  46  1   
 50  26  47  1   
@<TRIPOS>SUBSTRUCTURE
  1 ****  11 GROUP 4 **** **** 0

# MOE 2024.06 (io_trps.svl 2023.06)
