@<TRIPOS>MOLECULE
NONAME
50 51 1 0 0 
SMALL
USER_CHARGES


@<TRIPOS>ATOM
  1 S        1.0580     0.1440    -1.5030 S.o2  1 <1>   1.3330 
  2 O        1.3830    -1.2530    -1.3150 O.2   1 <1>  -0.6500 
  3 O        0.6510     0.6150    -2.8070 O.2   1 <1>  -0.6500 
  4 N       -0.1870     0.5380    -0.4160 N.am  1 <1>  -0.8490 
  5 C        2.4520     1.1180    -0.9290 C.3   1 <1>  -0.0550 
  6 C       -1.1760    -0.5370    -0.2960 C.3   1 <1>   0.1160 
  7 C       -0.8640     1.7980    -0.7430 C.3   1 <1>   0.1160 
  8 C        3.0300     0.6570     0.4270 C.3   1 <1>  -0.0800 
  9 C        4.3180     1.3520     0.8460 C.3   1 <1>   0.2200 
 10 C        2.1170     0.8800     1.6400 C.3   1 <1>   0.1200 
 11 N        4.2370     2.8090     0.5960 N.am  1 <1>  -0.7300 
 12 C        4.2820     1.1150     2.3480 C.3   1 <1>   0.1200 
 13 O        2.9420     1.2720     2.7000 O.3   1 <1>  -0.5600 
 14 C        4.7970     3.4770    -0.4490 C.2   1 <1>   0.7160 
 15 O        5.3550     2.8260    -1.3100 O.2   1 <1>  -0.5700 
 16 C        4.6830     4.9150    -0.5060 C.2   1 <1>  -0.0860 
 17 C        5.0740     5.7720    -1.5450 C.2   1 <1>   0.1080 
 18 C        4.1730     5.7770     0.4200 C.2   1 <1>  -0.3020 
 19 N        4.8310     7.0170    -1.2880 N.2   1 <1>  -0.7070 
 20 C        5.7130     5.3500    -2.8510 C.3   1 <1>  -0.0590 
 21 N        4.2740     7.0210    -0.0690 N.pl3 1 <1>   0.3140 
 22 C        3.8540     8.2740     0.5880 C.3   1 <1>   0.0960 
 23 C        2.3570     8.5340     0.3680 C.3   1 <1>  -0.1600 
 24 C        1.9100     9.8330     1.0480 C.3   1 <1>  -0.2400 
 25 H        3.2330     1.0470    -1.6620 H     1 <1>   0.0800 
 26 H        2.1630     2.1490    -0.8730 H     1 <1>   0.0800 
 27 H       -1.9440    -0.2630     0.4060 H     1 <1>   0.0800 
 28 H       -0.7020    -1.4370     0.0600 H     1 <1>   0.0800 
 29 H       -1.6260    -0.7400    -1.2540 H     1 <1>   0.0800 
 30 H       -1.5780     2.0440     0.0240 H     1 <1>   0.0800 
 31 H       -1.3790     1.7160    -1.6870 H     1 <1>   0.0800 
 32 H       -0.1490     2.6000    -0.8110 H     1 <1>   0.0800 
 33 H        3.2340    -0.3980     0.3660 H     1 <1>   0.0800 
 34 H        5.1940     0.9290     0.3820 H     1 <1>   0.0800 
 35 H        1.5920    -0.0200     1.9150 H     1 <1>   0.0800 
 36 H        1.4100     1.6740     1.4700 H     1 <1>   0.0800 
 37 H        3.7220     3.3330     1.3040 H     1 <1>   0.3700 
 38 H        4.8890     1.8120     2.8990 H     1 <1>   0.0800 
 39 H        4.5710     0.1050     2.5850 H     1 <1>   0.0800 
 40 H        3.7550     5.5690     1.3860 H     1 <1>   0.1500 
 41 H        5.0640     4.6730    -3.3750 H     1 <1>   0.0800 
 42 H        6.6500     4.8620    -2.6580 H     1 <1>   0.0800 
 43 H        5.8900     6.2110    -3.4700 H     1 <1>   0.0800 
 44 H        4.0730     8.2000     1.6360 H     1 <1>   0.0800 
 45 H        4.4330     9.0790     0.1710 H     1 <1>   0.0800 
 46 H        2.1640     8.6030    -0.6900 H     1 <1>   0.0800 
 47 H        1.7860     7.7120     0.7660 H     1 <1>   0.0800 
 48 H        2.4540    10.6720     0.6490 H     1 <1>   0.0800 
 49 H        2.0770     9.7830     2.1100 H     1 <1>   0.0800 
 50 H        0.8610     9.9960     0.8750 H     1 <1>   0.0800 
@<TRIPOS>BOND
  1   1   2  2   
  2   1   3  2   
  3   1   4  am  
  4   1   5  1   
  5   4   6  1   
  6   4   7  1   
  7   5   8  1   
  8   5  25  1   
  9   5  26  1   
 10   6  27  1   
 11   6  28  1   
 12   6  29  1   
 13   7  30  1   
 14   7  31  1   
 15   7  32  1   
 16   8   9  1   
 17   8  10  1   
 18   8  33  1   
 19   9  11  1   
 20   9  12  1   
 21   9  34  1   
 22  10  13  1   
 23  10  35  1   
 24  10  36  1   
 25  11  14  am  
 26  11  37  1   
 27  12  13  1   
 28  12  38  1   
 29  12  39  1   
 30  14  15  2   
 31  14  16  1   
 32  16  17  1   
 33  16  18  2   
 34  17  19  2   
 35  17  20  1   
 36  18  21  1   
 37  18  40  1   
 38  19  21  1   
 39  20  41  1   
 40  20  42  1   
 41  20  43  1   
 42  21  22  1   
 43  22  23  1   
 44  22  44  1   
 45  22  45  1   
 46  23  24  1   
 47  23  46  1   
 48  23  47  1   
 49  24  48  1   
 50  24  49  1   
 51  24  50  1   
@<TRIPOS>SUBSTRUCTURE
  1 ****  11 GROUP 4 **** **** 0

# MOE 2024.06 (io_trps.svl 2023.06)
