@<TRIPOS>MOLECULE
NONAME
66 67 1 0 0 
SMALL
USER_CHARGES


@<TRIPOS>ATOM
  1 O       -3.6620     3.0570    -1.0020 O.2   1 <1>  -0.5700 
  2 C       -3.1150     2.6820     0.0110 C.2   1 <1>   0.5690 
  3 N       -3.4170     1.4350     0.5020 N.am  1 <1>  -0.6600 
  4 C       -2.1490     3.6890     0.6550 C.3   1 <1>  -0.0190 
  5 C       -2.3550     0.4610     0.9550 C.3   1 <1>   0.3210 
  6 C       -4.8230     0.9330     0.3150 C.3   1 <1>   0.1400 
  7 C       -0.7930     3.7900    -0.0870 C.3   1 <1>  -0.0190 
  8 C       -2.0640     3.6740     2.2040 C.3   1 <1>  -0.1600 
  9 C       -2.8580    -0.9240     1.3670 C.2   1 <1>   0.0460 
 10 C       -5.1830     0.5520    -1.1400 C.3   1 <1>   0.3430 
 11 C       -0.0780     2.4500    -0.2250 C.2   1 <1>   0.5690 
 12 C        0.1490     4.8760     0.4990 C.3   1 <1>  -0.1600 
 13 C       -0.8550     4.4420     2.7620 C.3   1 <1>  -0.1600 
 14 N       -3.1710    -1.8690     0.4500 N.2   1 <1>  -0.5650 
 15 C       -3.0330    -1.3990     2.6230 C.2   1 <1>  -0.3320 
 16 N       -4.1990    -0.3750    -1.7860 N.4   1 <1>  -0.9590 
 17 O        0.2510     1.8510     0.7710 O.2   1 <1>  -0.5700 
 18 N        0.1630     1.9810    -1.4800 N.am  1 <1>  -0.7300 
 19 C       -0.3590     5.5210     1.7970 C.3   1 <1>  -0.1600 
 20 C       -3.5090    -2.8940     1.1660 C.2   1 <1>   0.0360 
 21 N       -3.4490    -2.6720     2.4940 N.pl3 1 <1>   0.0330 
 22 C       -2.8230    -0.7440     3.9790 C.3   1 <1>  -0.0600 
 23 C       -3.1340     0.3800    -2.5090 C.3   1 <1>   0.2630 
 24 C       -4.8640    -1.3630    -2.6780 C.3   1 <1>   0.2630 
 25 C        1.0450     0.8770    -1.8870 C.3   1 <1>   0.3000 
 26 C        1.0070     0.8350    -3.4130 C.3   1 <1>  -0.2400 
 27 C        0.5430    -0.4550    -1.3270 C.3   1 <1>  -0.2400 
 28 C        2.4700     1.1690    -1.4180 C.3   1 <1>  -0.2400 
 29 H       -2.6150     4.6370     0.4480 H     1 <1>   0.0800 
 30 H       -1.6610     0.3170     0.1510 H     1 <1>   0.0800 
 31 H       -1.8020     0.8620     1.7770 H     1 <1>   0.0800 
 32 H       -5.0320     0.1060     0.9680 H     1 <1>   0.0800 
 33 H       -5.4940     1.7200     0.6140 H     1 <1>   0.0800 
 34 H       -1.0320     4.1090    -1.0860 H     1 <1>   0.0800 
 35 H       -2.9650     4.1230     2.5870 H     1 <1>   0.0800 
 36 H       -2.0280     2.6830     2.6020 H     1 <1>   0.0800 
 37 H       -5.2660     1.4540    -1.7250 H     1 <1>   0.0800 
 38 H       -6.1550     0.0890    -1.1250 H     1 <1>   0.0800 
 39 H        1.1130     4.4380     0.6990 H     1 <1>   0.0800 
 40 H        0.3050     5.6490    -0.2330 H     1 <1>   0.0800 
 41 H       -1.1130     4.8840     3.7090 H     1 <1>   0.0800 
 42 H       -0.0500     3.7470     2.9390 H     1 <1>   0.0800 
 43 H       -3.7440    -0.9020    -1.0050 H     1 <1>   0.4500 
 44 H       -0.0520     2.6030    -2.2580 H     1 <1>   0.3700 
 45 H        0.4410     6.0780     2.2550 H     1 <1>   0.0800 
 46 H       -1.1570     6.2130     1.5840 H     1 <1>   0.0800 
 47 H       -3.8090    -3.8480     0.7660 H     1 <1>   0.1500 
 48 H       -3.6600    -3.3390     3.2440 H     1 <1>   0.2700 
 49 H       -2.5310     0.2850     3.8680 H     1 <1>   0.0800 
 50 H       -2.0510    -1.2590     4.5230 H     1 <1>   0.0800 
 51 H       -3.7320    -0.7760     4.5530 H     1 <1>   0.0800 
 52 H       -3.5700     1.0030    -3.2720 H     1 <1>   0.0800 
 53 H       -2.4380    -0.3040    -2.9660 H     1 <1>   0.0800 
 54 H       -2.5910     1.0090    -1.8250 H     1 <1>   0.0800 
 55 H       -5.3590    -0.8590    -3.4920 H     1 <1>   0.0800 
 56 H       -5.5920    -1.9310    -2.1220 H     1 <1>   0.0800 
 57 H       -4.1350    -2.0460    -3.0820 H     1 <1>   0.0800 
 58 H        1.6400     0.0430    -3.7730 H     1 <1>   0.0800 
 59 H        1.3670     1.7590    -3.8280 H     1 <1>   0.0800 
 60 H        0.0090     0.6510    -3.7660 H     1 <1>   0.0800 
 61 H        1.1600    -1.2580    -1.6860 H     1 <1>   0.0800 
 62 H       -0.4670    -0.6450    -1.6330 H     1 <1>   0.0800 
 63 H        0.5980    -0.4630    -0.2540 H     1 <1>   0.0800 
 64 H        3.1410     0.4080    -1.7750 H     1 <1>   0.0800 
 65 H        2.5230     1.1760    -0.3440 H     1 <1>   0.0800 
 66 H        2.8060     2.1200    -1.7900 H     1 <1>   0.0800 
@<TRIPOS>BOND
  1   1   2  2   
  2   2   3  am  
  3   2   4  1   
  4   3   5  1   
  5   3   6  1   
  6   4   7  1   
  7   4   8  1   
  8   4  29  1   
  9   5   9  1   
 10   5  30  1   
 11   5  31  1   
 12   6  10  1   
 13   6  32  1   
 14   6  33  1   
 15   7  11  1   
 16   7  12  1   
 17   7  34  1   
 18   8  13  1   
 19   8  35  1   
 20   8  36  1   
 21   9  14  1   
 22   9  15  2   
 23  10  16  1   
 24  10  37  1   
 25  10  38  1   
 26  11  17  2   
 27  11  18  am  
 28  12  19  1   
 29  12  39  1   
 30  12  40  1   
 31  13  19  1   
 32  13  41  1   
 33  13  42  1   
 34  14  20  2   
 35  15  21  1   
 36  15  22  1   
 37  16  23  1   
 38  16  24  1   
 39  16  43  1   
 40  18  25  1   
 41  18  44  1   
 42  19  45  1   
 43  19  46  1   
 44  20  21  1   
 45  20  47  1   
 46  21  48  1   
 47  22  49  1   
 48  22  50  1   
 49  22  51  1   
 50  23  52  1   
 51  23  53  1   
 52  23  54  1   
 53  24  55  1   
 54  24  56  1   
 55  24  57  1   
 56  25  26  1   
 57  25  27  1   
 58  25  28  1   
 59  26  58  1   
 60  26  59  1   
 61  26  60  1   
 62  27  61  1   
 63  27  62  1   
 64  27  63  1   
 65  28  64  1   
 66  28  65  1   
 67  28  66  1   
@<TRIPOS>SUBSTRUCTURE
  1 ****   5 GROUP 4 **** **** 0

# MOE 2024.06 (io_trps.svl 2023.06)
