@<TRIPOS>MOLECULE
NONAME
45 47 1 0 0 
SMALL
USER_CHARGES


@<TRIPOS>ATOM
  1 S       -0.9420    -0.4170    -0.3080 S.3   1 <1>  -0.0800 
  2 C       -1.9860    -1.5340     0.5180 C.2   1 <1>   0.4420 
  3 C       -1.3190     0.7320     0.9300 C.2   1 <1>   0.1980 
  4 N       -2.5050    -1.0220     1.5730 N.2   1 <1>  -0.3380 
  5 N       -2.1920    -2.8120     0.0500 N.am  1 <1>  -0.4940 
  6 N       -2.1250     0.2710     1.8010 N.2   1 <1>  -0.3380 
  7 C       -0.7010     2.1170     0.8410 C.3   1 <1>   0.3000 
  8 C       -1.8180    -3.4530    -1.0930 C.2   1 <1>   0.5690 
  9 O        0.6960     2.0320     0.8520 O.3   1 <1>  -0.5600 
 10 O       -1.2100    -2.9350    -1.9960 O.2   1 <1>  -0.5700 
 11 C       -2.2170    -4.9240    -1.2130 C.3   1 <1>   0.1710 
 12 C        1.3430     3.2620     0.7860 C.3   1 <1>   0.0400 
 13 N       -3.3800    -5.2980    -0.3530 N.3   1 <1>  -0.8100 
 14 C       -3.4290    -6.7490    -0.1350 C.3   1 <1>   0.1100 
 15 C       -4.6440    -4.7890    -0.9180 C.3   1 <1>   0.1100 
 16 C       -4.5460    -7.0900     0.8540 C.3   1 <1>  -0.1600 
 17 C       -5.7890    -5.0660     0.0560 C.3   1 <1>  -0.1600 
 18 C       -5.9030    -6.5670     0.3630 C.3   1 <1>   0.1000 
 19 C       -6.9980    -6.8670     1.3850 C.2   1 <1>   0.0070 
 20 N       -7.3650    -6.0650     2.3290 N.2   1 <1>  -0.3380 
 21 N       -7.7000    -8.0060     1.4200 N.pl3 1 <1>   0.0480 
 22 N       -8.3350    -6.6730     3.0130 N.2   1 <1>  -0.3380 
 23 C       -8.5160    -7.8190     2.4580 C.2   1 <1>   0.0360 
 24 C       -7.6240    -9.1940     0.5490 C.3   1 <1>   0.0160 
 25 H       -2.7820    -3.3990     0.6470 H     1 <1>   0.3700 
 26 H       -1.0160     2.7060     1.6840 H     1 <1>   0.0800 
 27 H       -1.0100     2.5930    -0.0730 H     1 <1>   0.0800 
 28 H       -1.3580    -5.5020    -0.9220 H     1 <1>   0.0800 
 29 H       -2.4310    -5.1480    -2.2430 H     1 <1>   0.0800 
 30 H        2.4040     3.0800     0.8000 H     1 <1>   0.0800 
 31 H        1.0680     3.8560     1.6400 H     1 <1>   0.0800 
 32 H        1.0750     3.7590    -0.1290 H     1 <1>   0.0800 
 33 H       -2.4900    -7.0840     0.2740 H     1 <1>   0.0800 
 34 H       -3.5930    -7.2570    -1.0710 H     1 <1>   0.0800 
 35 H       -4.8420    -5.2640    -1.8650 H     1 <1>   0.0800 
 36 H       -4.5760    -3.7260    -1.0820 H     1 <1>   0.0800 
 37 H       -4.3170    -6.6460     1.8080 H     1 <1>   0.0800 
 38 H       -4.5910    -8.1540     0.9900 H     1 <1>   0.0800 
 39 H       -6.7150    -4.7130    -0.3630 H     1 <1>   0.0800 
 40 H       -5.6120    -4.5160     0.9650 H     1 <1>   0.0800 
 41 H       -6.1490    -7.0650    -0.5580 H     1 <1>   0.0800 
 42 H       -9.2360    -8.5470     2.7840 H     1 <1>   0.1500 
 43 H       -6.6190    -9.5740     0.5490 H     1 <1>   0.0800 
 44 H       -7.9080    -8.9200    -0.4510 H     1 <1>   0.0800 
 45 H       -8.2920    -9.9530     0.9130 H     1 <1>   0.0800 
@<TRIPOS>BOND
  1   1   2  1   
  2   1   3  1   
  3   2   4  2   
  4   2   5  1   
  5   3   6  2   
  6   3   7  1   
  7   4   6  1   
  8   5   8  am  
  9   5  25  1   
 10   7   9  1   
 11   7  26  1   
 12   7  27  1   
 13   8  10  2   
 14   8  11  1   
 15   9  12  1   
 16  11  13  1   
 17  11  28  1   
 18  11  29  1   
 19  12  30  1   
 20  12  31  1   
 21  12  32  1   
 22  13  14  1   
 23  13  15  1   
 24  14  16  1   
 25  14  33  1   
 26  14  34  1   
 27  15  17  1   
 28  15  35  1   
 29  15  36  1   
 30  16  18  1   
 31  16  37  1   
 32  16  38  1   
 33  17  18  1   
 34  17  39  1   
 35  17  40  1   
 36  18  19  1   
 37  18  41  1   
 38  19  20  2   
 39  19  21  1   
 40  20  22  1   
 41  21  23  1   
 42  21  24  1   
 43  22  23  2   
 44  23  42  1   
 45  24  43  1   
 46  24  44  1   
 47  24  45  1   
@<TRIPOS>SUBSTRUCTURE
  1 ****   5 GROUP 4 **** **** 0

# MOE 2024.06 (io_trps.svl 2023.06)
