@<TRIPOS>MOLECULE
NONAME
50 51 1 0 0 
SMALL
USER_CHARGES


@<TRIPOS>ATOM
  1 S        0.4050     0.2790     0.5680 S.o2  1 <1>   1.3330 
  2 O        0.5040    -1.1130     0.9480 O.2   1 <1>  -0.6500 
  3 O        0.1940     1.2820     1.5870 O.2   1 <1>  -0.6500 
  4 N       -0.8440     0.4110    -0.5750 N.am  1 <1>  -0.8490 
  5 C        1.8650     0.7300    -0.3660 C.3   1 <1>  -0.0550 
  6 C       -2.1370     0.7090     0.0480 C.3   1 <1>   0.1160 
  7 C       -0.9680    -0.7620    -1.4460 C.3   1 <1>   0.1160 
  8 C        3.1370     0.8010     0.4950 C.3   1 <1>  -0.0800 
  9 C        4.3630     1.1860    -0.3200 C.3   1 <1>   0.2200 
 10 C        3.5590    -0.5170     1.1340 C.3   1 <1>   0.1200 
 11 N        4.6220     2.6340    -0.1750 N.am  1 <1>  -0.7300 
 12 C        5.4860     0.3230     0.2590 C.3   1 <1>   0.1200 
 13 O        4.9310    -0.3920     1.3190 O.3   1 <1>  -0.5600 
 14 C        4.1610     3.5870    -1.0350 C.2   1 <1>   0.5440 
 15 O        3.5500     3.2290    -2.0230 O.2   1 <1>  -0.5700 
 16 C        4.3540     4.9930    -0.7390 C.ar  1 <1>   0.0860 
 17 C        5.6150     5.5770    -0.5710 C.ar  1 <1>  -0.1440 
 18 C        3.2360     5.8120    -0.5980 C.ar  1 <1>  -0.1500 
 19 C        5.7190     6.9190    -0.2480 C.ar  1 <1>  -0.1500 
 20 C        6.8950     4.7680    -0.7510 C.3   1 <1>  -0.0970 
 21 C        3.3380     7.1540    -0.2790 C.ar  1 <1>  -0.1440 
 22 C        4.5950     7.7140    -0.0970 C.ar  1 <1>  -0.1440 
 23 C        2.0680     7.9810    -0.1380 C.3   1 <1>  -0.0970 
 24 C        4.7670     9.1850     0.2570 C.3   1 <1>  -0.0970 
 25 H        2.0110     0.0270    -1.1620 H     1 <1>   0.0800 
 26 H        1.7020     1.6940    -0.8100 H     1 <1>   0.0800 
 27 H       -2.9010     0.8050    -0.7030 H     1 <1>   0.0800 
 28 H       -2.0790     1.6400     0.5880 H     1 <1>   0.0800 
 29 H       -2.4100    -0.0740     0.7370 H     1 <1>   0.0800 
 30 H       -1.7140    -0.5840    -2.2010 H     1 <1>   0.0800 
 31 H       -1.2490    -1.6300    -0.8720 H     1 <1>   0.0800 
 32 H       -0.0310    -0.9610    -1.9370 H     1 <1>   0.0800 
 33 H        2.9860     1.5090     1.2920 H     1 <1>   0.0800 
 34 H        4.2390     0.9400    -1.3620 H     1 <1>   0.0800 
 35 H        3.3840    -1.3550     0.4810 H     1 <1>   0.0800 
 36 H        3.0860    -0.6870     2.0870 H     1 <1>   0.0800 
 37 H        4.9800     2.9310     0.7350 H     1 <1>   0.3700 
 38 H        6.3100     0.9070     0.6280 H     1 <1>   0.0800 
 39 H        5.8330    -0.3870    -0.4710 H     1 <1>   0.0800 
 40 H        2.2660     5.3680    -0.7440 H     1 <1>   0.1500 
 41 H        6.6930     7.3560    -0.1150 H     1 <1>   0.1500 
 42 H        7.7410     5.4160    -0.8900 H     1 <1>   0.0800 
 43 H        6.8180     4.1340    -1.6170 H     1 <1>   0.0800 
 44 H        7.0710     4.1570     0.1160 H     1 <1>   0.0800 
 45 H        1.1940     7.3790    -0.3080 H     1 <1>   0.0800 
 46 H        2.0690     8.7830    -0.8540 H     1 <1>   0.0800 
 47 H        2.0040     8.3940     0.8530 H     1 <1>   0.0800 
 48 H        5.8070     9.4390     0.3610 H     1 <1>   0.0800 
 49 H        4.2740     9.3990     1.1880 H     1 <1>   0.0800 
 50 H        4.3450     9.8010    -0.5150 H     1 <1>   0.0800 
@<TRIPOS>BOND
  1   1   2  2   
  2   1   3  2   
  3   1   4  am  
  4   1   5  1   
  5   4   6  1   
  6   4   7  1   
  7   5   8  1   
  8   5  25  1   
  9   5  26  1   
 10   6  27  1   
 11   6  28  1   
 12   6  29  1   
 13   7  30  1   
 14   7  31  1   
 15   7  32  1   
 16   8   9  1   
 17   8  10  1   
 18   8  33  1   
 19   9  11  1   
 20   9  12  1   
 21   9  34  1   
 22  10  13  1   
 23  10  35  1   
 24  10  36  1   
 25  11  14  am  
 26  11  37  1   
 27  12  13  1   
 28  12  38  1   
 29  12  39  1   
 30  14  15  2   
 31  14  16  1   
 32  16  17  ar  
 33  16  18  ar  
 34  17  19  ar  
 35  17  20  1   
 36  18  21  ar  
 37  18  40  1   
 38  19  22  ar  
 39  19  41  1   
 40  20  42  1   
 41  20  43  1   
 42  20  44  1   
 43  21  22  ar  
 44  21  23  1   
 45  22  24  1   
 46  23  45  1   
 47  23  46  1   
 48  23  47  1   
 49  24  48  1   
 50  24  49  1   
 51  24  50  1   
@<TRIPOS>SUBSTRUCTURE
  1 ****  14 GROUP 4 **** **** 0

# MOE 2024.06 (io_trps.svl 2023.06)
