@<TRIPOS>MOLECULE
NONAME
37 38 1 0 0 
SMALL
USER_CHARGES


@<TRIPOS>ATOM
  1 F       -0.7760     0.0050     0.7920 F     1 <1>  -0.1900 
  2 C       -1.7480    -0.7720     0.3550 C.ar  1 <1>   0.1900 
  3 C       -3.0020    -0.2640     0.0180 C.ar  1 <1>   0.4100 
  4 C       -1.5180    -2.1150     0.2430 C.ar  1 <1>   0.1600 
  5 N       -3.9450    -1.0910    -0.3960 N.ar  1 <1>  -0.6200 
  6 N       -3.3400     1.0880     0.0930 N.pl3 1 <1>  -0.8380 
  7 N       -2.4550    -2.9440    -0.1750 N.ar  1 <1>  -0.6200 
  8 C       -3.6150    -2.3680    -0.4760 C.ar  1 <1>   0.7200 
  9 C       -4.7650     1.5020     0.2280 C.3   1 <1>   0.1290 
 10 C       -2.4300     2.1330    -0.4490 C.3   1 <1>   0.1290 
 11 N       -4.6070    -3.1680    -0.9140 N.pl3 1 <1>  -0.8690 
 12 C       -4.7840    -4.5430    -0.3620 C.3   1 <1>   0.3530 
 13 C       -6.2570    -4.9640    -0.2250 C.ar  1 <1>   0.4770 
 14 N       -6.4930    -6.2680    -0.2150 N.ar  1 <1>  -0.6200 
 15 N       -7.1610    -3.9970    -0.1210 N.ar  1 <1>  -0.6200 
 16 C       -7.7610    -6.6540    -0.0970 C.ar  1 <1>   0.1670 
 17 C       -8.4080    -4.3760    -0.0040 C.ar  1 <1>   0.1670 
 18 C       -8.7590    -5.7040     0.0120 C.ar  1 <1>  -0.1500 
 19 C       -8.1120    -8.1680    -0.0820 C.3   1 <1>   1.1630 
 20 C       -9.4470    -3.2800     0.1120 C.3   1 <1>  -0.0960 
 21 F       -7.5260    -8.8250     0.9140 F     1 <1>  -0.3400 
 22 F       -9.4160    -8.3970     0.0560 F     1 <1>  -0.3400 
 23 F       -7.7560    -8.7920    -1.2010 F     1 <1>  -0.3400 
 24 H       -0.5550    -2.5180     0.5020 H     1 <1>   0.1500 
 25 H       -5.3050     0.7800     0.8170 H     1 <1>   0.0800 
 26 H       -5.2190     1.5640    -0.7460 H     1 <1>   0.0800 
 27 H       -4.8270     2.4580     0.7150 H     1 <1>   0.0800 
 28 H       -1.6050     1.6820    -0.9730 H     1 <1>   0.0800 
 29 H       -2.0480     2.7310     0.3590 H     1 <1>   0.0800 
 30 H       -2.9620     2.7660    -1.1380 H     1 <1>   0.0800 
 31 H       -5.5000    -2.6680    -0.9220 H     1 <1>   0.4000 
 32 H       -4.3300    -4.6050     0.6110 H     1 <1>   0.0800 
 33 H       -4.2810    -5.2390    -1.0090 H     1 <1>   0.0800 
 34 H       -9.7930    -5.9810     0.1090 H     1 <1>   0.1500 
 35 H       -9.2350    -2.6740     0.9740 H     1 <1>   0.0800 
 36 H      -10.4350    -3.6890     0.2090 H     1 <1>   0.0800 
 37 H       -9.4120    -2.6580    -0.7630 H     1 <1>   0.0800 
@<TRIPOS>BOND
  1   1   2  1   
  2   2   3  ar  
  3   2   4  ar  
  4   3   5  ar  
  5   3   6  1   
  6   4   7  ar  
  7   4  24  1   
  8   5   8  ar  
  9   6   9  1   
 10   6  10  1   
 11   7   8  ar  
 12   8  11  1   
 13   9  25  1   
 14   9  26  1   
 15   9  27  1   
 16  10  28  1   
 17  10  29  1   
 18  10  30  1   
 19  11  12  1   
 20  11  31  1   
 21  12  13  1   
 22  12  32  1   
 23  12  33  1   
 24  13  14  ar  
 25  13  15  ar  
 26  14  16  ar  
 27  15  17  ar  
 28  16  18  ar  
 29  16  19  1   
 30  17  18  ar  
 31  17  20  1   
 32  18  34  1   
 33  19  21  1   
 34  19  22  1   
 35  19  23  1   
 36  20  35  1   
 37  20  36  1   
 38  20  37  1   
@<TRIPOS>SUBSTRUCTURE
  1 ****  12 GROUP 4 **** **** 0

# MOE 2024.06 (io_trps.svl 2023.06)
