@<TRIPOS>MOLECULE
NONAME
40 41 1 0 0 
SMALL
USER_CHARGES


@<TRIPOS>ATOM
  1 O       -1.5110    -1.1880    -2.1930 O.3   1 <1>  -0.8500 
  2 C       -1.0510    -1.9200    -1.3010 C.2   1 <1>  -0.1500 
  3 C       -1.6650    -2.1430    -0.0650 C.2   1 <1>  -0.1240 
  4 C        0.1790    -2.5770    -1.5620 C.2   1 <1>  -0.1500 
  5 C       -1.0790    -3.0270     0.8540 C.2   1 <1>   0.6160 
  6 C       -2.9810    -1.4540     0.3240 C.3   1 <1>   0.2390 
  7 C        0.7510    -3.4220    -0.6720 C.2   1 <1>  -0.0290 
  8 O       -1.5880    -3.2750     1.9700 O.2   1 <1>  -0.5700 
  9 N        0.1290    -3.6830     0.5480 N.am  1 <1>  -0.4690 
 10 C       -4.1830    -2.2080    -0.2310 C.2   1 <1>  -0.1810 
 11 C       -3.0880     0.0340    -0.0390 C.3   1 <1>  -0.0990 
 12 C        2.0780    -4.0880    -1.0010 C.3   1 <1>  -0.1020 
 13 C        0.7150    -4.6060     1.5630 C.3   1 <1>   0.0600 
 14 C       -4.4070    -2.5350    -1.5640 C.2   1 <1>   0.1390 
 15 C       -5.2530    -2.7060     0.4250 C.2   1 <1>  -0.3020 
 16 C       -1.9280     0.8260     0.5130 C.2   1 <1>   0.6590 
 17 N       -5.5330    -3.1720    -1.7310 N.2   1 <1>  -0.7070 
 18 N       -6.0460    -3.2820    -0.4970 N.pl3 1 <1>   0.3140 
 19 O       -1.5850     0.7280     1.6670 O.2   1 <1>  -0.5700 
 20 O       -1.3560     1.6970    -0.3110 O.3   1 <1>  -0.4300 
 21 C       -7.3150    -3.9720    -0.2590 C.3   1 <1>   0.0160 
 22 C       -0.1980     2.4090     0.0540 C.3   1 <1>   0.0400 
 23 H        0.6150    -2.3490    -2.5150 H     1 <1>   0.1500 
 24 H       -3.0730    -1.4870     1.3940 H     1 <1>   0.0800 
 25 H       -3.9930     0.4310     0.3730 H     1 <1>   0.0800 
 26 H       -3.1350     0.1600    -1.1030 H     1 <1>   0.0800 
 27 H        2.8020    -3.8600    -0.2410 H     1 <1>   0.0800 
 28 H        2.4510    -3.7280    -1.9430 H     1 <1>   0.0800 
 29 H        1.9470    -5.1510    -1.0740 H     1 <1>   0.0800 
 30 H       -0.0680    -5.1340     2.0770 H     1 <1>   0.0800 
 31 H        1.2770    -4.0320     2.2770 H     1 <1>   0.0800 
 32 H        1.3530    -5.3370     1.1040 H     1 <1>   0.0800 
 33 H       -3.7190    -2.2840    -2.3600 H     1 <1>   0.1500 
 34 H       -5.4780    -2.6840     1.4740 H     1 <1>   0.1500 
 35 H       -7.6090    -3.8410     0.7640 H     1 <1>   0.0800 
 36 H       -7.1850    -5.0150    -0.4760 H     1 <1>   0.0800 
 37 H       -8.0600    -3.5570    -0.9120 H     1 <1>   0.0800 
 38 H        0.0920     3.0290    -0.7740 H     1 <1>   0.0800 
 39 H        0.5800     1.6990     0.2760 H     1 <1>   0.0800 
 40 H       -0.4160     3.0090     0.9200 H     1 <1>   0.0800 
@<TRIPOS>BOND
  1   1   2  1   
  2   2   3  2   
  3   2   4  1   
  4   3   5  1   
  5   3   6  1   
  6   4   7  2   
  7   4  23  1   
  8   5   8  2   
  9   5   9  am  
 10   6  10  1   
 11   6  11  1   
 12   6  24  1   
 13   7   9  1   
 14   7  12  1   
 15   9  13  1   
 16  10  14  1   
 17  10  15  2   
 18  11  16  1   
 19  11  25  1   
 20  11  26  1   
 21  12  27  1   
 22  12  28  1   
 23  12  29  1   
 24  13  30  1   
 25  13  31  1   
 26  13  32  1   
 27  14  17  2   
 28  14  33  1   
 29  15  18  1   
 30  15  34  1   
 31  16  19  2   
 32  16  20  1   
 33  17  18  1   
 34  18  21  1   
 35  20  22  1   
 36  21  35  1   
 37  21  36  1   
 38  21  37  1   
 39  22  38  1   
 40  22  39  1   
 41  22  40  1   
@<TRIPOS>SUBSTRUCTURE
  1 ****   3 GROUP 4 **** **** 0

# MOE 2024.06 (io_trps.svl 2023.06)
