@<TRIPOS>MOLECULE
NONAME
43 45 1 0 0 
SMALL
USER_CHARGES


@<TRIPOS>ATOM
  1 S        0.3170    -0.1020     1.6270 S.3   1 <1>  -0.0800 
  2 C        1.7860    -1.0020     1.3030 C.2   1 <1>   0.4620 
  3 C       -0.5970    -1.3920     0.8950 C.2   1 <1>  -0.1100 
  4 N        1.6000    -2.1240     0.7180 N.2   1 <1>  -0.5650 
  5 N        2.9750    -0.4720     1.6740 N.pl3 1 <1>  -0.8840 
  6 C        0.2560    -2.3480     0.4880 C.2   1 <1>   0.0460 
  7 C       -0.0820    -3.6590    -0.2010 C.3   1 <1>   0.0210 
  8 C       -1.5880    -3.9430    -0.2680 C.3   1 <1>  -0.0990 
  9 C       -1.8470    -5.2860    -0.9080 C.2   1 <1>   0.5690 
 10 O       -2.1320    -5.3350    -2.0780 O.2   1 <1>  -0.5700 
 11 N       -1.7440    -6.4000    -0.1450 N.am  1 <1>  -0.7300 
 12 C       -1.9030    -7.7840    -0.6420 C.3   1 <1>   0.2200 
 13 C       -3.1760    -8.3790    -0.0640 C.3   1 <1>  -0.0800 
 14 C       -0.8360    -8.6700    -0.0120 C.3   1 <1>   0.1200 
 15 C       -2.7100    -8.8930     1.3050 C.3   1 <1>   0.1200 
 16 C       -3.7260    -9.5080    -0.9570 C.3   1 <1>  -0.0170 
 17 O       -1.3150    -8.9890     1.2590 O.3   1 <1>  -0.5600 
 18 C       -5.0120   -10.0910    -0.3910 C.ar  1 <1>  -0.1430 
 19 C       -5.0490   -11.3230     0.2300 C.ar  1 <1>  -0.1500 
 20 C       -6.2120    -9.4140    -0.4730 C.ar  1 <1>  -0.1500 
 21 C       -6.2490   -11.8010     0.7310 C.ar  1 <1>   0.1600 
 22 C       -7.3570    -9.9820     0.0600 C.ar  1 <1>   0.1600 
 23 N       -7.4040   -11.1590     0.6620 N.ar  1 <1>  -0.6200 
 24 H       -1.6650    -1.2840     0.8540 H     1 <1>   0.1500 
 25 H        3.0550     0.4680     2.0610 H     1 <1>   0.4000 
 26 H        3.8360    -0.9600     1.4270 H     1 <1>   0.4000 
 27 H        0.3250    -3.6390    -1.1970 H     1 <1>   0.0800 
 28 H        0.4070    -4.4550     0.3340 H     1 <1>   0.0800 
 29 H       -2.0750    -3.1840    -0.8520 H     1 <1>   0.0800 
 30 H       -2.0100    -3.9370     0.7200 H     1 <1>   0.0800 
 31 H       -1.4940    -6.3410     0.8450 H     1 <1>   0.3700 
 32 H       -1.8700    -7.8050    -1.7190 H     1 <1>   0.0800 
 33 H       -3.9390    -7.6280     0.0460 H     1 <1>   0.0800 
 34 H        0.1180    -8.1780     0.0720 H     1 <1>   0.0800 
 35 H       -0.7260    -9.5870    -0.5610 H     1 <1>   0.0800 
 36 H       -3.1160    -9.8580     1.5530 H     1 <1>   0.0800 
 37 H       -2.9620    -8.1920     2.0820 H     1 <1>   0.0800 
 38 H       -2.9930   -10.2890    -1.0660 H     1 <1>   0.0800 
 39 H       -3.9300    -9.1180    -1.9390 H     1 <1>   0.0800 
 40 H       -4.1590   -11.9170     0.3320 H     1 <1>   0.1500 
 41 H       -6.2680    -8.4510    -0.9470 H     1 <1>   0.1500 
 42 H       -6.2590   -12.7640     1.2130 H     1 <1>   0.1500 
 43 H       -8.2830    -9.4390    -0.0130 H     1 <1>   0.1500 
@<TRIPOS>BOND
  1   1   2  1   
  2   1   3  1   
  3   2   4  2   
  4   2   5  1   
  5   3   6  2   
  6   3  24  1   
  7   4   6  1   
  8   5  25  1   
  9   5  26  1   
 10   6   7  1   
 11   7   8  1   
 12   7  27  1   
 13   7  28  1   
 14   8   9  1   
 15   8  29  1   
 16   8  30  1   
 17   9  10  2   
 18   9  11  am  
 19  11  12  1   
 20  11  31  1   
 21  12  13  1   
 22  12  14  1   
 23  12  32  1   
 24  13  15  1   
 25  13  16  1   
 26  13  33  1   
 27  14  17  1   
 28  14  34  1   
 29  14  35  1   
 30  15  17  1   
 31  15  36  1   
 32  15  37  1   
 33  16  18  1   
 34  16  38  1   
 35  16  39  1   
 36  18  19  ar  
 37  18  20  ar  
 38  19  21  ar  
 39  19  40  1   
 40  20  22  ar  
 41  20  41  1   
 42  21  23  ar  
 43  21  42  1   
 44  22  23  ar  
 45  22  43  1   
@<TRIPOS>SUBSTRUCTURE
  1 ****  11 GROUP 4 **** **** 0

# MOE 2024.06 (io_trps.svl 2023.06)
