@<TRIPOS>MOLECULE
NONAME
60 62 1 0 0 
SMALL
USER_CHARGES


@<TRIPOS>ATOM
  1 O        0.0200    -0.1660    -0.4700 O.3   1 <1>  -0.3630 
  2 C       -0.0790    -1.4890    -0.2090 C.ar  1 <1>   0.0830 
  3 C        0.6840     0.6070     0.5060 C.3   1 <1>   0.2580 
  4 C       -0.8740    -2.0040     0.8210 C.ar  1 <1>   0.0820 
  5 C        0.6600    -2.3510    -1.0010 C.ar  1 <1>  -0.1500 
  6 C        0.8340     2.0170    -0.0390 C.2   1 <1>  -0.2880 
  7 O       -1.6660    -1.2390     1.6140 O.3   1 <1>  -0.3630 
  8 C       -0.8720    -3.3660     1.0670 C.ar  1 <1>  -0.1500 
  9 C        0.6420    -3.7140    -0.7590 C.ar  1 <1>  -0.1500 
 10 C        1.9480     2.7480    -0.1800 C.2   1 <1>  -0.2760 
 11 C       -2.6460    -0.4390     0.9860 C.3   1 <1>   0.0400 
 12 C       -0.1240    -4.2280     0.2780 C.ar  1 <1>  -0.1430 
 13 C        1.9080     4.1540    -0.7560 C.3   1 <1>  -0.1020 
 14 C        3.3610     2.3150     0.1880 C.3   1 <1>  -0.1020 
 15 C       -0.1550    -5.7190     0.5550 C.3   1 <1>   0.4860 
 16 N       -1.0090    -6.3810    -0.4700 N.4   1 <1>  -0.9590 
 17 C       -2.4420    -5.9690    -0.3280 C.3   1 <1>   0.3430 
 18 C       -0.9770    -7.8640    -0.2790 C.3   1 <1>   0.3430 
 19 C       -3.0870    -7.0240     0.5750 C.3   1 <1>   0.2000 
 20 C       -2.3880    -8.3080     0.1260 C.3   1 <1>  -0.0800 
 21 O       -2.7560    -6.7330     1.8960 O.3   1 <1>  -0.6800 
 22 C       -2.3740    -9.4650     1.1440 C.3   1 <1>   0.0210 
 23 C       -1.6780   -10.6860     0.5730 C.2   1 <1>   0.1080 
 24 N       -0.4400   -10.6760     0.1840 N.2   1 <1>  -0.7070 
 25 C       -2.2720   -11.9320     0.4080 C.2   1 <1>  -0.1500 
 26 N       -0.2050   -11.9390    -0.2330 N.pl3 1 <1>   0.3000 
 27 C       -1.3030   -12.7130    -0.1110 C.2   1 <1>  -0.3320 
 28 C       -1.3570   -14.1800    -0.4990 C.3   1 <1>  -0.0600 
 29 H        0.0910     0.6150     1.4030 H     1 <1>   0.0800 
 30 H        1.6320     0.1470     0.7110 H     1 <1>   0.0800 
 31 H        1.2550    -1.9420    -1.7990 H     1 <1>   0.1500 
 32 H       -0.1270     2.4050    -0.3270 H     1 <1>   0.1500 
 33 H       -1.4700    -3.7360     1.8830 H     1 <1>   0.1500 
 34 H        1.2370    -4.3590    -1.3840 H     1 <1>   0.1500 
 35 H       -3.3310    -0.0950     1.7400 H     1 <1>   0.0800 
 36 H       -3.1690    -1.0300     0.2550 H     1 <1>   0.0800 
 37 H       -2.1760     0.4050     0.5160 H     1 <1>   0.0800 
 38 H        2.5090     4.2070    -1.6470 H     1 <1>   0.0800 
 39 H        2.2860     4.8610    -0.0390 H     1 <1>   0.0800 
 40 H        0.9020     4.4350    -1.0110 H     1 <1>   0.0800 
 41 H        3.7750     2.9940     0.9120 H     1 <1>   0.0800 
 42 H        3.9860     2.3240    -0.6870 H     1 <1>   0.0800 
 43 H        3.3880     1.3280     0.6060 H     1 <1>   0.0800 
 44 H       -0.5490    -5.9010     1.5420 H     1 <1>   0.0800 
 45 H        0.8470    -6.1110     0.5120 H     1 <1>   0.0800 
 46 H       -0.6540    -6.1110    -1.3940 H     1 <1>   0.4500 
 47 H       -2.5520    -4.9800     0.0850 H     1 <1>   0.0800 
 48 H       -2.9180    -6.0000    -1.2940 H     1 <1>   0.0800 
 49 H       -0.6750    -8.3710    -1.1820 H     1 <1>   0.0800 
 50 H       -0.2800    -8.1270     0.5010 H     1 <1>   0.0800 
 51 H       -4.1590    -7.0510     0.4780 H     1 <1>   0.0800 
 52 H       -2.8760    -8.6610    -0.7660 H     1 <1>   0.0800 
 53 H       -3.3180    -7.2360     2.5230 H     1 <1>   0.4000 
 54 H       -3.3810    -9.7270     1.4130 H     1 <1>   0.0800 
 55 H       -1.8520    -9.1780     2.0400 H     1 <1>   0.0800 
 56 H       -3.2860   -12.1980     0.6520 H     1 <1>   0.1500 
 57 H        0.7090   -12.2470    -0.5880 H     1 <1>   0.2700 
 58 H       -2.3370   -14.5780    -0.3060 H     1 <1>   0.0800 
 59 H       -0.6420   -14.7440     0.0730 H     1 <1>   0.0800 
 60 H       -1.1400   -14.2990    -1.5460 H     1 <1>   0.0800 
@<TRIPOS>BOND
  1   1   2  1   
  2   1   3  1   
  3   2   4  ar  
  4   2   5  ar  
  5   3   6  1   
  6   3  29  1   
  7   3  30  1   
  8   4   7  1   
  9   4   8  ar  
 10   5   9  ar  
 11   5  31  1   
 12   6  10  2   
 13   6  32  1   
 14   7  11  1   
 15   8  12  ar  
 16   8  33  1   
 17   9  12  ar  
 18   9  34  1   
 19  10  13  1   
 20  10  14  1   
 21  11  35  1   
 22  11  36  1   
 23  11  37  1   
 24  12  15  1   
 25  13  38  1   
 26  13  39  1   
 27  13  40  1   
 28  14  41  1   
 29  14  42  1   
 30  14  43  1   
 31  15  16  1   
 32  15  44  1   
 33  15  45  1   
 34  16  17  1   
 35  16  18  1   
 36  16  46  1   
 37  17  19  1   
 38  17  47  1   
 39  17  48  1   
 40  18  20  1   
 41  18  49  1   
 42  18  50  1   
 43  19  20  1   
 44  19  21  1   
 45  19  51  1   
 46  20  22  1   
 47  20  52  1   
 48  21  53  1   
 49  22  23  1   
 50  22  54  1   
 51  22  55  1   
 52  23  24  2   
 53  23  25  1   
 54  24  26  1   
 55  25  27  2   
 56  25  56  1   
 57  26  27  1   
 58  26  57  1   
 59  27  28  1   
 60  28  58  1   
 61  28  59  1   
 62  28  60  1   
@<TRIPOS>SUBSTRUCTURE
  1 ****  12 GROUP 4 **** **** 0

# MOE 2024.06 (io_trps.svl 2023.06)
