@<TRIPOS>MOLECULE
NONAME
47 50 1 0 0 
SMALL
USER_CHARGES


@<TRIPOS>ATOM
  1 O        2.8340     0.1600    -0.7260 O.2   1 <1>  -0.5700 
  2 C        2.7860    -1.0210    -0.4930 C.2   1 <1>   0.5690 
  3 N        1.8090    -1.5270     0.2870 N.am  1 <1>  -0.7300 
  4 C        3.8410    -1.9420    -1.0520 C.3   1 <1>  -0.0990 
  5 C        1.4760    -2.9550     0.4760 C.3   1 <1>   0.1400 
  6 C        3.3460    -3.3800    -1.3070 C.3   1 <1>  -0.0800 
  7 C        2.5180    -3.9170    -0.1290 C.3   1 <1>  -0.0800 
  8 C        4.5430    -4.3480    -1.4050 C.3   1 <1>  -0.1600 
  9 C        3.5760    -4.4350     0.8480 C.3   1 <1>  -0.1600 
 10 C        4.5800    -5.1230    -0.0760 C.3   1 <1>   0.2200 
 11 N        5.9240    -5.3240     0.5460 N.am  1 <1>  -0.6600 
 12 C        7.0050    -4.4690     0.4300 C.2   1 <1>   0.5440 
 13 C        6.1710    -6.7280     0.9810 C.3   1 <1>   0.0600 
 14 O        8.0910    -4.9500     0.1570 O.2   1 <1>  -0.5700 
 15 C        6.8910    -3.0470     0.6620 C.ar  1 <1>   0.0860 
 16 C        7.2730    -2.1160    -0.3240 C.ar  1 <1>   0.0000 
 17 C        6.3940    -2.5400     1.8530 C.ar  1 <1>  -0.1500 
 18 C        7.0780    -0.7500    -0.1260 C.ar  1 <1>  -0.1520 
 19 C        7.8250    -2.2490    -1.6150 C.2   1 <1>  -0.1500 
 20 C        6.2230    -1.1700     2.0610 C.ar  1 <1>  -0.1500 
 21 N        7.4630    -0.0840    -1.2640 N.pl3 1 <1>   0.0480 
 22 C        6.5540    -0.2700     1.0750 C.ar  1 <1>  -0.1500 
 23 C        7.9180    -1.0110    -2.1560 C.2   1 <1>  -0.3020 
 24 C        7.3240     1.3610    -1.5050 C.3   1 <1>   0.0160 
 25 H        1.1430    -0.8440     0.6520 H     1 <1>   0.3700 
 26 H        4.2430    -1.5220    -1.9550 H     1 <1>   0.0800 
 27 H        4.6190    -1.9550    -0.3220 H     1 <1>   0.0800 
 28 H        1.3570    -3.1580     1.5270 H     1 <1>   0.0800 
 29 H        0.5270    -3.1330    -0.0020 H     1 <1>   0.0800 
 30 H        2.7590    -3.3910    -2.2100 H     1 <1>   0.0800 
 31 H        1.9750    -4.7810    -0.4770 H     1 <1>   0.0800 
 32 H        5.4560    -3.8270    -1.6180 H     1 <1>   0.0800 
 33 H        4.3710    -5.0460    -2.2040 H     1 <1>   0.0800 
 34 H        3.1610    -5.1240     1.5600 H     1 <1>   0.0800 
 35 H        4.0270    -3.6090     1.3620 H     1 <1>   0.0800 
 36 H        4.1740    -6.0970    -0.2970 H     1 <1>   0.0800 
 37 H        5.3700    -7.0630     1.6160 H     1 <1>   0.0800 
 38 H        7.0950    -6.7900     1.5320 H     1 <1>   0.0800 
 39 H        6.2410    -7.3670     0.1190 H     1 <1>   0.0800 
 40 H        6.1230    -3.2240     2.6380 H     1 <1>   0.1500 
 41 H        8.1070    -3.1920    -2.0500 H     1 <1>   0.1500 
 42 H        5.8250    -0.8220     2.9990 H     1 <1>   0.1500 
 43 H        6.4110     0.7860     1.2200 H     1 <1>   0.1500 
 44 H        8.2860    -0.7360    -3.1280 H     1 <1>   0.1500 
 45 H        7.6730     1.5980    -2.4930 H     1 <1>   0.0800 
 46 H        7.9050     1.8980    -0.7780 H     1 <1>   0.0800 
 47 H        6.2880     1.6340    -1.4140 H     1 <1>   0.0800 
@<TRIPOS>BOND
  1   1   2  2   
  2   2   3  am  
  3   2   4  1   
  4   3   5  1   
  5   3  25  1   
  6   4   6  1   
  7   4  26  1   
  8   4  27  1   
  9   5   7  1   
 10   5  28  1   
 11   5  29  1   
 12   6   7  1   
 13   6   8  1   
 14   6  30  1   
 15   7   9  1   
 16   7  31  1   
 17   8  10  1   
 18   8  32  1   
 19   8  33  1   
 20   9  10  1   
 21   9  34  1   
 22   9  35  1   
 23  10  11  1   
 24  10  36  1   
 25  11  12  am  
 26  11  13  1   
 27  12  14  2   
 28  12  15  1   
 29  13  37  1   
 30  13  38  1   
 31  13  39  1   
 32  15  16  ar  
 33  15  17  ar  
 34  16  18  ar  
 35  16  19  1   
 36  17  20  ar  
 37  17  40  1   
 38  18  21  1   
 39  18  22  ar  
 40  19  23  2   
 41  19  41  1   
 42  20  22  ar  
 43  20  42  1   
 44  21  23  1   
 45  21  24  1   
 46  22  43  1   
 47  23  44  1   
 48  24  45  1   
 49  24  46  1   
 50  24  47  1   
@<TRIPOS>SUBSTRUCTURE
  1 ****  15 GROUP 4 **** **** 0

# MOE 2024.06 (io_trps.svl 2023.06)
