@<TRIPOS>MOLECULE
NONAME
53 57 1 0 0 
SMALL
USER_CHARGES


@<TRIPOS>ATOM
  1 F       -5.4820     0.6820    -1.7540 F     1 <1>  -0.1900 
  2 C       -5.0940    -0.4950    -1.3080 C.ar  1 <1>   0.1900 
  3 C       -4.4700    -0.6530    -0.0680 C.ar  1 <1>   0.4100 
  4 C       -5.3250    -1.5940    -2.0870 C.ar  1 <1>   0.1600 
  5 N       -4.1300    -1.8680     0.3280 N.ar  1 <1>  -0.6200 
  6 N       -4.1840     0.3900     0.8120 N.pl3 1 <1>  -0.8380 
  7 N       -4.9800    -2.8050    -1.6960 N.ar  1 <1>  -0.6200 
  8 C       -4.3970    -2.8590    -0.5020 C.ar  1 <1>   0.7200 
  9 C       -3.8780     1.7690     0.3600 C.3   1 <1>   0.2090 
 10 C       -3.5890     0.1450     2.1490 C.3   1 <1>   0.2090 
 11 N       -4.0360    -4.0740    -0.0320 N.pl3 1 <1>  -0.8690 
 12 C       -2.9180     2.3300     1.4020 C.3   1 <1>  -0.1600 
 13 C       -3.2050     1.5240     2.6640 C.3   1 <1>  -0.1600 
 14 C       -4.8330    -5.2860    -0.3140 C.3   1 <1>   0.2890 
 15 C       -6.1440    -5.2510     0.4770 C.3   1 <1>  -0.0800 
 16 C       -4.1250    -6.5360     0.2090 C.3   1 <1>   0.1200 
 17 C       -6.0890    -6.5220     1.3270 C.3   1 <1>   0.1200 
 18 C       -7.3740    -5.1840    -0.4470 C.3   1 <1>  -0.0170 
 19 O       -4.7440    -6.8550     1.4140 O.3   1 <1>  -0.5600 
 20 C       -8.7430    -5.1490     0.2450 C.ar  1 <1>  -0.1440 
 21 C       -9.9210    -5.4170    -0.4960 C.ar  1 <1>   0.0000 
 22 C       -8.9010    -4.8490     1.5690 C.ar  1 <1>  -0.1500 
 23 C      -11.1590    -5.4020     0.1950 C.ar  1 <1>   0.3100 
 24 C       -9.9490    -5.6900    -1.8850 C.ar  1 <1>  -0.1500 
 25 C      -10.1730    -4.8490     2.1520 C.ar  1 <1>   0.1600 
 26 N      -11.2670    -5.1180     1.5160 N.ar  1 <1>  -0.6200 
 27 C      -12.3390    -5.6840    -0.5120 C.ar  1 <1>  -0.1500 
 28 C      -11.1180    -5.9560    -2.5450 C.ar  1 <1>  -0.1500 
 29 C      -12.3300    -5.9580    -1.8520 C.ar  1 <1>  -0.1500 
 30 H       -5.8030    -1.4810    -3.0430 H     1 <1>   0.1500 
 31 H       -3.4290     1.7710    -0.6190 H     1 <1>   0.0800 
 32 H       -4.7900     2.3420     0.3430 H     1 <1>   0.0800 
 33 H       -4.2960    -0.3430     2.7980 H     1 <1>   0.0800 
 34 H       -2.7100    -0.4700     2.0420 H     1 <1>   0.0800 
 35 H       -3.7230    -4.0080     0.9360 H     1 <1>   0.4000 
 36 H       -1.9090     2.1510     1.0760 H     1 <1>   0.0800 
 37 H       -3.0590     3.3860     1.5470 H     1 <1>   0.0800 
 38 H       -4.0460     1.9460     3.1870 H     1 <1>   0.0800 
 39 H       -2.3600     1.4820     3.3280 H     1 <1>   0.0800 
 40 H       -4.9880    -5.3800    -1.3760 H     1 <1>   0.0800 
 41 H       -6.1420    -4.3990     1.1330 H     1 <1>   0.0800 
 42 H       -3.0740    -6.3790     0.3760 H     1 <1>   0.0800 
 43 H       -4.2730    -7.3630    -0.4630 H     1 <1>   0.0800 
 44 H       -6.6030    -7.3410     0.8520 H     1 <1>   0.0800 
 45 H       -6.4770    -6.3750     2.3200 H     1 <1>   0.0800 
 46 H       -7.3350    -6.0440    -1.0910 H     1 <1>   0.0800 
 47 H       -7.2940    -4.3080    -1.0670 H     1 <1>   0.0800 
 48 H       -8.0780    -4.6020     2.2120 H     1 <1>   0.1500 
 49 H       -9.0340    -5.6830    -2.4460 H     1 <1>   0.1500 
 50 H      -10.2450    -4.6100     3.2000 H     1 <1>   0.1500 
 51 H      -13.2590    -5.6740     0.0420 H     1 <1>   0.1500 
 52 H      -11.1210    -6.1650    -3.6010 H     1 <1>   0.1500 
 53 H      -13.2430    -6.1720    -2.3800 H     1 <1>   0.1500 
@<TRIPOS>BOND
  1   1   2  1   
  2   2   3  ar  
  3   2   4  ar  
  4   3   5  ar  
  5   3   6  1   
  6   4   7  ar  
  7   4  30  1   
  8   5   8  ar  
  9   6   9  1   
 10   6  10  1   
 11   7   8  ar  
 12   8  11  1   
 13   9  12  1   
 14   9  31  1   
 15   9  32  1   
 16  10  13  1   
 17  10  33  1   
 18  10  34  1   
 19  11  14  1   
 20  11  35  1   
 21  12  13  1   
 22  12  36  1   
 23  12  37  1   
 24  13  38  1   
 25  13  39  1   
 26  14  15  1   
 27  14  16  1   
 28  14  40  1   
 29  15  17  1   
 30  15  18  1   
 31  15  41  1   
 32  16  19  1   
 33  16  42  1   
 34  16  43  1   
 35  17  19  1   
 36  17  44  1   
 37  17  45  1   
 38  18  20  1   
 39  18  46  1   
 40  18  47  1   
 41  20  21  ar  
 42  20  22  ar  
 43  21  23  ar  
 44  21  24  ar  
 45  22  25  ar  
 46  22  48  1   
 47  23  26  ar  
 48  23  27  ar  
 49  24  28  ar  
 50  24  49  1   
 51  25  26  ar  
 52  25  50  1   
 53  27  29  ar  
 54  27  51  1   
 55  28  29  ar  
 56  28  52  1   
 57  29  53  1   
@<TRIPOS>SUBSTRUCTURE
  1 ****  18 GROUP 4 **** **** 0

# MOE 2024.06 (io_trps.svl 2023.06)
