@<TRIPOS>MOLECULE
NONAME
50 52 1 0 0 
SMALL
USER_CHARGES


@<TRIPOS>ATOM
  1 O       -0.0460     0.2200    -0.5370 O.3   1 <1>  -0.5600 
  2 C        1.0720    -0.6060    -0.7400 C.3   1 <1>   0.2000 
  3 C       -0.2630     0.6740     0.7670 C.3   1 <1>   0.1200 
  4 C        2.2360     0.2460    -1.2990 C.3   1 <1>   0.3430 
  5 C        0.6620    -1.7420    -1.7130 C.3   1 <1>   0.3430 
  6 C        0.9000     1.5360     1.2720 C.3   1 <1>  -0.1600 
  7 N        2.7480     1.3160    -0.3700 N.4   1 <1>  -0.9590 
  8 N       -0.7780    -2.1350    -1.5260 N.4   1 <1>  -0.9590 
  9 C        1.6910     2.2340     0.1670 C.3   1 <1>   0.3430 
 10 C        3.8380     2.1030    -1.0170 C.3   1 <1>   0.4860 
 11 C       -0.9760    -3.5480    -1.0480 C.3   1 <1>   0.5240 
 12 C       -1.6200    -1.8210    -2.7200 C.3   1 <1>   0.2630 
 13 C        4.5590     2.8920     0.0570 C.ar  1 <1>  -0.1440 
 14 C       -0.3410    -3.7750     0.3230 C.2   1 <1>   0.1080 
 15 C        5.3970     2.2490     0.9580 C.ar  1 <1>  -0.1500 
 16 C        4.3810     4.2660     0.1510 C.ar  1 <1>  -0.1500 
 17 N       -0.1140    -2.8410     1.1810 N.2   1 <1>  -0.4100 
 18 C        0.0690    -5.0100     0.8250 C.2   1 <1>  -0.1500 
 19 C        6.0360     2.9710     1.9510 C.ar  1 <1>  -0.1500 
 20 C        5.0220     4.9850     1.1440 C.ar  1 <1>  -0.1500 
 21 O        0.4270    -3.4180     2.2150 O.3   1 <1>  -0.0190 
 22 C        0.5490    -4.7050     2.0410 C.2   1 <1>  -0.0100 
 23 C        5.8470     4.3380     2.0450 C.ar  1 <1>  -0.1500 
 24 H        1.3720    -1.0450     0.1950 H     1 <1>   0.0800 
 25 H       -0.4330    -0.1670     1.4180 H     1 <1>   0.0800 
 26 H       -1.1640     1.2650     0.7430 H     1 <1>   0.0800 
 27 H        1.9020     0.7040    -2.2160 H     1 <1>   0.0800 
 28 H        3.0520    -0.4140    -1.5450 H     1 <1>   0.0800 
 29 H        1.3070    -2.5920    -1.5560 H     1 <1>   0.0800 
 30 H        0.8100    -1.4050    -2.7260 H     1 <1>   0.0800 
 31 H        1.5530     0.9540     1.8970 H     1 <1>   0.0800 
 32 H        0.4770     2.2930     1.9100 H     1 <1>   0.0800 
 33 H        3.1870     0.8870     0.4550 H     1 <1>   0.4500 
 34 H       -1.0990    -1.5250    -0.7490 H     1 <1>   0.4500 
 35 H        2.1580     3.1060     0.5970 H     1 <1>   0.0800 
 36 H        1.0290     2.5610    -0.6200 H     1 <1>   0.0800 
 37 H        3.4330     2.7710    -1.7590 H     1 <1>   0.0800 
 38 H        4.5440     1.4440    -1.4960 H     1 <1>   0.0800 
 39 H       -0.5510    -4.2390    -1.7570 H     1 <1>   0.0800 
 40 H       -2.0300    -3.7560    -0.9680 H     1 <1>   0.0800 
 41 H       -1.3130    -2.4110    -3.5680 H     1 <1>   0.0800 
 42 H       -1.5300    -0.7760    -2.9730 H     1 <1>   0.0800 
 43 H       -2.6580    -2.0280    -2.5120 H     1 <1>   0.0800 
 44 H        5.5730     1.1890     0.9020 H     1 <1>   0.1500 
 45 H        3.7490     4.7950    -0.5430 H     1 <1>   0.1500 
 46 H        0.0060    -5.9730     0.3490 H     1 <1>   0.1500 
 47 H        6.6880     2.4740     2.6510 H     1 <1>   0.1500 
 48 H        4.8840     6.0510     1.2180 H     1 <1>   0.1500 
 49 H        0.9760    -5.3110     2.8220 H     1 <1>   0.1500 
 50 H        6.3460     4.8990     2.8180 H     1 <1>   0.1500 
@<TRIPOS>BOND
  1   1   2  1   
  2   1   3  1   
  3   2   4  1   
  4   2   5  1   
  5   2  24  1   
  6   3   6  1   
  7   3  25  1   
  8   3  26  1   
  9   4   7  1   
 10   4  27  1   
 11   4  28  1   
 12   5   8  1   
 13   5  29  1   
 14   5  30  1   
 15   6   9  1   
 16   6  31  1   
 17   6  32  1   
 18   7   9  1   
 19   7  10  1   
 20   7  33  1   
 21   8  11  1   
 22   8  12  1   
 23   8  34  1   
 24   9  35  1   
 25   9  36  1   
 26  10  13  1   
 27  10  37  1   
 28  10  38  1   
 29  11  14  1   
 30  11  39  1   
 31  11  40  1   
 32  12  41  1   
 33  12  42  1   
 34  12  43  1   
 35  13  15  ar  
 36  13  16  ar  
 37  14  17  2   
 38  14  18  1   
 39  15  19  ar  
 40  15  44  1   
 41  16  20  ar  
 42  16  45  1   
 43  17  21  1   
 44  18  22  2   
 45  18  46  1   
 46  19  23  ar  
 47  19  47  1   
 48  20  23  ar  
 49  20  48  1   
 50  21  22  1   
 51  22  49  1   
 52  23  50  1   
@<TRIPOS>SUBSTRUCTURE
  1 ****   2 GROUP 4 **** **** 0

# MOE 2024.06 (io_trps.svl 2023.06)
