@<TRIPOS>MOLECULE
NONAME
45 46 1 0 0 
SMALL
USER_CHARGES


@<TRIPOS>ATOM
  1 S        1.2280     0.3090     0.4510 S.o2  1 <1>   1.3330 
  2 O        0.8980    -0.9030    -0.2630 O.2   1 <1>  -0.6500 
  3 O        1.7590     0.2250     1.7950 O.2   1 <1>  -0.6500 
  4 N       -0.1600     1.2840     0.5140 N.am  1 <1>  -0.8490 
  5 C        2.3480     1.2660    -0.5640 C.3   1 <1>  -0.0550 
  6 C       -0.0310     2.4270     1.4250 C.3   1 <1>   0.1160 
  7 C       -1.3590     0.5110     0.8450 C.3   1 <1>   0.1160 
  8 C        3.6350     0.5130    -0.9610 C.3   1 <1>  -0.0800 
  9 C        4.6860     1.3550    -1.6720 C.3   1 <1>   0.2200 
 10 C        4.4320    -0.0850     0.2040 C.3   1 <1>   0.1200 
 11 N        4.8890     2.6370    -0.9590 N.am  1 <1>  -0.7300 
 12 C        5.9180     0.4880    -1.4550 C.3   1 <1>   0.1200 
 13 O        5.7800    -0.0370    -0.1670 O.3   1 <1>  -0.5600 
 14 C        4.2690     3.8180    -1.2360 C.2   1 <1>   0.5440 
 15 O        3.6500     3.9100    -2.2790 O.2   1 <1>  -0.5700 
 16 C        4.3300     4.9310    -0.3080 C.ar  1 <1>   0.0860 
 17 C        4.2040     4.7720     1.0830 C.ar  1 <1>   0.0820 
 18 C        4.5140     6.2210    -0.8160 C.ar  1 <1>  -0.1500 
 19 O        3.9860     3.5060     1.5470 O.3   1 <1>  -0.3630 
 20 C        4.2960     5.9140     1.8890 C.ar  1 <1>   0.1900 
 21 C        4.5950     7.3320     0.0020 C.ar  1 <1>  -0.1500 
 22 C        3.7270     3.1560     2.8910 C.3   1 <1>   0.0400 
 23 F        4.2040     5.8430     3.1930 F     1 <1>  -0.1900 
 24 C        4.4890     7.1790     1.3710 C.ar  1 <1>  -0.1500 
 25 H        1.8410     1.5660    -1.4610 H     1 <1>   0.0800 
 26 H        2.5930     2.1550    -0.0250 H     1 <1>   0.0800 
 27 H       -0.9090     3.0470     1.3640 H     1 <1>   0.0800 
 28 H        0.8220     3.0250     1.1550 H     1 <1>   0.0800 
 29 H        0.0900     2.0880     2.4410 H     1 <1>   0.0800 
 30 H       -2.2250     1.1510     0.8510 H     1 <1>   0.0800 
 31 H       -1.2520     0.0480     1.8120 H     1 <1>   0.0800 
 32 H       -1.5160    -0.2590     0.1080 H     1 <1>   0.0800 
 33 H        3.3570    -0.3020    -1.6080 H     1 <1>   0.0800 
 34 H        4.4690     1.5220    -2.7140 H     1 <1>   0.0800 
 35 H        4.1570    -1.1070     0.4030 H     1 <1>   0.0800 
 36 H        4.3250     0.5010     1.1010 H     1 <1>   0.0800 
 37 H        5.2950     2.5200    -0.0250 H     1 <1>   0.3700 
 38 H        6.8360     1.0440    -1.5260 H     1 <1>   0.0800 
 39 H        5.9320    -0.3360    -2.1480 H     1 <1>   0.0800 
 40 H        4.5950     6.3450    -1.8840 H     1 <1>   0.1500 
 41 H        4.7400     8.3110    -0.4240 H     1 <1>   0.1500 
 42 H        3.5250     2.1000     2.9300 H     1 <1>   0.0800 
 43 H        2.8680     3.7020     3.2390 H     1 <1>   0.0800 
 44 H        4.5950     3.3810     3.4860 H     1 <1>   0.0800 
 45 H        4.5520     8.0290     2.0280 H     1 <1>   0.1500 
@<TRIPOS>BOND
  1   1   2  2   
  2   1   3  2   
  3   1   4  am  
  4   1   5  1   
  5   4   6  1   
  6   4   7  1   
  7   5   8  1   
  8   5  25  1   
  9   5  26  1   
 10   6  27  1   
 11   6  28  1   
 12   6  29  1   
 13   7  30  1   
 14   7  31  1   
 15   7  32  1   
 16   8   9  1   
 17   8  10  1   
 18   8  33  1   
 19   9  11  1   
 20   9  12  1   
 21   9  34  1   
 22  10  13  1   
 23  10  35  1   
 24  10  36  1   
 25  11  14  am  
 26  11  37  1   
 27  12  13  1   
 28  12  38  1   
 29  12  39  1   
 30  14  15  2   
 31  14  16  1   
 32  16  17  ar  
 33  16  18  ar  
 34  17  19  1   
 35  17  20  ar  
 36  18  21  ar  
 37  18  40  1   
 38  19  22  1   
 39  20  23  1   
 40  20  24  ar  
 41  21  24  ar  
 42  21  41  1   
 43  22  42  1   
 44  22  43  1   
 45  22  44  1   
 46  24  45  1   
@<TRIPOS>SUBSTRUCTURE
  1 ****  19 GROUP 4 **** **** 0

# MOE 2024.06 (io_trps.svl 2023.06)
