@<TRIPOS>MOLECULE
NONAME
36 37 1 0 0 
SMALL
USER_CHARGES


@<TRIPOS>ATOM
  1 S        0.3530     0.2220     0.1610 S.3   1 <1>  -0.0800 
  2 C       -1.3980     0.1080     0.2820 C.2   1 <1>  -0.1400 
  3 C        0.5670    -1.0780     1.3190 C.2   1 <1>  -0.1100 
  4 C       -1.7410    -0.8640     1.1500 C.2   1 <1>  -0.1500 
  5 C       -2.2000     1.0750    -0.5760 C.3   1 <1>   0.1000 
  6 C       -0.6240    -1.5370     1.7400 C.2   1 <1>  -0.1500 
  7 C       -1.9380     2.5370    -0.2170 C.3   1 <1>   0.1400 
  8 C       -3.7170     0.9290    -0.4370 C.3   1 <1>  -0.1600 
  9 N       -3.1990     3.2380    -0.5440 N.am  1 <1>  -0.6600 
 10 C       -4.2770     2.2840    -0.8580 C.3   1 <1>   0.1400 
 11 C       -3.3740     4.5900    -0.4910 C.2   1 <1>   0.7800 
 12 O       -4.4440     5.1060    -0.7430 O.2   1 <1>  -0.5700 
 13 O       -2.3090     5.3170    -0.1470 O.3   1 <1>  -0.4300 
 14 C       -2.2380     6.7200    -0.0170 C.3   1 <1>   0.2800 
 15 C       -0.7950     7.0100     0.3980 C.3   1 <1>  -0.2400 
 16 C       -2.5220     7.3930    -1.3650 C.3   1 <1>  -0.2400 
 17 C       -3.1870     7.1980     1.0880 C.3   1 <1>  -0.2400 
 18 H        1.5750    -1.3620     1.5630 H     1 <1>   0.1500 
 19 H       -2.7450    -1.1500     1.4110 H     1 <1>   0.1500 
 20 H       -1.9290     0.9300    -1.6080 H     1 <1>   0.0800 
 21 H       -0.7720    -2.3320     2.4500 H     1 <1>   0.1500 
 22 H       -1.1130     2.9400    -0.7790 H     1 <1>   0.0800 
 23 H       -1.7420     2.6380     0.8370 H     1 <1>   0.0800 
 24 H       -3.9820     0.7600     0.5920 H     1 <1>   0.0800 
 25 H       -4.1060     0.1270    -1.0380 H     1 <1>   0.0800 
 26 H       -5.1780     2.5310    -0.3220 H     1 <1>   0.0800 
 27 H       -4.4690     2.3070    -1.9180 H     1 <1>   0.0800 
 28 H       -0.1130     6.6570    -0.3550 H     1 <1>   0.0800 
 29 H       -0.5710     6.5230     1.3300 H     1 <1>   0.0800 
 30 H       -0.6460     8.0670     0.5220 H     1 <1>   0.0800 
 31 H       -1.8880     6.9800    -2.1290 H     1 <1>   0.0800 
 32 H       -2.3310     8.4480    -1.2960 H     1 <1>   0.0800 
 33 H       -3.5490     7.2670    -1.6530 H     1 <1>   0.0800 
 34 H       -3.0070     6.6530     1.9970 H     1 <1>   0.0800 
 35 H       -4.2140     7.0740     0.7990 H     1 <1>   0.0800 
 36 H       -3.0290     8.2440     1.2800 H     1 <1>   0.0800 
@<TRIPOS>BOND
  1   1   2  1   
  2   1   3  1   
  3   2   4  2   
  4   2   5  1   
  5   3   6  2   
  6   3  18  1   
  7   4   6  1   
  8   4  19  1   
  9   5   7  1   
 10   5   8  1   
 11   5  20  1   
 12   6  21  1   
 13   7   9  1   
 14   7  22  1   
 15   7  23  1   
 16   8  10  1   
 17   8  24  1   
 18   8  25  1   
 19   9  10  1   
 20   9  11  am  
 21  10  26  1   
 22  10  27  1   
 23  11  12  2   
 24  11  13  1   
 25  13  14  1   
 26  14  15  1   
 27  14  16  1   
 28  14  17  1   
 29  15  28  1   
 30  15  29  1   
 31  15  30  1   
 32  16  31  1   
 33  16  32  1   
 34  16  33  1   
 35  17  34  1   
 36  17  35  1   
 37  17  36  1   
@<TRIPOS>SUBSTRUCTURE
  1 ****   7 GROUP 4 **** **** 0

# MOE 2024.06 (io_trps.svl 2023.06)
