@<TRIPOS>MOLECULE
NONAME
50 52 1 0 0 
SMALL
USER_CHARGES


@<TRIPOS>ATOM
  1 S        0.0360    -0.2420     1.7240 S.o2  1 <1>   1.5010 
  2 O       -0.4930    -1.4480     2.3240 O.2   1 <1>  -0.6500 
  3 O        0.3430     0.8930     2.5700 O.2   1 <1>  -0.6500 
  4 N       -1.1090     0.2910     0.5950 N.am  1 <1>  -0.8490 
  5 C        1.4460    -0.6790     0.6890 C.2   1 <1>  -0.0630 
  6 C       -2.4450     0.4000     1.2030 C.3   1 <1>   0.1960 
  7 C       -0.7300     1.5640    -0.0220 C.3   1 <1>   0.1960 
  8 C        2.6080    -0.0550     0.3470 C.2   1 <1>  -0.3320 
  9 C        1.4940    -1.8740    -0.0140 C.2   1 <1>   0.1390 
 10 C       -3.5270     0.6770     0.1410 C.3   1 <1>   0.0000 
 11 C       -1.7050     1.9230    -1.1470 C.3   1 <1>  -0.1600 
 12 N        3.2690    -0.8800    -0.4980 N.pl3 1 <1>   0.3140 
 13 C        3.1350     1.3030     0.7910 C.3   1 <1>  -0.0600 
 14 N        2.5720    -2.0040    -0.7240 N.2   1 <1>  -0.7070 
 15 C       -4.9160     0.7550     0.8010 C.3   1 <1>   0.2000 
 16 C       -3.1570     1.9630    -0.6450 C.3   1 <1>  -0.1600 
 17 C       -3.7210    -0.5120    -0.8180 C.3   1 <1>  -0.1600 
 18 C        4.5840    -0.6650    -1.1410 C.3   1 <1>   0.0960 
 19 O       -5.1440     2.0030     1.3860 O.3   1 <1>  -0.5600 
 20 C       -5.9170     0.4630    -0.3190 C.3   1 <1>  -0.1600 
 21 C       -5.1590    -0.4010    -1.3370 C.3   1 <1>  -0.1600 
 22 C        5.7270    -1.1600    -0.2460 C.3   1 <1>  -0.2400 
 23 C       -6.2420     2.0620     2.2400 C.3   1 <1>   0.0400 
 24 H       -2.6880    -0.5180     1.7110 H     1 <1>   0.0800 
 25 H       -2.4480     1.1910     1.9350 H     1 <1>   0.0800 
 26 H       -0.7290     2.3470     0.7210 H     1 <1>   0.0800 
 27 H        0.2610     1.4900    -0.4350 H     1 <1>   0.0800 
 28 H        0.7160    -2.6200     0.0230 H     1 <1>   0.1500 
 29 H       -1.4410     2.8850    -1.5490 H     1 <1>   0.0800 
 30 H       -1.6000     1.2050    -1.9400 H     1 <1>   0.0800 
 31 H        2.4480     1.7860     1.4620 H     1 <1>   0.0800 
 32 H        3.2780     1.9440    -0.0610 H     1 <1>   0.0800 
 33 H        4.0740     1.1880     1.3030 H     1 <1>   0.0800 
 34 H       -4.9900    -0.0050     1.5610 H     1 <1>   0.0800 
 35 H       -3.8270     2.1140    -1.4720 H     1 <1>   0.0800 
 36 H       -3.2540     2.8160     0.0050 H     1 <1>   0.0800 
 37 H       -3.0050    -0.5320    -1.6190 H     1 <1>   0.0800 
 38 H       -3.6230    -1.4330    -0.2680 H     1 <1>   0.0800 
 39 H        4.5900    -1.2050    -2.0710 H     1 <1>   0.0800 
 40 H        4.7000     0.3810    -1.3560 H     1 <1>   0.0800 
 41 H       -6.7790    -0.0550     0.0620 H     1 <1>   0.0800 
 42 H       -6.2230     1.3830    -0.7870 H     1 <1>   0.0800 
 43 H       -5.6050    -1.3760    -1.4370 H     1 <1>   0.0800 
 44 H       -5.1670     0.0830    -2.2990 H     1 <1>   0.0800 
 45 H        5.6090    -2.2110    -0.0500 H     1 <1>   0.0800 
 46 H        5.7370    -0.6250     0.6860 H     1 <1>   0.0800 
 47 H        6.6700    -1.0090    -0.7410 H     1 <1>   0.0800 
 48 H       -6.2950     3.0570     2.6450 H     1 <1>   0.0800 
 49 H       -6.1120     1.3530     3.0390 H     1 <1>   0.0800 
 50 H       -7.1400     1.8510     1.6870 H     1 <1>   0.0800 
@<TRIPOS>BOND
  1   1   2  2   
  2   1   3  2   
  3   1   4  am  
  4   1   5  1   
  5   4   6  1   
  6   4   7  1   
  7   5   8  2   
  8   5   9  1   
  9   6  10  1   
 10   6  24  1   
 11   6  25  1   
 12   7  11  1   
 13   7  26  1   
 14   7  27  1   
 15   8  12  1   
 16   8  13  1   
 17   9  14  2   
 18   9  28  1   
 19  10  15  1   
 20  10  16  1   
 21  10  17  1   
 22  11  16  1   
 23  11  29  1   
 24  11  30  1   
 25  12  14  1   
 26  12  18  1   
 27  13  31  1   
 28  13  32  1   
 29  13  33  1   
 30  15  19  1   
 31  15  20  1   
 32  15  34  1   
 33  16  35  1   
 34  16  36  1   
 35  17  21  1   
 36  17  37  1   
 37  17  38  1   
 38  18  22  1   
 39  18  39  1   
 40  18  40  1   
 41  19  23  1   
 42  20  21  1   
 43  20  41  1   
 44  20  42  1   
 45  21  43  1   
 46  21  44  1   
 47  22  45  1   
 48  22  46  1   
 49  22  47  1   
 50  23  48  1   
 51  23  49  1   
 52  23  50  1   
@<TRIPOS>SUBSTRUCTURE
  1 ****   4 GROUP 4 **** **** 0

# MOE 2024.06 (io_trps.svl 2023.06)
