@<TRIPOS>MOLECULE
NONAME
42 43 1 0 0 
SMALL
USER_CHARGES


@<TRIPOS>ATOM
  1 S       -0.8860    -0.8200     0.2190 S.3   1 <1>  -0.3320 
  2 C       -0.4780    -2.4700    -0.3700 C.ar  1 <1>   0.1020 
  3 C        0.5820     0.2480    -0.1290 C.3   1 <1>  -0.0100 
  4 C       -1.4680    -3.4280    -0.2550 C.ar  1 <1>  -0.1500 
  5 C        0.7580    -2.7840    -0.9100 C.ar  1 <1>  -0.1500 
  6 C       -1.2250    -4.7300    -0.6690 C.ar  1 <1>  -0.1430 
  7 C        0.9950    -4.0790    -1.3390 C.ar  1 <1>  -0.1500 
  8 C        0.0100    -5.0450    -1.2220 C.ar  1 <1>  -0.1500 
  9 C       -2.3000    -5.7890    -0.5180 C.3   1 <1>   0.4860 
 10 N       -2.6110    -5.9390     0.9340 N.4   1 <1>  -0.9590 
 11 C       -1.7190    -6.8380     1.7290 C.3   1 <1>   0.4230 
 12 C       -4.0500    -6.3470     1.1180 C.3   1 <1>   0.5230 
 13 C       -0.7410    -5.9540     2.4930 C.3   1 <1>  -0.2400 
 14 C       -0.9630    -7.8860     0.9070 C.3   1 <1>  -0.2400 
 15 C       -4.3290    -7.7300     0.5570 C.2   1 <1>   0.2980 
 16 O       -4.6570    -7.8680    -0.7050 O.3   1 <1>  -0.2800 
 17 N       -4.2180    -8.8210     1.2090 N.2   1 <1>  -0.5650 
 18 C       -4.7660    -9.1540    -0.8840 C.2   1 <1>  -0.0100 
 19 C       -4.4890    -9.7920     0.2730 C.2   1 <1>  -0.0060 
 20 C       -4.4630   -11.2440     0.4500 C.2   1 <1>   1.0330 
 21 O       -4.7990   -11.9730    -0.5020 O.co2 1 <1>  -0.9000 
 22 O       -4.0780   -11.7720     1.5090 O.co2 1 <1>  -0.9000 
 23 H        0.3420     1.2450     0.1950 H     1 <1>   0.0800 
 24 H        0.7660     0.2260    -1.1880 H     1 <1>   0.0800 
 25 H        1.4170    -0.1410     0.4250 H     1 <1>   0.0800 
 26 H       -2.4150    -3.1260     0.1550 H     1 <1>   0.1500 
 27 H        1.5310    -2.0460    -1.0040 H     1 <1>   0.1500 
 28 H        1.9510    -4.3320    -1.7680 H     1 <1>   0.1500 
 29 H        0.2210    -6.0430    -1.5690 H     1 <1>   0.1500 
 30 H       -1.9860    -6.7260    -0.9480 H     1 <1>   0.0800 
 31 H       -3.1770    -5.4610    -1.0520 H     1 <1>   0.0800 
 32 H       -2.4890    -5.0060     1.3380 H     1 <1>   0.4500 
 33 H       -2.3180    -7.3700     2.4540 H     1 <1>   0.0800 
 34 H       -4.7060    -5.6410     0.6400 H     1 <1>   0.0800 
 35 H       -4.2850    -6.3660     2.1690 H     1 <1>   0.0800 
 36 H       -0.0950    -5.4140     1.8220 H     1 <1>   0.0800 
 37 H       -0.1220    -6.5690     3.1230 H     1 <1>   0.0800 
 38 H       -1.2640    -5.2620     3.1260 H     1 <1>   0.0800 
 39 H       -0.2110    -7.4430     0.2830 H     1 <1>   0.0800 
 40 H       -1.6330    -8.4820     0.3140 H     1 <1>   0.0800 
 41 H       -0.4640    -8.5590     1.5810 H     1 <1>   0.0800 
 42 H       -5.0330    -9.5660    -1.8430 H     1 <1>   0.1500 
@<TRIPOS>BOND
  1   1   2  1   
  2   1   3  1   
  3   2   4  ar  
  4   2   5  ar  
  5   3  23  1   
  6   3  24  1   
  7   3  25  1   
  8   4   6  ar  
  9   4  26  1   
 10   5   7  ar  
 11   5  27  1   
 12   6   8  ar  
 13   6   9  1   
 14   7   8  ar  
 15   7  28  1   
 16   8  29  1   
 17   9  10  1   
 18   9  30  1   
 19   9  31  1   
 20  10  11  1   
 21  10  12  1   
 22  10  32  1   
 23  11  13  1   
 24  11  14  1   
 25  11  33  1   
 26  12  15  1   
 27  12  34  1   
 28  12  35  1   
 29  13  36  1   
 30  13  37  1   
 31  13  38  1   
 32  14  39  1   
 33  14  40  1   
 34  14  41  1   
 35  15  16  1   
 36  15  17  2   
 37  16  18  1   
 38  17  19  1   
 39  18  19  2   
 40  18  42  1   
 41  19  20  1   
 42  20  21  ar  
 43  20  22  ar  
@<TRIPOS>SUBSTRUCTURE
  1 ****   9 GROUP 4 **** **** 0

# MOE 2024.06 (io_trps.svl 2023.06)
