@<TRIPOS>MOLECULE
NONAME
47 49 1 0 0 
SMALL
USER_CHARGES


@<TRIPOS>ATOM
  1 O        0.3220    -0.3320     0.4000 O.2   1 <1>  -0.5700 
  2 C        1.2890    -1.0120     0.1220 C.2   1 <1>   0.5440 
  3 N        2.4150    -0.3990    -0.3580 N.am  1 <1>  -0.7300 
  4 C        1.2470    -2.4520     0.3090 C.ar  1 <1>   0.0860 
  5 C        2.5610     1.0600    -0.6010 C.3   1 <1>   0.0600 
  6 C        1.9460    -3.3310    -0.5200 C.ar  1 <1>  -0.1500 
  7 C        0.4880    -3.0140     1.3340 C.ar  1 <1>  -0.1500 
  8 C        1.8870    -4.7010    -0.3360 C.ar  1 <1>  -0.1500 
  9 C        0.4240    -4.3810     1.5270 C.ar  1 <1>  -0.1500 
 10 C        1.1180    -5.2380     0.6860 C.ar  1 <1>  -0.1430 
 11 C        1.0250    -6.7410     0.8760 C.3   1 <1>   0.4860 
 12 N        0.0860    -7.2830    -0.1440 N.4   1 <1>  -0.9590 
 13 C       -1.3080    -6.7530    -0.0020 C.3   1 <1>   0.3430 
 14 C        0.0150    -8.7780    -0.1470 C.3   1 <1>   0.3430 
 15 C       -2.2240    -7.9160    -0.3790 C.3   1 <1>   0.2000 
 16 C       -1.4570    -9.1640     0.0380 C.3   1 <1>  -0.0800 
 17 O       -3.4440    -7.8530     0.2740 O.3   1 <1>  -0.6800 
 18 C       -1.8740   -10.4150    -0.7600 C.3   1 <1>  -0.0170 
 19 C       -1.1350   -11.6660    -0.3030 C.ar  1 <1>   0.1670 
 20 N        0.1810   -11.6650    -0.4610 N.ar  1 <1>  -0.6200 
 21 C       -1.8450   -12.7360     0.2410 C.ar  1 <1>   0.1600 
 22 C        0.7290   -12.8020    -0.0560 C.ar  1 <1>   0.1600 
 23 N       -1.2940   -13.8610     0.6600 N.ar  1 <1>  -0.6200 
 24 C        0.0160   -13.8630     0.4880 C.ar  1 <1>   0.1600 
 25 H        3.2690    -0.9480    -0.4670 H     1 <1>   0.3700 
 26 H        1.6130     1.5590    -0.4890 H     1 <1>   0.0800 
 27 H        2.9230     1.2290    -1.6000 H     1 <1>   0.0800 
 28 H        3.2570     1.4790     0.1050 H     1 <1>   0.0800 
 29 H        2.5360    -2.9320    -1.3270 H     1 <1>   0.1500 
 30 H       -0.0590    -2.3540     1.9880 H     1 <1>   0.1500 
 31 H        2.4490    -5.3370    -1.0000 H     1 <1>   0.1500 
 32 H       -0.1730    -4.7600     2.3400 H     1 <1>   0.1500 
 33 H        0.6720    -6.9660     1.8690 H     1 <1>   0.0800 
 34 H        2.0030    -7.1780     0.7520 H     1 <1>   0.0800 
 35 H        0.4400    -6.9730    -1.0590 H     1 <1>   0.4500 
 36 H       -1.4930    -6.4750     1.0220 H     1 <1>   0.0800 
 37 H       -1.4710    -5.9010    -0.6420 H     1 <1>   0.0800 
 38 H        0.3700    -9.1580    -1.0920 H     1 <1>   0.0800 
 39 H        0.6150    -9.2120     0.6370 H     1 <1>   0.0800 
 40 H       -2.4110    -7.8980    -1.4400 H     1 <1>   0.0800 
 41 H       -1.6090    -9.3500     1.0880 H     1 <1>   0.0800 
 42 H       -3.3840    -8.0710     1.2260 H     1 <1>   0.4000 
 43 H       -1.6790   -10.2680    -1.8080 H     1 <1>   0.0800 
 44 H       -2.9350   -10.5630    -0.6510 H     1 <1>   0.0800 
 45 H       -2.9140   -12.6630     0.3360 H     1 <1>   0.1500 
 46 H        1.7960   -12.9040    -0.1580 H     1 <1>   0.1500 
 47 H        0.5500   -14.7470     0.7910 H     1 <1>   0.1500 
@<TRIPOS>BOND
  1   1   2  2   
  2   2   3  am  
  3   2   4  1   
  4   3   5  1   
  5   3  25  1   
  6   4   6  ar  
  7   4   7  ar  
  8   5  26  1   
  9   5  27  1   
 10   5  28  1   
 11   6   8  ar  
 12   6  29  1   
 13   7   9  ar  
 14   7  30  1   
 15   8  10  ar  
 16   8  31  1   
 17   9  10  ar  
 18   9  32  1   
 19  10  11  1   
 20  11  12  1   
 21  11  33  1   
 22  11  34  1   
 23  12  13  1   
 24  12  14  1   
 25  12  35  1   
 26  13  15  1   
 27  13  36  1   
 28  13  37  1   
 29  14  16  1   
 30  14  38  1   
 31  14  39  1   
 32  15  16  1   
 33  15  17  1   
 34  15  40  1   
 35  16  18  1   
 36  16  41  1   
 37  17  42  1   
 38  18  19  1   
 39  18  43  1   
 40  18  44  1   
 41  19  20  ar  
 42  19  21  ar  
 43  20  22  ar  
 44  21  23  ar  
 45  21  45  1   
 46  22  24  ar  
 47  22  46  1   
 48  23  24  ar  
 49  24  47  1   
@<TRIPOS>SUBSTRUCTURE
  1 ****  12 GROUP 4 **** **** 0

# MOE 2024.06 (io_trps.svl 2023.06)
