@<TRIPOS>MOLECULE
NONAME
37 38 1 0 0 
SMALL
USER_CHARGES


@<TRIPOS>ATOM
  1 S        0.0310    -0.1170     1.7660 S.3   1 <1>  -0.0800 
  2 C       -0.5970     1.1040     0.6870 C.2   1 <1>   0.1980 
  3 C       -0.9150    -1.3040     0.9230 C.2   1 <1>  -0.1100 
  4 N       -1.4070     0.6610    -0.1860 N.2   1 <1>  -0.5650 
  5 C       -0.1320     2.5280     0.9080 C.3   1 <1>   0.0200 
  6 C       -1.6200    -0.7350    -0.0810 C.2   1 <1>  -0.0060 
  7 C       -0.5150     3.4220    -0.2720 C.3   1 <1>   0.2090 
  8 C       -2.5150    -1.5030    -0.9610 C.2   1 <1>   1.0330 
  9 N       -0.2500     4.8500     0.0590 N.pl3 1 <1>  -0.8690 
 10 O       -3.1650    -0.9840    -1.8890 O.co2 1 <1>  -0.9000 
 11 O       -2.6420    -2.7320    -0.7780 O.co2 1 <1>  -0.9000 
 12 C        0.9520     5.4760    -0.1680 C.ar  1 <1>   0.4100 
 13 N        2.0160     4.7260    -0.3850 N.ar  1 <1>  -0.6200 
 14 C        1.0390     6.8460    -0.1600 C.ar  1 <1>  -0.1500 
 15 C        3.1380     5.3880    -0.5880 C.ar  1 <1>   0.4700 
 16 C        2.2620     7.4270    -0.3870 C.ar  1 <1>   0.4100 
 17 N        3.3370     6.6900    -0.6050 N.ar  1 <1>  -0.6200 
 18 N        2.3990     8.8010    -0.4080 N.pl3 1 <1>  -0.8380 
 19 C        3.6490     9.4160     0.1120 C.3   1 <1>   0.2090 
 20 C        1.7150     9.5550    -1.4920 C.3   1 <1>   0.1290 
 21 C        3.2990    10.6240     0.9750 C.3   1 <1>  -0.2400 
 22 H       -0.8730    -2.3290     1.2410 H     1 <1>   0.1500 
 23 H        0.9350     2.5380     1.0270 H     1 <1>   0.0800 
 24 H       -0.5900     2.9000     1.8040 H     1 <1>   0.0800 
 25 H       -1.5620     3.3000    -0.4930 H     1 <1>   0.0800 
 26 H        0.0440     3.1290    -1.1460 H     1 <1>   0.0800 
 27 H       -1.0840     5.4380     0.0460 H     1 <1>   0.4000 
 28 H        0.1810     7.4560     0.0270 H     1 <1>   0.1500 
 29 H        4.0100     4.7820    -0.7650 H     1 <1>   0.1500 
 30 H        4.2830     9.7050    -0.7090 H     1 <1>   0.0800 
 31 H        4.1850     8.7010     0.7140 H     1 <1>   0.0800 
 32 H        1.0470     8.9090    -2.0350 H     1 <1>   0.0800 
 33 H        2.4420     9.9510    -2.1810 H     1 <1>   0.0800 
 34 H        1.1480    10.3650    -1.0690 H     1 <1>   0.0800 
 35 H        2.8270    11.3880     0.3860 H     1 <1>   0.0800 
 36 H        4.1950    11.0300     1.4050 H     1 <1>   0.0800 
 37 H        2.6410    10.3240     1.7700 H     1 <1>   0.0800 
@<TRIPOS>BOND
  1   1   2  1   
  2   1   3  1   
  3   2   4  2   
  4   2   5  1   
  5   3   6  2   
  6   3  22  1   
  7   4   6  1   
  8   5   7  1   
  9   5  23  1   
 10   5  24  1   
 11   6   8  1   
 12   7   9  1   
 13   7  25  1   
 14   7  26  1   
 15   8  10  ar  
 16   8  11  ar  
 17   9  12  1   
 18   9  27  1   
 19  12  13  ar  
 20  12  14  ar  
 21  13  15  ar  
 22  14  16  ar  
 23  14  28  1   
 24  15  17  ar  
 25  15  29  1   
 26  16  17  ar  
 27  16  18  1   
 28  18  19  1   
 29  18  20  1   
 30  19  21  1   
 31  19  30  1   
 32  19  31  1   
 33  20  32  1   
 34  20  33  1   
 35  20  34  1   
 36  21  35  1   
 37  21  36  1   
 38  21  37  1   
@<TRIPOS>SUBSTRUCTURE
  1 ****   7 GROUP 4 **** **** 0

# MOE 2024.06 (io_trps.svl 2023.06)
