@<TRIPOS>MOLECULE
NONAME
42 44 1 0 0 
SMALL
USER_CHARGES


@<TRIPOS>ATOM
  1 S       -1.9950     0.1140    -1.3970 S.3   1 <1>  -0.0800 
  2 C       -1.8370    -1.3290    -0.3900 C.2   1 <1>  -0.0450 
  3 C       -1.6680     1.1890    -0.0540 C.2   1 <1>  -0.1400 
  4 C       -2.0200    -2.6260    -0.9920 C.2   1 <1>   0.7150 
  5 C       -1.5520    -0.9360     0.8790 C.2   1 <1>  -0.1500 
  6 C       -1.4570     0.4740     1.0670 C.2   1 <1>  -0.1500 
  7 C       -1.6740     2.6760    -0.3620 C.3   1 <1>   0.0200 
  8 O       -2.2410    -2.7690    -2.1790 O.2   1 <1>  -0.5700 
  9 N       -1.9630    -3.7410    -0.2120 N.am  1 <1>  -0.7300 
 10 C       -1.3770     3.5260     0.8770 C.3   1 <1>  -0.2400 
 11 C       -2.1080    -5.1370    -0.6870 C.3   1 <1>   0.2200 
 12 C       -3.4860    -5.6950    -0.3530 C.3   1 <1>  -0.0800 
 13 C       -1.2310    -6.0360     0.1720 C.3   1 <1>   0.1200 
 14 C       -3.3230    -6.1790     1.0920 C.3   1 <1>   0.1200 
 15 C       -4.6740    -4.7390    -0.5730 C.3   1 <1>  -0.0170 
 16 O       -1.9490    -6.2110     1.3550 O.3   1 <1>  -0.5600 
 17 C       -5.9920    -5.4420    -0.2880 C.ar  1 <1>  -0.1430 
 18 C       -6.6610    -5.2910     0.9100 C.ar  1 <1>  -0.1500 
 19 C       -6.5880    -6.2690    -1.2180 C.ar  1 <1>  -0.1500 
 20 C       -7.8550    -5.9610     1.1160 C.ar  1 <1>   0.1600 
 21 C       -7.7860    -6.8930    -0.9120 C.ar  1 <1>   0.1600 
 22 N       -8.4320    -6.7610     0.2350 N.ar  1 <1>  -0.6200 
 23 H       -1.3990    -1.6000     1.7100 H     1 <1>   0.1500 
 24 H       -1.2350     0.8870     2.0350 H     1 <1>   0.1500 
 25 H       -0.9370     2.8780    -1.1190 H     1 <1>   0.0800 
 26 H       -2.6380     2.9460    -0.7570 H     1 <1>   0.0800 
 27 H       -1.8250    -3.6530     0.7950 H     1 <1>   0.3700 
 28 H       -0.4070     3.2820     1.2710 H     1 <1>   0.0800 
 29 H       -2.1190     3.3500     1.6350 H     1 <1>   0.0800 
 30 H       -1.3910     4.5700     0.6180 H     1 <1>   0.0800 
 31 H       -1.8690    -5.2130    -1.7350 H     1 <1>   0.0800 
 32 H       -3.6420    -6.5650    -0.9660 H     1 <1>   0.0800 
 33 H       -0.2700    -5.6030     0.3880 H     1 <1>   0.0800 
 34 H       -1.1060    -7.0020    -0.2860 H     1 <1>   0.0800 
 35 H       -3.7290    -7.1670     1.2290 H     1 <1>   0.0800 
 36 H       -3.7730    -5.5010     1.7950 H     1 <1>   0.0800 
 37 H       -4.6680    -4.3900    -1.5910 H     1 <1>   0.0800 
 38 H       -4.5870    -3.8760     0.0630 H     1 <1>   0.0800 
 39 H       -6.2680    -4.6590     1.6850 H     1 <1>   0.1500 
 40 H       -6.1330    -6.4330    -2.1780 H     1 <1>   0.1500 
 41 H       -8.3630    -5.8330     2.0570 H     1 <1>   0.1500 
 42 H       -8.2360    -7.5350    -1.6500 H     1 <1>   0.1500 
@<TRIPOS>BOND
  1   1   2  1   
  2   1   3  1   
  3   2   4  1   
  4   2   5  2   
  5   3   6  2   
  6   3   7  1   
  7   4   8  2   
  8   4   9  am  
  9   5   6  1   
 10   5  23  1   
 11   6  24  1   
 12   7  10  1   
 13   7  25  1   
 14   7  26  1   
 15   9  11  1   
 16   9  27  1   
 17  10  28  1   
 18  10  29  1   
 19  10  30  1   
 20  11  12  1   
 21  11  13  1   
 22  11  31  1   
 23  12  14  1   
 24  12  15  1   
 25  12  32  1   
 26  13  16  1   
 27  13  33  1   
 28  13  34  1   
 29  14  16  1   
 30  14  35  1   
 31  14  36  1   
 32  15  17  1   
 33  15  37  1   
 34  15  38  1   
 35  17  18  ar  
 36  17  19  ar  
 37  18  20  ar  
 38  18  39  1   
 39  19  21  ar  
 40  19  40  1   
 41  20  22  ar  
 42  20  41  1   
 43  21  22  ar  
 44  21  42  1   
@<TRIPOS>SUBSTRUCTURE
  1 ****   9 GROUP 4 **** **** 0

# MOE 2024.06 (io_trps.svl 2023.06)
