@<TRIPOS>MOLECULE
NONAME
38 39 1 0 0 
SMALL
USER_CHARGES


@<TRIPOS>ATOM
  1 O       -0.1660    -3.7390     1.7540 O.2   1 <1>  -0.5700 
  2 C        0.6890    -3.1270     1.1520 C.2   1 <1>   0.6900 
  3 N        0.4020    -2.3920     0.0620 N.am  1 <1>  -0.7300 
  4 N        1.9550    -3.1950     1.5580 N.am  1 <1>  -0.8000 
  5 C       -0.9770    -2.2700    -0.5160 C.3   1 <1>   0.2010 
  6 C       -1.4460    -3.5220    -1.2610 C.2   1 <1>   0.5690 
  7 O       -1.8010    -3.4290    -2.4120 O.2   1 <1>  -0.5700 
  8 N       -1.4470    -4.7080    -0.6040 N.am  1 <1>  -0.7300 
  9 C       -1.8180    -6.0220    -1.1700 C.3   1 <1>   0.2200 
 10 C       -2.8090    -6.7030    -0.2400 C.3   1 <1>  -0.0800 
 11 C       -0.6140    -6.9670    -1.1330 C.3   1 <1>   0.1200 
 12 C       -1.8650    -7.3860     0.7480 C.3   1 <1>   0.1200 
 13 C       -3.6850    -7.7140    -1.0030 C.3   1 <1>  -0.0170 
 14 O       -0.7550    -7.7760     0.0010 O.3   1 <1>  -0.5600 
 15 C       -4.6750    -8.4100    -0.0810 C.ar  1 <1>  -0.1430 
 16 C       -5.8210    -7.7830     0.3630 C.ar  1 <1>  -0.1500 
 17 C       -4.4790    -9.7040     0.3590 C.ar  1 <1>  -0.1500 
 18 C       -6.6910    -8.4600     1.2020 C.ar  1 <1>   0.1600 
 19 C       -5.4120   -10.2900     1.1980 C.ar  1 <1>   0.1600 
 20 N       -6.5150    -9.6990     1.6300 N.ar  1 <1>  -0.6200 
 21 H        1.1660    -2.1790    -0.5770 H     1 <1>   0.3700 
 22 H        2.1450    -3.6950     2.4260 H     1 <1>   0.3700 
 23 H        2.6530    -2.5180     1.2630 H     1 <1>   0.3700 
 24 H       -1.6730    -2.0740     0.2800 H     1 <1>   0.0800 
 25 H       -1.0030    -1.4340    -1.1920 H     1 <1>   0.0800 
 26 H       -1.0630    -4.7190     0.3550 H     1 <1>   0.3700 
 27 H       -2.1970    -5.8970    -2.1710 H     1 <1>   0.0800 
 28 H       -3.4420    -5.9890     0.2560 H     1 <1>   0.0800 
 29 H        0.3190    -6.4350    -1.0750 H     1 <1>   0.0800 
 30 H       -0.6120    -7.6140    -1.9920 H     1 <1>   0.0800 
 31 H       -2.2930    -8.2480     1.2280 H     1 <1>   0.0800 
 32 H       -1.5270    -6.6890     1.4960 H     1 <1>   0.0800 
 33 H       -3.0660    -8.4510    -1.4860 H     1 <1>   0.0800 
 34 H       -4.2350    -7.2000    -1.7720 H     1 <1>   0.0800 
 35 H       -6.0450    -6.7750     0.0650 H     1 <1>   0.1500 
 36 H       -3.6100   -10.2600     0.0580 H     1 <1>   0.1500 
 37 H       -7.5800    -7.9540     1.5380 H     1 <1>   0.1500 
 38 H       -5.2420   -11.3000     1.5300 H     1 <1>   0.1500 
@<TRIPOS>BOND
  1   1   2  2   
  2   2   3  am  
  3   2   4  am  
  4   3   5  1   
  5   3  21  1   
  6   4  22  1   
  7   4  23  1   
  8   5   6  1   
  9   5  24  1   
 10   5  25  1   
 11   6   7  2   
 12   6   8  am  
 13   8   9  1   
 14   8  26  1   
 15   9  10  1   
 16   9  11  1   
 17   9  27  1   
 18  10  12  1   
 19  10  13  1   
 20  10  28  1   
 21  11  14  1   
 22  11  29  1   
 23  11  30  1   
 24  12  14  1   
 25  12  31  1   
 26  12  32  1   
 27  13  15  1   
 28  13  33  1   
 29  13  34  1   
 30  15  16  ar  
 31  15  17  ar  
 32  16  18  ar  
 33  16  35  1   
 34  17  19  ar  
 35  17  36  1   
 36  18  20  ar  
 37  18  37  1   
 38  19  20  ar  
 39  19  38  1   
@<TRIPOS>SUBSTRUCTURE
  1 ****  10 GROUP 4 **** **** 0

# MOE 2024.06 (io_trps.svl 2023.06)
