@<TRIPOS>MOLECULE
NONAME
54 57 1 0 0 
SMALL
USER_CHARGES


@<TRIPOS>ATOM
  1 O       -2.9230     1.1040    -2.8280 O.2   1 <1>  -0.5700 
  2 C       -2.6020     1.4170    -1.7070 C.2   1 <1>   0.5690 
  3 N       -2.4320     0.4870    -0.7320 N.am  1 <1>  -0.7300 
  4 C       -2.4090     2.8870    -1.3700 C.3   1 <1>   0.0820 
  5 C       -2.5570    -0.9760    -0.9240 C.3   1 <1>   0.2200 
  6 C       -1.0250     3.2160    -0.8200 C.2   1 <1>  -0.1810 
  7 C       -3.8030    -1.4700    -0.2100 C.3   1 <1>  -0.0800 
  8 C       -1.4500    -1.6920    -0.1570 C.3   1 <1>   0.1200 
  9 C       -0.6480     4.4380    -0.2040 C.ar  1 <1>   0.0000 
 10 C        0.0740     2.4380    -0.8190 C.2   1 <1>  -0.0100 
 11 C       -3.2980    -1.6440     1.2250 C.3   1 <1>   0.1200 
 12 C       -4.3120    -2.7930    -0.8140 C.3   1 <1>  -0.0160 
 13 O       -1.9180    -1.8600     1.1490 O.3   1 <1>  -0.5600 
 14 C       -1.2610     5.6590     0.1040 C.ar  1 <1>  -0.1440 
 15 C        0.6860     4.2580     0.1330 C.ar  1 <1>   0.1400 
 16 O        1.1010     3.0470    -0.2470 O.3   1 <1>  -0.2800 
 17 C       -5.5720    -3.2790    -0.1140 C.ar  1 <1>  -0.1440 
 18 C       -0.5160     6.6300     0.7450 C.ar  1 <1>  -0.1500 
 19 C       -2.7130     5.9380    -0.2520 C.3   1 <1>  -0.0970 
 20 C        1.4460     5.2340     0.7740 C.ar  1 <1>  -0.1440 
 21 C       -6.8020    -2.6980    -0.3480 C.ar  1 <1>  -0.1500 
 22 C       -5.5530    -4.3240     0.7880 C.ar  1 <1>  -0.1500 
 23 C        0.8250     6.4320     1.0880 C.ar  1 <1>  -0.1440 
 24 C        2.9070     4.9560     1.1070 C.3   1 <1>  -0.0970 
 25 C       -7.9210    -3.1730     0.3170 C.ar  1 <1>   0.1600 
 26 C       -6.7310    -4.7220     1.4000 C.ar  1 <1>   0.1600 
 27 C        1.5660     7.5550     1.8000 C.3   1 <1>  -0.0970 
 28 N       -7.9150    -4.1700     1.1870 N.ar  1 <1>  -0.6200 
 29 H       -2.1240     0.7710     0.2020 H     1 <1>   0.3700 
 30 H       -2.5830     3.4710    -2.2550 H     1 <1>   0.0800 
 31 H       -3.1530     3.1490    -0.6440 H     1 <1>   0.0800 
 32 H       -2.5450    -1.2180    -1.9740 H     1 <1>   0.0800 
 33 H       -4.5940    -0.7420    -0.2570 H     1 <1>   0.0800 
 34 H       -0.5280    -1.1370    -0.1420 H     1 <1>   0.0800 
 35 H       -1.2760    -2.6710    -0.5670 H     1 <1>   0.0800 
 36 H        0.2300     1.4430    -1.1980 H     1 <1>   0.1500 
 37 H       -3.7550    -2.4690     1.7420 H     1 <1>   0.0800 
 38 H       -3.4520    -0.7420     1.7920 H     1 <1>   0.0800 
 39 H       -3.5510    -3.5510    -0.7500 H     1 <1>   0.0800 
 40 H       -4.5350    -2.6460    -1.8570 H     1 <1>   0.0800 
 41 H       -0.9750     7.5710     0.9900 H     1 <1>   0.1500 
 42 H       -2.9700     6.9590    -0.0370 H     1 <1>   0.0800 
 43 H       -3.3610     5.3000     0.3220 H     1 <1>   0.0800 
 44 H       -2.8750     5.7670    -1.3000 H     1 <1>   0.0800 
 45 H       -6.9020    -1.8820    -1.0400 H     1 <1>   0.1500 
 46 H       -4.6360    -4.8320     1.0240 H     1 <1>   0.1500 
 47 H        3.5160     5.8130     0.8840 H     1 <1>   0.0800 
 48 H        3.2810     4.1280     0.5320 H     1 <1>   0.0800 
 49 H        3.0020     4.7170     2.1510 H     1 <1>   0.0800 
 50 H       -8.8720    -2.7070     0.1220 H     1 <1>   0.1500 
 51 H       -6.6970    -5.5370     2.1010 H     1 <1>   0.1500 
 52 H        0.8820     8.3040     2.1560 H     1 <1>   0.0800 
 53 H        2.2610     8.0200     1.1240 H     1 <1>   0.0800 
 54 H        2.1050     7.1690     2.6460 H     1 <1>   0.0800 
@<TRIPOS>BOND
  1   1   2  2   
  2   2   3  am  
  3   2   4  1   
  4   3   5  1   
  5   3  29  1   
  6   4   6  1   
  7   4  30  1   
  8   4  31  1   
  9   5   7  1   
 10   5   8  1   
 11   5  32  1   
 12   6   9  1   
 13   6  10  2   
 14   7  11  1   
 15   7  12  1   
 16   7  33  1   
 17   8  13  1   
 18   8  34  1   
 19   8  35  1   
 20   9  14  ar  
 21   9  15  ar  
 22  10  16  1   
 23  10  36  1   
 24  11  13  1   
 25  11  37  1   
 26  11  38  1   
 27  12  17  1   
 28  12  39  1   
 29  12  40  1   
 30  14  18  ar  
 31  14  19  1   
 32  15  16  1   
 33  15  20  ar  
 34  17  21  ar  
 35  17  22  ar  
 36  18  23  ar  
 37  18  41  1   
 38  19  42  1   
 39  19  43  1   
 40  19  44  1   
 41  20  23  ar  
 42  20  24  1   
 43  21  25  ar  
 44  21  45  1   
 45  22  26  ar  
 46  22  46  1   
 47  23  27  1   
 48  24  47  1   
 49  24  48  1   
 50  24  49  1   
 51  25  28  ar  
 52  25  50  1   
 53  26  28  ar  
 54  26  51  1   
 55  27  52  1   
 56  27  53  1   
 57  27  54  1   
@<TRIPOS>SUBSTRUCTURE
  1 ****   3 GROUP 4 **** **** 0

# MOE 2024.06 (io_trps.svl 2023.06)
