@<TRIPOS>MOLECULE
NONAME
47 47 1 0 0 
SMALL
USER_CHARGES


@<TRIPOS>ATOM
  1 O        0.8270    -1.2370     1.8810 O.2   1 <1>  -0.5700 
  2 C        0.8980    -1.3540     0.6740 C.2   1 <1>   0.5440 
  3 N        1.5330    -0.3820    -0.0480 N.am  1 <1>  -0.7300 
  4 C        0.3210    -2.5170     0.0230 C.ar  1 <1>   0.0860 
  5 C        2.1590     0.8300     0.5180 C.3   1 <1>   0.1400 
  6 C        0.0940    -3.6960     0.7100 C.ar  1 <1>  -0.1500 
  7 C       -0.0520    -2.5460    -1.3160 C.ar  1 <1>  -0.1500 
  8 C        3.5120     1.0360    -0.1530 C.3   1 <1>  -0.2400 
  9 C       -0.4530    -4.8030     0.0780 C.ar  1 <1>   0.4100 
 10 C       -0.5960    -3.6920    -1.8600 C.ar  1 <1>   0.1600 
 11 N       -0.8080    -4.8160    -1.1960 N.ar  1 <1>  -0.6200 
 12 N       -0.6610    -5.9580     0.7970 N.pl3 1 <1>  -0.8690 
 13 C       -0.5270    -7.3040     0.1350 C.3   1 <1>   0.2090 
 14 C       -1.8420    -8.0090    -0.3800 C.3   1 <1>   0.5030 
 15 N       -3.1460    -7.4850     0.1760 N.4   1 <1>  -0.9590 
 16 C       -1.9160    -7.9630    -1.9160 C.3   1 <1>  -0.2400 
 17 C       -1.7760    -9.5000    -0.0130 C.3   1 <1>  -0.2400 
 18 C       -3.4630    -6.0910    -0.2610 C.3   1 <1>   0.3430 
 19 C       -3.2250    -7.5490     1.6720 C.3   1 <1>   0.2630 
 20 C       -4.9710    -5.8740    -0.2230 C.3   1 <1>  -0.2400 
 21 H        1.6680    -0.5050    -1.0500 H     1 <1>   0.3700 
 22 H        2.2890     0.7190     1.5830 H     1 <1>   0.0800 
 23 H        1.5200     1.6780     0.3400 H     1 <1>   0.0800 
 24 H        0.3470    -3.7510     1.7520 H     1 <1>   0.1500 
 25 H        0.0730    -1.6750    -1.9320 H     1 <1>   0.1500 
 26 H        4.1490     0.1890     0.0300 H     1 <1>   0.0800 
 27 H        3.9850     1.9100     0.2570 H     1 <1>   0.0800 
 28 H        3.3920     1.1790    -1.2110 H     1 <1>   0.0800 
 29 H       -0.8730    -3.6830    -2.9020 H     1 <1>   0.1500 
 30 H       -0.1880    -5.9290     1.7060 H     1 <1>   0.4000 
 31 H       -0.0470    -7.9560     0.8430 H     1 <1>   0.0800 
 32 H        0.1630    -7.2200    -0.6870 H     1 <1>   0.0800 
 33 H       -3.8780    -8.0830    -0.2190 H     1 <1>   0.4500 
 34 H       -1.8400    -6.9620    -2.2930 H     1 <1>   0.0800 
 35 H       -2.8260    -8.4080    -2.2760 H     1 <1>   0.0800 
 36 H       -1.0920    -8.5080    -2.3420 H     1 <1>   0.0800 
 37 H       -1.6480    -9.6490     1.0440 H     1 <1>   0.0800 
 38 H       -0.9320    -9.9630    -0.4960 H     1 <1>   0.0800 
 39 H       -2.6610   -10.0190    -0.3380 H     1 <1>   0.0800 
 40 H       -3.1180    -5.9160    -1.2650 H     1 <1>   0.0800 
 41 H       -2.9680    -5.3780     0.3790 H     1 <1>   0.0800 
 42 H       -2.4620    -6.9300     2.1120 H     1 <1>   0.0800 
 43 H       -3.0970    -8.5600     2.0190 H     1 <1>   0.0800 
 44 H       -4.1850    -7.1980     2.0120 H     1 <1>   0.0800 
 45 H       -5.4740    -6.5770    -0.8620 H     1 <1>   0.0800 
 46 H       -5.1870    -4.8840    -0.5850 H     1 <1>   0.0800 
 47 H       -5.3560    -5.9460     0.7770 H     1 <1>   0.0800 
@<TRIPOS>BOND
  1   1   2  2   
  2   2   3  am  
  3   2   4  1   
  4   3   5  1   
  5   3  21  1   
  6   4   6  ar  
  7   4   7  ar  
  8   5   8  1   
  9   5  22  1   
 10   5  23  1   
 11   6   9  ar  
 12   6  24  1   
 13   7  10  ar  
 14   7  25  1   
 15   8  26  1   
 16   8  27  1   
 17   8  28  1   
 18   9  11  ar  
 19   9  12  1   
 20  10  11  ar  
 21  10  29  1   
 22  12  13  1   
 23  12  30  1   
 24  13  14  1   
 25  13  31  1   
 26  13  32  1   
 27  14  15  1   
 28  14  16  1   
 29  14  17  1   
 30  15  18  1   
 31  15  19  1   
 32  15  33  1   
 33  16  34  1   
 34  16  35  1   
 35  16  36  1   
 36  17  37  1   
 37  17  38  1   
 38  17  39  1   
 39  18  20  1   
 40  18  40  1   
 41  18  41  1   
 42  19  42  1   
 43  19  43  1   
 44  19  44  1   
 45  20  45  1   
 46  20  46  1   
 47  20  47  1   
@<TRIPOS>SUBSTRUCTURE
  1 ****   9 GROUP 4 **** **** 0

# MOE 2024.06 (io_trps.svl 2023.06)
