@<TRIPOS>MOLECULE
NONAME
51 54 1 0 0 
SMALL
USER_CHARGES


@<TRIPOS>ATOM
  1 O       -0.3820    -0.2430    -0.5500 O.2   1 <1>  -0.5700 
  2 C       -0.5520    -1.4500    -0.5130 C.2   1 <1>   0.5440 
  3 N        0.4200    -2.3570    -0.1710 N.am  1 <1>  -0.6600 
  4 C       -1.7770    -2.1300    -0.8180 C.ar  1 <1>   0.0860 
  5 C        1.8450    -2.0620     0.1920 C.3   1 <1>   0.3000 
  6 C       -0.1410    -3.7410    -0.2480 C.3   1 <1>   0.2840 
  7 C       -1.5760    -3.4880    -0.6740 C.ar  1 <1>  -0.1440 
  8 C       -3.0240    -1.6550    -1.2040 C.ar  1 <1>  -0.1500 
  9 C        1.8090    -1.1630     1.4550 C.3   1 <1>  -0.1600 
 10 C        2.4860    -1.3690    -1.0410 C.3   1 <1>  -0.1600 
 11 C        2.5880    -3.3800     0.5090 C.3   1 <1>  -0.2660 
 12 C       -2.5940    -4.3940    -0.9060 C.ar  1 <1>  -0.1500 
 13 C       -4.0520    -2.5540    -1.4400 C.ar  1 <1>  -0.1500 
 14 C        3.0230    -0.2570     1.6130 C.3   1 <1>   0.3430 
 15 C        3.6400    -0.4280    -0.7120 C.3   1 <1>   0.3430 
 16 C        4.0120    -3.1410     0.9090 C.2   1 <1>   0.9060 
 17 C       -3.8380    -3.9180    -1.2920 C.ar  1 <1>  -0.1500 
 18 N        3.2120     0.5110     0.3610 N.4   1 <1>  -0.9590 
 19 O        4.2600    -2.8960     2.0900 O.co2 1 <1>  -0.9000 
 20 O        4.8620    -3.0580     0.0240 O.co2 1 <1>  -0.9000 
 21 C        4.1590     1.6460     0.5780 C.3   1 <1>   0.4860 
 22 C        5.6040     1.3380     0.1990 C.ar  1 <1>  -0.1440 
 23 C        6.2360     2.1450    -0.7390 C.ar  1 <1>  -0.1500 
 24 C        6.3100     0.2820     0.7630 C.ar  1 <1>  -0.1500 
 25 C        7.5480     1.9000    -1.1080 C.ar  1 <1>  -0.1500 
 26 C        7.6180     0.0340     0.3880 C.ar  1 <1>  -0.1500 
 27 C        8.2390     0.8430    -0.5450 C.ar  1 <1>  -0.1500 
 28 H       -0.1050    -4.2210     0.7140 H     1 <1>   0.0800 
 29 H        0.3810    -4.3230    -0.9880 H     1 <1>   0.0800 
 30 H       -3.1740    -0.5960    -1.3150 H     1 <1>   0.1500 
 31 H        1.7420    -1.7830     2.3320 H     1 <1>   0.0800 
 32 H        0.9460    -0.5290     1.4700 H     1 <1>   0.0800 
 33 H        1.7690    -0.7920    -1.5890 H     1 <1>   0.0800 
 34 H        2.8550    -2.1170    -1.7200 H     1 <1>   0.0800 
 35 H        2.6100    -4.0250    -0.3470 H     1 <1>   0.0800 
 36 H        2.1220    -3.8960     1.3250 H     1 <1>   0.0800 
 37 H       -2.4290    -5.4520    -0.7920 H     1 <1>   0.1500 
 38 H       -5.0210    -2.1930    -1.7390 H     1 <1>   0.1500 
 39 H        3.9080    -0.8290     1.8260 H     1 <1>   0.0800 
 40 H        2.8550     0.4100     2.4410 H     1 <1>   0.0800 
 41 H        3.9200     0.1170    -1.5970 H     1 <1>   0.0800 
 42 H        4.5010    -0.9870    -0.3880 H     1 <1>   0.0800 
 43 H       -4.6440    -4.6080    -1.4780 H     1 <1>   0.1500 
 44 H        2.2860     0.8720     0.0930 H     1 <1>   0.4500 
 45 H        4.1260     1.9560     1.6090 H     1 <1>   0.0800 
 46 H        3.8340     2.4810    -0.0190 H     1 <1>   0.0800 
 47 H        5.7190     2.9720    -1.1930 H     1 <1>   0.1500 
 48 H        5.8620    -0.3800     1.4870 H     1 <1>   0.1500 
 49 H        8.0320     2.5280    -1.8350 H     1 <1>   0.1500 
 50 H        8.1450    -0.8000     0.8220 H     1 <1>   0.1500 
 51 H        9.2570     0.6450    -0.8330 H     1 <1>   0.1500 
@<TRIPOS>BOND
  1   1   2  2   
  2   2   3  am  
  3   2   4  1   
  4   3   5  1   
  5   3   6  1   
  6   4   7  ar  
  7   4   8  ar  
  8   5   9  1   
  9   5  10  1   
 10   5  11  1   
 11   6   7  1   
 12   6  28  1   
 13   6  29  1   
 14   7  12  ar  
 15   8  13  ar  
 16   8  30  1   
 17   9  14  1   
 18   9  31  1   
 19   9  32  1   
 20  10  15  1   
 21  10  33  1   
 22  10  34  1   
 23  11  16  1   
 24  11  35  1   
 25  11  36  1   
 26  12  17  ar  
 27  12  37  1   
 28  13  17  ar  
 29  13  38  1   
 30  14  18  1   
 31  14  39  1   
 32  14  40  1   
 33  15  18  1   
 34  15  41  1   
 35  15  42  1   
 36  16  19  ar  
 37  16  20  ar  
 38  17  43  1   
 39  18  21  1   
 40  18  44  1   
 41  21  22  1   
 42  21  45  1   
 43  21  46  1   
 44  22  23  ar  
 45  22  24  ar  
 46  23  25  ar  
 47  23  47  1   
 48  24  26  ar  
 49  24  48  1   
 50  25  27  ar  
 51  25  49  1   
 52  26  27  ar  
 53  26  50  1   
 54  27  51  1   
@<TRIPOS>SUBSTRUCTURE
  1 ****   5 GROUP 4 **** **** 0

# MOE 2024.06 (io_trps.svl 2023.06)
