@<TRIPOS>MOLECULE
NONAME
57 60 1 0 0 
SMALL
USER_CHARGES


@<TRIPOS>ATOM
  1 O       -2.9060     1.9070     2.0870 O.2   1 <1>  -0.5700 
  2 C       -3.3070     1.9020     0.9500 C.2   1 <1>   0.5690 
  3 N       -3.2660     0.7700     0.1720 N.am  1 <1>  -0.6600 
  4 C       -3.8750     3.1940     0.4110 C.3   1 <1>  -0.1790 
  5 C       -2.6380    -0.4740     0.6770 C.3   1 <1>   0.1400 
  6 C       -3.8530     0.6380    -1.1800 C.3   1 <1>   0.1400 
  7 C       -3.7100    -1.5570     0.7750 C.3   1 <1>  -0.1600 
  8 C       -4.9510    -0.4270    -1.1260 C.3   1 <1>  -0.1600 
  9 C       -4.4340    -1.7660    -0.5660 C.3   1 <1>   0.4230 
 10 N       -5.5730    -2.7200    -0.3850 N.4   1 <1>  -0.9590 
 11 C       -5.2050    -4.0590     0.1590 C.3   1 <1>   0.3430 
 12 C       -6.4590    -2.8770    -1.5860 C.3   1 <1>   0.3430 
 13 C       -6.4410    -4.7130     0.7760 C.3   1 <1>  -0.1600 
 14 C       -7.4970    -3.9890    -1.3980 C.3   1 <1>  -0.1600 
 15 C       -7.7570    -4.3050     0.0850 C.3   1 <1>   0.4240 
 16 O       -8.0820    -3.0680     0.6890 O.3   1 <1>  -0.5600 
 17 C       -8.8560    -5.3780     0.2950 C.ar  1 <1>  -0.1440 
 18 C       -9.4200    -2.6750     0.6850 C.3   1 <1>   0.1200 
 19 C       -8.7240    -6.6790    -0.2080 C.ar  1 <1>   0.0820 
 20 C      -10.0130    -5.0550     1.0000 C.ar  1 <1>  -0.1440 
 21 C      -10.2120    -3.6540     1.5390 C.3   1 <1>  -0.0170 
 22 O       -7.6030    -7.0020    -0.9100 O.3   1 <1>  -0.3620 
 23 C       -9.7300    -7.6180     0.0140 C.ar  1 <1>  -0.1500 
 24 C      -11.0030    -5.9980     1.2170 C.ar  1 <1>  -0.1500 
 25 C       -7.4040    -8.2870    -1.4630 C.3   1 <1>   0.0400 
 26 C      -10.8620    -7.2780     0.7250 C.ar  1 <1>  -0.1500 
 27 H       -3.3460     3.4860    -0.4760 H     1 <1>   0.0800 
 28 H       -3.7630     3.9710     1.1450 H     1 <1>   0.0800 
 29 H       -4.9190     3.0750     0.1960 H     1 <1>   0.0800 
 30 H       -2.1930    -0.3140     1.6470 H     1 <1>   0.0800 
 31 H       -1.8530    -0.7740     0.0030 H     1 <1>   0.0800 
 32 H       -3.0800     0.3480    -1.8730 H     1 <1>   0.0800 
 33 H       -4.2680     1.5700    -1.5210 H     1 <1>   0.0800 
 34 H       -4.4120    -1.2640     1.5370 H     1 <1>   0.0800 
 35 H       -3.2170    -2.4560     1.0890 H     1 <1>   0.0800 
 36 H       -5.3190    -0.5530    -2.1270 H     1 <1>   0.0800 
 37 H       -5.7500    -0.0530    -0.5090 H     1 <1>   0.0800 
 38 H       -3.7310    -2.1790    -1.2720 H     1 <1>   0.0800 
 39 H       -6.2030    -2.3220     0.3370 H     1 <1>   0.4500 
 40 H       -4.4450    -3.9820     0.9170 H     1 <1>   0.0800 
 41 H       -4.8270    -4.6780    -0.6380 H     1 <1>   0.0800 
 42 H       -5.8670    -3.0880    -2.4610 H     1 <1>   0.0800 
 43 H       -6.9850    -1.9510    -1.7530 H     1 <1>   0.0800 
 44 H       -6.5040    -4.4690     1.8220 H     1 <1>   0.0800 
 45 H       -6.2930    -5.7740     0.7330 H     1 <1>   0.0800 
 46 H       -7.1310    -4.8600    -1.9050 H     1 <1>   0.0800 
 47 H       -8.4150    -3.7230    -1.8870 H     1 <1>   0.0800 
 48 H       -9.7870    -2.6620    -0.3270 H     1 <1>   0.0800 
 49 H       -9.4800    -1.6840     1.1000 H     1 <1>   0.0800 
 50 H      -11.2540    -3.3870     1.5080 H     1 <1>   0.0800 
 51 H       -9.8790    -3.6020     2.5600 H     1 <1>   0.0800 
 52 H       -9.6570    -8.6230    -0.3540 H     1 <1>   0.1500 
 53 H      -11.8910    -5.7400     1.7690 H     1 <1>   0.1500 
 54 H       -6.4580    -8.2930    -1.9730 H     1 <1>   0.0800 
 55 H       -8.1960    -8.4940    -2.1610 H     1 <1>   0.0800 
 56 H       -7.3930    -9.0120    -0.6680 H     1 <1>   0.0800 
 57 H      -11.6340    -8.0090     0.8960 H     1 <1>   0.1500 
@<TRIPOS>BOND
  1   1   2  2   
  2   2   3  am  
  3   2   4  1   
  4   3   5  1   
  5   3   6  1   
  6   4  27  1   
  7   4  28  1   
  8   4  29  1   
  9   5   7  1   
 10   5  30  1   
 11   5  31  1   
 12   6   8  1   
 13   6  32  1   
 14   6  33  1   
 15   7   9  1   
 16   7  34  1   
 17   7  35  1   
 18   8   9  1   
 19   8  36  1   
 20   8  37  1   
 21   9  10  1   
 22   9  38  1   
 23  10  11  1   
 24  10  12  1   
 25  10  39  1   
 26  11  13  1   
 27  11  40  1   
 28  11  41  1   
 29  12  14  1   
 30  12  42  1   
 31  12  43  1   
 32  13  15  1   
 33  13  44  1   
 34  13  45  1   
 35  14  15  1   
 36  14  46  1   
 37  14  47  1   
 38  15  16  1   
 39  15  17  1   
 40  16  18  1   
 41  17  19  ar  
 42  17  20  ar  
 43  18  21  1   
 44  18  48  1   
 45  18  49  1   
 46  19  22  1   
 47  19  23  ar  
 48  20  21  1   
 49  20  24  ar  
 50  21  50  1   
 51  21  51  1   
 52  22  25  1   
 53  23  26  ar  
 54  23  52  1   
 55  24  26  ar  
 56  24  53  1   
 57  25  54  1   
 58  25  55  1   
 59  25  56  1   
 60  26  57  1   
@<TRIPOS>SUBSTRUCTURE
  1 ****  10 GROUP 4 **** **** 0

# MOE 2024.06 (io_trps.svl 2023.06)
