@<TRIPOS>MOLECULE
NONAME
47 48 1 0 0 
SMALL
USER_CHARGES


@<TRIPOS>ATOM
  1 S       -0.3360    -2.4430     0.8760 S.o2  1 <1>   1.3330 
  2 O       -1.4640    -2.9310     1.6310 O.2   1 <1>  -0.6500 
  3 O        0.6160    -3.3520     0.2880 O.2   1 <1>  -0.6500 
  4 N       -0.8480    -1.5060    -0.4170 N.am  1 <1>  -0.9140 
  5 C        0.5340    -1.2570     1.8750 C.3   1 <1>  -0.1350 
  6 C       -2.0640    -1.8810    -1.1270 C.3   1 <1>   0.2760 
  7 C       -3.3230    -1.4170    -0.3870 C.3   1 <1>  -0.1600 
  8 C       -2.1270    -3.3680    -1.5010 C.3   1 <1>  -0.1600 
  9 C       -4.5730    -1.7420    -1.2070 C.3   1 <1>   0.1400 
 10 C       -3.3960    -3.6570    -2.3040 C.3   1 <1>   0.1400 
 11 N       -4.5830    -3.1970    -1.5290 N.am  1 <1>  -0.6600 
 12 C       -5.5820    -4.0130    -1.0560 C.2   1 <1>   0.5690 
 13 O       -6.5750    -3.5620    -0.5340 O.2   1 <1>  -0.5700 
 14 C       -5.4600    -5.5240    -1.1750 C.3   1 <1>  -0.0990 
 15 C       -6.4970    -6.2640    -0.3290 C.3   1 <1>   0.0700 
 16 S       -6.2120    -8.0420    -0.5280 S.3   1 <1>  -0.4600 
 17 C       -7.3880    -8.7760     0.6420 C.3   1 <1>   0.2140 
 18 C       -7.2140   -10.2850     0.6190 C.ar  1 <1>  -0.1440 
 19 C       -6.1180   -10.8700     1.2340 C.ar  1 <1>  -0.1500 
 20 C       -8.1500   -11.0920    -0.0110 C.ar  1 <1>  -0.1500 
 21 C       -5.9610   -12.2450     1.2270 C.ar  1 <1>  -0.1500 
 22 C       -7.9950   -12.4680    -0.0190 C.ar  1 <1>  -0.1500 
 23 C       -6.9010   -13.0450     0.6020 C.ar  1 <1>  -0.1500 
 24 H       -0.0870    -1.6270    -1.0830 H     1 <1>   0.4200 
 25 H        0.9580    -1.7410     2.7330 H     1 <1>   0.0800 
 26 H       -0.1400    -0.4930     2.2090 H     1 <1>   0.0800 
 27 H        1.3240    -0.8020     1.3100 H     1 <1>   0.0800 
 28 H       -2.0500    -1.3310    -2.0540 H     1 <1>   0.0800 
 29 H       -3.2750    -0.3570    -0.2200 H     1 <1>   0.0800 
 30 H       -3.4180    -1.9050     0.5650 H     1 <1>   0.0800 
 31 H       -2.1510    -3.9890    -0.6230 H     1 <1>   0.0800 
 32 H       -1.2670    -3.6380    -2.0870 H     1 <1>   0.0800 
 33 H       -4.5770    -1.1770    -2.1240 H     1 <1>   0.0800 
 34 H       -5.4500    -1.4660    -0.6450 H     1 <1>   0.0800 
 35 H       -3.4530    -4.7070    -2.5290 H     1 <1>   0.0800 
 36 H       -3.3660    -3.1250    -3.2400 H     1 <1>   0.0800 
 37 H       -4.4830    -5.8200    -0.8420 H     1 <1>   0.0800 
 38 H       -5.5820    -5.8000    -2.2050 H     1 <1>   0.0800 
 39 H       -7.5000    -6.0520    -0.6560 H     1 <1>   0.0800 
 40 H       -6.3900    -6.0280     0.7160 H     1 <1>   0.0800 
 41 H       -8.3740    -8.4820     0.3330 H     1 <1>   0.0800 
 42 H       -7.1700    -8.3740     1.6150 H     1 <1>   0.0800 
 43 H       -5.3790   -10.2520     1.7160 H     1 <1>   0.1500 
 44 H       -9.0010   -10.6530    -0.5000 H     1 <1>   0.1500 
 45 H       -5.1070   -12.6920     1.7060 H     1 <1>   0.1500 
 46 H       -8.7240   -13.0890    -0.5100 H     1 <1>   0.1500 
 47 H       -6.7790   -14.1140     0.5950 H     1 <1>   0.1500 
@<TRIPOS>BOND
  1   1   2  2   
  2   1   3  2   
  3   1   4  am  
  4   1   5  1   
  5   4   6  1   
  6   4  24  1   
  7   5  25  1   
  8   5  26  1   
  9   5  27  1   
 10   6   7  1   
 11   6   8  1   
 12   6  28  1   
 13   7   9  1   
 14   7  29  1   
 15   7  30  1   
 16   8  10  1   
 17   8  31  1   
 18   8  32  1   
 19   9  11  1   
 20   9  33  1   
 21   9  34  1   
 22  10  11  1   
 23  10  35  1   
 24  10  36  1   
 25  11  12  am  
 26  12  13  2   
 27  12  14  1   
 28  14  15  1   
 29  14  37  1   
 30  14  38  1   
 31  15  16  1   
 32  15  39  1   
 33  15  40  1   
 34  16  17  1   
 35  17  18  1   
 36  17  41  1   
 37  17  42  1   
 38  18  19  ar  
 39  18  20  ar  
 40  19  21  ar  
 41  19  43  1   
 42  20  22  ar  
 43  20  44  1   
 44  21  23  ar  
 45  21  45  1   
 46  22  23  ar  
 47  22  46  1   
 48  23  47  1   
@<TRIPOS>SUBSTRUCTURE
  1 ****  14 GROUP 4 **** **** 0

# MOE 2024.06 (io_trps.svl 2023.06)
