@<TRIPOS>MOLECULE
NONAME
49 50 1 0 0 
SMALL
USER_CHARGES


@<TRIPOS>ATOM
  1 O       -0.5050     0.5940     0.8210 O.2   1 <1>  -0.5700 
  2 C       -1.6080     1.0890     0.9100 C.2   1 <1>   0.5690 
  3 N       -2.7380     0.3080     0.9440 N.am  1 <1>  -0.6600 
  4 C       -1.7050     2.6190     0.9890 C.3   1 <1>   0.2010 
  5 C       -2.6610    -1.1850     0.8320 C.3   1 <1>   0.1400 
  6 C       -4.1490     0.8040     1.0020 C.3   1 <1>   0.1400 
  7 N       -0.4180     3.3050     0.6860 N.am  1 <1>  -0.7300 
  8 C       -3.5860    -1.7040    -0.2830 C.3   1 <1>   0.3440 
  9 C       -4.9970     0.1890    -0.1350 C.3   1 <1>   0.2000 
 10 C       -0.3160     4.5540     0.1790 C.2   1 <1>   0.5690 
 11 O       -4.8860    -1.2080    -0.0950 O.3   1 <1>  -0.5600 
 12 C       -3.6150    -3.2290    -0.2900 C.ar  1 <1>  -0.1430 
 13 C       -6.4970     0.5550    -0.0470 C.3   1 <1>  -0.0800 
 14 O       -1.2860     5.2500     0.0130 O.2   1 <1>  -0.5700 
 15 C        1.0590     5.0790    -0.1910 C.3   1 <1>  -0.0990 
 16 C       -2.7180    -3.9270    -1.0860 C.ar  1 <1>  -0.1500 
 17 C       -4.5140    -3.9400     0.4940 C.ar  1 <1>  -0.1500 
 18 C       -7.3040    -0.1090    -1.1760 C.3   1 <1>  -0.2400 
 19 C       -6.7320     2.0740    -0.1060 C.3   1 <1>  -0.2400 
 20 C        1.6460     4.3830    -1.4290 C.3   1 <1>  -0.2400 
 21 C       -2.7160    -5.3120    -1.0970 C.ar  1 <1>  -0.1500 
 22 C       -4.5140    -5.3240     0.4850 C.ar  1 <1>  -0.1500 
 23 C       -3.6140    -6.0110    -0.3110 C.ar  1 <1>  -0.1500 
 24 H       -2.0190     2.8940     1.9790 H     1 <1>   0.0800 
 25 H       -2.4440     2.9620     0.2880 H     1 <1>   0.0800 
 26 H       -1.6540    -1.5020     0.6240 H     1 <1>   0.0800 
 27 H       -2.9560    -1.6270     1.7670 H     1 <1>   0.0800 
 28 H       -4.5800     0.5250     1.9480 H     1 <1>   0.0800 
 29 H       -4.1800     1.8730     0.9300 H     1 <1>   0.0800 
 30 H        0.3960     2.6820     0.7310 H     1 <1>   0.3700 
 31 H       -3.2340    -1.3520    -1.2370 H     1 <1>   0.0800 
 32 H       -4.6140     0.5230    -1.0850 H     1 <1>   0.0800 
 33 H       -6.8750     0.1940     0.8950 H     1 <1>   0.0800 
 34 H        0.9800     6.1350    -0.3810 H     1 <1>   0.0800 
 35 H        1.7160     4.9460     0.6480 H     1 <1>   0.0800 
 36 H       -2.0120    -3.3980    -1.7020 H     1 <1>   0.1500 
 37 H       -5.2200    -3.4150     1.1140 H     1 <1>   0.1500 
 38 H       -6.9440     0.2080    -2.1380 H     1 <1>   0.0800 
 39 H       -8.3460     0.1460    -1.0950 H     1 <1>   0.0800 
 40 H       -7.2210    -1.1810    -1.1180 H     1 <1>   0.0800 
 41 H       -6.3050     2.4900    -1.0020 H     1 <1>   0.0800 
 42 H       -6.3050     2.5690     0.7470 H     1 <1>   0.0800 
 43 H       -7.7880     2.2860    -0.1050 H     1 <1>   0.0800 
 44 H        0.9930     4.5210    -2.2730 H     1 <1>   0.0800 
 45 H        1.7610     3.3280    -1.2520 H     1 <1>   0.0800 
 46 H        2.6090     4.8000    -1.6670 H     1 <1>   0.0800 
 47 H       -2.0170    -5.8450    -1.7170 H     1 <1>   0.1500 
 48 H       -5.2150    -5.8650     1.0960 H     1 <1>   0.1500 
 49 H       -3.6140    -7.0870    -0.3180 H     1 <1>   0.1500 
@<TRIPOS>BOND
  1   1   2  2   
  2   2   3  am  
  3   2   4  1   
  4   3   5  1   
  5   3   6  1   
  6   4   7  1   
  7   4  24  1   
  8   4  25  1   
  9   5   8  1   
 10   5  26  1   
 11   5  27  1   
 12   6   9  1   
 13   6  28  1   
 14   6  29  1   
 15   7  10  am  
 16   7  30  1   
 17   8  11  1   
 18   8  12  1   
 19   8  31  1   
 20   9  11  1   
 21   9  13  1   
 22   9  32  1   
 23  10  14  2   
 24  10  15  1   
 25  12  16  ar  
 26  12  17  ar  
 27  13  18  1   
 28  13  19  1   
 29  13  33  1   
 30  15  20  1   
 31  15  34  1   
 32  15  35  1   
 33  16  21  ar  
 34  16  36  1   
 35  17  22  ar  
 36  17  37  1   
 37  18  38  1   
 38  18  39  1   
 39  18  40  1   
 40  19  41  1   
 41  19  42  1   
 42  19  43  1   
 43  20  44  1   
 44  20  45  1   
 45  20  46  1   
 46  21  23  ar  
 47  21  47  1   
 48  22  23  ar  
 49  22  48  1   
 50  23  49  1   
@<TRIPOS>SUBSTRUCTURE
  1 ****   3 GROUP 4 **** **** 0

# MOE 2024.06 (io_trps.svl 2023.06)
