@<TRIPOS>MOLECULE
NONAME
53 56 1 0 0 
SMALL
USER_CHARGES


@<TRIPOS>ATOM
  1 O       -0.3100    -0.2560    -0.4800 O.2   1 <1>  -0.5700 
  2 C        0.7380     0.3530    -0.6170 C.2   1 <1>   0.5440 
  3 N        0.7590     1.7120    -0.3700 N.am  1 <1>  -0.6600 
  4 C        1.9220    -0.3660    -1.0120 C.ar  1 <1>   0.0860 
  5 C       -0.4880     2.4790    -0.0930 C.3   1 <1>   0.1400 
  6 C        2.0090     2.4740    -0.0920 C.3   1 <1>   0.1400 
  7 C        2.4130    -1.4190    -0.2200 C.ar  1 <1>   0.4100 
  8 C        2.6050    -0.0540    -2.1790 C.ar  1 <1>  -0.1500 
  9 C       -0.5030     2.9170     1.3750 C.3   1 <1>  -0.1600 
 10 C        2.0220     2.9140     1.3760 C.3   1 <1>  -0.1600 
 11 N        3.4950    -2.1320    -0.5250 N.ar  1 <1>  -0.6200 
 12 N        1.7720    -1.7660     0.9450 N.pl3 1 <1>  -0.8690 
 13 C        3.7250    -0.7900    -2.4910 C.ar  1 <1>  -0.1500 
 14 C        0.7600     3.7100     1.7420 C.3   1 <1>  -0.1600 
 15 C        4.1220    -1.8050    -1.6380 C.ar  1 <1>   0.1600 
 16 C        1.6120    -3.1760     1.3650 C.3   1 <1>   0.2890 
 17 C        0.1980    -3.6340     1.0790 C.3   1 <1>  -0.0800 
 18 C        1.7310    -3.3660     2.8740 C.3   1 <1>   0.1200 
 19 C       -0.0220    -4.6870     2.1560 C.3   1 <1>   0.1200 
 20 C        0.0030    -4.1360    -0.3580 C.3   1 <1>  -0.0170 
 21 O        0.7380    -4.2820     3.2530 O.3   1 <1>  -0.5600 
 22 C       -1.4430    -4.5360    -0.5970 C.ar  1 <1>  -0.1430 
 23 C       -1.8600    -5.8520    -0.5960 C.ar  1 <1>  -0.1500 
 24 C       -2.4170    -3.5860    -0.8240 C.ar  1 <1>  -0.1500 
 25 C       -3.1960    -6.1450    -0.8140 C.ar  1 <1>   0.1600 
 26 C       -3.7270    -3.9860    -1.0310 C.ar  1 <1>   0.1600 
 27 N       -4.1420    -5.2440    -1.0300 N.ar  1 <1>  -0.6200 
 28 H       -0.5160     3.3440    -0.7330 H     1 <1>   0.0800 
 29 H       -1.3600     1.8830    -0.3040 H     1 <1>   0.0800 
 30 H        2.8830     1.8770    -0.2870 H     1 <1>   0.0800 
 31 H        2.0430     3.3380    -0.7330 H     1 <1>   0.0800 
 32 H        2.2580     0.7400    -2.8180 H     1 <1>   0.1500 
 33 H       -1.3750     3.5200     1.5580 H     1 <1>   0.0800 
 34 H       -0.5760     2.0400     1.9950 H     1 <1>   0.0800 
 35 H        2.0920     2.0390     1.9990 H     1 <1>   0.0800 
 36 H        2.8940     3.5160     1.5600 H     1 <1>   0.0800 
 37 H        0.9070    -1.2350     1.1070 H     1 <1>   0.4000 
 38 H        4.2890    -0.5850    -3.3840 H     1 <1>   0.1500 
 39 H        0.7600     3.9270     2.7960 H     1 <1>   0.0800 
 40 H        0.7610     4.6450     1.2090 H     1 <1>   0.0800 
 41 H        5.0000    -2.3760    -1.8880 H     1 <1>   0.1500 
 42 H        2.3280    -3.8170     0.8790 H     1 <1>   0.0800 
 43 H       -0.4880    -2.8270     1.2730 H     1 <1>   0.0800 
 44 H        1.5450    -2.4450     3.3970 H     1 <1>   0.0800 
 45 H        2.6920    -3.7630     3.1460 H     1 <1>   0.0800 
 46 H        0.3440    -5.6500     1.8440 H     1 <1>   0.0800 
 47 H       -1.0550    -4.7640     2.4480 H     1 <1>   0.0800 
 48 H        0.6560    -4.9680    -0.5540 H     1 <1>   0.0800 
 49 H        0.2640    -3.3500    -1.0460 H     1 <1>   0.0800 
 50 H       -1.1610    -6.6500    -0.4290 H     1 <1>   0.1500 
 51 H       -2.1670    -2.5390    -0.8410 H     1 <1>   0.1500 
 52 H       -3.5040    -7.1760    -0.8100 H     1 <1>   0.1500 
 53 H       -4.4720    -3.2290    -1.2060 H     1 <1>   0.1500 
@<TRIPOS>BOND
  1   1   2  2   
  2   2   3  am  
  3   2   4  1   
  4   3   5  1   
  5   3   6  1   
  6   4   7  ar  
  7   4   8  ar  
  8   5   9  1   
  9   5  28  1   
 10   5  29  1   
 11   6  10  1   
 12   6  30  1   
 13   6  31  1   
 14   7  11  ar  
 15   7  12  1   
 16   8  13  ar  
 17   8  32  1   
 18   9  14  1   
 19   9  33  1   
 20   9  34  1   
 21  10  14  1   
 22  10  35  1   
 23  10  36  1   
 24  11  15  ar  
 25  12  16  1   
 26  12  37  1   
 27  13  15  ar  
 28  13  38  1   
 29  14  39  1   
 30  14  40  1   
 31  15  41  1   
 32  16  17  1   
 33  16  18  1   
 34  16  42  1   
 35  17  19  1   
 36  17  20  1   
 37  17  43  1   
 38  18  21  1   
 39  18  44  1   
 40  18  45  1   
 41  19  21  1   
 42  19  46  1   
 43  19  47  1   
 44  20  22  1   
 45  20  48  1   
 46  20  49  1   
 47  22  23  ar  
 48  22  24  ar  
 49  23  25  ar  
 50  23  50  1   
 51  24  26  ar  
 52  24  51  1   
 53  25  27  ar  
 54  25  52  1   
 55  26  27  ar  
 56  26  53  1   
@<TRIPOS>SUBSTRUCTURE
  1 ****  12 GROUP 4 **** **** 0

# MOE 2024.06 (io_trps.svl 2023.06)
