@<TRIPOS>MOLECULE
NONAME
60 64 1 0 0 
SMALL
USER_CHARGES


@<TRIPOS>ATOM
  1 O       -1.1900     0.9880    -2.1600 O.2   1 <1>  -0.5700 
  2 C       -2.0210     1.3170    -1.3470 C.2   1 <1>   0.5690 
  3 N       -3.1700     0.5720    -1.1710 N.am  1 <1>  -0.6600 
  4 C       -1.6550     2.5790    -0.5140 C.3   1 <1>   0.4840 
  5 C       -3.6040    -0.3970    -2.2280 C.3   1 <1>   0.1400 
  6 C       -4.1580     0.6990    -0.0590 C.3   1 <1>   0.1400 
  7 N       -1.2110     2.3100     0.9190 N.4   1 <1>  -0.9590 
  8 C       -2.7810     3.6290    -0.5220 C.3   1 <1>  -0.1600 
  9 C       -3.8620    -1.7730    -1.6130 C.3   1 <1>  -0.1600 
 10 C       -4.4010    -0.6740     0.5740 C.3   1 <1>  -0.1600 
 11 C       -0.2710     3.3380     1.4510 C.3   1 <1>   0.3430 
 12 C       -0.5610     0.9630     1.0380 C.3   1 <1>   0.2630 
 13 C       -2.3020     5.0880    -0.5960 C.3   1 <1>  -0.1600 
 14 C       -4.8740    -1.6940    -0.4690 C.3   1 <1>   0.4600 
 15 C       -0.8920     4.7330     1.5380 C.3   1 <1>  -0.1600 
 16 C       -1.0160     5.4210     0.1710 C.3   1 <1>  -0.1600 
 17 O       -6.0820    -1.2350    -1.0350 O.3   1 <1>  -0.5600 
 18 C       -5.0930    -3.0690     0.1500 C.2   1 <1>  -0.3320 
 19 C       -7.2810    -1.4740    -0.3350 C.3   1 <1>   0.1200 
 20 N       -4.1330    -3.9060     0.6510 N.pl3 1 <1>   0.0330 
 21 C       -6.3000    -3.6560     0.2750 C.2   1 <1>  -0.1810 
 22 C       -7.5610    -2.9790    -0.2000 C.3   1 <1>   0.0210 
 23 C       -4.7550    -5.0450     1.1020 C.ar  1 <1>  -0.1520 
 24 C       -6.1230    -4.9190     0.8770 C.ar  1 <1>   0.0000 
 25 C       -4.2310    -6.1950     1.6960 C.ar  1 <1>  -0.1500 
 26 C       -6.9850    -5.9550     1.2490 C.ar  1 <1>  -0.1500 
 27 C       -5.0890    -7.2080     2.0570 C.ar  1 <1>  -0.1500 
 28 C       -6.4670    -7.0880     1.8340 C.ar  1 <1>  -0.1500 
 29 H       -0.8200     3.0070    -1.0420 H     1 <1>   0.0800 
 30 H       -2.8610    -0.4890    -3.0020 H     1 <1>   0.0800 
 31 H       -4.5080    -0.0340    -2.6880 H     1 <1>   0.0800 
 32 H       -5.0840     1.0860    -0.4530 H     1 <1>   0.0800 
 33 H       -3.8070     1.3690     0.7000 H     1 <1>   0.0800 
 34 H       -2.0530     2.3250     1.5050 H     1 <1>   0.4500 
 35 H       -3.4080     3.5080     0.3420 H     1 <1>   0.0800 
 36 H       -3.4060     3.4620    -1.3830 H     1 <1>   0.0800 
 37 H       -2.9310    -2.1730    -1.2570 H     1 <1>   0.0800 
 38 H       -4.2380    -2.4440    -2.3640 H     1 <1>   0.0800 
 39 H       -5.1290    -0.5980     1.3600 H     1 <1>   0.0800 
 40 H       -3.4900    -1.0240     1.0200 H     1 <1>   0.0800 
 41 H        0.6130     3.3800     0.8340 H     1 <1>   0.0800 
 42 H        0.0390     3.0470     2.4430 H     1 <1>   0.0800 
 43 H        0.2930     0.9010     0.3810 H     1 <1>   0.0800 
 44 H       -1.2540     0.1830     0.7670 H     1 <1>   0.0800 
 45 H       -0.2320     0.7910     2.0500 H     1 <1>   0.0800 
 46 H       -3.0970     5.7200    -0.2330 H     1 <1>   0.0800 
 47 H       -2.1480     5.3550    -1.6290 H     1 <1>   0.0800 
 48 H       -0.2240     5.3310     2.1340 H     1 <1>   0.0800 
 49 H       -1.8350     4.7130     2.0570 H     1 <1>   0.0800 
 50 H       -0.9940     6.4880     0.3190 H     1 <1>   0.0800 
 51 H       -0.1570     5.1810    -0.4350 H     1 <1>   0.0800 
 52 H       -8.0790    -0.9980    -0.8770 H     1 <1>   0.0800 
 53 H       -7.2080    -1.0210     0.6380 H     1 <1>   0.0800 
 54 H       -3.1210    -3.7550     0.6620 H     1 <1>   0.2700 
 55 H       -7.8540    -3.3860    -1.1500 H     1 <1>   0.0800 
 56 H       -8.3560    -3.1390     0.5050 H     1 <1>   0.0800 
 57 H       -3.1720    -6.2820     1.8630 H     1 <1>   0.1500 
 58 H       -8.0380    -5.8500     1.0700 H     1 <1>   0.1500 
 59 H       -4.7100    -8.1040     2.5160 H     1 <1>   0.1500 
 60 H       -7.1160    -7.8940     2.1250 H     1 <1>   0.1500 
@<TRIPOS>BOND
  1   1   2  2   
  2   2   3  am  
  3   2   4  1   
  4   3   5  1   
  5   3   6  1   
  6   4   7  1   
  7   4   8  1   
  8   4  29  1   
  9   5   9  1   
 10   5  30  1   
 11   5  31  1   
 12   6  10  1   
 13   6  32  1   
 14   6  33  1   
 15   7  11  1   
 16   7  12  1   
 17   7  34  1   
 18   8  13  1   
 19   8  35  1   
 20   8  36  1   
 21   9  14  1   
 22   9  37  1   
 23   9  38  1   
 24  10  14  1   
 25  10  39  1   
 26  10  40  1   
 27  11  15  1   
 28  11  41  1   
 29  11  42  1   
 30  12  43  1   
 31  12  44  1   
 32  12  45  1   
 33  13  16  1   
 34  13  46  1   
 35  13  47  1   
 36  14  17  1   
 37  14  18  1   
 38  15  16  1   
 39  15  48  1   
 40  15  49  1   
 41  16  50  1   
 42  16  51  1   
 43  17  19  1   
 44  18  20  1   
 45  18  21  2   
 46  19  22  1   
 47  19  52  1   
 48  19  53  1   
 49  20  23  1   
 50  20  54  1   
 51  21  22  1   
 52  21  24  1   
 53  22  55  1   
 54  22  56  1   
 55  23  24  ar  
 56  23  25  ar  
 57  24  26  ar  
 58  25  27  ar  
 59  25  57  1   
 60  26  28  ar  
 61  26  58  1   
 62  27  28  ar  
 63  27  59  1   
 64  28  60  1   
@<TRIPOS>SUBSTRUCTURE
  1 ****  10 GROUP 4 **** **** 0

# MOE 2024.06 (io_trps.svl 2023.06)
