@<TRIPOS>MOLECULE
NONAME
46 49 1 0 0 
SMALL
USER_CHARGES


@<TRIPOS>ATOM
  1 O        0.7570     0.3710     0.5420 O.3   1 <1>  -0.6800 
  2 C        1.5860    -0.2420    -0.3880 C.3   1 <1>   0.2000 
  3 C        2.2680    -1.4580     0.2560 C.3   1 <1>  -0.0800 
  4 C        2.7380     0.7060    -0.7110 C.3   1 <1>   0.1100 
  5 C        3.7390    -1.0500     0.4390 C.3   1 <1>   0.1100 
  6 C        2.1170    -2.7260    -0.6020 C.3   1 <1>   0.0210 
  7 N        3.7540     0.4080     0.3070 N.3   1 <1>  -0.8100 
  8 C        2.8620    -3.9020     0.0010 C.2   1 <1>   0.1080 
  9 C        5.0850     1.0160     0.0680 C.3   1 <1>   0.2540 
 10 N        2.5970    -4.3690     1.1800 N.2   1 <1>  -0.7070 
 11 C        3.8900    -4.6010    -0.6230 C.2   1 <1>  -0.1500 
 12 C        5.0970     2.5010     0.4720 C.cat 1 <1>   0.6560 
 13 N        3.4550    -5.3940     1.3420 N.pl3 1 <1>   0.3000 
 14 C        4.2510    -5.5520     0.2630 C.2   1 <1>  -0.3320 
 15 N        4.1200     3.0480     1.1780 N.pl3 1 <1>  -0.7000 
 16 N        6.0200     3.4230     0.1970 N.pl3 1 <1>  -0.6690 
 17 C        5.3200    -6.6230     0.1440 C.3   1 <1>  -0.0600 
 18 C        4.4090     4.3700     1.3690 C.2   1 <1>   0.2000 
 19 C        5.5890     4.6060     0.7580 C.2   1 <1>   0.2000 
 20 C        7.2690     3.2700    -0.5710 C.3   1 <1>   0.3190 
 21 C        8.2510     2.2280    -0.1410 C.3   1 <1>  -0.2000 
 22 C        8.5490     3.6760     0.0820 C.3   1 <1>  -0.2000 
 23 H        0.1360    -0.2810     0.9220 H     1 <1>   0.4000 
 24 H        0.9990    -0.4820    -1.2580 H     1 <1>   0.0800 
 25 H        1.8470    -1.6550     1.2280 H     1 <1>   0.0800 
 26 H        2.4190     1.7340    -0.6840 H     1 <1>   0.0800 
 27 H        3.1230     0.4720    -1.6900 H     1 <1>   0.0800 
 28 H        4.3500    -1.4940    -0.3290 H     1 <1>   0.0800 
 29 H        4.1060    -1.3550     1.4050 H     1 <1>   0.0800 
 30 H        2.4840    -2.5470    -1.5960 H     1 <1>   0.0800 
 31 H        1.0770    -2.9890    -0.6720 H     1 <1>   0.0800 
 32 H        5.8140     0.5070     0.6720 H     1 <1>   0.0800 
 33 H        5.3630     0.9110    -0.9650 H     1 <1>   0.0800 
 34 H        4.2900    -4.4080    -1.6020 H     1 <1>   0.1500 
 35 H        3.4690    -5.9670     2.1950 H     1 <1>   0.2700 
 36 H        3.3070     2.4860     1.4750 H     1 <1>   0.4500 
 37 H        5.8170    -6.5460    -0.8070 H     1 <1>   0.0800 
 38 H        4.8780    -7.6000     0.2200 H     1 <1>   0.0800 
 39 H        6.0520    -6.5070     0.9240 H     1 <1>   0.0800 
 40 H        3.7690     5.0460     1.9150 H     1 <1>   0.1500 
 41 H        6.1420     5.5290     0.6890 H     1 <1>   0.1500 
 42 H        7.1490     3.4790    -1.6230 H     1 <1>   0.1000 
 43 H        8.0640     1.6260     0.7300 H     1 <1>   0.1000 
 44 H        8.8270     1.7090    -0.8870 H     1 <1>   0.1000 
 45 H        9.3220     4.1280    -0.5160 H     1 <1>   0.1000 
 46 H        8.5350     4.0500     1.0910 H     1 <1>   0.1000 
@<TRIPOS>BOND
  1   1   2  1   
  2   1  23  1   
  3   2   3  1   
  4   2   4  1   
  5   2  24  1   
  6   3   5  1   
  7   3   6  1   
  8   3  25  1   
  9   4   7  1   
 10   4  26  1   
 11   4  27  1   
 12   5   7  1   
 13   5  28  1   
 14   5  29  1   
 15   6   8  1   
 16   6  30  1   
 17   6  31  1   
 18   7   9  1   
 19   8  10  2   
 20   8  11  1   
 21   9  12  1   
 22   9  32  1   
 23   9  33  1   
 24  10  13  1   
 25  11  14  2   
 26  11  34  1   
 27  12  15  ar  
 28  12  16  ar  
 29  13  14  1   
 30  13  35  1   
 31  14  17  1   
 32  15  18  1   
 33  15  36  1   
 34  16  19  1   
 35  16  20  1   
 36  17  37  1   
 37  17  38  1   
 38  17  39  1   
 39  18  19  2   
 40  18  40  1   
 41  19  41  1   
 42  20  21  1   
 43  20  22  1   
 44  20  42  1   
 45  21  22  1   
 46  21  43  1   
 47  21  44  1   
 48  22  45  1   
 49  22  46  1   
@<TRIPOS>SUBSTRUCTURE
  1 ****   7 GROUP 4 **** **** 0

# MOE 2024.06 (io_trps.svl 2023.06)
