@<TRIPOS>MOLECULE
NONAME
43 44 1 0 0 
SMALL
USER_CHARGES


@<TRIPOS>ATOM
  1 O       -0.7440     2.0000    -2.0680 O.2   1 <1>  -0.5700 
  2 C       -1.4880     1.9200    -1.1140 C.2   1 <1>   0.6900 
  3 N       -1.2030     2.5170     0.0970 N.am  1 <1>  -0.4200 
  4 N       -2.6570     1.2230    -1.2520 N.am  1 <1>  -0.5390 
  5 C       -2.1240     2.4600     1.1300 C.2   1 <1>   0.6160 
  6 C        0.0860     3.2400     0.2840 C.3   1 <1>   0.1400 
  7 C       -3.5870     1.1100    -0.2420 C.2   1 <1>  -0.0290 
  8 O       -1.9130     3.0400     2.1800 O.2   1 <1>  -0.5700 
  9 C       -3.3270     1.7200     0.9350 C.2   1 <1>  -0.1360 
 10 C       -0.0730     4.7090    -0.1200 C.3   1 <1>   0.1100 
 11 C       -4.8350     0.3050    -0.5390 C.3   1 <1>  -0.1020 
 12 N        1.1690     5.4640     0.1250 N.3   1 <1>  -0.8100 
 13 C        1.2340     6.6660    -0.7460 C.3   1 <1>   0.2900 
 14 C        1.3030     5.8330     1.5460 C.3   1 <1>   0.0300 
 15 C        2.5470     7.4360    -0.6410 C.2   1 <1>   0.2980 
 16 O        3.6570     6.8400    -0.9990 O.3   1 <1>  -0.0190 
 17 N        2.6770     8.6380    -0.2350 N.2   1 <1>  -0.5650 
 18 N        4.5720     7.7390    -0.8060 N.2   1 <1>  -0.4100 
 19 C        3.9910     8.7820    -0.3580 C.2   1 <1>   0.3350 
 20 C        4.6700    10.1020     0.0130 C.3   1 <1>   0.1010 
 21 C        4.6050    11.0910    -1.1590 C.3   1 <1>  -0.2400 
 22 C        6.1280     9.9080     0.4580 C.3   1 <1>  -0.2400 
 23 H       -2.7900     0.7950    -2.1690 H     1 <1>   0.3700 
 24 H        0.8500     2.7850    -0.3220 H     1 <1>   0.0800 
 25 H        0.3880     3.1650     1.3130 H     1 <1>   0.0800 
 26 H       -3.9990     1.6850     1.7710 H     1 <1>   0.1500 
 27 H       -0.8880     5.1560     0.4250 H     1 <1>   0.0800 
 28 H       -0.3070     4.7310    -1.1720 H     1 <1>   0.0800 
 29 H       -5.3690     0.7430    -1.3640 H     1 <1>   0.0800 
 30 H       -5.4860     0.2860     0.3170 H     1 <1>   0.0800 
 31 H       -4.5710    -0.7060    -0.7900 H     1 <1>   0.0800 
 32 H        0.4250     7.3320    -0.5010 H     1 <1>   0.0800 
 33 H        1.1180     6.3640    -1.7720 H     1 <1>   0.0800 
 34 H        1.2650     4.9560     2.1690 H     1 <1>   0.0800 
 35 H        0.5130     6.5030     1.8410 H     1 <1>   0.0800 
 36 H        2.2510     6.3140     1.7180 H     1 <1>   0.0800 
 37 H        4.1250    10.5210     0.8410 H     1 <1>   0.0800 
 38 H        5.1330    10.6950    -2.0080 H     1 <1>   0.0800 
 39 H        5.0420    12.0330    -0.8820 H     1 <1>   0.0800 
 40 H        3.5800    11.2570    -1.4410 H     1 <1>   0.0800 
 41 H        6.7180     9.5100    -0.3490 H     1 <1>   0.0800 
 42 H        6.1710     9.2190     1.2830 H     1 <1>   0.0800 
 43 H        6.5540    10.8450     0.7700 H     1 <1>   0.0800 
@<TRIPOS>BOND
  1   1   2  2   
  2   2   3  am  
  3   2   4  am  
  4   3   5  am  
  5   3   6  1   
  6   4   7  1   
  7   4  23  1   
  8   5   8  2   
  9   5   9  1   
 10   6  10  1   
 11   6  24  1   
 12   6  25  1   
 13   7   9  2   
 14   7  11  1   
 15   9  26  1   
 16  10  12  1   
 17  10  27  1   
 18  10  28  1   
 19  11  29  1   
 20  11  30  1   
 21  11  31  1   
 22  12  13  1   
 23  12  14  1   
 24  13  15  1   
 25  13  32  1   
 26  13  33  1   
 27  14  34  1   
 28  14  35  1   
 29  14  36  1   
 30  15  16  1   
 31  15  17  2   
 32  16  18  1   
 33  17  19  1   
 34  18  19  2   
 35  19  20  1   
 36  20  21  1   
 37  20  22  1   
 38  20  37  1   
 39  21  38  1   
 40  21  39  1   
 41  21  40  1   
 42  22  41  1   
 43  22  42  1   
 44  22  43  1   
@<TRIPOS>SUBSTRUCTURE
  1 ****  12 GROUP 4 **** **** 0

# MOE 2024.06 (io_trps.svl 2023.06)
