@<TRIPOS>MOLECULE
Untitled Document
53 54 1 0 0 
SMALL
USER_CHARGES


@<TRIPOS>ATOM
  1 S        2.6800     5.8320    -2.0540 S.o2  1 <1>   1.2040 
  2 O        3.7770     4.9210    -2.3200 O.2   1 <1>  -0.6500 
  3 O        1.8770     6.2950    -3.1650 O.2   1 <1>  -0.6500 
  4 C        1.5600     5.1510    -0.8050 C.ar  1 <1>  -0.0090 
  5 C        3.3460     7.2990    -1.2510 C.3   1 <1>  -0.0550 
  6 C        1.9840     4.2030     0.1290 C.ar  1 <1>   0.1000 
  7 C        0.2470     5.5900    -0.7390 C.ar  1 <1>  -0.1500 
  8 C        4.1690     7.0430     0.0250 C.3   1 <1>  -0.2400 
  9 N        3.2730     3.7070     0.1420 N.pl3 1 <1>  -0.9000 
 10 C        1.0900     3.7380     1.0810 C.ar  1 <1>  -0.1500 
 11 C       -0.6820     5.1390     0.2060 C.ar  1 <1>   0.0860 
 12 C       -0.2230     4.1870     1.1350 C.ar  1 <1>   0.0830 
 13 C       -2.0360     5.6700     0.1770 C.2   1 <1>   0.5440 
 14 O       -1.0830     3.7250     2.0830 O.3   1 <1>  -0.3630 
 15 O       -2.3050     6.6780    -0.4550 O.2   1 <1>  -0.5700 
 16 N       -3.0840     5.0680     0.8170 N.am  1 <1>  -0.7300 
 17 C       -0.6780     2.8770     3.1390 C.3   1 <1>   0.0400 
 18 C       -4.3680     5.7440     1.1740 C.3   1 <1>   0.1400 
 19 C       -5.4360     5.6720     0.0540 C.3   1 <1>   0.4230 
 20 N       -4.8930     6.0460    -1.2830 N.4   1 <1>  -0.9590 
 21 C       -6.6020     6.6280     0.2960 C.3   1 <1>  -0.1600 
 22 C       -5.7870     7.0500    -1.9200 C.3   1 <1>   0.3430 
 23 C       -4.6190     4.8530    -2.1180 C.3   1 <1>   0.3430 
 24 C       -7.0660     7.0260    -1.0990 C.3   1 <1>  -0.1600 
 25 C       -3.7420     5.2430    -3.3020 C.3   1 <1>  -0.2400 
 26 H        2.5390     7.9640    -1.0090 H     1 <1>   0.0800 
 27 H        3.9740     7.8110    -1.9550 H     1 <1>   0.0800 
 28 H       -0.0770     6.3210    -1.4610 H     1 <1>   0.1500 
 29 H        3.5590     6.5960     0.7890 H     1 <1>   0.0800 
 30 H        4.5650     7.9700     0.4020 H     1 <1>   0.0800 
 31 H        4.9910     6.3820    -0.1900 H     1 <1>   0.0800 
 32 H        3.4610     2.8080     0.5970 H     1 <1>   0.4000 
 33 H        3.8330     3.8160    -0.7260 H     1 <1>   0.4000 
 34 H        1.4590     3.0140     1.7810 H     1 <1>   0.1500 
 35 H       -2.8050     4.2980     1.4440 H     1 <1>   0.3700 
 36 H       -1.5240     2.7090     3.7810 H     1 <1>   0.0800 
 37 H        0.1090     3.3570     3.6950 H     1 <1>   0.0800 
 38 H       -0.3430     1.9400     2.7300 H     1 <1>   0.0800 
 39 H       -4.1580     6.7770     1.3980 H     1 <1>   0.0800 
 40 H       -4.7650     5.2980     2.0690 H     1 <1>   0.0800 
 41 H       -5.8260     4.6690     0.0060 H     1 <1>   0.0800 
 42 H       -3.9640     6.4820    -1.0900 H     1 <1>   0.4500 
 43 H       -6.2640     7.5040     0.8240 H     1 <1>   0.0800 
 44 H       -7.3850     6.1610     0.8680 H     1 <1>   0.0800 
 45 H       -5.9810     6.8190    -2.9550 H     1 <1>   0.0800 
 46 H       -5.3330     8.0260    -1.8540 H     1 <1>   0.0800 
 47 H       -5.5430     4.4190    -2.4630 H     1 <1>   0.0800 
 48 H       -4.0950     4.1180    -1.5270 H     1 <1>   0.0800 
 49 H       -7.5630     7.9800    -1.1110 H     1 <1>   0.0800 
 50 H       -7.7310     6.2800    -1.5000 H     1 <1>   0.0800 
 51 H       -4.2490     5.9230    -3.9610 H     1 <1>   0.0800 
 52 H       -3.4970     4.3600    -3.8650 H     1 <1>   0.0800 
 53 H       -2.8220     5.6860    -2.9640 H     1 <1>   0.0800 
@<TRIPOS>BOND
  1   1   2  2   
  2   1   3  2   
  3   1   4  1   
  4   1   5  1   
  5   4   6  ar  
  6   4   7  ar  
  7   5   8  1   
  8   5  26  1   
  9   5  27  1   
 10   6   9  1   
 11   6  10  ar  
 12   7  11  ar  
 13   7  28  1   
 14   8  29  1   
 15   8  30  1   
 16   8  31  1   
 17   9  32  1   
 18   9  33  1   
 19  10  12  ar  
 20  10  34  1   
 21  11  12  ar  
 22  11  13  1   
 23  12  14  1   
 24  13  15  2   
 25  13  16  am  
 26  14  17  1   
 27  16  18  1   
 28  16  35  1   
 29  17  36  1   
 30  17  37  1   
 31  17  38  1   
 32  18  19  1   
 33  18  39  1   
 34  18  40  1   
 35  19  20  1   
 36  19  21  1   
 37  19  41  1   
 38  20  22  1   
 39  20  23  1   
 40  20  42  1   
 41  21  24  1   
 42  21  43  1   
 43  21  44  1   
 44  22  24  1   
 45  22  45  1   
 46  22  46  1   
 47  23  25  1   
 48  23  47  1   
 49  23  48  1   
 50  24  49  1   
 51  24  50  1   
 52  25  51  1   
 53  25  52  1   
 54  25  53  1   
@<TRIPOS>SUBSTRUCTURE
  1 ****  11 GROUP 4 **** **** 0

# MOE 2024.06 (io_trps.svl 2023.06)
