@<TRIPOS>MOLECULE
NONAME
55 57 1 0 0 
SMALL
USER_CHARGES


@<TRIPOS>ATOM
  1 O       -4.0010     2.1970    -1.8020 O.2   1 <1>  -0.5700 
  2 C       -3.2260     2.2690    -0.8740 C.2   1 <1>   0.5690 
  3 N       -2.3420     1.2600    -0.6490 N.am  1 <1>  -0.7300 
  4 C       -3.2970     3.4850     0.1020 C.3   1 <1>   0.3410 
  5 C       -2.1200     0.0830    -1.5150 C.3   1 <1>   0.2200 
  6 O       -2.0390     3.8360     0.6880 O.3   1 <1>  -0.3630 
  7 C       -3.8830     4.7500    -0.5510 C.3   1 <1>  -0.2400 
  8 C       -4.1830     3.1100     1.2980 C.3   1 <1>  -0.2400 
  9 C       -2.6390    -1.1860    -0.8550 C.3   1 <1>  -0.0800 
 10 C       -0.6270    -0.2160    -1.5650 C.3   1 <1>   0.1200 
 11 C       -0.8480     3.6460     0.0660 C.ar  1 <1>   0.0820 
 12 C       -1.4800    -1.5960     0.0600 C.3   1 <1>   0.1200 
 13 C       -3.9970    -1.0590    -0.1390 C.3   1 <1>  -0.0160 
 14 O       -0.3450    -0.9100    -0.3860 O.3   1 <1>  -0.5600 
 15 C        0.0800     2.7630     0.6210 C.ar  1 <1>  -0.1440 
 16 C       -0.5580     4.3190    -1.1120 C.ar  1 <1>  -0.1500 
 17 C       -4.4440    -2.4010     0.4190 C.ar  1 <1>  -0.1440 
 18 C        1.2810     2.5340    -0.0450 C.ar  1 <1>  -0.1440 
 19 C       -0.2060     2.0390     1.9370 C.3   1 <1>  -0.0970 
 20 C        0.6380     4.0920    -1.7630 C.ar  1 <1>  -0.1500 
 21 C       -4.2670    -2.7380     1.7460 C.ar  1 <1>  -0.1500 
 22 C       -5.0500    -3.3520    -0.3760 C.ar  1 <1>  -0.1500 
 23 C        1.5500     3.1990    -1.2320 C.ar  1 <1>  -0.1500 
 24 C        2.3190     1.5550     0.4910 C.3   1 <1>  -0.0970 
 25 C       -4.6880    -3.9770     2.1990 C.ar  1 <1>   0.1600 
 26 C       -5.4340    -4.5620     0.1760 C.ar  1 <1>   0.1600 
 27 N       -5.2650    -4.8980     1.4450 N.ar  1 <1>  -0.6200 
 28 H       -1.5930     1.4210     0.0350 H     1 <1>   0.3700 
 29 H       -2.5380     0.2470    -2.4940 H     1 <1>   0.0800 
 30 H       -4.9250     4.5970    -0.7690 H     1 <1>   0.0800 
 31 H       -3.3980     4.9590    -1.4840 H     1 <1>   0.0800 
 32 H       -3.7900     5.5950     0.1070 H     1 <1>   0.0800 
 33 H       -5.1710     2.8550     0.9580 H     1 <1>   0.0800 
 34 H       -4.2570     3.9330     1.9850 H     1 <1>   0.0800 
 35 H       -3.7730     2.2570     1.8080 H     1 <1>   0.0800 
 36 H       -2.7290    -1.9390    -1.6170 H     1 <1>   0.0800 
 37 H       -0.0260     0.6740    -1.6210 H     1 <1>   0.0800 
 38 H       -0.3970    -0.8650    -2.3920 H     1 <1>   0.0800 
 39 H       -1.2910    -2.6550     0.0160 H     1 <1>   0.0800 
 40 H       -1.6570    -1.2990     1.0780 H     1 <1>   0.0800 
 41 H       -4.7340    -0.6970    -0.8350 H     1 <1>   0.0800 
 42 H       -3.9350    -0.3460     0.6630 H     1 <1>   0.0800 
 43 H       -1.2510     5.0250    -1.5240 H     1 <1>   0.1500 
 44 H        0.5670     2.2630     2.6490 H     1 <1>   0.0800 
 45 H       -0.2300     0.9760     1.7750 H     1 <1>   0.0800 
 46 H       -1.1420     2.3350     2.3730 H     1 <1>   0.0800 
 47 H        0.8610     4.6100    -2.6790 H     1 <1>   0.1500 
 48 H       -3.8070    -2.0510     2.4320 H     1 <1>   0.1500 
 49 H       -5.2270    -3.1630    -1.4190 H     1 <1>   0.1500 
 50 H        2.4760     3.0290    -1.7510 H     1 <1>   0.1500 
 51 H        3.1660     1.4890    -0.1680 H     1 <1>   0.0800 
 52 H        1.8890     0.5740     0.5800 H     1 <1>   0.0800 
 53 H        2.6670     1.8770     1.4550 H     1 <1>   0.0800 
 54 H       -4.5420    -4.2240     3.2360 H     1 <1>   0.1500 
 55 H       -5.9050    -5.2920    -0.4590 H     1 <1>   0.1500 
@<TRIPOS>BOND
  1   1   2  2   
  2   2   3  am  
  3   2   4  1   
  4   3   5  1   
  5   3  28  1   
  6   4   6  1   
  7   4   7  1   
  8   4   8  1   
  9   5   9  1   
 10   5  10  1   
 11   5  29  1   
 12   6  11  1   
 13   7  30  1   
 14   7  31  1   
 15   7  32  1   
 16   8  33  1   
 17   8  34  1   
 18   8  35  1   
 19   9  12  1   
 20   9  13  1   
 21   9  36  1   
 22  10  14  1   
 23  10  37  1   
 24  10  38  1   
 25  11  15  ar  
 26  11  16  ar  
 27  12  14  1   
 28  12  39  1   
 29  12  40  1   
 30  13  17  1   
 31  13  41  1   
 32  13  42  1   
 33  15  18  ar  
 34  15  19  1   
 35  16  20  ar  
 36  16  43  1   
 37  17  21  ar  
 38  17  22  ar  
 39  18  23  ar  
 40  18  24  1   
 41  19  44  1   
 42  19  45  1   
 43  19  46  1   
 44  20  23  ar  
 45  20  47  1   
 46  21  25  ar  
 47  21  48  1   
 48  22  26  ar  
 49  22  49  1   
 50  23  50  1   
 51  24  51  1   
 52  24  52  1   
 53  24  53  1   
 54  25  27  ar  
 55  25  54  1   
 56  26  27  ar  
 57  26  55  1   
@<TRIPOS>SUBSTRUCTURE
  1 ****   3 GROUP 4 **** **** 0

# MOE 2024.06 (io_trps.svl 2023.06)
