@<TRIPOS>MOLECULE
NONAME
53 55 1 0 0 
SMALL
USER_CHARGES


@<TRIPOS>ATOM
  1 S        1.3000    -0.3450    -1.2540 S.3   1 <1>  -0.3320 
  2 C        0.8550    -1.7490    -0.2100 C.ar  1 <1>   0.1020 
  3 C        1.7370     1.0300    -0.1080 C.3   1 <1>   0.1500 
  4 C        1.2080    -3.0310    -0.6130 C.ar  1 <1>  -0.1440 
  5 C        0.1700    -1.5340     0.9760 C.ar  1 <1>  -0.1500 
  6 C        2.0400     2.2570    -0.9690 C.3   1 <1>  -0.1600 
  7 C        2.9610     0.5980     0.7030 C.3   1 <1>  -0.1600 
  8 C        0.8810    -4.0990     0.2090 C.ar  1 <1>  -0.1500 
  9 C        1.9400    -3.2870    -1.9240 C.3   1 <1>  -0.0970 
 10 C       -0.1490    -2.6090     1.7850 C.ar  1 <1>  -0.1500 
 11 C        2.6020     3.3950    -0.1220 C.3   1 <1>   0.3430 
 12 C        3.5140     1.7580     1.5250 C.3   1 <1>   0.3430 
 13 C        0.2100    -3.8900     1.4020 C.ar  1 <1>  -0.1500 
 14 N        3.7990     2.9160     0.6330 N.4   1 <1>  -0.9590 
 15 C        4.4940     4.0520     1.3530 C.3   1 <1>   0.4040 
 16 C        5.1710     5.0480     0.3930 C.2   1 <1>   0.5690 
 17 O        5.4140     4.6560    -0.7240 O.2   1 <1>  -0.5700 
 18 N        5.4670     6.3160     0.7940 N.am  1 <1>  -0.7300 
 19 C        6.0750     7.3550    -0.0930 C.3   1 <1>   0.1400 
 20 C        7.5760     7.5290     0.1770 C.3   1 <1>   0.2000 
 21 O        8.0600     8.5560    -0.6230 O.3   1 <1>  -0.5600 
 22 C        8.4310     6.3190    -0.1730 C.3   1 <1>  -0.1600 
 23 C        9.3910     8.3440    -0.9860 C.3   1 <1>   0.1200 
 24 C        9.7700     6.9530    -0.4900 C.3   1 <1>  -0.1600 
 25 H        0.8850     1.2140     0.5240 H     1 <1>   0.0800 
 26 H       -0.1320    -0.5490     1.2700 H     1 <1>   0.1500 
 27 H        1.1380     2.5840    -1.4540 H     1 <1>   0.0800 
 28 H        2.7510     2.0040    -1.7370 H     1 <1>   0.0800 
 29 H        3.7280     0.2320     0.0420 H     1 <1>   0.0800 
 30 H        2.6930    -0.2060     1.3660 H     1 <1>   0.0800 
 31 H        1.1450    -5.1030    -0.0750 H     1 <1>   0.1500 
 32 H        2.8940    -2.7920    -1.9160 H     1 <1>   0.0800 
 33 H        1.3600    -2.9100    -2.7470 H     1 <1>   0.0800 
 34 H        2.1020    -4.3380    -2.0780 H     1 <1>   0.0800 
 35 H       -0.6820    -2.4560     2.7080 H     1 <1>   0.1500 
 36 H        1.8470     3.7420     0.5650 H     1 <1>   0.0800 
 37 H        2.8770     4.2140    -0.7700 H     1 <1>   0.0800 
 38 H        4.4170     1.4420     2.0230 H     1 <1>   0.0800 
 39 H        2.7930     2.0420     2.2750 H     1 <1>   0.0800 
 40 H       -0.0380    -4.7280     2.0310 H     1 <1>   0.1500 
 41 H        4.4740     2.6180    -0.0950 H     1 <1>   0.4500 
 42 H        5.2610     3.6510     1.9920 H     1 <1>   0.0800 
 43 H        3.7870     4.5820     1.9660 H     1 <1>   0.0800 
 44 H        5.2980     6.6400     1.7500 H     1 <1>   0.3700 
 45 H        5.5790     8.2950     0.0760 H     1 <1>   0.0800 
 46 H        5.9360     7.0820    -1.1260 H     1 <1>   0.0800 
 47 H        7.7440     7.8260     1.1980 H     1 <1>   0.0800 
 48 H        8.0350     5.8320    -1.0480 H     1 <1>   0.0800 
 49 H        8.4870     5.6120     0.6350 H     1 <1>   0.0800 
 50 H       10.0000     9.1110    -0.5390 H     1 <1>   0.0800 
 51 H        9.4510     8.4070    -2.0590 H     1 <1>   0.0800 
 52 H       10.3240     6.4010    -1.2290 H     1 <1>   0.0800 
 53 H       10.3660     7.0450     0.4020 H     1 <1>   0.0800 
@<TRIPOS>BOND
  1   1   2  1   
  2   1   3  1   
  3   2   4  ar  
  4   2   5  ar  
  5   3   6  1   
  6   3   7  1   
  7   3  25  1   
  8   4   8  ar  
  9   4   9  1   
 10   5  10  ar  
 11   5  26  1   
 12   6  11  1   
 13   6  27  1   
 14   6  28  1   
 15   7  12  1   
 16   7  29  1   
 17   7  30  1   
 18   8  13  ar  
 19   8  31  1   
 20   9  32  1   
 21   9  33  1   
 22   9  34  1   
 23  10  13  ar  
 24  10  35  1   
 25  11  14  1   
 26  11  36  1   
 27  11  37  1   
 28  12  14  1   
 29  12  38  1   
 30  12  39  1   
 31  13  40  1   
 32  14  15  1   
 33  14  41  1   
 34  15  16  1   
 35  15  42  1   
 36  15  43  1   
 37  16  17  2   
 38  16  18  am  
 39  18  19  1   
 40  18  44  1   
 41  19  20  1   
 42  19  45  1   
 43  19  46  1   
 44  20  21  1   
 45  20  22  1   
 46  20  47  1   
 47  21  23  1   
 48  22  24  1   
 49  22  48  1   
 50  22  49  1   
 51  23  24  1   
 52  23  50  1   
 53  23  51  1   
 54  24  52  1   
 55  24  53  1   
@<TRIPOS>SUBSTRUCTURE
  1 ****  14 GROUP 4 **** **** 0

# MOE 2024.06 (io_trps.svl 2023.06)
