@<TRIPOS>MOLECULE
NONAME
46 48 1 0 0 
SMALL
USER_CHARGES


@<TRIPOS>ATOM
  1 F        1.6390    -0.2130    -1.6520 F     1 <1>  -0.3400 
  2 C        2.4590    -1.0970    -1.0970 C.3   1 <1>   1.1640 
  3 F        3.1520    -0.4370    -0.1770 F     1 <1>  -0.3400 
  4 F        3.3260    -1.4490    -2.0360 F     1 <1>  -0.3400 
  5 C        1.7290    -2.3120    -0.5070 C.ar  1 <1>  -0.1440 
  6 C        0.3880    -2.5670    -0.7200 C.ar  1 <1>  -0.1500 
  7 C        2.3890    -3.2370     0.2870 C.ar  1 <1>  -0.1500 
  8 C       -0.2200    -3.6850    -0.1580 C.ar  1 <1>   0.4100 
  9 C        1.7010    -4.3200     0.8030 C.ar  1 <1>   0.1600 
 10 N        0.4170    -4.5700     0.6000 N.ar  1 <1>  -0.6200 
 11 N       -1.5670    -3.8970    -0.3600 N.pl3 1 <1>  -0.8380 
 12 C       -1.9610    -5.2600    -0.7930 C.3   1 <1>   0.2090 
 13 C       -2.4340    -3.3430     0.7090 C.3   1 <1>   0.2090 
 14 C       -2.6810    -5.9490     0.3930 C.3   1 <1>   0.4230 
 15 C       -3.8360    -4.0230     0.7540 C.3   1 <1>  -0.1600 
 16 N       -2.2230    -7.3810     0.6110 N.4   1 <1>  -0.9590 
 17 C       -4.2320    -5.5510     0.3640 C.3   1 <1>   0.0000 
 18 C       -2.4870    -8.2210    -0.5730 C.3   1 <1>   0.3430 
 19 C       -0.7860    -7.4390     1.0310 C.3   1 <1>   0.2630 
 20 C       -4.7010    -7.0390    -0.0820 C.3   1 <1>  -0.1600 
 21 C       -5.7740    -5.1110     0.4170 C.3   1 <1>   0.1200 
 22 C       -3.8570    -7.8370    -1.1060 C.3   1 <1>  -0.1600 
 23 O       -6.2310    -4.7820    -0.8590 O.3   1 <1>  -0.6800 
 24 H       -0.2200    -1.9150    -1.3220 H     1 <1>   0.1500 
 25 H        3.4370    -3.1180     0.5080 H     1 <1>   0.1500 
 26 H        2.2450    -5.0180     1.4190 H     1 <1>   0.1500 
 27 H       -2.6250    -5.1760    -1.6360 H     1 <1>   0.0800 
 28 H       -1.0910    -5.8080    -1.1060 H     1 <1>   0.0800 
 29 H       -1.9410    -3.4750     1.6600 H     1 <1>   0.0800 
 30 H       -2.5450    -2.2820     0.5570 H     1 <1>   0.0800 
 31 H       -2.2830    -5.4800     1.2750 H     1 <1>   0.0800 
 32 H       -4.1630    -3.8370     1.7660 H     1 <1>   0.0800 
 33 H       -4.3790    -3.3360     0.1220 H     1 <1>   0.0800 
 34 H       -2.8000    -7.7470     1.3790 H     1 <1>   0.4500 
 35 H       -1.7400    -8.0580    -1.3330 H     1 <1>   0.0800 
 36 H       -2.4750    -9.2630    -0.2930 H     1 <1>   0.0800 
 37 H       -0.1460    -7.0810     0.2410 H     1 <1>   0.0800 
 38 H       -0.5040    -8.4500     1.2750 H     1 <1>   0.0800 
 39 H       -0.6250    -6.8150     1.8960 H     1 <1>   0.0800 
 40 H       -4.8210    -7.6350     0.8080 H     1 <1>   0.0800 
 41 H       -5.6630    -7.1070    -0.5710 H     1 <1>   0.0800 
 42 H       -6.0290    -4.2770     1.0530 H     1 <1>   0.0800 
 43 H       -6.4280    -5.8760     0.8090 H     1 <1>   0.0800 
 44 H       -3.7470    -7.2630    -2.0100 H     1 <1>   0.0800 
 45 H       -4.3760    -8.7400    -1.3800 H     1 <1>   0.0800 
 46 H       -5.8830    -3.9190    -1.1600 H     1 <1>   0.4000 
@<TRIPOS>BOND
  1   1   2  1   
  2   2   3  1   
  3   2   4  1   
  4   2   5  1   
  5   5   6  ar  
  6   5   7  ar  
  7   6   8  ar  
  8   6  24  1   
  9   7   9  ar  
 10   7  25  1   
 11   8  10  ar  
 12   8  11  1   
 13   9  10  ar  
 14   9  26  1   
 15  11  12  1   
 16  11  13  1   
 17  12  14  1   
 18  12  27  1   
 19  12  28  1   
 20  13  15  1   
 21  13  29  1   
 22  13  30  1   
 23  14  16  1   
 24  14  17  1   
 25  14  31  1   
 26  15  17  1   
 27  15  32  1   
 28  15  33  1   
 29  16  18  1   
 30  16  19  1   
 31  16  34  1   
 32  17  20  1   
 33  17  21  1   
 34  18  22  1   
 35  18  35  1   
 36  18  36  1   
 37  19  37  1   
 38  19  38  1   
 39  19  39  1   
 40  20  22  1   
 41  20  40  1   
 42  20  41  1   
 43  21  23  1   
 44  21  42  1   
 45  21  43  1   
 46  22  44  1   
 47  22  45  1   
 48  23  46  1   
@<TRIPOS>SUBSTRUCTURE
  1 ****  11 GROUP 4 **** **** 0

# MOE 2024.06 (io_trps.svl 2023.06)
