@<TRIPOS>MOLECULE
NONAME
50 52 1 0 0 
SMALL
USER_CHARGES


@<TRIPOS>ATOM
  1 S       -0.9170     0.9120     0.7800 S.o2  1 <1>   1.5010 
  2 O       -1.4190     2.2710     0.8200 O.2   1 <1>  -0.6500 
  3 O       -1.2760     0.0400     1.8800 O.2   1 <1>  -0.6500 
  4 N       -1.5610     0.2240    -0.6390 N.am  1 <1>  -0.8490 
  5 C        0.9050     0.9620     0.5160 C.2   1 <1>   0.1640 
  6 C       -3.0150     0.4340    -0.7840 C.3   1 <1>   0.1960 
  7 C       -1.2470    -1.2100    -0.8240 C.3   1 <1>   0.1960 
  8 N        1.7170    -0.1350     0.4580 N.2   1 <1>  -0.5650 
  9 C        1.6680     2.0710     0.3310 C.2   1 <1>  -0.3020 
 10 C       -3.8570    -0.5480     0.0610 C.3   1 <1>   0.2950 
 11 C       -2.1720    -2.1750    -0.0320 C.3   1 <1>   0.2000 
 12 C        2.9020     0.3340     0.2530 C.2   1 <1>   0.0060 
 13 N        2.9410     1.6820     0.1650 N.pl3 1 <1>   0.0480 
 14 O       -3.5140    -1.8620    -0.2700 O.3   1 <1>  -0.5600 
 15 C       -5.3550    -0.3830    -0.2110 C.3   1 <1>  -0.1950 
 16 C       -1.9850    -3.6430    -0.4360 C.3   1 <1>  -0.1600 
 17 C        4.1270    -0.5480     0.1250 C.3   1 <1>  -0.0600 
 18 C        4.1050     2.5570    -0.0600 C.3   1 <1>   0.0160 
 19 C       -6.1640     0.6340     0.5320 C.3   1 <1>  -0.2000 
 20 C       -6.3770    -0.8320     0.7850 C.3   1 <1>  -0.2000 
 21 C       -0.5880    -4.1850    -0.0920 C.3   1 <1>  -0.1600 
 22 C       -0.4820    -5.6790    -0.4230 C.3   1 <1>  -0.1600 
 23 C        0.9090    -6.2210    -0.0830 C.3   1 <1>  -0.2400 
 24 H       -3.2760     1.4450    -0.5240 H     1 <1>   0.0800 
 25 H       -3.2800     0.2970    -1.8170 H     1 <1>   0.0800 
 26 H       -1.3440    -1.4430    -1.8700 H     1 <1>   0.0800 
 27 H       -0.2230    -1.3980    -0.5580 H     1 <1>   0.0800 
 28 H        1.3530     3.0990     0.3130 H     1 <1>   0.1500 
 29 H       -3.6670    -0.4020     1.1110 H     1 <1>   0.0800 
 30 H       -1.9940    -2.0890     1.0250 H     1 <1>   0.0800 
 31 H       -5.5920    -0.5290    -1.2510 H     1 <1>   0.1000 
 32 H       -2.7210    -4.2280     0.0880 H     1 <1>   0.0800 
 33 H       -2.1620    -3.7460    -1.4920 H     1 <1>   0.0800 
 34 H        3.8450    -1.5800     0.2330 H     1 <1>   0.0800 
 35 H        4.8390    -0.3060     0.8930 H     1 <1>   0.0800 
 36 H        4.5800    -0.4150    -0.8400 H     1 <1>   0.0800 
 37 H        3.7860     3.5840    -0.0770 H     1 <1>   0.0800 
 38 H        4.5600     2.3090    -1.0020 H     1 <1>   0.0800 
 39 H        4.8150     2.4180     0.7340 H     1 <1>   0.0800 
 40 H       -5.6970     1.2210     1.3050 H     1 <1>   0.1000 
 41 H       -6.9240     1.1810     0.0020 H     1 <1>   0.1000 
 42 H       -7.2730    -1.3030     0.4200 H     1 <1>   0.1000 
 43 H       -6.0360    -1.2610     1.7120 H     1 <1>   0.1000 
 44 H        0.1650    -3.6510    -0.6460 H     1 <1>   0.0800 
 45 H       -0.3960    -4.0390     0.9580 H     1 <1>   0.0800 
 46 H       -1.2220    -6.2260     0.1370 H     1 <1>   0.0800 
 47 H       -0.6760    -5.8320    -1.4710 H     1 <1>   0.0800 
 48 H        1.1150    -6.0950     0.9660 H     1 <1>   0.0800 
 49 H        1.6630    -5.7040    -0.6490 H     1 <1>   0.0800 
 50 H        0.9630    -7.2700    -0.3180 H     1 <1>   0.0800 
@<TRIPOS>BOND
  1   1   2  2   
  2   1   3  2   
  3   1   4  am  
  4   1   5  1   
  5   4   6  1   
  6   4   7  1   
  7   5   8  1   
  8   5   9  2   
  9   6  10  1   
 10   6  24  1   
 11   6  25  1   
 12   7  11  1   
 13   7  26  1   
 14   7  27  1   
 15   8  12  2   
 16   9  13  1   
 17   9  28  1   
 18  10  14  1   
 19  10  15  1   
 20  10  29  1   
 21  11  14  1   
 22  11  16  1   
 23  11  30  1   
 24  12  13  1   
 25  12  17  1   
 26  13  18  1   
 27  15  19  1   
 28  15  20  1   
 29  15  31  1   
 30  16  21  1   
 31  16  32  1   
 32  16  33  1   
 33  17  34  1   
 34  17  35  1   
 35  17  36  1   
 36  18  37  1   
 37  18  38  1   
 38  18  39  1   
 39  19  20  1   
 40  19  40  1   
 41  19  41  1   
 42  20  42  1   
 43  20  43  1   
 44  21  22  1   
 45  21  44  1   
 46  21  45  1   
 47  22  23  1   
 48  22  46  1   
 49  22  47  1   
 50  23  48  1   
 51  23  49  1   
 52  23  50  1   
@<TRIPOS>SUBSTRUCTURE
  1 ****   7 GROUP 4 **** **** 0

# MOE 2024.06 (io_trps.svl 2023.06)
