@<TRIPOS>MOLECULE
NONAME
47 48 1 0 0 
SMALL
USER_CHARGES


@<TRIPOS>ATOM
  1 S       -0.1170     0.0720     0.3420 S.o2  1 <1>   1.3330 
  2 O        0.1040    -0.8540     1.4300 O.2   1 <1>  -0.6500 
  3 O       -0.7260     1.3550     0.6090 O.2   1 <1>  -0.6500 
  4 N       -1.0410    -0.7250    -0.8390 N.am  1 <1>  -0.8490 
  5 C        1.4320     0.3650    -0.5110 C.3   1 <1>  -0.0550 
  6 C       -2.4750    -0.4470    -0.7080 C.3   1 <1>   0.1160 
  7 C       -0.8160    -2.1740    -0.8780 C.3   1 <1>   0.1160 
  8 C        2.4290     1.2040     0.3100 C.3   1 <1>  -0.0800 
  9 C        3.6490     1.5720    -0.5220 C.3   1 <1>   0.2200 
 10 C        3.0260     0.4240     1.4930 C.3   1 <1>   0.1200 
 11 N        4.1400     2.8920    -0.0780 N.am  1 <1>  -0.7300 
 12 C        4.6470     0.4970    -0.1170 C.3   1 <1>   0.1200 
 13 O        4.3870     0.2570     1.2280 O.3   1 <1>  -0.5600 
 14 C        4.1010     4.0470    -0.8140 C.2   1 <1>   0.7160 
 15 O        3.6680     3.9700    -1.9520 O.2   1 <1>  -0.5700 
 16 C        4.5550     5.3000    -0.2210 C.2   1 <1>   0.2030 
 17 N        5.0560     6.3430    -0.8570 N.2   1 <1>  -0.7070 
 18 C        4.5190     5.5600     1.1560 C.2   1 <1>  -0.1500 
 19 N        5.3350     7.2550     0.0830 N.pl3 1 <1>   0.3140 
 20 C        5.0190     6.8000     1.3120 C.2   1 <1>  -0.3020 
 21 C        5.9170     8.5810    -0.2630 C.3   1 <1>   0.1760 
 22 C        7.2970     8.7560     0.3840 C.3   1 <1>  -0.2400 
 23 C        4.9680     9.7170     0.1460 C.3   1 <1>  -0.2400 
 24 H        1.8790    -0.5720    -0.7780 H     1 <1>   0.0800 
 25 H        1.2120     0.8950    -1.4190 H     1 <1>   0.0800 
 26 H       -3.0260    -0.9540    -1.4810 H     1 <1>   0.0800 
 27 H       -2.6560     0.6100    -0.8060 H     1 <1>   0.0800 
 28 H       -2.8330    -0.7710     0.2550 H     1 <1>   0.0800 
 29 H       -1.3530    -2.6100    -1.7030 H     1 <1>   0.0800 
 30 H       -1.1500    -2.6320     0.0390 H     1 <1>   0.0800 
 31 H        0.2320    -2.3850    -1.0070 H     1 <1>   0.0800 
 32 H        1.9210     2.0880     0.6560 H     1 <1>   0.0800 
 33 H        3.4630     1.5710    -1.5830 H     1 <1>   0.0800 
 34 H        2.5900    -0.5530     1.6130 H     1 <1>   0.0800 
 35 H        2.9310     0.9720     2.4150 H     1 <1>   0.0800 
 36 H        4.5890     2.8930     0.8380 H     1 <1>   0.3700 
 37 H        5.6690     0.8080    -0.2430 H     1 <1>   0.0800 
 38 H        4.4700    -0.4160    -0.6580 H     1 <1>   0.0800 
 39 H        4.1540     4.8920     1.9150 H     1 <1>   0.1500 
 40 H        5.1630     7.3770     2.2060 H     1 <1>   0.1500 
 41 H        6.0350     8.6030    -1.3330 H     1 <1>   0.0800 
 42 H        7.2200     8.7580     1.4570 H     1 <1>   0.0800 
 43 H        7.7340     9.6870     0.0710 H     1 <1>   0.0800 
 44 H        7.9490     7.9570     0.0770 H     1 <1>   0.0800 
 45 H        4.8360     9.7410     1.2130 H     1 <1>   0.0800 
 46 H        4.0110     9.5800    -0.3270 H     1 <1>   0.0800 
 47 H        5.3680    10.6620    -0.1710 H     1 <1>   0.0800 
@<TRIPOS>BOND
  1   1   2  2   
  2   1   3  2   
  3   1   4  am  
  4   1   5  1   
  5   4   6  1   
  6   4   7  1   
  7   5   8  1   
  8   5  24  1   
  9   5  25  1   
 10   6  26  1   
 11   6  27  1   
 12   6  28  1   
 13   7  29  1   
 14   7  30  1   
 15   7  31  1   
 16   8   9  1   
 17   8  10  1   
 18   8  32  1   
 19   9  11  1   
 20   9  12  1   
 21   9  33  1   
 22  10  13  1   
 23  10  34  1   
 24  10  35  1   
 25  11  14  am  
 26  11  36  1   
 27  12  13  1   
 28  12  37  1   
 29  12  38  1   
 30  14  15  2   
 31  14  16  1   
 32  16  17  2   
 33  16  18  1   
 34  17  19  1   
 35  18  20  2   
 36  18  39  1   
 37  19  20  1   
 38  19  21  1   
 39  20  40  1   
 40  21  22  1   
 41  21  23  1   
 42  21  41  1   
 43  22  42  1   
 44  22  43  1   
 45  22  44  1   
 46  23  45  1   
 47  23  46  1   
 48  23  47  1   
@<TRIPOS>SUBSTRUCTURE
  1 ****  11 GROUP 4 **** **** 0

# MOE 2024.06 (io_trps.svl 2023.06)
