@<TRIPOS>MOLECULE
NONAME
37 39 1 0 0 
SMALL
USER_CHARGES


@<TRIPOS>ATOM
  1 S       -0.0470     0.4080    -0.1730 S.3   1 <1>  -0.0800 
  2 C        1.5500     1.1380    -0.1390 C.2   1 <1>  -0.1400 
  3 C        0.5520    -1.0770     0.5380 C.2   1 <1>  -0.1400 
  4 C        2.4420     0.2690     0.3850 C.2   1 <1>  -0.1500 
  5 C        1.5850     2.5530    -0.6930 C.3   1 <1>   0.5230 
  6 C        1.8730    -0.9860     0.7680 C.2   1 <1>  -0.1500 
  7 C       -0.4500    -2.1880     0.7750 C.3   1 <1>  -0.0600 
  8 N        2.9210     3.2010    -0.5380 N.4   1 <1>  -0.9590 
  9 C        3.3140     3.3560     0.9100 C.3   1 <1>   0.3430 
 10 C        3.9490     2.5690    -1.4390 C.3   1 <1>   0.3430 
 11 C        4.3960     4.4440     1.1570 C.3   1 <1>   0.2200 
 12 C        5.3460     3.1850    -1.3250 C.3   1 <1>  -0.0190 
 13 N        4.6880     5.2340    -0.0810 N.am  1 <1>  -0.7300 
 14 C        5.6840     3.8150     1.7340 C.3   1 <1>   0.1200 
 15 C        5.2110     4.6920    -1.2070 C.2   1 <1>   0.5690 
 16 C        6.1900     2.5110    -0.2220 C.3   1 <1>   0.1200 
 17 O        6.5980     3.4160     0.7530 O.3   1 <1>  -0.5600 
 18 O        5.4710     5.3850    -2.1520 O.2   1 <1>  -0.5700 
 19 H        3.4940     0.4220     0.5340 H     1 <1>   0.1500 
 20 H        0.8410     3.1380    -0.1760 H     1 <1>   0.0800 
 21 H        1.3100     2.5250    -1.7350 H     1 <1>   0.0800 
 22 H        2.4800    -1.7650     1.1990 H     1 <1>   0.1500 
 23 H        0.0360    -3.0420     1.2120 H     1 <1>   0.0800 
 24 H       -0.8990    -2.4840    -0.1560 H     1 <1>   0.0800 
 25 H       -1.2230    -1.8500     1.4420 H     1 <1>   0.0800 
 26 H        2.8290     4.1730    -0.8790 H     1 <1>   0.4500 
 27 H        2.4420     3.6300     1.4820 H     1 <1>   0.0800 
 28 H        3.6560     2.4140     1.3030 H     1 <1>   0.0800 
 29 H        4.0120     1.5100    -1.2480 H     1 <1>   0.0800 
 30 H        3.6220     2.6880    -2.4600 H     1 <1>   0.0800 
 31 H        4.0070     5.1120     1.9070 H     1 <1>   0.0800 
 32 H        5.8470     2.9760    -2.2540 H     1 <1>   0.0800 
 33 H        4.8060     6.2490     0.0140 H     1 <1>   0.3700 
 34 H        5.4680     2.9720     2.3680 H     1 <1>   0.0800 
 35 H        6.1900     4.5500     2.3370 H     1 <1>   0.0800 
 36 H        7.0930     2.1210    -0.6620 H     1 <1>   0.0800 
 37 H        5.6790     1.6940     0.2550 H     1 <1>   0.0800 
@<TRIPOS>BOND
  1   1   2  1   
  2   1   3  1   
  3   2   4  2   
  4   2   5  1   
  5   3   6  2   
  6   3   7  1   
  7   4   6  1   
  8   4  19  1   
  9   5   8  1   
 10   5  20  1   
 11   5  21  1   
 12   6  22  1   
 13   7  23  1   
 14   7  24  1   
 15   7  25  1   
 16   8   9  1   
 17   8  10  1   
 18   8  26  1   
 19   9  11  1   
 20   9  27  1   
 21   9  28  1   
 22  10  12  1   
 23  10  29  1   
 24  10  30  1   
 25  11  13  1   
 26  11  14  1   
 27  11  31  1   
 28  12  15  1   
 29  12  16  1   
 30  12  32  1   
 31  13  15  am  
 32  13  33  1   
 33  14  17  1   
 34  14  34  1   
 35  14  35  1   
 36  15  18  2   
 37  16  17  1   
 38  16  36  1   
 39  16  37  1   
@<TRIPOS>SUBSTRUCTURE
  1 ****   8 GROUP 4 **** **** 0

# MOE 2024.06 (io_trps.svl 2023.06)
