@<TRIPOS>MOLECULE
NONAME
56 59 1 0 0 
SMALL
USER_CHARGES


@<TRIPOS>ATOM
  1 O       -1.0330     1.2570    -1.7510 O.2   1 <1>  -0.5700 
  2 C       -1.5950     1.2250    -0.6770 C.2   1 <1>   0.5690 
  3 N       -2.6000     0.3100    -0.4450 N.am  1 <1>  -0.6600 
  4 C       -1.0970     2.1880     0.4190 C.3   1 <1>   0.2610 
  5 C       -3.0940    -0.5550    -1.5600 C.3   1 <1>   0.1400 
  6 C       -3.2600     0.1320     0.8870 C.3   1 <1>   0.1400 
  7 O       -2.1640     2.8430     1.0970 O.3   1 <1>  -0.2170 
  8 C       -0.2150     3.3530    -0.0460 C.3   1 <1>  -0.0990 
  9 C       -4.5840    -0.8640    -1.3970 C.3   1 <1>  -0.1600 
 10 C       -3.8310    -1.2790     1.0110 C.3   1 <1>  -0.1600 
 11 N       -1.9110     4.1210     1.3040 N.2   1 <1>  -0.5130 
 12 C       -0.8660     4.4700     0.7080 C.2   1 <1>   0.3280 
 13 C       -4.9250    -1.5210    -0.0410 C.3   1 <1>   0.4240 
 14 C       -0.2550     5.8610     0.7060 C.3   1 <1>  -0.0990 
 15 O       -6.0510    -0.8500     0.4690 O.3   1 <1>  -0.5600 
 16 C       -5.1960    -3.0340    -0.1990 C.ar  1 <1>  -0.1440 
 17 C       -0.2550     6.5030    -0.6880 C.3   1 <1>  -0.2400 
 18 C       -7.2950    -1.2270    -0.0330 C.3   1 <1>   0.1200 
 19 C       -6.4570    -3.5700     0.0240 C.ar  1 <1>  -0.1440 
 20 C       -4.1780    -3.8960    -0.5870 C.ar  1 <1>  -0.1500 
 21 C       -7.5950    -2.6500     0.4260 C.3   1 <1>  -0.0170 
 22 C       -6.6850    -4.9280    -0.1250 C.ar  1 <1>  -0.1500 
 23 C       -4.3840    -5.2570    -0.7360 C.ar  1 <1>   0.0820 
 24 C       -5.6620    -5.7910    -0.5110 C.ar  1 <1>   0.0820 
 25 O       -3.2740    -5.9590    -1.1050 O.3   1 <1>  -0.3620 
 26 O       -5.8890    -7.1260    -0.6900 O.3   1 <1>  -0.3620 
 27 C       -3.0950    -7.3070    -0.7300 C.3   1 <1>   0.0400 
 28 C       -7.1800    -7.6890    -0.6070 C.3   1 <1>   0.0400 
 29 H       -0.5710     1.6180     1.1610 H     1 <1>   0.0800 
 30 H       -2.5230    -1.4670    -1.5720 H     1 <1>   0.0800 
 31 H       -2.9410    -0.0590    -2.5040 H     1 <1>   0.0800 
 32 H       -4.0530     0.8560     0.9890 H     1 <1>   0.0800 
 33 H       -2.5500     0.2940     1.6780 H     1 <1>   0.0800 
 34 H       -0.2900     3.5280    -1.1040 H     1 <1>   0.0800 
 35 H        0.8090     3.2070     0.2390 H     1 <1>   0.0800 
 36 H       -4.8950    -1.5080    -2.1990 H     1 <1>   0.0800 
 37 H       -5.1150     0.0650    -1.4990 H     1 <1>   0.0800 
 38 H       -4.2460    -1.4270     1.9910 H     1 <1>   0.0800 
 39 H       -3.0230    -1.9760     0.8990 H     1 <1>   0.0800 
 40 H        0.7510     5.8040     1.0820 H     1 <1>   0.0800 
 41 H       -0.8220     6.4820     1.3770 H     1 <1>   0.0800 
 42 H        0.3550     5.9370    -1.3700 H     1 <1>   0.0800 
 43 H        0.1340     7.5040    -0.6330 H     1 <1>   0.0800 
 44 H       -1.2590     6.5460    -1.0740 H     1 <1>   0.0800 
 45 H       -7.2780    -1.1590    -1.1070 H     1 <1>   0.0800 
 46 H       -8.0290    -0.5420     0.3540 H     1 <1>   0.0800 
 47 H       -3.1900    -3.5230    -0.7810 H     1 <1>   0.1500 
 48 H       -8.5160    -2.9790    -0.0190 H     1 <1>   0.0800 
 49 H       -7.7110    -2.6630     1.4950 H     1 <1>   0.0800 
 50 H       -7.6740    -5.2960     0.0640 H     1 <1>   0.1500 
 51 H       -2.0520    -7.5450    -0.8220 H     1 <1>   0.0800 
 52 H       -3.6690    -7.9300    -1.3930 H     1 <1>   0.0800 
 53 H       -3.4160    -7.4340     0.2890 H     1 <1>   0.0800 
 54 H       -7.1020    -8.7360    -0.8400 H     1 <1>   0.0800 
 55 H       -7.8200    -7.2030    -1.3220 H     1 <1>   0.0800 
 56 H       -7.5520    -7.5650     0.3940 H     1 <1>   0.0800 
@<TRIPOS>BOND
  1   1   2  2   
  2   2   3  am  
  3   2   4  1   
  4   3   5  1   
  5   3   6  1   
  6   4   7  1   
  7   4   8  1   
  8   4  29  1   
  9   5   9  1   
 10   5  30  1   
 11   5  31  1   
 12   6  10  1   
 13   6  32  1   
 14   6  33  1   
 15   7  11  1   
 16   8  12  1   
 17   8  34  1   
 18   8  35  1   
 19   9  13  1   
 20   9  36  1   
 21   9  37  1   
 22  10  13  1   
 23  10  38  1   
 24  10  39  1   
 25  11  12  2   
 26  12  14  1   
 27  13  15  1   
 28  13  16  1   
 29  14  17  1   
 30  14  40  1   
 31  14  41  1   
 32  15  18  1   
 33  16  19  ar  
 34  16  20  ar  
 35  17  42  1   
 36  17  43  1   
 37  17  44  1   
 38  18  21  1   
 39  18  45  1   
 40  18  46  1   
 41  19  21  1   
 42  19  22  ar  
 43  20  23  ar  
 44  20  47  1   
 45  21  48  1   
 46  21  49  1   
 47  22  24  ar  
 48  22  50  1   
 49  23  24  ar  
 50  23  25  1   
 51  24  26  1   
 52  25  27  1   
 53  26  28  1   
 54  27  51  1   
 55  27  52  1   
 56  27  53  1   
 57  28  54  1   
 58  28  55  1   
 59  28  56  1   
@<TRIPOS>SUBSTRUCTURE
  1 ****  10 GROUP 4 **** **** 0

# MOE 2024.06 (io_trps.svl 2023.06)
