@<TRIPOS>MOLECULE
NONAME
44 47 1 0 0 
SMALL
USER_CHARGES


@<TRIPOS>ATOM
  1 O       -0.2570     0.1600     0.3790 O.2   1 <1>  -0.5700 
  2 C       -1.3080     0.7690     0.4440 C.2   1 <1>   0.5440 
  3 N       -2.4850     0.0670     0.3160 N.am  1 <1>  -0.6600 
  4 C       -1.2970     2.2070     0.6320 C.ar  1 <1>   0.0860 
  5 C       -3.7930     0.6690    -0.0450 C.3   1 <1>   0.1400 
  6 C       -2.5130    -1.4030     0.1090 C.3   1 <1>   0.1400 
  7 C       -0.5000     3.0210    -0.1800 C.ar  1 <1>  -0.1500 
  8 C       -2.0720     2.8230     1.6250 C.ar  1 <1>  -0.1500 
  9 C       -4.6150    -0.4850    -0.6190 C.3   1 <1>   0.2000 
 10 C       -3.9940    -1.7560    -0.0440 C.3   1 <1>  -0.0800 
 11 C       -0.5080     4.3900    -0.0060 C.ar  1 <1>  -0.1440 
 12 C       -2.0770     4.1970     1.7950 C.ar  1 <1>  -0.1500 
 13 O       -5.9480    -0.3970    -0.2480 O.3   1 <1>  -0.6800 
 14 C       -4.2610    -2.9940    -0.9160 C.3   1 <1>  -0.0170 
 15 C       -1.2860     4.9650     0.9620 C.ar  1 <1>   0.0830 
 16 C        0.2350     5.4750    -0.7280 C.3   1 <1>  -0.0170 
 17 C       -3.6820    -4.2530    -0.2940 C.ar  1 <1>   0.1670 
 18 O       -1.1780     6.2980     0.9970 O.3   1 <1>  -0.3630 
 19 C       -0.2570     6.7360     0.0070 C.3   1 <1>   0.1200 
 20 N       -2.4020    -4.4920    -0.5310 N.ar  1 <1>  -0.6200 
 21 C       -4.4940    -5.0740     0.4760 C.ar  1 <1>  -0.1500 
 22 C       -1.9090    -5.5880     0.0230 C.ar  1 <1>   0.1600 
 23 C       -3.9680    -6.2130     1.0470 C.ar  1 <1>  -0.1500 
 24 C       -2.6350    -6.4680     0.8070 C.ar  1 <1>  -0.1500 
 25 H       -4.2580     1.0640     0.8410 H     1 <1>   0.0800 
 26 H       -3.6630     1.4480    -0.7770 H     1 <1>   0.0800 
 27 H       -1.9640    -1.6430    -0.7860 H     1 <1>   0.0800 
 28 H       -2.0650    -1.9170     0.9430 H     1 <1>   0.0800 
 29 H        0.1160     2.5660    -0.9360 H     1 <1>   0.1500 
 30 H       -2.6700     2.2070     2.2720 H     1 <1>   0.1500 
 31 H       -4.5580    -0.4730    -1.6950 H     1 <1>   0.0800 
 32 H       -4.3810    -1.9280     0.9450 H     1 <1>   0.0800 
 33 H       -2.6710     4.6730     2.5540 H     1 <1>   0.1500 
 34 H       -6.0320    -0.4320     0.7240 H     1 <1>   0.4000 
 35 H       -3.8310    -2.8570    -1.8930 H     1 <1>   0.0800 
 36 H       -5.3210    -3.1150    -1.0450 H     1 <1>   0.0800 
 37 H       -0.0310     5.5060    -1.7690 H     1 <1>   0.0800 
 38 H        1.2990     5.3570    -0.6220 H     1 <1>   0.0800 
 39 H       -0.7720     7.4070    -0.6570 H     1 <1>   0.0800 
 40 H        0.5500     7.2450     0.5030 H     1 <1>   0.0800 
 41 H       -5.5280    -4.8250     0.6310 H     1 <1>   0.1500 
 42 H       -0.8690    -5.7970    -0.1580 H     1 <1>   0.1500 
 43 H       -4.5690    -6.8720     1.6500 H     1 <1>   0.1500 
 44 H       -2.1610    -7.3390     1.2210 H     1 <1>   0.1500 
@<TRIPOS>BOND
  1   1   2  2   
  2   2   3  am  
  3   2   4  1   
  4   3   5  1   
  5   3   6  1   
  6   4   7  ar  
  7   4   8  ar  
  8   5   9  1   
  9   5  25  1   
 10   5  26  1   
 11   6  10  1   
 12   6  27  1   
 13   6  28  1   
 14   7  11  ar  
 15   7  29  1   
 16   8  12  ar  
 17   8  30  1   
 18   9  10  1   
 19   9  13  1   
 20   9  31  1   
 21  10  14  1   
 22  10  32  1   
 23  11  15  ar  
 24  11  16  1   
 25  12  15  ar  
 26  12  33  1   
 27  13  34  1   
 28  14  17  1   
 29  14  35  1   
 30  14  36  1   
 31  15  18  1   
 32  16  19  1   
 33  16  37  1   
 34  16  38  1   
 35  17  20  ar  
 36  17  21  ar  
 37  18  19  1   
 38  19  39  1   
 39  19  40  1   
 40  20  22  ar  
 41  21  23  ar  
 42  21  41  1   
 43  22  24  ar  
 44  22  42  1   
 45  23  24  ar  
 46  23  43  1   
 47  24  44  1   
@<TRIPOS>SUBSTRUCTURE
  1 ****   3 GROUP 4 **** **** 0

# MOE 2024.06 (io_trps.svl 2023.06)
