@<TRIPOS>MOLECULE
NONAME
39 42 1 0 0 
SMALL
USER_CHARGES


@<TRIPOS>ATOM
  1 S        0.0970     0.1630     0.8680 S.3   1 <1>  -0.0800 
  2 C       -1.4250     0.8210     0.2790 C.2   1 <1>   0.4620 
  3 C        0.9580     1.3470    -0.0590 C.2   1 <1>  -0.1100 
  4 N       -1.2670     1.8140    -0.5200 N.2   1 <1>  -0.5650 
  5 N       -2.6220     0.2610     0.6770 N.pl3 1 <1>  -0.8220 
  6 C        0.0840     2.1300    -0.7260 C.2   1 <1>   0.1410 
  7 C       -3.9150     0.7520     0.1380 C.3   1 <1>   0.2090 
  8 C       -2.7540    -0.9580     1.5200 C.3   1 <1>   0.2090 
  9 C        0.4550     3.2310    -1.6030 C.2   1 <1>   0.7160 
 10 C       -4.5170    -0.3400    -0.7430 C.3   1 <1>  -0.1600 
 11 C       -3.3370    -2.0770     0.6590 C.3   1 <1>  -0.1600 
 12 O        1.6140     3.5200    -1.8230 O.2   1 <1>  -0.5700 
 13 N       -0.4880     3.9830    -2.2130 N.am  1 <1>  -0.8000 
 14 C       -4.6690    -1.6610     0.0250 C.3   1 <1>   0.4610 
 15 O       -5.5670    -1.4690     1.1050 O.3   1 <1>  -0.5600 
 16 C       -5.1880    -2.7710    -0.8910 C.2   1 <1>  -0.1810 
 17 C       -6.9510    -1.4900     0.8440 C.3   1 <1>   0.1200 
 18 C       -6.4090    -3.2940    -0.7200 C.2   1 <1>  -0.1400 
 19 C       -4.4770    -3.3610    -1.9900 C.2   1 <1>  -0.1500 
 20 C       -7.3990    -2.8680     0.3310 C.3   1 <1>   0.0200 
 21 S       -6.7500    -4.5580    -1.8830 S.3   1 <1>  -0.0800 
 22 C       -5.1700    -4.3300    -2.6210 C.2   1 <1>  -0.1100 
 23 H        2.0320     1.3500    -0.0220 H     1 <1>   0.1500 
 24 H       -3.7750     1.6510    -0.4370 H     1 <1>   0.0800 
 25 H       -4.5780     0.9790     0.9560 H     1 <1>   0.0800 
 26 H       -3.4140    -0.7460     2.3450 H     1 <1>   0.0800 
 27 H       -1.8100    -1.2670     1.9280 H     1 <1>   0.0800 
 28 H       -3.8620    -0.4930    -1.5810 H     1 <1>   0.0800 
 29 H       -5.4640    -0.0230    -1.1340 H     1 <1>   0.0800 
 30 H       -3.4880    -2.9580     1.2540 H     1 <1>   0.0800 
 31 H       -2.6250    -2.3170    -0.1080 H     1 <1>   0.0800 
 32 H       -0.2250     4.7590    -2.8170 H     1 <1>   0.3700 
 33 H       -1.4780     3.7870    -2.0580 H     1 <1>   0.3700 
 34 H       -7.1740    -0.7300     0.1170 H     1 <1>   0.0800 
 35 H       -7.4620    -1.2520     1.7600 H     1 <1>   0.0800 
 36 H       -3.4870    -3.0350    -2.2550 H     1 <1>   0.1500 
 37 H       -8.3860    -2.7990    -0.0880 H     1 <1>   0.0800 
 38 H       -7.4100    -3.5810     1.1350 H     1 <1>   0.0800 
 39 H       -4.9250    -4.9530    -3.4610 H     1 <1>   0.1500 
@<TRIPOS>BOND
  1   1   2  1   
  2   1   3  1   
  3   2   4  2   
  4   2   5  1   
  5   3   6  2   
  6   3  23  1   
  7   4   6  1   
  8   5   7  1   
  9   5   8  1   
 10   6   9  1   
 11   7  10  1   
 12   7  24  1   
 13   7  25  1   
 14   8  11  1   
 15   8  26  1   
 16   8  27  1   
 17   9  12  2   
 18   9  13  am  
 19  10  14  1   
 20  10  28  1   
 21  10  29  1   
 22  11  14  1   
 23  11  30  1   
 24  11  31  1   
 25  13  32  1   
 26  13  33  1   
 27  14  15  1   
 28  14  16  1   
 29  15  17  1   
 30  16  18  2   
 31  16  19  1   
 32  17  20  1   
 33  17  34  1   
 34  17  35  1   
 35  18  20  1   
 36  18  21  1   
 37  19  22  2   
 38  19  36  1   
 39  20  37  1   
 40  20  38  1   
 41  21  22  1   
 42  22  39  1   
@<TRIPOS>SUBSTRUCTURE
  1 ****  10 GROUP 4 **** **** 0

# MOE 2024.06 (io_trps.svl 2023.06)
