@<TRIPOS>MOLECULE
NONAME
19 20 1 0 0 
SMALL
USER_CHARGES


@<TRIPOS>ATOM
  1 O        0.4650     0.1610    -1.0370 O.co2 1 <1>  -0.9000 
  2 C        1.0970     0.7540    -0.1530 C.2   1 <1>   0.9060 
  3 O        0.7650     1.8760     0.2440 O.co2 1 <1>  -0.9000 
  4 C        2.3340     0.1150     0.4690 C.3   1 <1>  -0.1860 
  5 C        3.5910     0.3870    -0.3790 C.3   1 <1>   0.0580 
  6 C        2.3200    -1.4440     0.5720 C.3   1 <1>  -0.1600 
  7 C        4.7770    -0.0150     0.4830 C.2   1 <1>  -0.2880 
  8 C        3.5790    -0.8170    -1.3160 C.3   1 <1>  -0.1600 
  9 C        3.5850    -1.8600    -0.2040 C.3   1 <1>   0.0580 
 10 C        4.7710    -1.3410     0.5890 C.2   1 <1>  -0.2880 
 11 H        2.4580     0.5490     1.4430 H     1 <1>   0.0800 
 12 H        3.6520     1.3510    -0.8560 H     1 <1>   0.0800 
 13 H        2.3600    -1.7720     1.5950 H     1 <1>   0.0800 
 14 H        1.4430    -1.8540     0.1010 H     1 <1>   0.0800 
 15 H        5.4240     0.7340     0.9030 H     1 <1>   0.1500 
 16 H        2.6960    -0.8620    -1.9320 H     1 <1>   0.0800 
 17 H        4.4630    -0.8650    -1.9270 H     1 <1>   0.0800 
 18 H        3.6420    -2.8830    -0.5320 H     1 <1>   0.0800 
 19 H        5.4150    -2.0160     1.1240 H     1 <1>   0.1500 
@<TRIPOS>BOND
  1   1   2  ar  
  2   2   3  ar  
  3   2   4  1   
  4   4   5  1   
  5   4   6  1   
  6   4  11  1   
  7   5   7  1   
  8   5   8  1   
  9   5  12  1   
 10   6   9  1   
 11   6  13  1   
 12   6  14  1   
 13   7  10  2   
 14   7  15  1   
 15   8   9  1   
 16   8  16  1   
 17   8  17  1   
 18   9  10  1   
 19   9  18  1   
 20  10  19  1   
@<TRIPOS>SUBSTRUCTURE
  1 ****   4 GROUP 4 **** **** 0

# MOE 2024.06 (io_trps.svl 2023.06)
