@<TRIPOS>MOLECULE
NONAME
44 46 1 0 0 
SMALL
USER_CHARGES


@<TRIPOS>ATOM
  1 O        1.1250     3.5610    -1.4820 O.3   1 <1>  -0.0190 
  2 N        2.3610     3.4120    -1.8450 N.2   1 <1>  -0.4100 
  3 C        0.7570     2.6500    -0.6240 C.2   1 <1>  -0.0400 
  4 C        2.7840     2.3530    -1.2530 C.2   1 <1>   0.1080 
  5 C        1.7910     1.8160    -0.4400 C.2   1 <1>  -0.1500 
  6 C       -0.6330     2.6930    -0.0140 C.3   1 <1>   0.0200 
  7 C        4.1730     1.7760    -1.4240 C.3   1 <1>  -0.0590 
  8 C       -0.9190     3.9830     0.7910 C.3   1 <1>  -0.0800 
  9 C       -1.2180     5.1950    -0.1010 C.3   1 <1>   0.2000 
 10 C        0.2730     4.4360     1.6400 C.3   1 <1>   0.3430 
 11 O       -2.2390     5.9340     0.4840 O.3   1 <1>  -0.6800 
 12 C        0.0630     6.0410    -0.1430 C.3   1 <1>   0.3430 
 13 N        1.0340     5.3940     0.7950 N.4   1 <1>  -0.9590 
 14 C        1.8950     6.3500     1.5360 C.3   1 <1>   0.5240 
 15 C        2.5720     7.2500     0.5310 C.2   1 <1>  -0.1810 
 16 C        3.5850     7.0030    -0.3310 C.2   1 <1>  -0.3320 
 17 C        2.2250     8.5760     0.3030 C.2   1 <1>   0.1390 
 18 N        3.7880     8.1470    -1.0250 N.pl3 1 <1>   0.3140 
 19 C        4.4000     5.7360    -0.5520 C.3   1 <1>  -0.0600 
 20 N        2.9400     9.1110    -0.6320 N.2   1 <1>  -0.7070 
 21 C        4.7760     8.3920    -2.0850 C.3   1 <1>   0.0160 
 22 H        1.8780     0.9380     0.1750 H     1 <1>   0.1500 
 23 H       -1.3670     2.5720    -0.7930 H     1 <1>   0.0800 
 24 H       -0.7310     1.8450     0.6430 H     1 <1>   0.0800 
 25 H        4.6860     1.7590    -0.4800 H     1 <1>   0.0800 
 26 H        4.7390     2.3710    -2.1180 H     1 <1>   0.0800 
 27 H        4.1060     0.7740    -1.8070 H     1 <1>   0.0800 
 28 H       -1.7630     3.7720     1.4270 H     1 <1>   0.0800 
 29 H       -1.5430     4.9230    -1.0920 H     1 <1>   0.0800 
 30 H        0.8870     3.6010     1.9420 H     1 <1>   0.0800 
 31 H       -0.0920     4.9410     2.5190 H     1 <1>   0.0800 
 32 H       -2.0810     6.1470     1.4230 H     1 <1>   0.4000 
 33 H       -0.1570     7.0530     0.1530 H     1 <1>   0.0800 
 34 H        0.4740     6.0500    -1.1410 H     1 <1>   0.0800 
 35 H        1.6670     4.8550     0.1750 H     1 <1>   0.4500 
 36 H        1.3040     6.9420     2.2150 H     1 <1>   0.0800 
 37 H        2.6430     5.8170     2.1000 H     1 <1>   0.0800 
 38 H        1.4550     9.1230     0.8220 H     1 <1>   0.1500 
 39 H        4.0670     4.9440     0.0930 H     1 <1>   0.0800 
 40 H        5.4390     5.9260    -0.3470 H     1 <1>   0.0800 
 41 H        4.3060     5.4090    -1.5730 H     1 <1>   0.0800 
 42 H        4.6100     7.7030    -2.8910 H     1 <1>   0.0800 
 43 H        5.7630     8.2630    -1.6850 H     1 <1>   0.0800 
 44 H        4.6640     9.3990    -2.4450 H     1 <1>   0.0800 
@<TRIPOS>BOND
  1   1   2  1   
  2   1   3  1   
  3   2   4  2   
  4   3   5  2   
  5   3   6  1   
  6   4   5  1   
  7   4   7  1   
  8   5  22  1   
  9   6   8  1   
 10   6  23  1   
 11   6  24  1   
 12   7  25  1   
 13   7  26  1   
 14   7  27  1   
 15   8   9  1   
 16   8  10  1   
 17   8  28  1   
 18   9  11  1   
 19   9  12  1   
 20   9  29  1   
 21  10  13  1   
 22  10  30  1   
 23  10  31  1   
 24  11  32  1   
 25  12  13  1   
 26  12  33  1   
 27  12  34  1   
 28  13  14  1   
 29  13  35  1   
 30  14  15  1   
 31  14  36  1   
 32  14  37  1   
 33  15  16  2   
 34  15  17  1   
 35  16  18  1   
 36  16  19  1   
 37  17  20  2   
 38  17  38  1   
 39  18  20  1   
 40  18  21  1   
 41  19  39  1   
 42  19  40  1   
 43  19  41  1   
 44  21  42  1   
 45  21  43  1   
 46  21  44  1   
@<TRIPOS>SUBSTRUCTURE
  1 ****  13 GROUP 4 **** **** 0

# MOE 2024.06 (io_trps.svl 2023.06)
