@<TRIPOS>MOLECULE
NONAME
46 47 1 0 0 
SMALL
USER_CHARGES


@<TRIPOS>ATOM
  1 S        1.0070     1.4010    -0.0870 S.o2  1 <1>   1.3330 
  2 O        2.1550     2.1740     0.3260 O.2   1 <1>  -0.6500 
  3 O        0.3980     1.6600    -1.3730 O.2   1 <1>  -0.6500 
  4 N        1.4360    -0.2400    -0.0440 N.am  1 <1>  -0.8490 
  5 C       -0.2510     1.5030     1.1920 C.3   1 <1>  -0.0550 
  6 C        2.8320    -0.4650    -0.4310 C.3   1 <1>   0.1160 
  7 C        0.5540    -1.0990    -0.8430 C.3   1 <1>   0.1160 
  8 C       -0.8710     2.8910     1.4780 C.3   1 <1>  -0.0800 
  9 C       -1.4550     3.5800     0.2360 C.3   1 <1>   0.2000 
 10 C        0.1330     3.8980     2.0570 C.3   1 <1>   0.1400 
 11 O       -2.5510     4.3190     0.6520 O.3   1 <1>  -0.6800 
 12 C       -0.3790     4.5600    -0.2380 C.3   1 <1>   0.1400 
 13 N        0.4040     4.8780     0.9800 N.am  1 <1>  -0.6600 
 14 C        1.5130     5.6880     0.9940 C.2   1 <1>   0.7160 
 15 O        2.1580     5.7850     2.0190 O.2   1 <1>  -0.5700 
 16 C        1.8960     6.4210    -0.1820 C.2   1 <1>  -0.0860 
 17 C        2.9990     6.1920    -0.9880 C.2   1 <1>   0.1080 
 18 C        1.3220     7.4670    -0.8110 C.2   1 <1>  -0.0400 
 19 N        3.0180     7.0180    -1.9660 N.2   1 <1>  -0.4100 
 20 C        4.0460     5.1140    -0.7640 C.3   1 <1>   0.0210 
 21 O        1.9860     7.8270    -1.8830 O.3   1 <1>  -0.0190 
 22 C        0.0720     8.2410    -0.4460 C.3   1 <1>  -0.0600 
 23 C        5.1630     5.6100     0.1600 C.3   1 <1>  -0.2400 
 24 H       -1.0500     0.8390     0.9260 H     1 <1>   0.0800 
 25 H        0.1700     1.1300     2.1060 H     1 <1>   0.0800 
 26 H        3.0710    -1.5140    -0.3780 H     1 <1>   0.0800 
 27 H        3.4910     0.0620     0.2390 H     1 <1>   0.0800 
 28 H        3.0040    -0.1120    -1.4340 H     1 <1>   0.0800 
 29 H        0.8160    -2.1340    -0.7000 H     1 <1>   0.0800 
 30 H        0.6410    -0.8580    -1.8900 H     1 <1>   0.0800 
 31 H       -0.4700    -0.9650    -0.5420 H     1 <1>   0.0800 
 32 H       -1.6500     2.7260     2.2030 H     1 <1>   0.0800 
 33 H       -1.7810     2.9030    -0.5360 H     1 <1>   0.0800 
 34 H        1.0490     3.4250     2.3740 H     1 <1>   0.0800 
 35 H       -0.2960     4.4180     2.8970 H     1 <1>   0.0800 
 36 H       -2.2490     5.0240     1.2590 H     1 <1>   0.4000 
 37 H       -0.8150     5.4410    -0.6740 H     1 <1>   0.0800 
 38 H        0.2680     4.0990    -0.9630 H     1 <1>   0.0800 
 39 H        3.5840     4.2440    -0.3360 H     1 <1>   0.0800 
 40 H        4.4650     4.8320    -1.7130 H     1 <1>   0.0800 
 41 H       -0.3590     7.8580     0.4610 H     1 <1>   0.0800 
 42 H       -0.6500     8.1620    -1.2380 H     1 <1>   0.0800 
 43 H        0.3190     9.2770    -0.3020 H     1 <1>   0.0800 
 44 H        4.7580     5.8740     1.1220 H     1 <1>   0.0800 
 45 H        5.6360     6.4760    -0.2660 H     1 <1>   0.0800 
 46 H        5.9000     4.8390     0.2960 H     1 <1>   0.0800 
@<TRIPOS>BOND
  1   1   2  2   
  2   1   3  2   
  3   1   4  am  
  4   1   5  1   
  5   4   6  1   
  6   4   7  1   
  7   5   8  1   
  8   5  24  1   
  9   5  25  1   
 10   6  26  1   
 11   6  27  1   
 12   6  28  1   
 13   7  29  1   
 14   7  30  1   
 15   7  31  1   
 16   8   9  1   
 17   8  10  1   
 18   8  32  1   
 19   9  11  1   
 20   9  12  1   
 21   9  33  1   
 22  10  13  1   
 23  10  34  1   
 24  10  35  1   
 25  11  36  1   
 26  12  13  1   
 27  12  37  1   
 28  12  38  1   
 29  13  14  am  
 30  14  15  2   
 31  14  16  1   
 32  16  17  1   
 33  16  18  2   
 34  17  19  2   
 35  17  20  1   
 36  18  21  1   
 37  18  22  1   
 38  19  21  1   
 39  20  23  1   
 40  20  39  1   
 41  20  40  1   
 42  22  41  1   
 43  22  42  1   
 44  22  43  1   
 45  23  44  1   
 46  23  45  1   
 47  23  46  1   
@<TRIPOS>SUBSTRUCTURE
  1 ****  13 GROUP 4 **** **** 0

# MOE 2024.06 (io_trps.svl 2023.06)
