@<TRIPOS>MOLECULE
NONAME
45 47 1 0 0 
SMALL
USER_CHARGES


@<TRIPOS>ATOM
  1 O        0.1600    -0.0260     1.1220 O.2   1 <1>  -0.5700 
  2 C        1.0570    -0.5860     0.5190 C.2   1 <1>   0.5440 
  3 N        1.9860     0.1450    -0.1740 N.am  1 <1>  -0.4930 
  4 C        1.1730    -2.0260     0.5280 C.ar  1 <1>   0.0860 
  5 C        2.1380     1.5490    -0.3040 C.2   1 <1>   0.0630 
  6 C        0.0600    -2.8470     0.2590 C.ar  1 <1>   0.0000 
  7 C        2.3810    -2.6630     0.7820 C.ar  1 <1>  -0.1500 
  8 C        1.1770     2.5360    -0.5460 C.2   1 <1>   0.1080 
  9 C        3.3110     2.2180    -0.2480 C.2   1 <1>  -0.3320 
 10 C        0.1860    -4.2350     0.2290 C.ar  1 <1>  -0.1520 
 11 C       -1.2930    -2.5720    -0.0270 C.2   1 <1>  -0.1500 
 12 C        2.5050    -4.0530     0.7570 C.ar  1 <1>  -0.1500 
 13 N        1.7020     3.7200    -0.6330 N.2   1 <1>  -0.7070 
 14 C       -0.3100     2.3200    -0.7160 C.3   1 <1>  -0.0590 
 15 N        3.0180     3.5300    -0.4410 N.pl3 1 <1>   0.3140 
 16 C        4.7150     1.6810    -0.0080 C.3   1 <1>  -0.0600 
 17 N       -1.0410    -4.7800    -0.0680 N.pl3 1 <1>   0.0480 
 18 C        1.4160    -4.8460     0.4790 C.ar  1 <1>  -0.1500 
 19 C       -1.9260    -3.7540    -0.2200 C.2   1 <1>  -0.3020 
 20 C        3.9540     4.6730    -0.4500 C.3   1 <1>   0.0960 
 21 C       -1.3510    -6.2140    -0.1850 C.3   1 <1>   0.0160 
 22 C        4.1400     5.2420     0.9640 C.3   1 <1>  -0.1600 
 23 C        5.1220     6.4190     0.9690 C.3   1 <1>  -0.2400 
 24 H        2.7070    -0.3920    -0.6480 H     1 <1>   0.3700 
 25 H        3.2530    -2.0760     1.0150 H     1 <1>   0.1500 
 26 H       -1.7100    -1.5800    -0.0680 H     1 <1>   0.1500 
 27 H        3.4610    -4.5030     0.9610 H     1 <1>   0.1500 
 28 H       -0.4960     1.3670    -1.1740 H     1 <1>   0.0800 
 29 H       -0.7230     3.0940    -1.3350 H     1 <1>   0.0800 
 30 H       -0.7860     2.3480     0.2460 H     1 <1>   0.0800 
 31 H        4.6920     0.6210     0.1640 H     1 <1>   0.0800 
 32 H        5.1480     2.1520     0.8570 H     1 <1>   0.0800 
 33 H        5.3380     1.8770    -0.8620 H     1 <1>   0.0800 
 34 H        1.5020    -5.9170     0.4570 H     1 <1>   0.1500 
 35 H       -2.9630    -3.9210    -0.4540 H     1 <1>   0.1500 
 36 H        3.5480     5.4280    -1.0980 H     1 <1>   0.0800 
 37 H        4.8940     4.3470    -0.8530 H     1 <1>   0.0800 
 38 H       -0.7480    -6.6430    -0.9640 H     1 <1>   0.0800 
 39 H       -2.3900    -6.3400    -0.4240 H     1 <1>   0.0800 
 40 H       -1.1360    -6.6990     0.7490 H     1 <1>   0.0800 
 41 H        4.5060     4.4710     1.6190 H     1 <1>   0.0800 
 42 H        3.1850     5.5750     1.3340 H     1 <1>   0.0800 
 43 H        6.0900     6.1070     0.6180 H     1 <1>   0.0800 
 44 H        5.2280     6.8030     1.9690 H     1 <1>   0.0800 
 45 H        4.7610     7.2120     0.3370 H     1 <1>   0.0800 
@<TRIPOS>BOND
  1   1   2  2   
  2   2   3  am  
  3   2   4  1   
  4   3   5  1   
  5   3  24  1   
  6   4   6  ar  
  7   4   7  ar  
  8   5   8  1   
  9   5   9  2   
 10   6  10  ar  
 11   6  11  1   
 12   7  12  ar  
 13   7  25  1   
 14   8  13  2   
 15   8  14  1   
 16   9  15  1   
 17   9  16  1   
 18  10  17  1   
 19  10  18  ar  
 20  11  19  2   
 21  11  26  1   
 22  12  18  ar  
 23  12  27  1   
 24  13  15  1   
 25  14  28  1   
 26  14  29  1   
 27  14  30  1   
 28  15  20  1   
 29  16  31  1   
 30  16  32  1   
 31  16  33  1   
 32  17  19  1   
 33  17  21  1   
 34  18  34  1   
 35  19  35  1   
 36  20  22  1   
 37  20  36  1   
 38  20  37  1   
 39  21  38  1   
 40  21  39  1   
 41  21  40  1   
 42  22  23  1   
 43  22  41  1   
 44  22  42  1   
 45  23  43  1   
 46  23  44  1   
 47  23  45  1   
@<TRIPOS>SUBSTRUCTURE
  1 ****   3 GROUP 4 **** **** 0

# MOE 2024.06 (io_trps.svl 2023.06)
