@<TRIPOS>MOLECULE
NONAME
37 40 1 0 0 
SMALL
USER_CHARGES


@<TRIPOS>ATOM
  1 CL      -0.3230     0.0130    -0.8910 Cl    1 <1>  -0.1770 
  2 C       -1.8310    -0.7890    -0.5120 C.ar  1 <1>   0.1770 
  3 C       -1.8530    -1.9460     0.2270 C.ar  1 <1>   0.1600 
  4 C       -3.0320    -0.2820    -0.9420 C.ar  1 <1>   0.1600 
  5 N       -2.9790    -2.5580     0.5190 N.ar  1 <1>  -0.6200 
  6 N       -4.1720    -0.8760    -0.6650 N.ar  1 <1>  -0.6200 
  7 C       -4.1020    -1.9980     0.0590 C.ar  1 <1>   0.7200 
  8 N       -5.2910    -2.6330     0.3560 N.pl3 1 <1>  -0.8380 
  9 C       -5.4220    -3.6500     1.4370 C.3   1 <1>   0.2090 
 10 C       -6.5770    -2.3160    -0.3250 C.3   1 <1>   0.2090 
 11 C       -5.9690    -4.9440     0.8380 C.3   1 <1>  -0.1600 
 12 C       -7.1390    -3.5970    -0.9390 C.3   1 <1>  -0.1600 
 13 C       -7.2950    -4.7040     0.1110 C.3   1 <1>   0.4600 
 14 O       -8.2190    -4.2810     1.0980 O.3   1 <1>  -0.5600 
 15 C       -7.8150    -5.9970    -0.5110 C.2   1 <1>  -0.1400 
 16 C       -9.5930    -4.4190     0.8230 C.3   1 <1>   0.1200 
 17 S       -6.8760    -6.9500    -1.6500 S.3   1 <1>  -0.0800 
 18 C       -9.0080    -6.5650    -0.2890 C.2   1 <1>  -0.1810 
 19 C       -9.9870    -5.8990     0.6510 C.3   1 <1>   0.0210 
 20 C       -8.1720    -8.1330    -1.7760 C.2   1 <1>  -0.1100 
 21 C       -9.2180    -7.7870    -1.0010 C.2   1 <1>  -0.1500 
 22 H       -0.9300    -2.3710     0.5800 H     1 <1>   0.1500 
 23 H       -3.0510     0.6230    -1.5220 H     1 <1>   0.1500 
 24 H       -6.0990    -3.2780     2.1870 H     1 <1>   0.0800 
 25 H       -4.4790    -3.8460     1.9170 H     1 <1>   0.0800 
 26 H       -6.4450    -1.5830    -1.1010 H     1 <1>   0.0800 
 27 H       -7.2680    -1.9160     0.3980 H     1 <1>   0.0800 
 28 H       -6.1130    -5.6750     1.6110 H     1 <1>   0.0800 
 29 H       -5.2400    -5.3310     0.1510 H     1 <1>   0.0800 
 30 H       -6.4600    -3.9290    -1.7020 H     1 <1>   0.0800 
 31 H       -8.0800    -3.3980    -1.4150 H     1 <1>   0.0800 
 32 H       -9.8200    -3.8650    -0.0700 H     1 <1>   0.0800 
 33 H      -10.1360    -3.9840     1.6440 H     1 <1>   0.0800 
 34 H      -10.9830    -5.9590     0.2520 H     1 <1>   0.0800 
 35 H       -9.9700    -6.3950     1.6050 H     1 <1>   0.0800 
 36 H       -8.0090    -8.9740    -2.4260 H     1 <1>   0.1500 
 37 H      -10.1330    -8.3430    -0.9000 H     1 <1>   0.1500 
@<TRIPOS>BOND
  1   1   2  1   
  2   2   3  ar  
  3   2   4  ar  
  4   3   5  ar  
  5   3  22  1   
  6   4   6  ar  
  7   4  23  1   
  8   5   7  ar  
  9   6   7  ar  
 10   7   8  1   
 11   8   9  1   
 12   8  10  1   
 13   9  11  1   
 14   9  24  1   
 15   9  25  1   
 16  10  12  1   
 17  10  26  1   
 18  10  27  1   
 19  11  13  1   
 20  11  28  1   
 21  11  29  1   
 22  12  13  1   
 23  12  30  1   
 24  12  31  1   
 25  13  14  1   
 26  13  15  1   
 27  14  16  1   
 28  15  17  1   
 29  15  18  2   
 30  16  19  1   
 31  16  32  1   
 32  16  33  1   
 33  17  20  1   
 34  18  19  1   
 35  18  21  1   
 36  19  34  1   
 37  19  35  1   
 38  20  21  2   
 39  20  36  1   
 40  21  37  1   
@<TRIPOS>SUBSTRUCTURE
  1 ****  12 GROUP 4 **** **** 0

# MOE 2024.06 (io_trps.svl 2023.06)
