@<TRIPOS>MOLECULE
NONAME
40 42 1 0 0 
SMALL
USER_CHARGES


@<TRIPOS>ATOM
  1 S        0.1570     0.1470     1.6240 S.3   1 <1>   0.1810 
  2 N        0.9930     1.5370     1.1420 N.2   1 <1>  -0.2210 
  3 C        1.2930    -0.9260     0.8800 C.2   1 <1>  -0.0450 
  4 N        2.0320     1.2290     0.5030 N.2   1 <1>  -0.2270 
  5 C        2.2330    -0.1220     0.3500 C.2   1 <1>   0.0460 
  6 C        1.1000    -2.3470     0.9660 C.2   1 <1>   0.7150 
  7 C        3.4820    -0.5510    -0.3960 C.3   1 <1>  -0.0590 
  8 O        2.0640    -3.0670     1.1480 O.2   1 <1>  -0.5700 
  9 N       -0.1390    -2.9290     0.8160 N.am  1 <1>  -0.6600 
 10 C       -1.2310    -2.3660    -0.0260 C.3   1 <1>   0.1400 
 11 C       -0.3780    -4.3790     1.0170 C.3   1 <1>   0.1400 
 12 C       -2.1710    -3.5380    -0.3450 C.3   1 <1>   0.2000 
 13 C       -1.3020    -4.7800    -0.1320 C.3   1 <1>  -0.0800 
 14 O       -3.2200    -3.5610     0.5800 O.3   1 <1>  -0.5600 
 15 C       -2.0870    -6.0780     0.1340 C.3   1 <1>   0.0200 
 16 C       -4.3260    -2.7820     0.2460 C.3   1 <1>   0.0400 
 17 C       -1.2020    -7.3130     0.1720 C.2   1 <1>  -0.0400 
 18 O       -1.7390    -8.4600     0.4920 O.3   1 <1>  -0.0190 
 19 C        0.1030    -7.5280    -0.0670 C.2   1 <1>  -0.1500 
 20 N       -0.8680    -9.4270     0.4830 N.2   1 <1>  -0.4100 
 21 C        0.2520    -8.8940     0.1500 C.2   1 <1>   0.1080 
 22 C        1.5510    -9.6560     0.0160 C.3   1 <1>  -0.0590 
 23 H        3.5340    -1.6210    -0.4820 H     1 <1>   0.0800 
 24 H        4.3530    -0.2070     0.1320 H     1 <1>   0.0800 
 25 H        3.4820    -0.1230    -1.3820 H     1 <1>   0.0800 
 26 H       -1.7570    -1.5860     0.4940 H     1 <1>   0.0800 
 27 H       -0.8090    -1.9760    -0.9360 H     1 <1>   0.0800 
 28 H        0.5380    -4.9450     1.0090 H     1 <1>   0.0800 
 29 H       -0.8730    -4.5200     1.9630 H     1 <1>   0.0800 
 30 H       -2.5740    -3.4930    -1.3430 H     1 <1>   0.0800 
 31 H       -0.6980    -4.9140    -1.0120 H     1 <1>   0.0800 
 32 H       -2.8240    -6.2140    -0.6380 H     1 <1>   0.0800 
 33 H       -2.6090    -6.0030     1.0720 H     1 <1>   0.0800 
 34 H       -5.0480    -2.8700     1.0400 H     1 <1>   0.0800 
 35 H       -4.7550    -3.1460    -0.6710 H     1 <1>   0.0800 
 36 H       -4.0280    -1.7530     0.1440 H     1 <1>   0.0800 
 37 H        0.8810    -6.8480    -0.3580 H     1 <1>   0.1500 
 38 H        2.2840    -9.2470     0.6870 H     1 <1>   0.0800 
 39 H        1.9130    -9.5850    -0.9920 H     1 <1>   0.0800 
 40 H        1.3950   -10.6920     0.2590 H     1 <1>   0.0800 
@<TRIPOS>BOND
  1   1   2  1   
  2   1   3  1   
  3   2   4  2   
  4   3   5  2   
  5   3   6  1   
  6   4   5  1   
  7   5   7  1   
  8   6   8  2   
  9   6   9  am  
 10   7  23  1   
 11   7  24  1   
 12   7  25  1   
 13   9  10  1   
 14   9  11  1   
 15  10  12  1   
 16  10  26  1   
 17  10  27  1   
 18  11  13  1   
 19  11  28  1   
 20  11  29  1   
 21  12  13  1   
 22  12  14  1   
 23  12  30  1   
 24  13  15  1   
 25  13  31  1   
 26  14  16  1   
 27  15  17  1   
 28  15  32  1   
 29  15  33  1   
 30  16  34  1   
 31  16  35  1   
 32  16  36  1   
 33  17  18  1   
 34  17  19  2   
 35  18  20  1   
 36  19  21  1   
 37  19  37  1   
 38  20  21  2   
 39  21  22  1   
 40  22  38  1   
 41  22  39  1   
 42  22  40  1   
@<TRIPOS>SUBSTRUCTURE
  1 ****  11 GROUP 4 **** **** 0

# MOE 2024.06 (io_trps.svl 2023.06)
