@<TRIPOS>MOLECULE
NONAME
59 61 1 0 0 
SMALL
USER_CHARGES


@<TRIPOS>ATOM
  1 O        2.7470    -2.3890    -2.0860 O.2   1 <1>  -0.5700 
  2 C        2.6660    -1.8690    -0.9950 C.2   1 <1>   0.5690 
  3 N        3.6440    -0.9820    -0.5890 N.am  1 <1>  -0.6600 
  4 C        1.4400    -2.2860    -0.1360 C.3   1 <1>   0.0610 
  5 C        4.9240    -0.8800    -1.3760 C.3   1 <1>   0.1400 
  6 C        3.5910    -0.0490     0.5750 C.3   1 <1>   0.1400 
  7 C        0.6140    -3.2750    -1.0030 C.3   1 <1>   0.3430 
  8 C        0.5350    -1.0700     0.2230 C.3   1 <1>  -0.1600 
  9 C        1.9250    -3.0290     1.1370 C.3   1 <1>  -0.2400 
 10 C        5.1450     0.5160    -1.9740 C.3   1 <1>   0.1400 
 11 C        3.2130     1.3610     0.0960 C.3   1 <1>  -0.1600 
 12 N       -0.6920    -3.7510    -0.4060 N.4   1 <1>  -0.9590 
 13 C       -0.9800    -1.3490     0.1460 C.3   1 <1>  -0.1600 
 14 N        5.5290     1.4950    -0.9100 N.am  1 <1>  -0.6600 
 15 C        4.4060     2.2510    -0.2850 C.3   1 <1>   0.1400 
 16 C       -1.3210    -2.7820     0.5470 C.3   1 <1>   0.3430 
 17 C       -0.5450    -5.1100     0.1780 C.3   1 <1>   0.3430 
 18 C        6.8570     1.6080    -0.5600 C.2   1 <1>   0.5690 
 19 C       -1.9190    -5.7400     0.3760 C.3   1 <1>  -0.2400 
 20 O        7.6720     0.8310    -1.0000 O.2   1 <1>  -0.5700 
 21 C        7.3410     2.7050     0.3950 C.3   1 <1>  -0.0190 
 22 C        7.1500     4.1340    -0.1600 C.3   1 <1>  -0.0220 
 23 C        8.8240     2.6180     0.8320 C.3   1 <1>  -0.0220 
 24 C        8.3160     4.8840     0.4320 C.2   1 <1>  -0.2880 
 25 C        9.2150     4.0690     0.9690 C.2   1 <1>  -0.2880 
 26 H        4.9290    -1.5890    -2.1840 H     1 <1>   0.0800 
 27 H        5.7580    -1.1280    -0.7420 H     1 <1>   0.0800 
 28 H        4.5460    -0.0330     1.0750 H     1 <1>   0.0800 
 29 H        2.8710    -0.3770     1.2940 H     1 <1>   0.0800 
 30 H        1.2340    -4.1210    -1.2540 H     1 <1>   0.0800 
 31 H        0.3960    -2.7700    -1.9300 H     1 <1>   0.0800 
 32 H        0.7450    -0.2540    -0.4470 H     1 <1>   0.0800 
 33 H        0.7630    -0.7310     1.2180 H     1 <1>   0.0800 
 34 H        2.4530    -3.9260     0.8600 H     1 <1>   0.0800 
 35 H        1.1120    -3.2970     1.7840 H     1 <1>   0.0800 
 36 H        2.6070    -2.4300     1.7100 H     1 <1>   0.0800 
 37 H        4.2620     0.8410    -2.4940 H     1 <1>   0.0800 
 38 H        5.9400     0.4550    -2.6980 H     1 <1>   0.0800 
 39 H        2.6830     1.8610     0.8870 H     1 <1>   0.0800 
 40 H        2.5360     1.2960    -0.7360 H     1 <1>   0.0800 
 41 H       -1.3380    -3.8480    -1.2010 H     1 <1>   0.4500 
 42 H       -1.3410    -1.1690    -0.8520 H     1 <1>   0.0800 
 43 H       -1.4990    -0.6660     0.7970 H     1 <1>   0.0800 
 44 H        4.7450     2.7380     0.6090 H     1 <1>   0.0800 
 45 H        4.0770     3.0180    -0.9670 H     1 <1>   0.0800 
 46 H       -0.9550    -2.9600     1.5450 H     1 <1>   0.0800 
 47 H       -2.3910    -2.9170     0.5550 H     1 <1>   0.0800 
 48 H       -0.0220    -5.0590     1.1200 H     1 <1>   0.0800 
 49 H        0.0290    -5.7310    -0.4910 H     1 <1>   0.0800 
 50 H       -2.4980    -5.2050     1.1070 H     1 <1>   0.0800 
 51 H       -1.7940    -6.7470     0.7330 H     1 <1>   0.0800 
 52 H       -2.4580    -5.7840    -0.5540 H     1 <1>   0.0800 
 53 H        6.7720     2.6290     1.3020 H     1 <1>   0.0800 
 54 H        6.2140     4.5580     0.1550 H     1 <1>   0.0800 
 55 H        7.2180     4.1480    -1.2350 H     1 <1>   0.0800 
 56 H        9.4480     2.1590     0.0840 H     1 <1>   0.0800 
 57 H        8.9230     2.0860     1.7620 H     1 <1>   0.0800 
 58 H        8.3350     5.9590     0.3650 H     1 <1>   0.1500 
 59 H       10.1480     4.3120     1.4490 H     1 <1>   0.1500 
@<TRIPOS>BOND
  1   1   2  2   
  2   2   3  am  
  3   2   4  1   
  4   3   5  1   
  5   3   6  1   
  6   4   7  1   
  7   4   8  1   
  8   4   9  1   
  9   5  10  1   
 10   5  26  1   
 11   5  27  1   
 12   6  11  1   
 13   6  28  1   
 14   6  29  1   
 15   7  12  1   
 16   7  30  1   
 17   7  31  1   
 18   8  13  1   
 19   8  32  1   
 20   8  33  1   
 21   9  34  1   
 22   9  35  1   
 23   9  36  1   
 24  10  14  1   
 25  10  37  1   
 26  10  38  1   
 27  11  15  1   
 28  11  39  1   
 29  11  40  1   
 30  12  16  1   
 31  12  17  1   
 32  12  41  1   
 33  13  16  1   
 34  13  42  1   
 35  13  43  1   
 36  14  15  1   
 37  14  18  am  
 38  15  44  1   
 39  15  45  1   
 40  16  46  1   
 41  16  47  1   
 42  17  19  1   
 43  17  48  1   
 44  17  49  1   
 45  18  20  2   
 46  18  21  1   
 47  19  50  1   
 48  19  51  1   
 49  19  52  1   
 50  21  22  1   
 51  21  23  1   
 52  21  53  1   
 53  22  24  1   
 54  22  54  1   
 55  22  55  1   
 56  23  25  1   
 57  23  56  1   
 58  23  57  1   
 59  24  25  2   
 60  24  58  1   
 61  25  59  1   
@<TRIPOS>SUBSTRUCTURE
  1 ****   3 GROUP 4 **** **** 0

# MOE 2024.06 (io_trps.svl 2023.06)
