@<TRIPOS>MOLECULE
NONAME
61 63 1 0 0 
SMALL
USER_CHARGES


@<TRIPOS>ATOM
  1 O        0.7360     0.9780    -1.8690 O.co2 1 <1>  -0.9000 
  2 C        1.4670     0.4900    -0.9870 C.2   1 <1>   0.9790 
  3 O        1.1040    -0.5600    -0.4270 O.co2 1 <1>  -0.9000 
  4 C        2.7230     1.1360    -0.6210 C.ar  1 <1>  -0.1790 
  5 C        3.5580     0.6060     0.3650 C.ar  1 <1>  -0.1500 
  6 C        3.1450     2.3150    -1.2390 C.ar  1 <1>  -0.1500 
  7 C        4.7480     1.2180     0.7130 C.ar  1 <1>  -0.1500 
  8 C        4.3330     2.9350    -0.8990 C.ar  1 <1>  -0.1500 
  9 C        5.1490     2.3860     0.0870 C.ar  1 <1>   0.0830 
 10 O        6.3280     2.9260     0.4820 O.3   1 <1>  -0.3630 
 11 C        6.8210     4.1080    -0.0950 C.3   1 <1>   0.1200 
 12 C        8.1570     4.4160     0.5810 C.3   1 <1>  -0.1600 
 13 C        8.7850     5.6820     0.0020 C.3   1 <1>   0.3430 
 14 N       10.0330     6.0270     0.7390 N.4   1 <1>  -0.9590 
 15 C       10.4410     7.4500     0.4760 C.3   1 <1>   0.3430 
 16 C       11.1550     5.0830     0.4650 C.3   1 <1>   0.3430 
 17 C       11.8740     7.7620     0.9560 C.3   1 <1>  -0.0800 
 18 C       12.2770     5.3150     1.4850 C.3   1 <1>  -0.1600 
 19 C       12.3560     6.7580     2.0190 C.3   1 <1>  -0.1600 
 20 C       11.9510     9.1970     1.4980 C.3   1 <1>   0.1100 
 21 N       11.4540    10.1740     0.5080 N.3   1 <1>  -0.8100 
 22 C       12.4900    10.4880    -0.5110 C.3   1 <1>   0.1100 
 23 C       11.0290    11.4170     1.2010 C.3   1 <1>   0.1100 
 24 C       12.0260    11.5680    -1.5140 C.3   1 <1>   0.3430 
 25 C       10.5420    12.5060     0.2200 C.3   1 <1>   0.3430 
 26 N       11.5810    12.8230    -0.8180 N.4   1 <1>  -0.9590 
 27 C       11.0800    13.8370    -1.7940 C.3   1 <1>   0.2630 
 28 H        3.2530    -0.3030     0.8570 H     1 <1>   0.1500 
 29 H        2.5140     2.7400    -2.0030 H     1 <1>   0.1500 
 30 H        5.3690     0.7860     1.4750 H     1 <1>   0.1500 
 31 H        4.5960     3.8370    -1.4140 H     1 <1>   0.1500 
 32 H        6.1020     4.8900     0.0780 H     1 <1>   0.0800 
 33 H        6.9450     3.9370    -1.1510 H     1 <1>   0.0800 
 34 H        8.8060     3.5720     0.4290 H     1 <1>   0.0800 
 35 H        7.9790     4.5470     1.6340 H     1 <1>   0.0800 
 36 H        8.0790     6.4910     0.0950 H     1 <1>   0.0800 
 37 H        9.0010     5.5420    -1.0460 H     1 <1>   0.0800 
 38 H        9.8360     5.9510     1.7460 H     1 <1>   0.4500 
 39 H        9.7540     8.1100     0.9800 H     1 <1>   0.0800 
 40 H       10.3810     7.6650    -0.5780 H     1 <1>   0.0800 
 41 H       11.5310     5.2550    -0.5310 H     1 <1>   0.0800 
 42 H       10.8240     4.0590     0.5280 H     1 <1>   0.0800 
 43 H       12.5370     7.6830     0.1130 H     1 <1>   0.0800 
 44 H       13.2090     5.0560     1.0130 H     1 <1>   0.0800 
 45 H       12.1540     4.6380     2.3130 H     1 <1>   0.0800 
 46 H       11.7400     6.8460     2.8990 H     1 <1>   0.0800 
 47 H       13.3700     6.9770     2.3130 H     1 <1>   0.0800 
 48 H       12.9640     9.4350     1.7830 H     1 <1>   0.0800 
 49 H       11.3450     9.2500     2.3880 H     1 <1>   0.0800 
 50 H       12.7330     9.5990    -1.0660 H     1 <1>   0.0800 
 51 H       13.3920    10.8260    -0.0270 H     1 <1>   0.0800 
 52 H       11.8430    11.8090     1.7870 H     1 <1>   0.0800 
 53 H       10.2220    11.1870     1.8770 H     1 <1>   0.0800 
 54 H       11.2110    11.1680    -2.0930 H     1 <1>   0.0800 
 55 H       12.8340    11.7930    -2.1910 H     1 <1>   0.0800 
 56 H       10.2940    13.3960     0.7750 H     1 <1>   0.0800 
 57 H        9.6440    12.1550    -0.2610 H     1 <1>   0.0800 
 58 H       12.3990    13.2120    -0.3270 H     1 <1>   0.4500 
 59 H       10.2210    13.4570    -2.3230 H     1 <1>   0.0800 
 60 H       11.8480    14.0770    -2.5120 H     1 <1>   0.0800 
 61 H       10.7970    14.7430    -1.2820 H     1 <1>   0.0800 
@<TRIPOS>BOND
  1   1   2  ar  
  2   2   3  ar  
  3   2   4  1   
  4   4   5  ar  
  5   4   6  ar  
  6   5   7  ar  
  7   5  28  1   
  8   6   8  ar  
  9   6  29  1   
 10   7   9  ar  
 11   7  30  1   
 12   8   9  ar  
 13   8  31  1   
 14   9  10  1   
 15  10  11  1   
 16  11  12  1   
 17  11  32  1   
 18  11  33  1   
 19  12  13  1   
 20  12  34  1   
 21  12  35  1   
 22  13  14  1   
 23  13  36  1   
 24  13  37  1   
 25  14  15  1   
 26  14  16  1   
 27  14  38  1   
 28  15  17  1   
 29  15  39  1   
 30  15  40  1   
 31  16  18  1   
 32  16  41  1   
 33  16  42  1   
 34  17  19  1   
 35  17  20  1   
 36  17  43  1   
 37  18  19  1   
 38  18  44  1   
 39  18  45  1   
 40  19  46  1   
 41  19  47  1   
 42  20  21  1   
 43  20  48  1   
 44  20  49  1   
 45  21  22  1   
 46  21  23  1   
 47  22  24  1   
 48  22  50  1   
 49  22  51  1   
 50  23  25  1   
 51  23  52  1   
 52  23  53  1   
 53  24  26  1   
 54  24  54  1   
 55  24  55  1   
 56  25  26  1   
 57  25  56  1   
 58  25  57  1   
 59  26  27  1   
 60  26  58  1   
 61  27  59  1   
 62  27  60  1   
 63  27  61  1   
@<TRIPOS>SUBSTRUCTURE
  1 ****  13 GROUP 4 **** **** 0

# MOE 2024.06 (io_trps.svl 2023.06)
