@<TRIPOS>MOLECULE
NONAME
45 47 1 0 0 
SMALL
USER_CHARGES


@<TRIPOS>ATOM
  1 O       -4.3820    -2.2420     2.6160 O.co2 1 <1>  -0.9000 
  2 C       -3.3440    -1.8700     2.0320 C.2   1 <1>   0.9790 
  3 O       -3.0010    -0.6810     2.1550 O.co2 1 <1>  -0.9000 
  4 C       -2.5520    -2.7740     1.2430 C.ar  1 <1>  -0.1790 
  5 C       -3.0260    -3.3100     0.0380 C.ar  1 <1>   0.4100 
  6 C       -1.2820    -3.1330     1.6610 C.ar  1 <1>  -0.1500 
  7 N       -2.3370    -4.1750    -0.6980 N.ar  1 <1>  -0.6200 
  8 N       -4.2580    -2.9860    -0.4880 N.pl3 1 <1>  -0.8380 
  9 C       -0.5560    -4.0180     0.8950 C.ar  1 <1>  -0.1440 
 10 C       -1.1380    -4.5120    -0.2680 C.ar  1 <1>   0.1670 
 11 C       -5.4030    -3.7990     0.0220 C.3   1 <1>   0.2090 
 12 C       -4.5220    -1.5590    -0.7940 C.3   1 <1>   0.2090 
 13 C        0.8430    -4.4110     1.3500 C.3   1 <1>  -0.0960 
 14 C       -0.4020    -5.4990    -1.1550 C.3   1 <1>  -0.0970 
 15 C       -6.7900    -3.1310    -0.1620 C.3   1 <1>   0.0000 
 16 C       -5.7030    -1.4170    -1.7630 C.3   1 <1>  -0.1600 
 17 C       -7.1920    -2.1470     0.9640 C.3   1 <1>   0.2000 
 18 C       -6.8210    -2.4580    -1.5590 C.3   1 <1>  -0.1600 
 19 C       -7.9210    -4.1750    -0.0900 C.3   1 <1>  -0.1600 
 20 O       -6.8910    -2.6680     2.2140 O.3   1 <1>  -0.6800 
 21 C       -8.7170    -2.0650     0.8820 C.3   1 <1>  -0.1600 
 22 C       -9.1900    -3.4100     0.3130 C.3   1 <1>  -0.1600 
 23 H       -0.8940    -2.7130     2.5730 H     1 <1>   0.1500 
 24 H       -5.3960    -4.7210    -0.5320 H     1 <1>   0.0800 
 25 H       -5.2360    -4.0580     1.0530 H     1 <1>   0.0800 
 26 H       -4.7480    -1.0330     0.1170 H     1 <1>   0.0800 
 27 H       -3.6380    -1.1110    -1.2140 H     1 <1>   0.0800 
 28 H        1.1590    -3.8010     2.1760 H     1 <1>   0.0800 
 29 H        1.5450    -4.2800     0.5470 H     1 <1>   0.0800 
 30 H        0.8490    -5.4390     1.6640 H     1 <1>   0.0800 
 31 H        0.0940    -6.2450    -0.5640 H     1 <1>   0.0800 
 32 H        0.3170    -4.9730    -1.7540 H     1 <1>   0.0800 
 33 H       -1.0970    -5.9950    -1.8090 H     1 <1>   0.0800 
 34 H       -6.1040    -0.4270    -1.6470 H     1 <1>   0.0800 
 35 H       -5.3290    -1.4960    -2.7670 H     1 <1>   0.0800 
 36 H       -6.7270    -1.1810     0.8900 H     1 <1>   0.0800 
 37 H       -6.6750    -3.2310    -2.2950 H     1 <1>   0.0800 
 38 H       -7.7760    -2.0070    -1.7590 H     1 <1>   0.0800 
 39 H       -8.0470    -4.7170    -1.0100 H     1 <1>   0.0800 
 40 H       -7.6910    -4.8790     0.6930 H     1 <1>   0.0800 
 41 H       -5.9060    -2.5090     2.4120 H     1 <1>   0.4000 
 42 H       -9.1520    -1.8520     1.8430 H     1 <1>   0.0800 
 43 H       -8.9850    -1.2770     0.2030 H     1 <1>   0.0800 
 44 H       -9.7360    -3.9650     1.0560 H     1 <1>   0.0800 
 45 H       -9.8230    -3.2480    -0.5420 H     1 <1>   0.0800 
@<TRIPOS>BOND
  1   1   2  ar  
  2   2   3  ar  
  3   2   4  1   
  4   4   5  ar  
  5   4   6  ar  
  6   5   7  ar  
  7   5   8  1   
  8   6   9  ar  
  9   6  23  1   
 10   7  10  ar  
 11   8  11  1   
 12   8  12  1   
 13   9  10  ar  
 14   9  13  1   
 15  10  14  1   
 16  11  15  1   
 17  11  24  1   
 18  11  25  1   
 19  12  16  1   
 20  12  26  1   
 21  12  27  1   
 22  13  28  1   
 23  13  29  1   
 24  13  30  1   
 25  14  31  1   
 26  14  32  1   
 27  14  33  1   
 28  15  17  1   
 29  15  18  1   
 30  15  19  1   
 31  16  18  1   
 32  16  34  1   
 33  16  35  1   
 34  17  20  1   
 35  17  21  1   
 36  17  36  1   
 37  18  37  1   
 38  18  38  1   
 39  19  22  1   
 40  19  39  1   
 41  19  40  1   
 42  20  41  1   
 43  21  22  1   
 44  21  42  1   
 45  21  43  1   
 46  22  44  1   
 47  22  45  1   
@<TRIPOS>SUBSTRUCTURE
  1 ****   8 GROUP 4 **** **** 0

# MOE 2024.06 (io_trps.svl 2023.06)
