@<TRIPOS>MOLECULE
NONAME
52 55 1 0 0 
SMALL
USER_CHARGES


@<TRIPOS>ATOM
  1 O       -3.2060     1.7440    -2.4410 O.2   1 <1>  -0.5700 
  2 C       -3.1300     1.8140    -1.2280 C.2   1 <1>   0.5440 
  3 N       -4.0840     1.1750    -0.4610 N.am  1 <1>  -0.6600 
  4 C       -2.0330     2.5540    -0.6320 C.ar  1 <1>   0.0860 
  5 C       -5.3370     0.6340    -1.0540 C.3   1 <1>   0.1400 
  6 C       -3.8910     0.8100     0.9700 C.3   1 <1>   0.1400 
  7 C       -2.2560     3.5560     0.3140 C.ar  1 <1>  -0.1500 
  8 C       -0.7130     2.2900    -0.9930 C.ar  1 <1>  -0.1500 
  9 C       -5.3300    -0.8920    -0.9450 C.3   1 <1>  -0.1600 
 10 C       -3.8750    -0.7150     1.1010 C.3   1 <1>  -0.1600 
 11 C       -1.2070     4.2510     0.8870 C.ar  1 <1>  -0.1500 
 12 C        0.3410     2.9810    -0.4240 C.ar  1 <1>  -0.1500 
 13 C       -5.1380    -1.3580     0.5090 C.3   1 <1>   0.4240 
 14 C        0.0960     3.9630     0.5200 C.ar  1 <1>  -0.1500 
 15 O       -6.2030    -0.8520     1.2800 O.3   1 <1>  -0.5600 
 16 C       -5.0510    -2.8970     0.5950 C.ar  1 <1>  -0.1430 
 17 C       -7.3970    -1.5720     1.2820 C.3   1 <1>   0.1200 
 18 C       -6.0080    -3.6350     1.2860 C.ar  1 <1>  -0.1430 
 19 C       -4.0080    -3.5790    -0.0230 C.ar  1 <1>  -0.1500 
 20 C       -7.1580    -2.9170     1.9620 C.3   1 <1>  -0.0170 
 21 C       -5.9220    -5.0170     1.3530 C.ar  1 <1>  -0.1500 
 22 C       -3.9060    -4.9570     0.0500 C.ar  1 <1>   0.0830 
 23 C       -4.8880    -5.6880     0.7270 C.ar  1 <1>   0.0830 
 24 O       -2.8350    -5.5360    -0.5460 O.3   1 <1>  -0.3630 
 25 O       -4.8850    -7.0420     0.7990 O.3   1 <1>  -0.3620 
 26 C       -1.9100    -6.1680     0.3120 C.3   1 <1>   0.0400 
 27 C       -5.0660    -7.7330    -0.4170 C.3   1 <1>   0.0400 
 28 H       -5.4270     0.9250    -2.0870 H     1 <1>   0.0800 
 29 H       -6.1810     1.0380    -0.5220 H     1 <1>   0.0800 
 30 H       -4.6990     1.2220     1.5520 H     1 <1>   0.0800 
 31 H       -2.9660     1.2040     1.3510 H     1 <1>   0.0800 
 32 H       -3.2680     3.7880     0.5950 H     1 <1>   0.1500 
 33 H       -0.5230     1.5330    -1.7330 H     1 <1>   0.1500 
 34 H       -4.5260    -1.2630    -1.5520 H     1 <1>   0.0800 
 35 H       -6.2390    -1.2950    -1.3470 H     1 <1>   0.0800 
 36 H       -3.7930    -0.9920     2.1360 H     1 <1>   0.0800 
 37 H       -3.0020    -1.0830     0.5980 H     1 <1>   0.0800 
 38 H       -1.4020     5.0190     1.6160 H     1 <1>   0.1500 
 39 H        1.3530     2.7580    -0.7170 H     1 <1>   0.1500 
 40 H        0.9150     4.5020     0.9640 H     1 <1>   0.1500 
 41 H       -7.7340    -1.7040     0.2690 H     1 <1>   0.0800 
 42 H       -8.1270    -0.9990     1.8250 H     1 <1>   0.0800 
 43 H       -3.2510    -3.0490    -0.5710 H     1 <1>   0.1500 
 44 H       -8.0540    -3.5080     1.9010 H     1 <1>   0.0800 
 45 H       -6.9270    -2.7580     3.0000 H     1 <1>   0.0800 
 46 H       -6.6600    -5.5870     1.8860 H     1 <1>   0.1500 
 47 H       -1.0690    -6.4850    -0.2760 H     1 <1>   0.0800 
 48 H       -2.3760    -7.0200     0.7740 H     1 <1>   0.0800 
 49 H       -1.5950    -5.4640     1.0610 H     1 <1>   0.0800 
 50 H       -5.1570    -8.7810    -0.1980 H     1 <1>   0.0800 
 51 H       -4.2160    -7.5640    -1.0540 H     1 <1>   0.0800 
 52 H       -5.9630    -7.3750    -0.8900 H     1 <1>   0.0800 
@<TRIPOS>BOND
  1   1   2  2   
  2   2   3  am  
  3   2   4  1   
  4   3   5  1   
  5   3   6  1   
  6   4   7  ar  
  7   4   8  ar  
  8   5   9  1   
  9   5  28  1   
 10   5  29  1   
 11   6  10  1   
 12   6  30  1   
 13   6  31  1   
 14   7  11  ar  
 15   7  32  1   
 16   8  12  ar  
 17   8  33  1   
 18   9  13  1   
 19   9  34  1   
 20   9  35  1   
 21  10  13  1   
 22  10  36  1   
 23  10  37  1   
 24  11  14  ar  
 25  11  38  1   
 26  12  14  ar  
 27  12  39  1   
 28  13  15  1   
 29  13  16  1   
 30  14  40  1   
 31  15  17  1   
 32  16  18  ar  
 33  16  19  ar  
 34  17  20  1   
 35  17  41  1   
 36  17  42  1   
 37  18  20  1   
 38  18  21  ar  
 39  19  22  ar  
 40  19  43  1   
 41  20  44  1   
 42  20  45  1   
 43  21  23  ar  
 44  21  46  1   
 45  22  23  ar  
 46  22  24  1   
 47  23  25  1   
 48  24  26  1   
 49  25  27  1   
 50  26  47  1   
 51  26  48  1   
 52  26  49  1   
 53  27  50  1   
 54  27  51  1   
 55  27  52  1   
@<TRIPOS>SUBSTRUCTURE
  1 ****  10 GROUP 4 **** **** 0

# MOE 2024.06 (io_trps.svl 2023.06)
