@<TRIPOS>MOLECULE
NONAME
60 63 1 0 0 
SMALL
USER_CHARGES


@<TRIPOS>ATOM
  1 O       -0.8440     3.0090    -2.4690 O.co2 1 <1>  -0.9000 
  2 C       -1.1470     2.6720    -1.3180 C.2   1 <1>   0.9060 
  3 O       -2.2880     2.7960    -0.8780 O.co2 1 <1>  -0.9000 
  4 C       -0.0250     2.2550    -0.3890 C.3   1 <1>  -0.1060 
  5 C       -0.3720     2.4770     1.1010 C.3   1 <1>   0.2000 
  6 C        1.1420     3.1890    -0.6930 C.3   1 <1>   0.3430 
  7 C        0.2850     0.7780    -0.7520 C.3   1 <1>  -0.0170 
  8 O        0.7310     2.1450     1.8770 O.3   1 <1>  -0.6800 
  9 C       -0.6880     3.9390     1.4620 C.3   1 <1>  -0.1600 
 10 N        0.8560     4.6480    -0.4190 N.4   1 <1>  -0.9590 
 11 C        1.4730     0.1480    -0.0350 C.ar  1 <1>  -0.1440 
 12 C       -0.4120     4.9350     0.3360 C.3   1 <1>   0.3430 
 13 C        0.7860     5.3560    -1.7250 C.3   1 <1>   0.5240 
 14 C        2.7670     0.3670    -0.4830 C.ar  1 <1>  -0.1500 
 15 C        1.2650    -0.6620     1.0720 C.ar  1 <1>  -0.1500 
 16 C        0.8270     6.8440    -1.4520 C.2   1 <1>  -0.1810 
 17 C        3.8420    -0.1930     0.1860 C.ar  1 <1>  -0.1500 
 18 C        2.3390    -1.2210     1.7410 C.ar  1 <1>  -0.1500 
 19 C       -0.2280     7.7200    -1.6670 C.2   1 <1>   0.1390 
 20 C        1.8160     7.6170    -0.9510 C.2   1 <1>  -0.3020 
 21 C        3.6290    -0.9840     1.3000 C.ar  1 <1>  -0.1500 
 22 N        0.0700     8.9300    -1.3180 N.2   1 <1>  -0.7070 
 23 N        1.3530     8.8920    -0.8760 N.pl3 1 <1>   0.5930 
 24 C        2.0510    10.0210    -0.3600 C.ar  1 <1>  -0.0230 
 25 C        3.4210    10.1740    -0.5570 C.ar  1 <1>  -0.1500 
 26 C        1.3770    10.9970     0.3630 C.ar  1 <1>  -0.1500 
 27 C        4.1080    11.2590    -0.0380 C.ar  1 <1>  -0.1440 
 28 C        2.0550    12.0820     0.8850 C.ar  1 <1>  -0.1500 
 29 C        3.4200    12.2210     0.6930 C.ar  1 <1>  -0.1440 
 30 C        5.6070    11.3750    -0.2830 C.3   1 <1>  -0.0970 
 31 C        4.1290    13.4310     1.2860 C.3   1 <1>  -0.0970 
 32 H       -1.1900     1.8380     1.3960 H     1 <1>   0.0800 
 33 H        1.4210     3.0580    -1.7260 H     1 <1>   0.0800 
 34 H        1.9780     2.8810    -0.0860 H     1 <1>   0.0800 
 35 H       -0.5960     0.1880    -0.5580 H     1 <1>   0.0800 
 36 H        0.4600     0.7070    -1.8140 H     1 <1>   0.0800 
 37 H        1.0430     1.2390     1.6480 H     1 <1>   0.4000 
 38 H       -1.7400     4.0020     1.6760 H     1 <1>   0.0800 
 39 H       -0.1700     4.2450     2.3530 H     1 <1>   0.0800 
 40 H        1.6360     5.0380     0.1170 H     1 <1>   0.4500 
 41 H       -0.3900     5.9360     0.7340 H     1 <1>   0.0800 
 42 H       -1.2430     4.8840    -0.3510 H     1 <1>   0.0800 
 43 H        1.6210     5.0790    -2.3450 H     1 <1>   0.0800 
 44 H       -0.1230     5.0970    -2.2440 H     1 <1>   0.0800 
 45 H        2.9470     0.9660    -1.3570 H     1 <1>   0.1500 
 46 H        0.2660    -0.8630     1.4220 H     1 <1>   0.1500 
 47 H        4.8450    -0.0180    -0.1630 H     1 <1>   0.1500 
 48 H        2.1730    -1.8440     2.6030 H     1 <1>   0.1500 
 49 H       -1.1900     7.4420    -2.0700 H     1 <1>   0.1500 
 50 H        2.8090     7.3600    -0.6370 H     1 <1>   0.1500 
 51 H        4.4650    -1.4180     1.8210 H     1 <1>   0.1500 
 52 H        3.9570     9.4380    -1.1290 H     1 <1>   0.1500 
 53 H        0.3150    10.9080     0.5180 H     1 <1>   0.1500 
 54 H        1.5070    12.8220     1.4420 H     1 <1>   0.1500 
 55 H        5.9650    10.5650    -0.8920 H     1 <1>   0.0800 
 56 H        6.1350    11.3540     0.6530 H     1 <1>   0.0800 
 57 H        5.8270    12.2970    -0.7890 H     1 <1>   0.0800 
 58 H        3.4430    14.0490     1.8360 H     1 <1>   0.0800 
 59 H        4.5620    14.0240     0.5010 H     1 <1>   0.0800 
 60 H        4.9060    13.1120     1.9560 H     1 <1>   0.0800 
@<TRIPOS>BOND
  1   1   2  ar  
  2   2   3  ar  
  3   2   4  1   
  4   4   5  1   
  5   4   6  1   
  6   4   7  1   
  7   5   8  1   
  8   5   9  1   
  9   5  32  1   
 10   6  10  1   
 11   6  33  1   
 12   6  34  1   
 13   7  11  1   
 14   7  35  1   
 15   7  36  1   
 16   8  37  1   
 17   9  12  1   
 18   9  38  1   
 19   9  39  1   
 20  10  12  1   
 21  10  13  1   
 22  10  40  1   
 23  11  14  ar  
 24  11  15  ar  
 25  12  41  1   
 26  12  42  1   
 27  13  16  1   
 28  13  43  1   
 29  13  44  1   
 30  14  17  ar  
 31  14  45  1   
 32  15  18  ar  
 33  15  46  1   
 34  16  19  1   
 35  16  20  2   
 36  17  21  ar  
 37  17  47  1   
 38  18  21  ar  
 39  18  48  1   
 40  19  22  2   
 41  19  49  1   
 42  20  23  1   
 43  20  50  1   
 44  21  51  1   
 45  22  23  1   
 46  23  24  1   
 47  24  25  ar  
 48  24  26  ar  
 49  25  27  ar  
 50  25  52  1   
 51  26  28  ar  
 52  26  53  1   
 53  27  29  ar  
 54  27  30  1   
 55  28  29  ar  
 56  28  54  1   
 57  29  31  1   
 58  30  55  1   
 59  30  56  1   
 60  30  57  1   
 61  31  58  1   
 62  31  59  1   
 63  31  60  1   
@<TRIPOS>SUBSTRUCTURE
  1 ****  10 GROUP 4 **** **** 0

# MOE 2024.06 (io_trps.svl 2023.06)
