@<TRIPOS>MOLECULE
NONAME
62 65 1 0 0 
SMALL
USER_CHARGES


@<TRIPOS>ATOM
  1 O        2.7850    -0.1450    -1.2560 O.2   1 <1>  -0.5700 
  2 C        3.2840    -0.4790    -0.1840 C.2   1 <1>   0.6160 
  3 N        2.8100    -1.6190     0.4680 N.am  1 <1>  -0.4690 
  4 C        4.3670     0.2560     0.3960 C.2   1 <1>   0.0290 
  5 C        3.4440    -2.0860     1.6060 C.2   1 <1>  -0.0290 
  6 C        1.6440    -2.3530    -0.1150 C.3   1 <1>   0.0600 
  7 C        4.7890     1.4710    -0.2380 C.2   1 <1>   0.6160 
  8 C        4.9740    -0.2300     1.5240 C.2   1 <1>  -0.1500 
  9 C        4.5070    -1.4110     2.1270 C.2   1 <1>  -0.1500 
 10 C        2.9550    -3.3650     2.2720 C.3   1 <1>  -0.1020 
 11 O        5.9680     1.6960    -0.4550 O.2   1 <1>  -0.5700 
 12 N        3.9120     2.4740    -0.5620 N.am  1 <1>  -0.6600 
 13 C        3.7070     2.8640    -1.9890 C.3   1 <1>   0.1400 
 14 C        3.4580     3.4480     0.4540 C.3   1 <1>   0.1400 
 15 C        4.8900     3.6720    -2.5610 C.3   1 <1>   0.3430 
 16 C        4.5170     4.5390     0.6590 C.3   1 <1>  -0.1600 
 17 N        5.7280     4.3140    -1.4980 N.4   1 <1>  -0.9590 
 18 C        4.9810     5.2540    -0.6160 C.3   1 <1>   0.3430 
 19 C        6.9750     4.8860    -2.0520 C.3   1 <1>   0.4810 
 20 C        7.8860     5.2960    -0.9150 C.2   1 <1>  -0.2540 
 21 C        8.2160     6.5500    -0.5740 C.2   1 <1>  -0.2880 
 22 C        8.4940     4.1540    -0.0940 C.3   1 <1>   0.1160 
 23 C        9.1900     6.7810     0.5860 C.3   1 <1>  -0.0220 
 24 C       10.0410     4.3300     0.1250 C.3   1 <1>   0.0000 
 25 C        8.3530     4.5240     1.4190 C.3   1 <1>   0.0000 
 26 C        9.6190     5.4140     1.1860 C.3   1 <1>   0.0000 
 27 C       10.7600     3.0920     0.7120 C.3   1 <1>  -0.2400 
 28 C       10.8620     4.8230    -1.0870 C.3   1 <1>  -0.2400 
 29 H        0.9590    -2.6410     0.6620 H     1 <1>   0.0800 
 30 H        1.9940    -3.2300    -0.6290 H     1 <1>   0.0800 
 31 H        1.1030    -1.7380    -0.8120 H     1 <1>   0.0800 
 32 H        5.8120     0.2800     1.9680 H     1 <1>   0.1500 
 33 H        5.0140    -1.7630     3.0090 H     1 <1>   0.1500 
 34 H        2.9730    -4.1800     1.5710 H     1 <1>   0.0800 
 35 H        1.9540    -3.2340     2.6410 H     1 <1>   0.0800 
 36 H        3.5840    -3.6270     3.1030 H     1 <1>   0.0800 
 37 H        3.5700     1.9760    -2.5830 H     1 <1>   0.0800 
 38 H        2.8020     3.4400    -2.0760 H     1 <1>   0.0800 
 39 H        2.5230     3.8830     0.1450 H     1 <1>   0.0800 
 40 H        3.2860     2.9340     1.3870 H     1 <1>   0.0800 
 41 H        4.5200     4.4130    -3.2490 H     1 <1>   0.0800 
 42 H        5.5080     2.9880    -3.1200 H     1 <1>   0.0800 
 43 H        5.3670     4.1160     1.1630 H     1 <1>   0.0800 
 44 H        4.1030     5.2770     1.3220 H     1 <1>   0.0800 
 45 H        6.0120     3.5130    -0.8940 H     1 <1>   0.4500 
 46 H        5.6260     6.0680    -0.3280 H     1 <1>   0.0800 
 47 H        4.1360     5.6690    -1.1410 H     1 <1>   0.0800 
 48 H        7.4800     4.1580    -2.6660 H     1 <1>   0.0800 
 49 H        6.7450     5.7470    -2.6580 H     1 <1>   0.0800 
 50 H        7.8710     7.4510    -1.0550 H     1 <1>   0.1500 
 51 H        8.1770     3.1590    -0.3480 H     1 <1>   0.0000 
 52 H        8.7150     7.3730     1.3490 H     1 <1>   0.0800 
 53 H       10.0590     7.3130     0.2410 H     1 <1>   0.0800 
 54 H        7.4670     5.0840     1.6610 H     1 <1>   0.0000 
 55 H        8.4960     3.7040     2.0980 H     1 <1>   0.0000 
 56 H       10.2690     5.4850     2.0400 H     1 <1>   0.0000 
 57 H       11.7580     3.3600     1.0110 H     1 <1>   0.0800 
 58 H       10.8300     2.3210    -0.0350 H     1 <1>   0.0800 
 59 H       10.2700     2.6690     1.5680 H     1 <1>   0.0800 
 60 H       11.8520     5.0950    -0.7660 H     1 <1>   0.0800 
 61 H       10.4360     5.6750    -1.5790 H     1 <1>   0.0800 
 62 H       10.9500     4.0360    -1.8140 H     1 <1>   0.0800 
@<TRIPOS>BOND
  1   1   2  2   
  2   2   3  am  
  3   2   4  1   
  4   3   5  1   
  5   3   6  1   
  6   4   7  1   
  7   4   8  2   
  8   5   9  2   
  9   5  10  1   
 10   6  29  1   
 11   6  30  1   
 12   6  31  1   
 13   7  11  2   
 14   7  12  am  
 15   8   9  1   
 16   8  32  1   
 17   9  33  1   
 18  10  34  1   
 19  10  35  1   
 20  10  36  1   
 21  12  13  1   
 22  12  14  1   
 23  13  15  1   
 24  13  37  1   
 25  13  38  1   
 26  14  16  1   
 27  14  39  1   
 28  14  40  1   
 29  15  17  1   
 30  15  41  1   
 31  15  42  1   
 32  16  18  1   
 33  16  43  1   
 34  16  44  1   
 35  17  18  1   
 36  17  19  1   
 37  17  45  1   
 38  18  46  1   
 39  18  47  1   
 40  19  20  1   
 41  19  48  1   
 42  19  49  1   
 43  20  21  2   
 44  20  22  1   
 45  21  23  1   
 46  21  50  1   
 47  22  24  1   
 48  22  25  1   
 49  22  51  1   
 50  23  26  1   
 51  23  52  1   
 52  23  53  1   
 53  24  26  1   
 54  24  27  1   
 55  24  28  1   
 56  25  26  1   
 57  25  54  1   
 58  25  55  1   
 59  26  56  1   
 60  27  57  1   
 61  27  58  1   
 62  27  59  1   
 63  28  60  1   
 64  28  61  1   
 65  28  62  1   
@<TRIPOS>SUBSTRUCTURE
  1 ****  11 GROUP 4 **** **** 0

# MOE 2024.06 (io_trps.svl 2023.06)
