@<TRIPOS>MOLECULE
NONAME
39 41 1 0 0 
SMALL
USER_CHARGES


@<TRIPOS>ATOM
  1 O        0.7070     3.6510    -0.6210 O.co2 1 <1>  -0.9000 
  2 C        1.5420     3.2470     0.2000 C.2   1 <1>   0.9470 
  3 O        1.5670     3.6990     1.3540 O.co2 1 <1>  -0.9000 
  4 C        2.6930     2.3480    -0.2660 C.3   1 <1>  -0.2420 
  5 C        2.8620     0.8480    -0.3310 C.3   1 <1>  -0.2420 
  6 C        4.0250     2.9380     0.1580 C.3   1 <1>   0.2350 
  7 C        2.5560     1.6270    -1.5840 C.3   1 <1>  -0.2000 
  8 C        1.9250    -0.2880     0.0870 C.2   1 <1>   0.9470 
  9 C        4.3010     0.5220     0.0370 C.3   1 <1>   0.2350 
 10 N        5.0100     1.8290     0.0160 N.am  1 <1>  -0.6600 
 11 O        1.2870    -0.8990    -0.7820 O.co2 1 <1>  -0.9000 
 12 O        1.9430    -0.6800     1.2610 O.co2 1 <1>  -0.9000 
 13 C        6.3550     1.9710    -0.1700 C.2   1 <1>   0.5690 
 14 O        7.0910     1.0170    -0.2990 O.2   1 <1>  -0.5700 
 15 C        6.9800     3.3600    -0.2690 C.3   1 <1>   0.1810 
 16 O        6.7080     4.1430     0.8850 O.3   1 <1>  -0.3630 
 17 C        6.6330     5.4830     0.7360 C.ar  1 <1>   0.0830 
 18 C        7.6060     6.1980     0.0530 C.ar  1 <1>  -0.1500 
 19 C        5.5430     6.1390     1.2840 C.ar  1 <1>  -0.1500 
 20 C        7.4860     7.5700    -0.0920 C.ar  1 <1>   0.0830 
 21 C        5.4190     7.5090     1.1410 C.ar  1 <1>  -0.1500 
 22 O        8.4760     8.2000    -0.7750 O.3   1 <1>  -0.3630 
 23 C        6.3850     8.2270     0.4550 C.ar  1 <1>  -0.1500 
 24 C        8.4710     9.5990    -0.9480 C.3   1 <1>   0.0400 
 25 H        3.9850     3.2410     1.1910 H     1 <1>   0.0800 
 26 H        4.2740     3.7810    -0.4600 H     1 <1>   0.0800 
 27 H        3.3140     1.7410    -2.3350 H     1 <1>   0.1000 
 28 H        1.5690     1.5260    -2.0040 H     1 <1>   0.1000 
 29 H        4.7330    -0.1700    -0.6650 H     1 <1>   0.0800 
 30 H        4.3470     0.1080     1.0310 H     1 <1>   0.0800 
 31 H        6.5770     3.8600    -1.1300 H     1 <1>   0.0800 
 32 H        8.0460     3.2730    -0.3680 H     1 <1>   0.0800 
 33 H        8.4630     5.7040    -0.3610 H     1 <1>   0.1500 
 34 H        4.7920     5.5730     1.8110 H     1 <1>   0.1500 
 35 H        4.5650     8.0110     1.5620 H     1 <1>   0.1500 
 36 H        6.2610     9.2880     0.3570 H     1 <1>   0.1500 
 37 H        9.3520     9.8710    -1.5020 H     1 <1>   0.0800 
 38 H        8.4890    10.0710     0.0190 H     1 <1>   0.0800 
 39 H        7.5920     9.8800    -1.4990 H     1 <1>   0.0800 
@<TRIPOS>BOND
  1   1   2  ar  
  2   2   3  ar  
  3   2   4  1   
  4   4   5  1   
  5   4   6  1   
  6   4   7  1   
  7   5   7  1   
  8   5   8  1   
  9   5   9  1   
 10   6  10  1   
 11   6  25  1   
 12   6  26  1   
 13   7  27  1   
 14   7  28  1   
 15   8  11  ar  
 16   8  12  ar  
 17   9  10  1   
 18   9  29  1   
 19   9  30  1   
 20  10  13  am  
 21  13  14  2   
 22  13  15  1   
 23  15  16  1   
 24  15  31  1   
 25  15  32  1   
 26  16  17  1   
 27  17  18  ar  
 28  17  19  ar  
 29  18  20  ar  
 30  18  33  1   
 31  19  21  ar  
 32  19  34  1   
 33  20  22  1   
 34  20  23  ar  
 35  21  23  ar  
 36  21  35  1   
 37  22  24  1   
 38  23  36  1   
 39  24  37  1   
 40  24  38  1   
 41  24  39  1   
@<TRIPOS>SUBSTRUCTURE
  1 ****   6 GROUP 4 **** **** 0

# MOE 2024.06 (io_trps.svl 2023.06)
