@<TRIPOS>MOLECULE
NONAME
40 43 1 0 0 
SMALL
USER_CHARGES


@<TRIPOS>ATOM
  1 O        0.4500     0.1260    -0.8000 O.3   1 <1>  -0.0190 
  2 N        1.4200     0.9980    -0.8720 N.2   1 <1>  -0.4100 
  3 C        1.0060    -0.9150    -0.2330 C.2   1 <1>   0.3930 
  4 C        2.4580     0.4490    -0.3640 C.2   1 <1>   0.5990 
  5 N        2.2340    -0.7910     0.0640 N.2   1 <1>  -0.5650 
  6 C        0.1450    -2.1440     0.0130 C.3   1 <1>  -0.0150 
  7 N        3.7120     1.0550    -0.2430 N.pl3 1 <1>  -0.6210 
  8 C        0.7340    -3.5230     0.0520 C.3   1 <1>  -0.2000 
  9 C       -0.1340    -3.1090    -1.0990 C.3   1 <1>  -0.2000 
 10 C        3.7290     2.2460     0.6390 C.3   1 <1>   0.0690 
 11 C        4.8480     0.1320     0.0090 C.3   1 <1>   0.3470 
 12 C        3.1100     3.5160     0.1450 C.3   1 <1>  -0.2000 
 13 C        4.5940     3.4120     0.2700 C.3   1 <1>  -0.2000 
 14 C        6.1360     0.7440    -0.5050 C.2   1 <1>  -0.2880 
 15 C        7.2290     0.9950     0.2360 C.2   1 <1>  -0.1780 
 16 C        8.4760     1.5930    -0.1890 C.ar  1 <1>   0.0280 
 17 C        9.5920     1.5450     0.6430 C.ar  1 <1>  -0.1500 
 18 C        8.6150     2.2360    -1.4180 C.ar  1 <1>  -0.1500 
 19 C       10.7970     2.1100     0.2660 C.ar  1 <1>  -0.1500 
 20 C        9.8170     2.8020    -1.8020 C.ar  1 <1>  -0.1500 
 21 C       10.9120     2.7400    -0.9590 C.ar  1 <1>  -0.1500 
 22 H       -0.6570    -1.9340     0.6980 H     1 <1>   0.1000 
 23 H        1.7920    -3.6360    -0.1110 H     1 <1>   0.1000 
 24 H        0.3490    -4.2260     0.7700 H     1 <1>   0.1000 
 25 H       -1.1220    -3.5260    -1.1840 H     1 <1>   0.1000 
 26 H        0.3280    -2.9430    -2.0580 H     1 <1>   0.1000 
 27 H        3.6100     1.9990     1.6810 H     1 <1>   0.1000 
 28 H        4.9190    -0.0730     1.0640 H     1 <1>   0.0800 
 29 H        4.6880    -0.7990    -0.5080 H     1 <1>   0.0800 
 30 H        2.6740     3.5270    -0.8390 H     1 <1>   0.1000 
 31 H        2.5780     4.1370     0.8430 H     1 <1>   0.1000 
 32 H        5.0830     3.9600     1.0540 H     1 <1>   0.1000 
 33 H        5.1780     3.3650    -0.6310 H     1 <1>   0.1000 
 34 H        6.0680     0.9660    -1.5540 H     1 <1>   0.1500 
 35 H        7.2180     0.7390     1.2810 H     1 <1>   0.1500 
 36 H        9.5180     1.0580     1.5980 H     1 <1>   0.1500 
 37 H        7.7750     2.3010    -2.0830 H     1 <1>   0.1500 
 38 H       11.6460     2.0600     0.9260 H     1 <1>   0.1500 
 39 H        9.9000     3.2930    -2.7560 H     1 <1>   0.1500 
 40 H       11.8480     3.1800    -1.2560 H     1 <1>   0.1500 
@<TRIPOS>BOND
  1   1   2  1   
  2   1   3  1   
  3   2   4  2   
  4   3   5  2   
  5   3   6  1   
  6   4   5  1   
  7   4   7  1   
  8   6   8  1   
  9   6   9  1   
 10   6  22  1   
 11   7  10  1   
 12   7  11  1   
 13   8   9  1   
 14   8  23  1   
 15   8  24  1   
 16   9  25  1   
 17   9  26  1   
 18  10  12  1   
 19  10  13  1   
 20  10  27  1   
 21  11  14  1   
 22  11  28  1   
 23  11  29  1   
 24  12  13  1   
 25  12  30  1   
 26  12  31  1   
 27  13  32  1   
 28  13  33  1   
 29  14  15  2   
 30  14  34  1   
 31  15  16  1   
 32  15  35  1   
 33  16  17  ar  
 34  16  18  ar  
 35  17  19  ar  
 36  17  36  1   
 37  18  20  ar  
 38  18  37  1   
 39  19  21  ar  
 40  19  38  1   
 41  20  21  ar  
 42  20  39  1   
 43  21  40  1   
@<TRIPOS>SUBSTRUCTURE
  1 ****  11 GROUP 4 **** **** 0

# MOE 2024.06 (io_trps.svl 2023.06)
