@<TRIPOS>MOLECULE
NONAME
44 45 1 0 0 
SMALL
USER_CHARGES


@<TRIPOS>ATOM
  1 S        0.1880     0.1580     0.5770 S.o2  1 <1>   1.3330 
  2 O       -0.6300     1.3490     0.6080 O.2   1 <1>  -0.6500 
  3 O        0.5940    -0.4590     1.8200 O.2   1 <1>  -0.6500 
  4 N       -0.6230    -1.0180    -0.3410 N.am  1 <1>  -0.8490 
  5 C        1.6270     0.5140    -0.4310 C.3   1 <1>  -0.0550 
  6 C       -0.1180    -2.3780    -0.1200 C.3   1 <1>   0.1160 
  7 C       -2.0730    -0.9850    -0.1290 C.3   1 <1>   0.1160 
  8 C        2.5320     1.6190     0.1500 C.3   1 <1>  -0.0800 
  9 C        3.5850     2.0470    -0.8560 C.3   1 <1>   0.2200 
 10 C        3.4000     1.1010     1.2990 C.3   1 <1>   0.1200 
 11 N        4.0620     3.4040    -0.5140 N.am  1 <1>  -0.7300 
 12 C        4.7000     1.0320    -0.6090 C.3   1 <1>   0.1200 
 13 O        4.5640     0.5980     0.7130 O.3   1 <1>  -0.5600 
 14 C        4.0560     4.4700    -1.3520 C.2   1 <1>   0.5690 
 15 O        3.6080     4.3990    -2.4700 O.2   1 <1>  -0.5700 
 16 C        4.6300     5.7880    -0.8650 C.3   1 <1>   0.0440 
 17 C        6.1020     5.6600    -0.4770 C.ar  1 <1>  -0.1440 
 18 C        6.4900     5.2210     0.7850 C.ar  1 <1>   0.1900 
 19 C        7.0940     5.9770    -1.3980 C.ar  1 <1>  -0.1500 
 20 F        5.5740     4.9020     1.6620 F     1 <1>  -0.1900 
 21 C        7.8130     5.0940     1.1600 C.ar  1 <1>  -0.1500 
 22 C        8.4320     5.8600    -1.0530 C.ar  1 <1>  -0.1500 
 23 C        8.7650     5.4230     0.2170 C.ar  1 <1>   0.1900 
 24 F       10.0270     5.3160     0.5350 F     1 <1>  -0.1900 
 25 H        2.1990    -0.3830    -0.5690 H     1 <1>   0.0800 
 26 H        1.2790     0.8300    -1.3950 H     1 <1>   0.0800 
 27 H       -0.6010    -3.0650    -0.7930 H     1 <1>   0.0800 
 28 H       -0.3060    -2.6900     0.8950 H     1 <1>   0.0800 
 29 H        0.9430    -2.4150    -0.3000 H     1 <1>   0.0800 
 30 H       -2.5560    -1.7320    -0.7350 H     1 <1>   0.0800 
 31 H       -2.4650    -0.0220    -0.4090 H     1 <1>   0.0800 
 32 H       -2.3050    -1.1650     0.9080 H     1 <1>   0.0800 
 33 H        1.9210     2.4520     0.4550 H     1 <1>   0.0800 
 34 H        3.2360     2.0200    -1.8750 H     1 <1>   0.0800 
 35 H        2.9380     0.3230     1.8810 H     1 <1>   0.0800 
 36 H        3.6880     1.9070     1.9510 H     1 <1>   0.0800 
 37 H        4.5130     3.4870     0.4020 H     1 <1>   0.3700 
 38 H        5.6790     1.4540    -0.7520 H     1 <1>   0.0800 
 39 H        4.5780     0.1740    -1.2450 H     1 <1>   0.0800 
 40 H        4.5220     6.5190    -1.6460 H     1 <1>   0.0800 
 41 H        4.0490     6.1280    -0.0280 H     1 <1>   0.0800 
 42 H        6.8300     6.3130    -2.3880 H     1 <1>   0.1500 
 43 H        8.0910     4.7530     2.1400 H     1 <1>   0.1500 
 44 H        9.2090     6.1030    -1.7570 H     1 <1>   0.1500 
@<TRIPOS>BOND
  1   1   2  2   
  2   1   3  2   
  3   1   4  am  
  4   1   5  1   
  5   4   6  1   
  6   4   7  1   
  7   5   8  1   
  8   5  25  1   
  9   5  26  1   
 10   6  27  1   
 11   6  28  1   
 12   6  29  1   
 13   7  30  1   
 14   7  31  1   
 15   7  32  1   
 16   8   9  1   
 17   8  10  1   
 18   8  33  1   
 19   9  11  1   
 20   9  12  1   
 21   9  34  1   
 22  10  13  1   
 23  10  35  1   
 24  10  36  1   
 25  11  14  am  
 26  11  37  1   
 27  12  13  1   
 28  12  38  1   
 29  12  39  1   
 30  14  15  2   
 31  14  16  1   
 32  16  17  1   
 33  16  40  1   
 34  16  41  1   
 35  17  18  ar  
 36  17  19  ar  
 37  18  20  1   
 38  18  21  ar  
 39  19  22  ar  
 40  19  42  1   
 41  21  23  ar  
 42  21  43  1   
 43  22  23  ar  
 44  22  44  1   
 45  23  24  1   
@<TRIPOS>SUBSTRUCTURE
  1 ****  11 GROUP 4 **** **** 0

# MOE 2024.06 (io_trps.svl 2023.06)
