@<TRIPOS>MOLECULE
NONAME
54 56 1 0 0 
SMALL
USER_CHARGES


@<TRIPOS>ATOM
  1 O        0.7320    -1.7100    -1.8550 O.3   1 <1>  -0.6800 
  2 C        0.2010    -2.0630    -0.6220 C.3   1 <1>   0.1200 
  3 C        1.2530    -1.9310     0.5180 C.3   1 <1>   0.0000 
  4 C        2.6210    -2.5970     0.1920 C.3   1 <1>   0.4230 
  5 C        1.4870    -0.4280     0.8300 C.3   1 <1>  -0.1600 
  6 C        0.6710    -2.6050     1.7940 C.3   1 <1>  -0.1600 
  7 N        2.5130    -4.0960    -0.0960 N.4   1 <1>  -0.9590 
  8 C        3.4560    -1.7700    -0.8410 C.3   1 <1>   0.3430 
  9 C        2.2410     0.3290    -0.2670 C.3   1 <1>   0.3430 
 10 C        1.1540    -4.0550     2.0080 C.3   1 <1>  -0.1600 
 11 C        1.4370    -4.7900     0.6970 C.3   1 <1>   0.3430 
 12 C        2.3490    -4.4600    -1.5450 C.3   1 <1>   0.2630 
 13 N        3.5820    -0.3030    -0.4950 N.4   1 <1>  -0.9590 
 14 C        4.3410     0.4420    -1.5510 C.3   1 <1>   0.4860 
 15 C        4.6300     1.8390    -1.0540 C.ar  1 <1>  -0.1440 
 16 C        3.9050     2.9250    -1.4940 C.ar  1 <1>   0.1600 
 17 C        5.6210     2.0860    -0.1300 C.ar  1 <1>   0.1600 
 18 N        4.1050     4.1290    -1.0270 N.ar  1 <1>  -0.6200 
 19 N        5.8390     3.2800     0.3510 N.ar  1 <1>  -0.6200 
 20 C        5.0590     4.2490    -0.1160 C.ar  1 <1>   0.7200 
 21 N        5.2250     5.4970     0.3640 N.pl3 1 <1>  -0.8690 
 22 C        6.4310     5.9650     1.0660 C.3   1 <1>   0.2090 
 23 C        6.2180     7.4180     1.4680 C.3   1 <1>  -0.2400 
 24 H        0.0120    -1.6550    -2.5280 H     1 <1>   0.4000 
 25 H       -0.6440    -1.4210    -0.4280 H     1 <1>   0.0800 
 26 H       -0.1680    -3.0700    -0.7050 H     1 <1>   0.0800 
 27 H        3.1800    -2.5230     1.1100 H     1 <1>   0.0800 
 28 H        2.0390    -0.3130     1.7470 H     1 <1>   0.0800 
 29 H        0.5380     0.0590     0.9830 H     1 <1>   0.0800 
 30 H        0.9350    -2.0510     2.6800 H     1 <1>   0.0800 
 31 H       -0.4060    -2.5940     1.7530 H     1 <1>   0.0800 
 32 H        3.3940    -4.5280     0.2220 H     1 <1>   0.4500 
 33 H        2.9890    -1.8550    -1.8070 H     1 <1>   0.0800 
 34 H        4.4410    -2.2010    -0.9090 H     1 <1>   0.0800 
 35 H        2.3630     1.3580     0.0380 H     1 <1>   0.0800 
 36 H        1.6660     0.3200    -1.1790 H     1 <1>   0.0800 
 37 H        0.4020    -4.5970     2.5580 H     1 <1>   0.0800 
 38 H        2.0440    -4.0650     2.6130 H     1 <1>   0.0800 
 39 H        0.5250    -4.8270     0.1230 H     1 <1>   0.0800 
 40 H        1.7320    -5.8070     0.9050 H     1 <1>   0.0800 
 41 H        1.4420    -4.0340    -1.9430 H     1 <1>   0.0800 
 42 H        2.2960    -5.5310    -1.6570 H     1 <1>   0.0800 
 43 H        3.1820    -4.1030    -2.1280 H     1 <1>   0.0800 
 44 H        4.1140    -0.1860     0.3800 H     1 <1>   0.4500 
 45 H        5.2740    -0.0560    -1.7620 H     1 <1>   0.0800 
 46 H        3.7670     0.4870    -2.4630 H     1 <1>   0.0800 
 47 H        3.1350     2.8150    -2.2400 H     1 <1>   0.1500 
 48 H        6.2530     1.2940     0.2360 H     1 <1>   0.1500 
 49 H        4.7090     6.2010    -0.1600 H     1 <1>   0.4000 
 50 H        6.5970     5.3580     1.9410 H     1 <1>   0.0800 
 51 H        7.2850     5.8760     0.4150 H     1 <1>   0.0800 
 52 H        5.3630     7.5010     2.1150 H     1 <1>   0.0800 
 53 H        6.0750     8.0310     0.5970 H     1 <1>   0.0800 
 54 H        7.0820     7.7750     1.9980 H     1 <1>   0.0800 
@<TRIPOS>BOND
  1   1   2  1   
  2   1  24  1   
  3   2   3  1   
  4   2  25  1   
  5   2  26  1   
  6   3   4  1   
  7   3   5  1   
  8   3   6  1   
  9   4   7  1   
 10   4   8  1   
 11   4  27  1   
 12   5   9  1   
 13   5  28  1   
 14   5  29  1   
 15   6  10  1   
 16   6  30  1   
 17   6  31  1   
 18   7  11  1   
 19   7  12  1   
 20   7  32  1   
 21   8  13  1   
 22   8  33  1   
 23   8  34  1   
 24   9  13  1   
 25   9  35  1   
 26   9  36  1   
 27  10  11  1   
 28  10  37  1   
 29  10  38  1   
 30  11  39  1   
 31  11  40  1   
 32  12  41  1   
 33  12  42  1   
 34  12  43  1   
 35  13  14  1   
 36  13  44  1   
 37  14  15  1   
 38  14  45  1   
 39  14  46  1   
 40  15  16  ar  
 41  15  17  ar  
 42  16  18  ar  
 43  16  47  1   
 44  17  19  ar  
 45  17  48  1   
 46  18  20  ar  
 47  19  20  ar  
 48  20  21  1   
 49  21  22  1   
 50  21  49  1   
 51  22  23  1   
 52  22  50  1   
 53  22  51  1   
 54  23  52  1   
 55  23  53  1   
 56  23  54  1   
@<TRIPOS>SUBSTRUCTURE
  1 ****  13 GROUP 4 **** **** 0

# MOE 2024.06 (io_trps.svl 2023.06)
