@<TRIPOS>MOLECULE
NONAME
30 31 1 0 0 
SMALL
USER_CHARGES


@<TRIPOS>ATOM
  1 O       -1.2700     0.2220     1.9970 O.2   1 <1>  -0.5700 
  2 C       -2.0190     0.8740     1.2870 C.2   1 <1>   0.6160 
  3 N       -3.1010     0.2490     0.7340 N.am  1 <1>  -0.4940 
  4 C       -1.8180     2.2590     1.0060 C.2   1 <1>  -0.1360 
  5 C       -3.9840     0.9510    -0.0840 C.2   1 <1>  -0.0880 
  6 C       -2.6700     2.9620     0.2090 C.2   1 <1>  -0.0920 
  7 N       -5.1090     0.5650    -0.7380 N.pl3 1 <1>   0.3140 
  8 C       -3.7870     2.2760    -0.3500 C.2   1 <1>  -0.0460 
  9 C       -2.4810     4.4350    -0.1070 C.3   1 <1>  -0.1020 
 10 N       -5.6460     1.6100    -1.4230 N.2   1 <1>  -0.7070 
 11 C       -5.7540    -0.7770    -0.7690 C.3   1 <1>   0.1760 
 12 C       -4.8590     2.6100    -1.1860 C.2   1 <1>   0.1390 
 13 C       -6.2420    -1.1700     0.6410 C.3   1 <1>  -0.1600 
 14 C       -4.8100    -1.8190    -1.3930 C.3   1 <1>  -0.2400 
 15 C       -7.1110    -2.4360     0.6540 C.3   1 <1>  -0.2400 
 16 H       -3.2040    -0.7390     0.9580 H     1 <1>   0.3700 
 17 H       -0.9560     2.7050     1.4630 H     1 <1>   0.1500 
 18 H       -3.3340     4.9950     0.2330 H     1 <1>   0.0800 
 19 H       -2.3740     4.5710    -1.1680 H     1 <1>   0.0800 
 20 H       -1.6020     4.8200     0.3790 H     1 <1>   0.0800 
 21 H       -6.6160    -0.6850    -1.4070 H     1 <1>   0.0800 
 22 H       -5.0140     3.5950    -1.5910 H     1 <1>   0.1500 
 23 H       -6.8290    -0.3570     1.0350 H     1 <1>   0.0800 
 24 H       -5.4010    -1.3180     1.2950 H     1 <1>   0.0800 
 25 H       -3.9720    -2.0170    -0.7510 H     1 <1>   0.0800 
 26 H       -4.4500    -1.4610    -2.3420 H     1 <1>   0.0800 
 27 H       -5.3330    -2.7410    -1.5660 H     1 <1>   0.0800 
 28 H       -7.9460    -2.3270    -0.0150 H     1 <1>   0.0800 
 29 H       -7.4930    -2.6050     1.6460 H     1 <1>   0.0800 
 30 H       -6.5410    -3.3010     0.3640 H     1 <1>   0.0800 
@<TRIPOS>BOND
  1   1   2  2   
  2   2   3  am  
  3   2   4  1   
  4   3   5  1   
  5   3  16  1   
  6   4   6  2   
  7   4  17  1   
  8   5   7  1   
  9   5   8  2   
 10   6   8  1   
 11   6   9  1   
 12   7  10  1   
 13   7  11  1   
 14   8  12  1   
 15   9  18  1   
 16   9  19  1   
 17   9  20  1   
 18  10  12  2   
 19  11  13  1   
 20  11  14  1   
 21  11  21  1   
 22  12  22  1   
 23  13  15  1   
 24  13  23  1   
 25  13  24  1   
 26  14  25  1   
 27  14  26  1   
 28  14  27  1   
 29  15  28  1   
 30  15  29  1   
 31  15  30  1   
@<TRIPOS>SUBSTRUCTURE
  1 ****   5 GROUP 4 **** **** 0

# MOE 2024.06 (io_trps.svl 2023.06)
