@<TRIPOS>MOLECULE
NONAME
56 59 1 0 0 
SMALL
USER_CHARGES


@<TRIPOS>ATOM
  1 O        0.7090    -0.5120    -0.3490 O.co2 1 <1>  -0.9000 
  2 C        0.4140    -1.2260     0.6280 C.2   1 <1>   0.9790 
  3 O       -0.0430    -0.6740     1.6480 O.co2 1 <1>  -0.9000 
  4 C        0.6330    -2.6470     0.5990 C.ar  1 <1>  -0.1790 
  5 C       -0.3010    -3.5310     0.0380 C.ar  1 <1>   0.4100 
  6 C        1.7950    -3.1810     1.1290 C.ar  1 <1>  -0.1500 
  7 N       -0.1250    -4.8450    -0.0330 N.ar  1 <1>  -0.6200 
  8 N       -1.4950    -3.1020    -0.5010 N.pl3 1 <1>  -0.8380 
  9 C        1.9670    -4.5420     1.0640 C.ar  1 <1>  -0.1500 
 10 C        0.9920    -5.3460     0.4830 C.ar  1 <1>   0.3100 
 11 C       -2.4330    -2.3780     0.4010 C.3   1 <1>   0.2090 
 12 C       -1.4340    -2.5190    -1.8560 C.3   1 <1>   0.2090 
 13 C        1.1870    -6.7820     0.4200 C.ar  1 <1>   0.0000 
 14 C       -3.8790    -2.4040    -0.1330 C.3   1 <1>   0.0000 
 15 C       -2.8290    -2.5820    -2.4840 C.3   1 <1>  -0.1600 
 16 C        1.6680    -7.5080     1.5110 C.ar  1 <1>  -0.1500 
 17 C        0.9000    -7.4950    -0.7450 C.ar  1 <1>  -0.1500 
 18 C       -4.8320    -1.5380     0.7210 C.3   1 <1>   0.2000 
 19 C       -3.8860    -1.8910    -1.6010 C.3   1 <1>  -0.1600 
 20 C       -4.5100    -3.8040    -0.0310 C.3   1 <1>  -0.1600 
 21 C        1.8710    -8.8740     1.4340 C.ar  1 <1>  -0.1500 
 22 C        1.0990    -8.8610    -0.8310 C.ar  1 <1>  -0.1500 
 23 O       -4.6010    -1.7160     2.0920 O.3   1 <1>  -0.5600 
 24 C       -6.2240    -2.1070     0.4370 C.3   1 <1>  -0.1600 
 25 C       -6.0240    -3.5880     0.0830 C.3   1 <1>  -0.1600 
 26 C        1.5930    -9.5620     0.2650 C.ar  1 <1>   0.0830 
 27 C       -3.9050    -0.6830     2.7250 C.3   1 <1>   0.0400 
 28 O        1.8220   -10.8970     0.2680 O.3   1 <1>  -0.3630 
 29 C        1.5420   -11.6930    -0.8620 C.3   1 <1>   0.0400 
 30 H        2.5300    -2.5310     1.5710 H     1 <1>   0.1500 
 31 H        2.8610    -4.9850     1.4570 H     1 <1>   0.1500 
 32 H       -2.3840    -2.8080     1.3870 H     1 <1>   0.0800 
 33 H       -2.1250    -1.3510     0.4660 H     1 <1>   0.0800 
 34 H       -1.1010    -1.4960    -1.7930 H     1 <1>   0.0800 
 35 H       -0.7280    -3.0710    -2.4520 H     1 <1>   0.0800 
 36 H       -2.7970    -2.1070    -3.4470 H     1 <1>   0.0800 
 37 H       -3.0850    -3.6140    -2.6370 H     1 <1>   0.0800 
 38 H        1.8770    -6.9950     2.4320 H     1 <1>   0.1500 
 39 H        0.5110    -6.9540    -1.5910 H     1 <1>   0.1500 
 40 H       -4.7730    -0.4900     0.4790 H     1 <1>   0.0800 
 41 H       -4.8560    -2.0210    -2.0450 H     1 <1>   0.0800 
 42 H       -3.6680    -0.8360    -1.5940 H     1 <1>   0.0800 
 43 H       -4.2450    -4.4440    -0.8530 H     1 <1>   0.0800 
 44 H       -4.1620    -4.2730     0.8740 H     1 <1>   0.0800 
 45 H        2.2440    -9.4190     2.2820 H     1 <1>   0.1500 
 46 H        0.8630    -9.3580    -1.7520 H     1 <1>   0.1500 
 47 H       -6.8810    -1.9760     1.2780 H     1 <1>   0.0800 
 48 H       -6.6430    -1.5960    -0.4110 H     1 <1>   0.0800 
 49 H       -6.4280    -4.2220     0.8530 H     1 <1>   0.0800 
 50 H       -6.5080    -3.8150    -0.8510 H     1 <1>   0.0800 
 51 H       -3.7810    -0.9500     3.7590 H     1 <1>   0.0800 
 52 H       -4.4750     0.2260     2.6510 H     1 <1>   0.0800 
 53 H       -2.9350    -0.5540     2.2760 H     1 <1>   0.0800 
 54 H        1.7910   -12.7110    -0.6230 H     1 <1>   0.0800 
 55 H        2.1450   -11.3530    -1.6850 H     1 <1>   0.0800 
 56 H        0.4940   -11.6160    -1.0920 H     1 <1>   0.0800 
@<TRIPOS>BOND
  1   1   2  ar  
  2   2   3  ar  
  3   2   4  1   
  4   4   5  ar  
  5   4   6  ar  
  6   5   7  ar  
  7   5   8  1   
  8   6   9  ar  
  9   6  30  1   
 10   7  10  ar  
 11   8  11  1   
 12   8  12  1   
 13   9  10  ar  
 14   9  31  1   
 15  10  13  1   
 16  11  14  1   
 17  11  32  1   
 18  11  33  1   
 19  12  15  1   
 20  12  34  1   
 21  12  35  1   
 22  13  16  ar  
 23  13  17  ar  
 24  14  18  1   
 25  14  19  1   
 26  14  20  1   
 27  15  19  1   
 28  15  36  1   
 29  15  37  1   
 30  16  21  ar  
 31  16  38  1   
 32  17  22  ar  
 33  17  39  1   
 34  18  23  1   
 35  18  24  1   
 36  18  40  1   
 37  19  41  1   
 38  19  42  1   
 39  20  25  1   
 40  20  43  1   
 41  20  44  1   
 42  21  26  ar  
 43  21  45  1   
 44  22  26  ar  
 45  22  46  1   
 46  23  27  1   
 47  24  25  1   
 48  24  47  1   
 49  24  48  1   
 50  25  49  1   
 51  25  50  1   
 52  26  28  1   
 53  27  51  1   
 54  27  52  1   
 55  27  53  1   
 56  28  29  1   
 57  29  54  1   
 58  29  55  1   
 59  29  56  1   
@<TRIPOS>SUBSTRUCTURE
  1 ****   7 GROUP 4 **** **** 0

# MOE 2024.06 (io_trps.svl 2023.06)
