@<TRIPOS>MOLECULE
Untitled Document
59 63 1 0 0 
SMALL
USER_CHARGES


@<TRIPOS>ATOM
  1 O       -0.9640     1.9380    -2.4880 O.2   1 <1>  -0.5700 
  2 C       -1.6530     1.6870    -1.5190 C.2   1 <1>   0.6900 
  3 N       -1.4610     2.3070    -0.3140 N.am  1 <1>  -0.6600 
  4 N       -2.6380     0.7690    -1.6530 N.am  1 <1>  -0.5470 
  5 C       -2.2140     1.9060     0.9080 C.3   1 <1>   0.2840 
  6 C       -0.3730     3.3040    -0.1240 C.3   1 <1>   0.1400 
  7 C       -3.5230     0.4020    -0.6470 C.ar  1 <1>   0.1170 
  8 C       -3.3610     0.9410     0.6240 C.ar  1 <1>  -0.1430 
  9 C       -0.7570     4.6830    -0.6900 C.3   1 <1>  -0.0800 
 10 C       -4.5630    -0.4850    -0.8930 C.ar  1 <1>  -0.1500 
 11 C       -4.2420     0.5910     1.6350 C.ar  1 <1>  -0.1500 
 12 C        0.4150     5.6650    -0.5140 C.3   1 <1>  -0.1600 
 13 C       -2.0200     5.2680    -0.0310 C.3   1 <1>  -0.1600 
 14 C       -5.4380    -0.8320     0.1190 C.ar  1 <1>  -0.1500 
 15 C       -5.2780    -0.2940     1.3840 C.ar  1 <1>  -0.1500 
 16 C        0.0780     7.0610    -1.0430 C.3   1 <1>   0.2090 
 17 C       -2.3490     6.6640    -0.5650 C.3   1 <1>   0.2090 
 18 N       -1.1720     7.5560    -0.4100 N.pl3 1 <1>  -0.8380 
 19 C       -1.1380     8.5210     0.5730 C.ar  1 <1>   0.4100 
 20 N       -0.2040     8.4120     1.4750 N.ar  1 <1>  -0.6200 
 21 C       -2.0880     9.5740     0.6050 C.ar  1 <1>   0.0000 
 22 C       -0.2260     9.3040     2.4690 C.ar  1 <1>   0.4700 
 23 C       -2.0160    10.4330     1.7080 C.ar  1 <1>   0.3100 
 24 C       -3.0690     9.8240    -0.3770 C.ar  1 <1>  -0.1500 
 25 N       -1.0620    10.2760     2.6480 N.ar  1 <1>  -0.6200 
 26 C       -2.9330    11.4840     1.8270 C.ar  1 <1>  -0.1500 
 27 C       -3.9690    10.8490    -0.2450 C.ar  1 <1>   0.0830 
 28 C       -3.8890    11.7090     0.8710 C.ar  1 <1>   0.0830 
 29 O       -4.9110    10.9990    -1.2070 O.3   1 <1>  -0.3630 
 30 O       -4.7210    12.7620     1.0330 O.3   1 <1>  -0.3620 
 31 C       -6.2470    10.7570    -0.8240 C.3   1 <1>   0.0400 
 32 C       -4.5840    13.8270     0.1180 C.3   1 <1>   0.0400 
 33 H       -2.7140     0.3670    -2.5830 H     1 <1>   0.3700 
 34 H       -2.6110     2.7880     1.3780 H     1 <1>   0.0800 
 35 H       -1.5300     1.4370     1.5940 H     1 <1>   0.0800 
 36 H        0.5100     2.9500    -0.6290 H     1 <1>   0.0800 
 37 H       -0.1380     3.3930     0.9230 H     1 <1>   0.0800 
 38 H       -0.9390     4.5700    -1.7460 H     1 <1>   0.0800 
 39 H       -4.6860    -0.9030    -1.8750 H     1 <1>   0.1500 
 40 H       -4.1280     1.0010     2.6230 H     1 <1>   0.1500 
 41 H        1.2810     5.2970    -1.0360 H     1 <1>   0.0800 
 42 H        0.6690     5.7530     0.5280 H     1 <1>   0.0800 
 43 H       -1.8820     5.3340     1.0340 H     1 <1>   0.0800 
 44 H       -2.8620     4.6270    -0.2210 H     1 <1>   0.0800 
 45 H       -6.2430    -1.5200    -0.0750 H     1 <1>   0.1500 
 46 H       -5.9600    -0.5630     2.1730 H     1 <1>   0.1500 
 47 H       -0.0610     7.0250    -2.1100 H     1 <1>   0.0800 
 48 H        0.8890     7.7380    -0.8340 H     1 <1>   0.0800 
 49 H       -3.1900     7.0620    -0.0230 H     1 <1>   0.0800 
 50 H       -2.6130     6.6050    -1.6070 H     1 <1>   0.0800 
 51 H        0.5490     9.1830     3.2060 H     1 <1>   0.1500 
 52 H       -3.1090     9.1980    -1.2480 H     1 <1>   0.1500 
 53 H       -2.8640    12.1240     2.6860 H     1 <1>   0.1500 
 54 H       -6.8630    10.8090    -1.7030 H     1 <1>   0.0800 
 55 H       -6.5570    11.5030    -0.1150 H     1 <1>   0.0800 
 56 H       -6.3110     9.7760    -0.3860 H     1 <1>   0.0800 
 57 H       -5.2390    14.6220     0.4260 H     1 <1>   0.0800 
 58 H       -4.8550    13.4900    -0.8660 H     1 <1>   0.0800 
 59 H       -3.5630    14.1640     0.1290 H     1 <1>   0.0800 
@<TRIPOS>BOND
  1   1   2  2   
  2   2   3  am  
  3   2   4  am  
  4   3   5  1   
  5   3   6  1   
  6   4   7  1   
  7   4  33  1   
  8   5   8  1   
  9   5  34  1   
 10   5  35  1   
 11   6   9  1   
 12   6  36  1   
 13   6  37  1   
 14   7   8  ar  
 15   7  10  ar  
 16   8  11  ar  
 17   9  12  1   
 18   9  13  1   
 19   9  38  1   
 20  10  14  ar  
 21  10  39  1   
 22  11  15  ar  
 23  11  40  1   
 24  12  16  1   
 25  12  41  1   
 26  12  42  1   
 27  13  17  1   
 28  13  43  1   
 29  13  44  1   
 30  14  15  ar  
 31  14  45  1   
 32  15  46  1   
 33  16  18  1   
 34  16  47  1   
 35  16  48  1   
 36  17  18  1   
 37  17  49  1   
 38  17  50  1   
 39  18  19  1   
 40  19  20  ar  
 41  19  21  ar  
 42  20  22  ar  
 43  21  23  ar  
 44  21  24  ar  
 45  22  25  ar  
 46  22  51  1   
 47  23  25  ar  
 48  23  26  ar  
 49  24  27  ar  
 50  24  52  1   
 51  26  28  ar  
 52  26  53  1   
 53  27  28  ar  
 54  27  29  1   
 55  28  30  1   
 56  29  31  1   
 57  30  32  1   
 58  31  54  1   
 59  31  55  1   
 60  31  56  1   
 61  32  57  1   
 62  32  58  1   
 63  32  59  1   
@<TRIPOS>SUBSTRUCTURE
  1 ****  17 GROUP 4 **** **** 0

# MOE 2024.06 (io_trps.svl 2023.06)
