@<TRIPOS>MOLECULE
NONAME
48 50 1 0 0 
SMALL
USER_CHARGES


@<TRIPOS>ATOM
  1 O       -0.5160     1.9130     3.1650 O.2   1 <1>  -0.5700 
  2 C       -1.1480     2.6360     2.4490 C.2   1 <1>   0.6590 
  3 O       -1.8240     2.2250     1.3970 O.3   1 <1>  -0.4300 
  4 C       -1.2540     4.1220     2.6260 C.3   1 <1>  -0.0990 
  5 C       -2.4260     3.2720     0.6720 C.3   1 <1>   0.2800 
  6 C       -2.3930     4.4590     1.6590 C.3   1 <1>  -0.0190 
  7 C       -1.5820     3.4700    -0.6090 C.3   1 <1>  -0.1600 
  8 C       -3.8620     2.8480     0.3090 C.3   1 <1>  -0.1600 
  9 C       -2.3560     5.8350     1.0090 C.2   1 <1>   0.5690 
 10 C       -1.6200     2.2440    -1.5350 C.3   1 <1>  -0.1600 
 11 C       -3.9030     1.6310    -0.6310 C.3   1 <1>  -0.1600 
 12 O       -3.4130     6.3910     0.8420 O.2   1 <1>  -0.5700 
 13 N       -1.1550     6.3790     0.6330 N.am  1 <1>  -0.4940 
 14 C       -3.0640     1.8700    -1.8920 C.3   1 <1>  -0.1600 
 15 C       -0.8960     7.6260     0.0100 C.2   1 <1>  -0.0880 
 16 N        0.3080     8.0160    -0.4910 N.pl3 1 <1>   0.3140 
 17 C       -1.7430     8.6560    -0.2200 C.2   1 <1>  -0.1500 
 18 N        0.2490     9.2560    -1.0220 N.2   1 <1>  -0.7070 
 19 C        1.5660     7.2430    -0.5100 C.3   1 <1>   0.0960 
 20 C       -0.9800     9.6260    -0.8550 C.2   1 <1>   0.1080 
 21 C        1.5440     6.1850    -1.6230 C.3   1 <1>  -0.1600 
 22 C       -1.4890    10.9720    -1.3150 C.3   1 <1>  -0.0590 
 23 C        2.8010     5.3090    -1.5870 C.3   1 <1>  -0.2400 
 24 H       -0.3140     4.5610     2.3540 H     1 <1>   0.0800 
 25 H       -1.5000     4.3700     3.6430 H     1 <1>   0.0800 
 26 H       -3.3020     4.4230     2.2340 H     1 <1>   0.0800 
 27 H       -0.5620     3.6850    -0.3510 H     1 <1>   0.0800 
 28 H       -1.9690     4.3070    -1.1640 H     1 <1>   0.0800 
 29 H       -4.3530     3.6750    -0.1760 H     1 <1>   0.0800 
 30 H       -4.4150     2.6240     1.2040 H     1 <1>   0.0800 
 31 H       -1.1470     1.4070    -1.0480 H     1 <1>   0.0800 
 32 H       -1.0700     2.4530    -2.4360 H     1 <1>   0.0800 
 33 H       -4.9220     1.4240    -0.9090 H     1 <1>   0.0800 
 34 H       -3.5230     0.7670    -0.1110 H     1 <1>   0.0800 
 35 H       -0.3380     5.7930     0.7890 H     1 <1>   0.3700 
 36 H       -3.0660     0.9800    -2.4980 H     1 <1>   0.0800 
 37 H       -3.5070     2.6630    -2.4710 H     1 <1>   0.0800 
 38 H       -2.7870     8.7290     0.0280 H     1 <1>   0.1500 
 39 H        1.7000     6.7840     0.4510 H     1 <1>   0.0800 
 40 H        2.3780     7.9300    -0.6740 H     1 <1>   0.0800 
 41 H        1.4880     6.6830    -2.5770 H     1 <1>   0.0800 
 42 H        0.6760     5.5590    -1.5210 H     1 <1>   0.0800 
 43 H       -2.5340    11.0750    -1.0910 H     1 <1>   0.0800 
 44 H       -1.3430    11.0660    -2.3750 H     1 <1>   0.0800 
 45 H       -0.9420    11.7510    -0.8170 H     1 <1>   0.0800 
 46 H        3.6840     5.9110    -1.7160 H     1 <1>   0.0800 
 47 H        2.7670     4.5850    -2.3830 H     1 <1>   0.0800 
 48 H        2.8740     4.7820    -0.6510 H     1 <1>   0.0800 
@<TRIPOS>BOND
  1   1   2  2   
  2   2   3  1   
  3   2   4  1   
  4   3   5  1   
  5   4   6  1   
  6   4  24  1   
  7   4  25  1   
  8   5   6  1   
  9   5   7  1   
 10   5   8  1   
 11   6   9  1   
 12   6  26  1   
 13   7  10  1   
 14   7  27  1   
 15   7  28  1   
 16   8  11  1   
 17   8  29  1   
 18   8  30  1   
 19   9  12  2   
 20   9  13  am  
 21  10  14  1   
 22  10  31  1   
 23  10  32  1   
 24  11  14  1   
 25  11  33  1   
 26  11  34  1   
 27  13  15  1   
 28  13  35  1   
 29  14  36  1   
 30  14  37  1   
 31  15  16  1   
 32  15  17  2   
 33  16  18  1   
 34  16  19  1   
 35  17  20  1   
 36  17  38  1   
 37  18  20  2   
 38  19  21  1   
 39  19  39  1   
 40  19  40  1   
 41  20  22  1   
 42  21  23  1   
 43  21  41  1   
 44  21  42  1   
 45  22  43  1   
 46  22  44  1   
 47  22  45  1   
 48  23  46  1   
 49  23  47  1   
 50  23  48  1   
@<TRIPOS>SUBSTRUCTURE
  1 ****  13 GROUP 4 **** **** 0

# MOE 2024.06 (io_trps.svl 2023.06)
