@<TRIPOS>MOLECULE
NONAME
35 37 1 0 0 
SMALL
USER_CHARGES


@<TRIPOS>ATOM
  1 CL       1.1670    -2.0990     3.7250 Cl    1 <1>  -0.1770 
  2 C        1.7120    -1.8200     2.0800 C.ar  1 <1>   0.1770 
  3 C        1.2120    -2.5690     1.0230 C.ar  1 <1>   0.4100 
  4 C        2.6440    -0.8570     1.8100 C.ar  1 <1>   0.1600 
  5 N        1.6300    -2.3480    -0.2110 N.ar  1 <1>  -0.6200 
  6 N        0.2680    -3.5470     1.2070 N.pl3 1 <1>  -0.8690 
  7 N        3.0720    -0.6310     0.5780 N.ar  1 <1>  -0.6200 
  8 C        2.5360    -1.3960    -0.3580 C.ar  1 <1>   0.4770 
  9 C        0.1570    -4.7490     0.3550 C.3   1 <1>   0.5640 
 10 C        3.0170    -1.1450    -1.7670 C.3   1 <1>  -0.0960 
 11 C       -1.3150    -4.9910    -0.0040 C.2   1 <1>   0.0060 
 12 C        0.8000    -5.9080     1.1340 C.3   1 <1>  -0.1950 
 13 N       -2.0230    -6.0250     0.3500 N.2   1 <1>  -0.5650 
 14 N       -2.0120    -4.1010    -0.7560 N.pl3 1 <1>   0.0480 
 15 C        2.2870    -6.0400     1.2690 C.3   1 <1>  -0.2000 
 16 C        1.5180    -7.0170     0.4260 C.3   1 <1>  -0.2000 
 17 C       -3.2300    -5.7970    -0.1940 C.2   1 <1>   0.0770 
 18 C       -3.2420    -4.6300    -0.8710 C.2   1 <1>  -0.3020 
 19 C       -1.5620    -2.8150    -1.3230 C.3   1 <1>   0.0160 
 20 H        3.0490    -0.2610     2.6080 H     1 <1>   0.1500 
 21 H       -0.0260    -3.7500     2.1650 H     1 <1>   0.4000 
 22 H        0.7050    -4.6090    -0.5590 H     1 <1>   0.0800 
 23 H        2.8200    -1.9980    -2.3900 H     1 <1>   0.0800 
 24 H        4.0750    -0.9560    -1.7630 H     1 <1>   0.0800 
 25 H        2.5090    -0.2890    -2.1690 H     1 <1>   0.0800 
 26 H        0.1940    -6.2020     1.9720 H     1 <1>   0.1000 
 27 H        2.6900    -6.3690     2.2110 H     1 <1>   0.1000 
 28 H        2.9190    -5.3180     0.7800 H     1 <1>   0.1000 
 29 H        1.6200    -6.9750    -0.6440 H     1 <1>   0.1000 
 30 H        1.3740    -8.0220     0.7850 H     1 <1>   0.1000 
 31 H       -4.0400    -6.4960    -0.0670 H     1 <1>   0.1500 
 32 H       -4.0430    -4.1610    -1.4130 H     1 <1>   0.1500 
 33 H       -0.6430    -2.9600    -1.8590 H     1 <1>   0.0800 
 34 H       -1.4020    -2.1130    -0.5250 H     1 <1>   0.0800 
 35 H       -2.3110    -2.4330    -1.9920 H     1 <1>   0.0800 
@<TRIPOS>BOND
  1   1   2  1   
  2   2   3  ar  
  3   2   4  ar  
  4   3   5  ar  
  5   3   6  1   
  6   4   7  ar  
  7   4  20  1   
  8   5   8  ar  
  9   6   9  1   
 10   6  21  1   
 11   7   8  ar  
 12   8  10  1   
 13   9  11  1   
 14   9  12  1   
 15   9  22  1   
 16  10  23  1   
 17  10  24  1   
 18  10  25  1   
 19  11  13  2   
 20  11  14  1   
 21  12  15  1   
 22  12  16  1   
 23  12  26  1   
 24  13  17  1   
 25  14  18  1   
 26  14  19  1   
 27  15  16  1   
 28  15  27  1   
 29  15  28  1   
 30  16  29  1   
 31  16  30  1   
 32  17  18  2   
 33  17  31  1   
 34  18  32  1   
 35  19  33  1   
 36  19  34  1   
 37  19  35  1   
@<TRIPOS>SUBSTRUCTURE
  1 ****   6 GROUP 4 **** **** 0

# MOE 2024.06 (io_trps.svl 2023.06)
