@<TRIPOS>MOLECULE
NONAME
50 53 1 0 0 
SMALL
USER_CHARGES


@<TRIPOS>ATOM
  1 O        0.6800    -0.8700     1.3040 O.2   1 <1>  -0.5700 
  2 C        1.5030    -1.0850     0.4660 C.2   1 <1>   0.4480 
  3 C        1.4150    -2.3410    -0.3960 C.3   1 <1>  -0.0190 
  4 C        2.6590    -0.1300     0.2030 C.3   1 <1>  -0.0990 
  5 C        0.0510    -3.0270    -0.1590 C.3   1 <1>   0.3430 
  6 C        2.5850    -3.3150    -0.1430 C.3   1 <1>  -0.1600 
  7 C        2.5120     1.2150     0.9290 C.3   1 <1>  -0.0170 
  8 N        0.1070    -4.5150    -0.3340 N.4   1 <1>  -0.9590 
  9 C        2.4670    -4.5750    -1.0270 C.3   1 <1>  -0.1600 
 10 C        3.6920     2.1120     0.5940 C.ar  1 <1>  -0.1440 
 11 C        1.0310    -4.9570    -1.4090 C.3   1 <1>   0.3430 
 12 C       -1.2520    -5.1390    -0.4630 C.3   1 <1>   0.5240 
 13 C        3.6230     2.9910    -0.4770 C.ar  1 <1>  -0.1500 
 14 C        4.8500     2.0550     1.3530 C.ar  1 <1>  -0.1500 
 15 C       -1.1940    -6.6200    -0.0720 C.2   1 <1>   0.3350 
 16 C        4.7020     3.8000    -0.7880 C.ar  1 <1>  -0.1500 
 17 C        5.9300     2.8630     1.0430 C.ar  1 <1>  -0.1500 
 18 N       -0.3140    -7.0880     0.7670 N.2   1 <1>  -0.7070 
 19 N       -2.0510    -7.4860    -0.6040 N.2   1 <1>  -0.5650 
 20 C        5.8570     3.7350    -0.0280 C.ar  1 <1>  -0.1500 
 21 N       -0.6390    -8.3800     0.8060 N.pl3 1 <1>   0.6010 
 22 C       -1.6890    -8.5950    -0.0380 C.2   1 <1>   0.3120 
 23 C       -0.0940    -9.4290     1.5150 C.2   1 <1>  -0.1810 
 24 N       -2.2550    -9.8280    -0.2380 N.2   1 <1>  -0.5760 
 25 C       -0.6460   -10.6580     1.3300 C.2   1 <1>  -0.1360 
 26 C       -1.7400   -10.8090     0.4300 C.2   1 <1>   0.3760 
 27 H        1.4480    -2.0260    -1.4230 H     1 <1>   0.0800 
 28 H        2.7290     0.0560    -0.8530 H     1 <1>   0.0800 
 29 H        3.5750    -0.5920     0.5220 H     1 <1>   0.0800 
 30 H       -0.6700    -2.5990    -0.8370 H     1 <1>   0.0800 
 31 H       -0.2850    -2.8180     0.8440 H     1 <1>   0.0800 
 32 H        2.5760    -3.6070     0.8950 H     1 <1>   0.0800 
 33 H        3.5310    -2.8380    -0.3350 H     1 <1>   0.0800 
 34 H        2.4690     1.0570     1.9930 H     1 <1>   0.0800 
 35 H        1.5950     1.6950     0.6350 H     1 <1>   0.0800 
 36 H        0.4790    -4.9370     0.5350 H     1 <1>   0.4500 
 37 H        2.9290    -5.4050    -0.5200 H     1 <1>   0.0800 
 38 H        3.0210    -4.4270    -1.9390 H     1 <1>   0.0800 
 39 H        0.7610    -4.4750    -2.3350 H     1 <1>   0.0800 
 40 H        0.9670    -6.0250    -1.5500 H     1 <1>   0.0800 
 41 H       -1.6150    -5.0500    -1.4720 H     1 <1>   0.0800 
 42 H       -1.9480    -4.6490     0.1960 H     1 <1>   0.0800 
 43 H        2.7300     3.0520    -1.0730 H     1 <1>   0.1500 
 44 H        4.9180     1.3820     2.1890 H     1 <1>   0.1500 
 45 H        4.6440     4.4800    -1.6190 H     1 <1>   0.1500 
 46 H        6.8270     2.8130     1.6360 H     1 <1>   0.1500 
 47 H        6.6960     4.3640    -0.2700 H     1 <1>   0.1500 
 48 H        0.7290    -9.2060     2.1680 H     1 <1>   0.1500 
 49 H       -0.2880   -11.5350     1.8410 H     1 <1>   0.1500 
 50 H       -2.1520   -11.7960     0.3070 H     1 <1>   0.0600 
@<TRIPOS>BOND
  1   1   2  2   
  2   2   3  1   
  3   2   4  1   
  4   3   5  1   
  5   3   6  1   
  6   3  27  1   
  7   4   7  1   
  8   4  28  1   
  9   4  29  1   
 10   5   8  1   
 11   5  30  1   
 12   5  31  1   
 13   6   9  1   
 14   6  32  1   
 15   6  33  1   
 16   7  10  1   
 17   7  34  1   
 18   7  35  1   
 19   8  11  1   
 20   8  12  1   
 21   8  36  1   
 22   9  11  1   
 23   9  37  1   
 24   9  38  1   
 25  10  13  ar  
 26  10  14  ar  
 27  11  39  1   
 28  11  40  1   
 29  12  15  1   
 30  12  41  1   
 31  12  42  1   
 32  13  16  ar  
 33  13  43  1   
 34  14  17  ar  
 35  14  44  1   
 36  15  18  2   
 37  15  19  1   
 38  16  20  ar  
 39  16  45  1   
 40  17  20  ar  
 41  17  46  1   
 42  18  21  1   
 43  19  22  2   
 44  20  47  1   
 45  21  22  1   
 46  21  23  1   
 47  22  24  1   
 48  23  25  2   
 49  23  48  1   
 50  24  26  2   
 51  25  26  1   
 52  25  49  1   
 53  26  50  1   
@<TRIPOS>SUBSTRUCTURE
  1 ****   3 GROUP 4 **** **** 0

# MOE 2024.06 (io_trps.svl 2023.06)
