@<TRIPOS>MOLECULE
NONAME
44 45 1 0 0 
SMALL
USER_CHARGES


@<TRIPOS>ATOM
  1 CL      -4.0200    -2.9440    -4.4950 Cl    1 <1>  -0.1770 
  2 C       -4.2850    -3.0500    -2.7760 C.ar  1 <1>   0.1770 
  3 C       -3.9320    -4.2050    -2.1060 C.ar  1 <1>  -0.1500 
  4 C       -4.8520    -1.9800    -2.1100 C.ar  1 <1>  -0.1500 
  5 C       -4.1650    -4.2950    -0.7440 C.ar  1 <1>  -0.1500 
  6 C       -5.0820    -2.0740    -0.7470 C.ar  1 <1>  -0.1500 
  7 C       -4.7520    -3.2370    -0.0610 C.ar  1 <1>  -0.1430 
  8 C       -5.0180    -3.3620     1.4350 C.3   1 <1>   0.0440 
  9 C       -5.9180    -4.5460     1.7750 C.2   1 <1>   0.5690 
 10 O       -5.3780    -5.5860     2.0730 O.2   1 <1>  -0.5700 
 11 N       -7.2910    -4.4610     1.7490 N.am  1 <1>  -0.6600 
 12 C       -8.0760    -5.4080     2.5960 C.3   1 <1>   0.3200 
 13 C       -8.0730    -3.4000     1.0230 C.3   1 <1>   0.1400 
 14 C       -8.3830    -6.6290     1.7620 C.2   1 <1>  -0.3320 
 15 C       -9.0730    -3.9570    -0.0210 C.3   1 <1>   0.3430 
 16 N       -7.4150    -7.4520     1.3160 N.pl3 1 <1>   0.0330 
 17 C       -9.5530    -7.1310     1.3130 C.2   1 <1>   0.0770 
 18 N       -8.5060    -5.0610    -0.8610 N.4   1 <1>  -0.9590 
 19 C       -8.0580    -8.3780     0.5760 C.2   1 <1>   0.0360 
 20 N       -9.3400    -8.2030     0.5300 N.2   1 <1>  -0.5650 
 21 C       -7.4090    -4.6180    -1.7700 C.3   1 <1>   0.2630 
 22 C       -9.5670    -5.7810    -1.6310 C.3   1 <1>   0.2630 
 23 H       -3.4750    -5.0170    -2.6440 H     1 <1>   0.1500 
 24 H       -5.1000    -1.0850    -2.6540 H     1 <1>   0.1500 
 25 H       -3.8810    -5.1920    -0.2160 H     1 <1>   0.1500 
 26 H       -5.5080    -1.2310    -0.2300 H     1 <1>   0.1500 
 27 H       -5.4530    -2.4620     1.8260 H     1 <1>   0.0800 
 28 H       -4.0770    -3.4990     1.9380 H     1 <1>   0.0800 
 29 H       -8.9840    -4.9410     2.9380 H     1 <1>   0.0800 
 30 H       -7.5020    -5.6930     3.4640 H     1 <1>   0.0800 
 31 H       -7.4050    -2.7310     0.5160 H     1 <1>   0.0800 
 32 H       -8.6150    -2.8100     1.7430 H     1 <1>   0.0800 
 33 H       -9.4140    -3.1540    -0.6530 H     1 <1>   0.0800 
 34 H       -9.9300    -4.3340     0.5120 H     1 <1>   0.0800 
 35 H       -6.4050    -7.3630     1.5140 H     1 <1>   0.2700 
 36 H      -10.5530    -6.7720     1.5000 H     1 <1>   0.1500 
 37 H       -8.1180    -5.7460    -0.1800 H     1 <1>   0.4500 
 38 H       -7.5340    -9.1790     0.0800 H     1 <1>   0.1500 
 39 H       -7.7820    -3.9210    -2.5010 H     1 <1>   0.0800 
 40 H       -6.9850    -5.4650    -2.2840 H     1 <1>   0.0800 
 41 H       -6.6310    -4.1410    -1.2050 H     1 <1>   0.0800 
 42 H      -10.0190    -5.1270    -2.3580 H     1 <1>   0.0800 
 43 H      -10.3330    -6.1450    -0.9640 H     1 <1>   0.0800 
 44 H       -9.1430    -6.6310    -2.1420 H     1 <1>   0.0800 
@<TRIPOS>BOND
  1   1   2  1   
  2   2   3  ar  
  3   2   4  ar  
  4   3   5  ar  
  5   3  23  1   
  6   4   6  ar  
  7   4  24  1   
  8   5   7  ar  
  9   5  25  1   
 10   6   7  ar  
 11   6  26  1   
 12   7   8  1   
 13   8   9  1   
 14   8  27  1   
 15   8  28  1   
 16   9  10  2   
 17   9  11  am  
 18  11  12  1   
 19  11  13  1   
 20  12  14  1   
 21  12  29  1   
 22  12  30  1   
 23  13  15  1   
 24  13  31  1   
 25  13  32  1   
 26  14  16  1   
 27  14  17  2   
 28  15  18  1   
 29  15  33  1   
 30  15  34  1   
 31  16  19  1   
 32  16  35  1   
 33  17  20  1   
 34  17  36  1   
 35  18  21  1   
 36  18  22  1   
 37  18  37  1   
 38  19  20  2   
 39  19  38  1   
 40  21  39  1   
 41  21  40  1   
 42  21  41  1   
 43  22  42  1   
 44  22  43  1   
 45  22  44  1   
@<TRIPOS>SUBSTRUCTURE
  1 ****  21 GROUP 4 **** **** 0

# MOE 2024.06 (io_trps.svl 2023.06)
