@<TRIPOS>MOLECULE
NONAME
53 56 1 0 0 
SMALL
USER_CHARGES


@<TRIPOS>ATOM
  1 O       -1.1940    -0.0790    -0.3190 O.2   1 <1>  -0.5700 
  2 C       -1.9300     0.7920    -0.7520 C.2   1 <1>   0.5440 
  3 N       -3.1780     0.3950    -1.1860 N.am  1 <1>  -0.6600 
  4 C       -1.5130     2.1820    -0.7550 C.ar  1 <1>   0.0860 
  5 C       -3.4040    -1.0360    -1.5130 C.3   1 <1>   0.1400 
  6 C       -4.3990     1.0960    -0.7040 C.3   1 <1>   0.1400 
  7 C       -0.6480     2.6730     0.2100 C.ar  1 <1>  -0.1500 
  8 C       -1.9750     3.0800    -1.7440 C.ar  1 <1>  -0.1500 
  9 C       -3.8500    -1.7680    -0.2280 C.3   1 <1>   0.4230 
 10 C       -4.8860     0.3910     0.5700 C.3   1 <1>  -0.1600 
 11 C       -0.2700     4.0170     0.2100 C.ar  1 <1>  -0.1520 
 12 C       -1.6100     4.4040    -1.7520 C.ar  1 <1>  -0.1500 
 13 N       -3.9030    -3.2830    -0.3650 N.4   1 <1>  -0.9590 
 14 C       -5.1370    -1.1360     0.3870 C.3   1 <1>   0.0000 
 15 N        0.5570     4.7230     1.0520 N.pl3 1 <1>   0.0480 
 16 C       -0.7500     4.8870    -0.7630 C.ar  1 <1>   0.0000 
 17 C       -4.7070    -3.9660     0.7000 C.3   1 <1>   0.3430 
 18 C       -4.2960    -3.7980    -1.7180 C.3   1 <1>   0.2630 
 19 C       -5.4010    -1.7700     1.7860 C.3   1 <1>  -0.1600 
 20 C       -6.3520    -1.3740    -0.5540 C.3   1 <1>   0.1200 
 21 C        0.5900     6.0160     0.6160 C.2   1 <1>  -0.3020 
 22 C        1.2900     4.1770     2.2050 C.3   1 <1>   0.0160 
 23 C       -0.1920     6.1490    -0.4820 C.2   1 <1>  -0.1500 
 24 C       -4.7270    -3.1410     1.9850 C.3   1 <1>  -0.1600 
 25 O       -7.4660    -0.6610    -0.1450 O.3   1 <1>  -0.6800 
 26 H       -4.1420    -1.1020    -2.2910 H     1 <1>   0.0800 
 27 H       -2.4850    -1.4630    -1.8770 H     1 <1>   0.0800 
 28 H       -4.1820     2.1270    -0.4820 H     1 <1>   0.0800 
 29 H       -5.1590     1.0760    -1.4680 H     1 <1>   0.0800 
 30 H       -0.2620     2.0140     0.9670 H     1 <1>   0.1500 
 31 H       -2.6280     2.7060    -2.5120 H     1 <1>   0.1500 
 32 H       -3.0690    -1.5610     0.4860 H     1 <1>   0.0800 
 33 H       -4.1340     0.5480     1.3250 H     1 <1>   0.0800 
 34 H       -5.7750     0.8850     0.9200 H     1 <1>   0.0800 
 35 H       -1.9670     5.0820    -2.5070 H     1 <1>   0.1500 
 36 H       -2.9250    -3.5740    -0.2100 H     1 <1>   0.4500 
 37 H       -5.7220    -4.0960     0.3630 H     1 <1>   0.0800 
 38 H       -4.2960    -4.9430     0.8990 H     1 <1>   0.0800 
 39 H       -5.2970    -3.4860    -1.9660 H     1 <1>   0.0800 
 40 H       -4.2600    -4.8760    -1.7310 H     1 <1>   0.0800 
 41 H       -3.6200    -3.4310    -2.4730 H     1 <1>   0.0800 
 42 H       -5.0430    -1.1220     2.5690 H     1 <1>   0.0800 
 43 H       -6.4590    -1.8750     1.9500 H     1 <1>   0.0800 
 44 H       -6.6300    -2.4120    -0.5860 H     1 <1>   0.0800 
 45 H       -6.1420    -1.0490    -1.5570 H     1 <1>   0.0800 
 46 H        1.1710     6.7710     1.1130 H     1 <1>   0.1500 
 47 H        1.8460     4.9610     2.6850 H     1 <1>   0.0800 
 48 H        1.9660     3.4140     1.8650 H     1 <1>   0.0800 
 49 H        0.5900     3.7550     2.9020 H     1 <1>   0.0800 
 50 H       -0.3780     7.0350    -1.0620 H     1 <1>   0.1500 
 51 H       -5.2560    -3.6860     2.7480 H     1 <1>   0.0800 
 52 H       -3.7170    -3.0110     2.3360 H     1 <1>   0.0800 
 53 H       -7.7720    -0.9270     0.7450 H     1 <1>   0.4000 
@<TRIPOS>BOND
  1   1   2  2   
  2   2   3  am  
  3   2   4  1   
  4   3   5  1   
  5   3   6  1   
  6   4   7  ar  
  7   4   8  ar  
  8   5   9  1   
  9   5  26  1   
 10   5  27  1   
 11   6  10  1   
 12   6  28  1   
 13   6  29  1   
 14   7  11  ar  
 15   7  30  1   
 16   8  12  ar  
 17   8  31  1   
 18   9  13  1   
 19   9  14  1   
 20   9  32  1   
 21  10  14  1   
 22  10  33  1   
 23  10  34  1   
 24  11  15  1   
 25  11  16  ar  
 26  12  16  ar  
 27  12  35  1   
 28  13  17  1   
 29  13  18  1   
 30  13  36  1   
 31  14  19  1   
 32  14  20  1   
 33  15  21  1   
 34  15  22  1   
 35  16  23  1   
 36  17  24  1   
 37  17  37  1   
 38  17  38  1   
 39  18  39  1   
 40  18  40  1   
 41  18  41  1   
 42  19  24  1   
 43  19  42  1   
 44  19  43  1   
 45  20  25  1   
 46  20  44  1   
 47  20  45  1   
 48  21  23  2   
 49  21  46  1   
 50  22  47  1   
 51  22  48  1   
 52  22  49  1   
 53  23  50  1   
 54  24  51  1   
 55  24  52  1   
 56  25  53  1   
@<TRIPOS>SUBSTRUCTURE
  1 ****   2 GROUP 4 **** **** 0

# MOE 2024.06 (io_trps.svl 2023.06)
