@<TRIPOS>MOLECULE
NONAME
47 50 1 0 0 
SMALL
USER_CHARGES


@<TRIPOS>ATOM
  1 O        1.9400    -3.7190    -0.4000 O.3   1 <1>  -0.3630 
  2 C        0.7720    -4.1870     0.0640 C.ar  1 <1>   0.0830 
  3 C        3.0120    -4.4650     0.1570 C.3   1 <1>   0.1200 
  4 C        0.9150    -5.2850     0.8670 C.ar  1 <1>  -0.1440 
  5 C       -0.4690    -3.6450    -0.2060 C.ar  1 <1>  -0.1500 
  6 C        2.3790    -5.6030     0.9780 C.3   1 <1>  -0.0160 
  7 C       -0.1920    -5.8930     1.4280 C.ar  1 <1>  -0.1500 
  8 C       -1.5860    -4.2400     0.3580 C.ar  1 <1>  -0.1500 
  9 C       -1.4540    -5.3660     1.1700 C.ar  1 <1>  -0.1440 
 10 C       -2.6790    -6.0310     1.7640 C.3   1 <1>   0.4870 
 11 N       -3.1160    -7.0580     0.7980 N.4   1 <1>  -0.9590 
 12 C       -3.8680    -6.5670    -0.3900 C.3   1 <1>   0.3430 
 13 C       -3.8240    -8.2500     1.3100 C.3   1 <1>   0.3430 
 14 C       -4.6800    -7.7700    -0.8920 C.3   1 <1>   0.2000 
 15 C       -4.3520    -8.9390     0.0490 C.3   1 <1>  -0.0800 
 16 O       -6.0380    -7.4830    -0.7950 O.3   1 <1>  -0.6800 
 17 C       -3.3280    -9.9270    -0.5630 C.3   1 <1>   0.0210 
 18 C       -1.8820    -9.4450    -0.5990 C.2   1 <1>   0.1080 
 19 N       -1.5030    -8.3320    -1.1500 N.2   1 <1>  -0.7070 
 20 C       -0.8130   -10.1370    -0.0430 C.2   1 <1>  -0.1500 
 21 N       -0.1620    -8.2970    -0.9830 N.pl3 1 <1>   0.3000 
 22 C        0.2710    -9.3760    -0.3000 C.2   1 <1>  -0.3320 
 23 C        1.7240    -9.6400     0.0560 C.3   1 <1>  -0.0600 
 24 H        3.6210    -4.8380    -0.6480 H     1 <1>   0.0800 
 25 H        3.5860    -3.8020     0.7820 H     1 <1>   0.0800 
 26 H       -0.5460    -2.7770    -0.8360 H     1 <1>   0.1500 
 27 H        2.6100    -6.5560     0.5430 H     1 <1>   0.0800 
 28 H        2.7150    -5.5720     1.9990 H     1 <1>   0.0800 
 29 H       -0.0620    -6.7590     2.0560 H     1 <1>   0.1500 
 30 H       -2.5540    -3.8140     0.1560 H     1 <1>   0.1500 
 31 H       -3.4610    -5.3100     1.9370 H     1 <1>   0.0800 
 32 H       -2.4120    -6.4900     2.7010 H     1 <1>   0.0800 
 33 H       -2.2430    -7.4300     0.3600 H     1 <1>   0.4500 
 34 H       -4.5300    -5.7590    -0.1290 H     1 <1>   0.0800 
 35 H       -3.1760    -6.2410    -1.1510 H     1 <1>   0.0800 
 36 H       -3.1630    -8.8940     1.8680 H     1 <1>   0.0800 
 37 H       -4.6480    -7.9460     1.9340 H     1 <1>   0.0800 
 38 H       -4.4620    -7.9860    -1.9250 H     1 <1>   0.0800 
 39 H       -5.2410    -9.5010     0.2760 H     1 <1>   0.0800 
 40 H       -6.3540    -7.4190     0.1260 H     1 <1>   0.4000 
 41 H       -3.6260   -10.1800    -1.5660 H     1 <1>   0.0800 
 42 H       -3.3550   -10.8410     0.0040 H     1 <1>   0.0800 
 43 H       -0.8580   -11.0830     0.4690 H     1 <1>   0.1500 
 44 H        0.4250    -7.5310    -1.3450 H     1 <1>   0.2700 
 45 H        1.8230   -10.6100     0.5110 H     1 <1>   0.0800 
 46 H        2.0810    -8.9020     0.7500 H     1 <1>   0.0800 
 47 H        2.3350    -9.6180    -0.8290 H     1 <1>   0.0800 
@<TRIPOS>BOND
  1   1   2  1   
  2   1   3  1   
  3   2   4  ar  
  4   2   5  ar  
  5   3   6  1   
  6   3  24  1   
  7   3  25  1   
  8   4   6  1   
  9   4   7  ar  
 10   5   8  ar  
 11   5  26  1   
 12   6  27  1   
 13   6  28  1   
 14   7   9  ar  
 15   7  29  1   
 16   8   9  ar  
 17   8  30  1   
 18   9  10  1   
 19  10  11  1   
 20  10  31  1   
 21  10  32  1   
 22  11  12  1   
 23  11  13  1   
 24  11  33  1   
 25  12  14  1   
 26  12  34  1   
 27  12  35  1   
 28  13  15  1   
 29  13  36  1   
 30  13  37  1   
 31  14  15  1   
 32  14  16  1   
 33  14  38  1   
 34  15  17  1   
 35  15  39  1   
 36  16  40  1   
 37  17  18  1   
 38  17  41  1   
 39  17  42  1   
 40  18  19  2   
 41  18  20  1   
 42  19  21  1   
 43  20  22  2   
 44  20  43  1   
 45  21  22  1   
 46  21  44  1   
 47  22  23  1   
 48  23  45  1   
 49  23  46  1   
 50  23  47  1   
@<TRIPOS>SUBSTRUCTURE
  1 ****  19 GROUP 4 **** **** 0

# MOE 2024.06 (io_trps.svl 2023.06)
