@<TRIPOS>MOLECULE
NONAME
42 44 1 0 0 
SMALL
USER_CHARGES


@<TRIPOS>ATOM
  1 S        0.4430    -0.1540    -1.3440 S.o2  1 <1>   1.4470 
  2 O        0.0540     0.2910    -2.6600 O.2   1 <1>  -0.6500 
  3 O        1.5100    -1.1240    -1.2560 O.2   1 <1>  -0.6500 
  4 N        1.0730     1.2170    -0.5610 N.am  1 <1>  -0.8490 
  5 C       -1.0600    -0.6380    -0.4330 C.ar  1 <1>  -0.0090 
  6 C        1.5430     1.0430     0.8450 C.3   1 <1>   0.2760 
  7 C        1.8600     2.0770    -1.4740 C.3   1 <1>   0.1960 
  8 C       -1.0490    -1.5380     0.6400 C.ar  1 <1>   0.0730 
  9 C       -2.2770    -0.0840    -0.8140 C.ar  1 <1>  -0.1500 
 10 C        1.6070     2.3860     1.5910 C.3   1 <1>   0.1200 
 11 C        2.8910     0.2830     1.0210 C.3   1 <1>   0.3430 
 12 C        3.1950     2.6260    -0.9430 C.3   1 <1>  -0.0800 
 13 C        0.1610    -2.1150     1.1480 C.1   1 <1>   0.4840 
 14 C       -2.2450    -1.8670     1.2710 C.ar  1 <1>  -0.1500 
 15 C       -3.4580    -0.4110    -0.1750 C.ar  1 <1>  -0.1500 
 16 O        2.8460     3.0010     1.4110 O.3   1 <1>  -0.5600 
 17 N        3.7340     0.2250    -0.2170 N.4   1 <1>  -0.9590 
 18 C        3.0190     3.6420     0.1940 C.3   1 <1>   0.1200 
 19 C        4.2660     1.5580    -0.6420 C.3   1 <1>   0.3430 
 20 N        1.1550    -2.4500     1.5950 N.1   1 <1>  -0.5570 
 21 C       -3.4430    -1.3100     0.8700 C.ar  1 <1>  -0.1500 
 22 C        4.8200    -0.7810    -0.0520 C.3   1 <1>   0.2630 
 23 H        0.7920     0.4840     1.3700 H     1 <1>   0.0800 
 24 H        2.0860     1.5390    -2.3810 H     1 <1>   0.0800 
 25 H        1.2340     2.9050    -1.7660 H     1 <1>   0.0800 
 26 H       -2.3110     0.6170    -1.6350 H     1 <1>   0.1500 
 27 H        1.5090     2.2080     2.6480 H     1 <1>   0.0800 
 28 H        0.8150     3.0500     1.2880 H     1 <1>   0.0800 
 29 H        2.6700    -0.7220     1.3310 H     1 <1>   0.0800 
 30 H        3.4500     0.7390     1.8220 H     1 <1>   0.0800 
 31 H        3.5970     3.2080    -1.7530 H     1 <1>   0.0800 
 32 H       -2.2450    -2.5660     2.0930 H     1 <1>   0.1500 
 33 H       -4.3890     0.0300    -0.4950 H     1 <1>   0.1500 
 34 H        3.0900    -0.1430    -0.9470 H     1 <1>   0.4500 
 35 H        2.1860     4.3030     0.0180 H     1 <1>   0.0800 
 36 H        3.9080     4.2440     0.2860 H     1 <1>   0.0800 
 37 H        4.9270     1.9400     0.1200 H     1 <1>   0.0800 
 38 H        4.8520     1.4160    -1.5350 H     1 <1>   0.0800 
 39 H       -4.3610    -1.5740     1.3690 H     1 <1>   0.1500 
 40 H        5.4950    -0.4810     0.7330 H     1 <1>   0.0800 
 41 H        5.3760    -0.8860    -0.9690 H     1 <1>   0.0800 
 42 H        4.3980    -1.7410     0.2020 H     1 <1>   0.0800 
@<TRIPOS>BOND
  1   1   2  2   
  2   1   3  2   
  3   1   4  am  
  4   1   5  1   
  5   4   6  1   
  6   4   7  1   
  7   5   8  ar  
  8   5   9  ar  
  9   6  10  1   
 10   6  11  1   
 11   6  23  1   
 12   7  12  1   
 13   7  24  1   
 14   7  25  1   
 15   8  13  1   
 16   8  14  ar  
 17   9  15  ar  
 18   9  26  1   
 19  10  16  1   
 20  10  27  1   
 21  10  28  1   
 22  11  17  1   
 23  11  29  1   
 24  11  30  1   
 25  12  18  1   
 26  12  19  1   
 27  12  31  1   
 28  13  20  3   
 29  14  21  ar  
 30  14  32  1   
 31  15  21  ar  
 32  15  33  1   
 33  16  18  1   
 34  17  19  1   
 35  17  22  1   
 36  17  34  1   
 37  18  35  1   
 38  18  36  1   
 39  19  37  1   
 40  19  38  1   
 41  21  39  1   
 42  22  40  1   
 43  22  41  1   
 44  22  42  1   
@<TRIPOS>SUBSTRUCTURE
  1 ****   4 GROUP 4 **** **** 0

# MOE 2024.06 (io_trps.svl 2023.06)
