@<TRIPOS>MOLECULE
NONAME
51 54 1 0 0 
SMALL
USER_CHARGES


@<TRIPOS>ATOM
  1 O       -0.4120     0.2480     0.0430 O.2   1 <1>  -0.5700 
  2 C       -1.4630     0.8310     0.2290 C.2   1 <1>   0.5440 
  3 N       -2.6140     0.0900     0.3640 N.am  1 <1>  -0.6600 
  4 C       -1.4780     2.2810     0.2880 C.ar  1 <1>   0.0860 
  5 C       -3.9850     0.6100     0.1300 C.3   1 <1>   0.1400 
  6 C       -2.6060    -1.3950     0.3090 C.3   1 <1>   0.1400 
  7 C       -0.8390     3.0420    -0.6890 C.ar  1 <1>  -0.1500 
  8 C       -2.1210     2.9690     1.3170 C.ar  1 <1>  -0.1500 
  9 C       -4.7790    -0.5970    -0.3650 C.3   1 <1>   0.2000 
 10 C       -4.0770    -1.8090     0.2400 C.3   1 <1>  -0.0800 
 11 C       -0.8490     4.4240    -0.6500 C.ar  1 <1>  -0.1500 
 12 C       -2.1350     4.3510     1.3630 C.ar  1 <1>  -0.1500 
 13 O       -6.0990    -0.5440     0.0510 O.3   1 <1>  -0.6800 
 14 C       -4.3140    -3.1040    -0.5500 C.3   1 <1>   0.0210 
 15 C       -1.4970     5.0900     0.3790 C.ar  1 <1>  -0.1430 
 16 C       -3.5260    -4.2520     0.0480 C.2   1 <1>   0.1080 
 17 C       -1.4990     6.6150     0.4320 C.3   1 <1>   0.2390 
 18 N       -3.7500    -4.7110     1.2410 N.2   1 <1>  -0.7070 
 19 C       -2.4890    -4.9250    -0.5890 C.2   1 <1>  -0.1500 
 20 N       -0.1340     7.1780     0.3710 N.pl3 1 <1>   0.3140 
 21 N       -2.8520    -5.7020     1.3970 N.pl3 1 <1>   0.3000 
 22 C       -2.0750    -5.8490     0.3030 C.2   1 <1>  -0.3320 
 23 N        0.1900     8.1280    -0.4800 N.2   1 <1>  -0.4180 
 24 C        0.9440     6.9100     1.0950 C.2   1 <1>   0.0060 
 25 C       -0.9680    -6.8790     0.1750 C.3   1 <1>  -0.0600 
 26 N        1.4250     8.4070    -0.2630 N.2   1 <1>   0.0000 
 27 N        1.9100     7.6560     0.7190 N.2   1 <1>  -0.3380 
 28 C        1.0460     5.8800     2.2060 C.3   1 <1>  -0.0600 
 29 H       -4.3880     0.9730     1.0590 H     1 <1>   0.0800 
 30 H       -3.9790     1.3930    -0.6090 H     1 <1>   0.0800 
 31 H       -2.0740    -1.7110    -0.5720 H     1 <1>   0.0800 
 32 H       -2.1230    -1.8060     1.1790 H     1 <1>   0.0800 
 33 H       -0.3240     2.5310    -1.4850 H     1 <1>   0.1500 
 34 H       -2.6090     2.4040     2.0920 H     1 <1>   0.1500 
 35 H       -4.7610    -0.6250    -1.4410 H     1 <1>   0.0800 
 36 H       -4.4110    -1.9510     1.2540 H     1 <1>   0.0800 
 37 H       -0.3420     4.9750    -1.4270 H     1 <1>   0.1500 
 38 H       -2.6450     4.8430     2.1740 H     1 <1>   0.1500 
 39 H       -6.1610    -0.7340     1.0080 H     1 <1>   0.4000 
 40 H       -4.0260    -2.9700    -1.5770 H     1 <1>   0.0800 
 41 H       -5.3590    -3.3540    -0.5250 H     1 <1>   0.0800 
 42 H       -1.9620     6.9610     1.3370 H     1 <1>   0.0800 
 43 H       -2.0610     6.9980    -0.4010 H     1 <1>   0.0800 
 44 H       -2.1160    -4.7290    -1.5780 H     1 <1>   0.1500 
 45 H       -2.7940    -6.2560     2.2600 H     1 <1>   0.2700 
 46 H       -0.4970    -6.7970    -0.7880 H     1 <1>   0.0800 
 47 H       -1.3700    -7.8720     0.2770 H     1 <1>   0.0800 
 48 H       -0.2230    -6.7210     0.9350 H     1 <1>   0.0800 
 49 H        1.9910     5.9810     2.7110 H     1 <1>   0.0800 
 50 H        0.9850     4.8870     1.7970 H     1 <1>   0.0800 
 51 H        0.2580     6.0190     2.9230 H     1 <1>   0.0800 
@<TRIPOS>BOND
  1   1   2  2   
  2   2   3  am  
  3   2   4  1   
  4   3   5  1   
  5   3   6  1   
  6   4   7  ar  
  7   4   8  ar  
  8   5   9  1   
  9   5  29  1   
 10   5  30  1   
 11   6  10  1   
 12   6  31  1   
 13   6  32  1   
 14   7  11  ar  
 15   7  33  1   
 16   8  12  ar  
 17   8  34  1   
 18   9  10  1   
 19   9  13  1   
 20   9  35  1   
 21  10  14  1   
 22  10  36  1   
 23  11  15  ar  
 24  11  37  1   
 25  12  15  ar  
 26  12  38  1   
 27  13  39  1   
 28  14  16  1   
 29  14  40  1   
 30  14  41  1   
 31  15  17  1   
 32  16  18  2   
 33  16  19  1   
 34  17  20  1   
 35  17  42  1   
 36  17  43  1   
 37  18  21  1   
 38  19  22  2   
 39  19  44  1   
 40  20  23  1   
 41  20  24  1   
 42  21  22  1   
 43  21  45  1   
 44  22  25  1   
 45  23  26  2   
 46  24  27  2   
 47  24  28  1   
 48  25  46  1   
 49  25  47  1   
 50  25  48  1   
 51  26  27  1   
 52  28  49  1   
 53  28  50  1   
 54  28  51  1   
@<TRIPOS>SUBSTRUCTURE
  1 ****   2 GROUP 4 **** **** 0

# MOE 2024.06 (io_trps.svl 2023.06)
