@<TRIPOS>MOLECULE
NONAME
41 43 1 0 0 
SMALL
USER_CHARGES


@<TRIPOS>ATOM
  1 S        0.1000     0.1000     1.8490 S.3   1 <1>  -0.0800 
  2 C        1.4820    -0.0820     0.7710 C.2   1 <1>  -0.0450 
  3 C       -0.2490    -1.6060     1.8090 C.2   1 <1>  -0.1100 
  4 C        2.2430     1.0820     0.4130 C.2   1 <1>   0.5940 
  5 C        1.5960    -1.3960     0.4450 C.2   1 <1>  -0.1500 
  6 C        0.6180    -2.2790     1.0130 C.2   1 <1>  -0.0860 
  7 O        1.9840     2.2010     0.7750 O.2   1 <1>  -0.5700 
  8 C        3.4500     0.9030    -0.4810 C.3   1 <1>  -0.1790 
  9 C        0.6310    -3.7020     0.7320 C.2   1 <1>   0.7160 
 10 O        1.6890    -4.2630     0.5220 O.2   1 <1>  -0.5700 
 11 N       -0.5290    -4.4400     0.6700 N.am  1 <1>  -0.6600 
 12 C       -1.8690    -3.8750     0.3670 C.3   1 <1>   0.1400 
 13 C       -0.5140    -5.9030     0.4150 C.3   1 <1>   0.1400 
 14 C       -2.6030    -4.9930    -0.3690 C.3   1 <1>   0.2000 
 15 C       -1.9690    -6.2860     0.1350 C.3   1 <1>  -0.0800 
 16 O       -3.9600    -4.9820    -0.0940 O.3   1 <1>  -0.6800 
 17 C       -2.1180    -7.4540    -0.8510 C.3   1 <1>   0.0200 
 18 C       -1.4010    -8.6890    -0.3400 C.2   1 <1>  -0.0400 
 19 O       -1.7720    -9.2410     0.7850 O.3   1 <1>  -0.0190 
 20 C       -0.3720    -9.3970    -0.8280 C.2   1 <1>  -0.1500 
 21 N       -1.0440   -10.2780     1.0780 N.2   1 <1>  -0.4100 
 22 C       -0.1920   -10.3980     0.1230 C.2   1 <1>   0.1080 
 23 C        0.8600   -11.4820     0.0530 C.3   1 <1>  -0.0590 
 24 H       -1.0780    -1.9530     2.3990 H     1 <1>   0.1500 
 25 H        2.3610    -1.8020    -0.1970 H     1 <1>   0.1500 
 26 H        4.1490     0.2310    -0.0190 H     1 <1>   0.0800 
 27 H        3.9320     1.8510    -0.6390 H     1 <1>   0.0800 
 28 H        3.1430     0.5070    -1.4310 H     1 <1>   0.0800 
 29 H       -2.3690    -3.6390     1.2890 H     1 <1>   0.0800 
 30 H       -1.7890    -2.9990    -0.2530 H     1 <1>   0.0800 
 31 H        0.1090    -6.1050    -0.4410 H     1 <1>   0.0800 
 32 H       -0.1240    -6.4340     1.2670 H     1 <1>   0.0800 
 33 H       -2.4710    -4.8760    -1.4320 H     1 <1>   0.0800 
 34 H       -2.4110    -6.5580     1.0780 H     1 <1>   0.0800 
 35 H       -4.1250    -5.2030     0.8430 H     1 <1>   0.4000 
 36 H       -1.7130    -7.1820    -1.8090 H     1 <1>   0.0800 
 37 H       -3.1610    -7.6850    -0.9830 H     1 <1>   0.0800 
 38 H        0.2010    -9.2580    -1.7250 H     1 <1>   0.1500 
 39 H        0.7300   -12.0600    -0.8430 H     1 <1>   0.0800 
 40 H        0.7720   -12.1340     0.9040 H     1 <1>   0.0800 
 41 H        1.8390   -11.0400     0.0530 H     1 <1>   0.0800 
@<TRIPOS>BOND
  1   1   2  1   
  2   1   3  1   
  3   2   4  1   
  4   2   5  2   
  5   3   6  2   
  6   3  24  1   
  7   4   7  2   
  8   4   8  1   
  9   5   6  1   
 10   5  25  1   
 11   6   9  1   
 12   8  26  1   
 13   8  27  1   
 14   8  28  1   
 15   9  10  2   
 16   9  11  am  
 17  11  12  1   
 18  11  13  1   
 19  12  14  1   
 20  12  29  1   
 21  12  30  1   
 22  13  15  1   
 23  13  31  1   
 24  13  32  1   
 25  14  15  1   
 26  14  16  1   
 27  14  33  1   
 28  15  17  1   
 29  15  34  1   
 30  16  35  1   
 31  17  18  1   
 32  17  36  1   
 33  17  37  1   
 34  18  19  1   
 35  18  20  2   
 36  19  21  1   
 37  20  22  1   
 38  20  38  1   
 39  21  22  2   
 40  22  23  1   
 41  23  39  1   
 42  23  40  1   
 43  23  41  1   
@<TRIPOS>SUBSTRUCTURE
  1 ****  11 GROUP 4 **** **** 0

# MOE 2024.06 (io_trps.svl 2023.06)
