@<TRIPOS>MOLECULE
NONAME
47 49 1 0 0 
SMALL
USER_CHARGES


@<TRIPOS>ATOM
  1 CL      -0.5780    -1.2460    -1.0270 Cl    1 <1>  -0.1770 
  2 C       -0.6920    -2.9870    -1.0040 C.ar  1 <1>   0.1770 
  3 C       -1.9000    -3.5910    -1.2900 C.ar  1 <1>  -0.1500 
  4 C        0.4310    -3.7330    -0.6980 C.ar  1 <1>  -0.1500 
  5 C       -1.9960    -4.9740    -1.2710 C.ar  1 <1>   0.0830 
  6 C        0.3400    -5.1150    -0.6810 C.ar  1 <1>  -0.1500 
  7 O       -3.2140    -5.4990    -1.5590 O.3   1 <1>  -0.3630 
  8 C       -0.8670    -5.7350    -0.9660 C.ar  1 <1>  -0.1500 
  9 C       -3.4960    -6.8820    -1.4650 C.3   1 <1>   0.1200 
 10 C       -3.6820    -7.2700     0.0080 C.3   1 <1>   0.1100 
 11 N       -4.0220    -8.7020     0.1530 N.3   1 <1>  -0.8100 
 12 C       -4.6050    -8.9660     1.5070 C.3   1 <1>   0.1710 
 13 C       -2.8410    -9.5580    -0.0720 C.3   1 <1>   0.0300 
 14 C       -5.4020   -10.2700     1.5920 C.2   1 <1>   0.5690 
 15 O       -5.5960   -10.7750     2.6680 O.2   1 <1>  -0.5700 
 16 N       -5.8520   -10.7790     0.4110 N.am  1 <1>  -0.4940 
 17 C       -6.5870   -11.8960     0.0850 C.2   1 <1>   0.4420 
 18 S       -7.1850   -12.9860     1.2970 S.3   1 <1>  -0.0800 
 19 N       -6.9130   -12.2610    -1.1000 N.2   1 <1>  -0.3380 
 20 C       -7.8790   -13.9180     0.0130 C.2   1 <1>   0.1980 
 21 N       -7.6500   -13.4120    -1.1350 N.2   1 <1>  -0.3380 
 22 C       -8.6550   -15.1770     0.4040 C.3   1 <1>   0.3800 
 23 O       -7.7730   -16.1420     0.8920 O.3   1 <1>  -0.5600 
 24 C       -9.3380   -15.8810    -0.7660 C.3   1 <1>  -0.1600 
 25 C       -7.2280   -16.8680    -0.1650 C.3   1 <1>   0.1200 
 26 C       -8.2680   -16.8330    -1.2830 C.3   1 <1>  -0.1600 
 27 H       -2.7610    -2.9950    -1.5260 H     1 <1>   0.1500 
 28 H        1.3590    -3.2360    -0.4790 H     1 <1>   0.1500 
 29 H        1.2090    -5.7060    -0.4460 H     1 <1>   0.1500 
 30 H       -0.9040    -6.8070    -0.9480 H     1 <1>   0.1500 
 31 H       -2.7090    -7.4310    -1.9470 H     1 <1>   0.0800 
 32 H       -4.4140    -7.0530    -1.9980 H     1 <1>   0.0800 
 33 H       -4.4890    -6.6720     0.3950 H     1 <1>   0.0800 
 34 H       -2.7940    -7.0460     0.5730 H     1 <1>   0.0800 
 35 H       -5.2860    -8.1750     1.7670 H     1 <1>   0.0800 
 36 H       -3.8260    -8.9830     2.2500 H     1 <1>   0.0800 
 37 H       -2.4780    -9.4410    -1.0780 H     1 <1>   0.0800 
 38 H       -3.0950   -10.5960     0.0660 H     1 <1>   0.0800 
 39 H       -2.0520    -9.3040     0.6160 H     1 <1>   0.0800 
 40 H       -5.5380   -10.2250    -0.3890 H     1 <1>   0.3700 
 41 H       -9.3610   -14.9400     1.1800 H     1 <1>   0.0800 
 42 H       -9.6810   -15.1920    -1.5170 H     1 <1>   0.0800 
 43 H      -10.1780   -16.4380    -0.3920 H     1 <1>   0.0800 
 44 H       -7.0220   -17.8680     0.1740 H     1 <1>   0.0800 
 45 H       -6.3150   -16.3840    -0.4680 H     1 <1>   0.0800 
 46 H       -7.8150   -16.4560    -2.1840 H     1 <1>   0.0800 
 47 H       -8.6670   -17.8140    -1.4740 H     1 <1>   0.0800 
@<TRIPOS>BOND
  1   1   2  1   
  2   2   3  ar  
  3   2   4  ar  
  4   3   5  ar  
  5   3  27  1   
  6   4   6  ar  
  7   4  28  1   
  8   5   7  1   
  9   5   8  ar  
 10   6   8  ar  
 11   6  29  1   
 12   7   9  1   
 13   8  30  1   
 14   9  10  1   
 15   9  31  1   
 16   9  32  1   
 17  10  11  1   
 18  10  33  1   
 19  10  34  1   
 20  11  12  1   
 21  11  13  1   
 22  12  14  1   
 23  12  35  1   
 24  12  36  1   
 25  13  37  1   
 26  13  38  1   
 27  13  39  1   
 28  14  15  2   
 29  14  16  am  
 30  16  17  1   
 31  16  40  1   
 32  17  18  1   
 33  17  19  2   
 34  18  20  1   
 35  19  21  1   
 36  20  21  2   
 37  20  22  1   
 38  22  23  1   
 39  22  24  1   
 40  22  41  1   
 41  23  25  1   
 42  24  26  1   
 43  24  42  1   
 44  24  43  1   
 45  25  26  1   
 46  25  44  1   
 47  25  45  1   
 48  26  46  1   
 49  26  47  1   
@<TRIPOS>SUBSTRUCTURE
  1 ****  11 GROUP 4 **** **** 0

# MOE 2024.06 (io_trps.svl 2023.06)
