@<TRIPOS>MOLECULE
NONAME
46 48 1 0 0 
SMALL
USER_CHARGES


@<TRIPOS>ATOM
  1 F       -1.5520    -0.8130    -1.4800 F     1 <1>  -0.1900 
  2 C       -1.2690    -1.5970    -0.4730 C.ar  1 <1>   0.1900 
  3 C       -2.0210    -2.7510    -0.2690 C.ar  1 <1>  -0.1440 
  4 C       -0.2180    -1.2250     0.3510 C.ar  1 <1>  -0.1500 
  5 C       -1.6900    -3.5540     0.8150 C.ar  1 <1>  -0.1500 
  6 C       -3.1780    -3.1540    -1.1830 C.3   1 <1>   0.0450 
  7 C        0.1040    -2.0330     1.4290 C.ar  1 <1>  -0.1500 
  8 C       -0.6410    -3.1810     1.6380 C.ar  1 <1>   0.1900 
  9 C       -4.4920    -3.3100    -0.4290 C.2   1 <1>   0.5690 
 10 F       -0.3390    -3.9440     2.6540 F     1 <1>  -0.1900 
 11 O       -4.9350    -4.4320    -0.3280 O.2   1 <1>  -0.5700 
 12 N       -5.1380    -2.2250     0.1110 N.am  1 <1>  -0.6600 
 13 C       -6.4220    -2.3850     0.8550 C.3   1 <1>   0.1400 
 14 C       -4.6510    -0.8150    -0.0050 C.3   1 <1>   0.1400 
 15 C       -7.5610    -1.6250     0.1420 C.3   1 <1>   0.0000 
 16 C       -5.7630     0.2080     0.2780 C.3   1 <1>  -0.1600 
 17 C       -8.7860    -1.5440     1.0710 C.3   1 <1>   0.2000 
 18 C       -7.0900    -0.2230    -0.3640 C.3   1 <1>  -0.1600 
 19 C       -8.1370    -2.4300    -1.0340 C.3   1 <1>  -0.1600 
 20 O       -8.6670    -0.5020     1.9940 O.3   1 <1>  -0.5600 
 21 C       -9.9930    -1.3530     0.1460 C.3   1 <1>  -0.1600 
 22 C       -9.5650    -1.9050    -1.2220 C.3   1 <1>  -0.1600 
 23 C       -9.5790    -0.5400     3.0450 C.3   1 <1>   0.0400 
 24 H        0.3320    -0.3240     0.1490 H     1 <1>   0.1500 
 25 H       -2.2370    -4.4580     1.0260 H     1 <1>   0.1500 
 26 H       -2.9360    -4.0960    -1.6400 H     1 <1>   0.0800 
 27 H       -3.3210    -2.4520    -1.9810 H     1 <1>   0.0800 
 28 H        0.9110    -1.7840     2.0950 H     1 <1>   0.1500 
 29 H       -6.6780    -3.4250     0.9630 H     1 <1>   0.0800 
 30 H       -6.2910    -1.9860     1.8460 H     1 <1>   0.0800 
 31 H       -3.8360    -0.6610     0.6810 H     1 <1>   0.0800 
 32 H       -4.2880    -0.6510    -1.0040 H     1 <1>   0.0800 
 33 H       -5.8960     0.3110     1.3420 H     1 <1>   0.0800 
 34 H       -5.4670     1.1690    -0.1020 H     1 <1>   0.0800 
 35 H       -8.8840    -2.4750     1.6060 H     1 <1>   0.0800 
 36 H       -6.9390    -0.2470    -1.4280 H     1 <1>   0.0800 
 37 H       -7.8390     0.5250    -0.1740 H     1 <1>   0.0800 
 38 H       -7.5460    -2.3460    -1.9300 H     1 <1>   0.0800 
 39 H       -8.1850    -3.4730    -0.7680 H     1 <1>   0.0800 
 40 H      -10.8460    -1.8870     0.5240 H     1 <1>   0.0800 
 41 H      -10.2300    -0.3070     0.0540 H     1 <1>   0.0800 
 42 H      -10.2230    -2.6870    -1.5600 H     1 <1>   0.0800 
 43 H       -9.5670    -1.1090    -1.9470 H     1 <1>   0.0800 
 44 H       -9.3730     0.2930     3.6940 H     1 <1>   0.0800 
 45 H       -9.4580    -1.4610     3.5890 H     1 <1>   0.0800 
 46 H      -10.5790    -0.4560     2.6570 H     1 <1>   0.0800 
@<TRIPOS>BOND
  1   1   2  1   
  2   2   3  ar  
  3   2   4  ar  
  4   3   5  ar  
  5   3   6  1   
  6   4   7  ar  
  7   4  24  1   
  8   5   8  ar  
  9   5  25  1   
 10   6   9  1   
 11   6  26  1   
 12   6  27  1   
 13   7   8  ar  
 14   7  28  1   
 15   8  10  1   
 16   9  11  2   
 17   9  12  am  
 18  12  13  1   
 19  12  14  1   
 20  13  15  1   
 21  13  29  1   
 22  13  30  1   
 23  14  16  1   
 24  14  31  1   
 25  14  32  1   
 26  15  17  1   
 27  15  18  1   
 28  15  19  1   
 29  16  18  1   
 30  16  33  1   
 31  16  34  1   
 32  17  20  1   
 33  17  21  1   
 34  17  35  1   
 35  18  36  1   
 36  18  37  1   
 37  19  22  1   
 38  19  38  1   
 39  19  39  1   
 40  20  23  1   
 41  21  22  1   
 42  21  40  1   
 43  21  41  1   
 44  22  42  1   
 45  22  43  1   
 46  23  44  1   
 47  23  45  1   
 48  23  46  1   
@<TRIPOS>SUBSTRUCTURE
  1 ****  12 GROUP 4 **** **** 0

# MOE 2024.06 (io_trps.svl 2023.06)
