@<TRIPOS>MOLECULE
NONAME
51 53 1 0 0 
SMALL
USER_CHARGES


@<TRIPOS>ATOM
  1 O        3.6430     0.1020     1.8530 O.2   1 <1>  -0.5700 
  2 C        3.0420    -0.3500     0.8990 C.2   1 <1>   0.5440 
  3 N        2.5790     0.5380    -0.0480 N.am  1 <1>  -0.6600 
  4 C        2.9220    -1.7810     0.7120 C.ar  1 <1>   0.0860 
  5 C        2.5780     0.2110    -1.5100 C.3   1 <1>   0.1400 
  6 C        2.2950     1.9600     0.2970 C.3   1 <1>   0.1400 
  7 C        1.6870    -2.4260     0.5680 C.ar  1 <1>   0.1660 
  8 C        4.0630    -2.5670     0.6370 C.ar  1 <1>  -0.1500 
  9 C        3.9900     0.3730    -2.1180 C.3   1 <1>   0.3430 
 10 C        3.5320     2.8510     0.1120 C.3   1 <1>  -0.1600 
 11 N        1.5410    -3.7120     0.3010 N.ar  1 <1>  -0.6200 
 12 C        0.3750    -1.6720     0.7140 C.3   1 <1>  -0.0960 
 13 C        3.9150    -3.9120     0.3850 C.ar  1 <1>  -0.1500 
 14 N        4.8200     1.3450    -1.3390 N.4   1 <1>  -0.9590 
 15 C        4.2400     2.7100    -1.2380 C.3   1 <1>   0.3430 
 16 C        2.6440    -4.4340     0.2180 C.ar  1 <1>   0.1670 
 17 C        6.2650     1.3230    -1.6750 C.3   1 <1>   0.4860 
 18 C        2.4510    -5.9080    -0.0690 C.3   1 <1>  -0.0970 
 19 C        7.0250     2.0160    -0.5650 C.ar  1 <1>  -0.1440 
 20 C        7.0280     1.4560     0.7120 C.ar  1 <1>   0.4100 
 21 C        7.7150     3.1880    -0.7870 C.ar  1 <1>  -0.1500 
 22 N        7.6470     1.9740     1.7480 N.ar  1 <1>  -0.6200 
 23 N        6.3760     0.3000     0.9970 N.pl3 1 <1>  -0.9000 
 24 C        8.3710     3.7370     0.2980 C.ar  1 <1>  -0.1500 
 25 C        8.3050     3.0990     1.5230 C.ar  1 <1>   0.1600 
 26 H        1.8920     0.8630    -2.0220 H     1 <1>   0.0800 
 27 H        2.2340    -0.7960    -1.6720 H     1 <1>   0.0800 
 28 H        1.9720     2.0170     1.3240 H     1 <1>   0.0800 
 29 H        1.4850     2.3200    -0.3140 H     1 <1>   0.0800 
 30 H        5.0390    -2.1350     0.7740 H     1 <1>   0.1500 
 31 H        3.9090     0.6810    -3.1470 H     1 <1>   0.0800 
 32 H        4.4710    -0.5910    -2.1000 H     1 <1>   0.0800 
 33 H        4.2310     2.6610     0.9080 H     1 <1>   0.0800 
 34 H        3.2190     3.8740     0.2220 H     1 <1>   0.0800 
 35 H        0.4720    -0.8350     1.3810 H     1 <1>   0.0800 
 36 H       -0.3770    -2.3270     1.1180 H     1 <1>   0.0800 
 37 H        0.0430    -1.3270    -0.2470 H     1 <1>   0.0800 
 38 H        4.7770    -4.5510     0.3220 H     1 <1>   0.1500 
 39 H        4.8000     0.9860    -0.3630 H     1 <1>   0.4500 
 40 H        5.0250     3.4480    -1.2920 H     1 <1>   0.0800 
 41 H        3.5490     2.8900    -2.0450 H     1 <1>   0.0800 
 42 H        6.4410     1.8150    -2.6170 H     1 <1>   0.0800 
 43 H        6.6110     0.3040    -1.7440 H     1 <1>   0.0800 
 44 H        1.9310    -6.0280    -1.0020 H     1 <1>   0.0800 
 45 H        1.8600    -6.3490     0.7130 H     1 <1>   0.0800 
 46 H        3.3920    -6.4220    -0.1250 H     1 <1>   0.0800 
 47 H        7.7590     3.6680    -1.7500 H     1 <1>   0.1500 
 48 H        6.9940    -0.2760     1.5790 H     1 <1>   0.4000 
 49 H        5.5620     0.4550     1.6210 H     1 <1>   0.4000 
 50 H        8.9310     4.6510     0.1970 H     1 <1>   0.1500 
 51 H        8.8210     3.5360     2.3630 H     1 <1>   0.1500 
@<TRIPOS>BOND
  1   1   2  2   
  2   2   3  am  
  3   2   4  1   
  4   3   5  1   
  5   3   6  1   
  6   4   7  ar  
  7   4   8  ar  
  8   5   9  1   
  9   5  26  1   
 10   5  27  1   
 11   6  10  1   
 12   6  28  1   
 13   6  29  1   
 14   7  11  ar  
 15   7  12  1   
 16   8  13  ar  
 17   8  30  1   
 18   9  14  1   
 19   9  31  1   
 20   9  32  1   
 21  10  15  1   
 22  10  33  1   
 23  10  34  1   
 24  11  16  ar  
 25  12  35  1   
 26  12  36  1   
 27  12  37  1   
 28  13  16  ar  
 29  13  38  1   
 30  14  15  1   
 31  14  17  1   
 32  14  39  1   
 33  15  40  1   
 34  15  41  1   
 35  16  18  1   
 36  17  19  1   
 37  17  42  1   
 38  17  43  1   
 39  18  44  1   
 40  18  45  1   
 41  18  46  1   
 42  19  20  ar  
 43  19  21  ar  
 44  20  22  ar  
 45  20  23  1   
 46  21  24  ar  
 47  21  47  1   
 48  22  25  ar  
 49  23  48  1   
 50  23  49  1   
 51  24  25  ar  
 52  24  50  1   
 53  25  51  1   
@<TRIPOS>SUBSTRUCTURE
  1 ****   2 GROUP 4 **** **** 0

# MOE 2024.06 (io_trps.svl 2023.06)
