@<TRIPOS>MOLECULE
NONAME
41 43 1 0 0 
SMALL
USER_CHARGES


@<TRIPOS>ATOM
  1 O       -0.1880    -1.0160    -0.8150 O.2   1 <1>  -0.5700 
  2 C        0.5540    -1.9090    -0.4990 C.2   1 <1>   0.5690 
  3 N        0.1490    -3.1950    -0.4800 N.am  1 <1>  -0.7300 
  4 C        1.9860    -1.6240    -0.0980 C.3   1 <1>  -0.0990 
  5 C        1.0360    -4.3140    -0.1020 C.3   1 <1>   0.1400 
  6 C        2.9460    -2.6450    -0.7430 C.3   1 <1>  -0.0800 
  7 C        2.4260    -4.1020    -0.7350 C.3   1 <1>  -0.0800 
  8 C        4.3290    -2.6820    -0.0810 C.3   1 <1>  -0.1600 
  9 C        3.5250    -4.9300    -0.0590 C.3   1 <1>  -0.1600 
 10 C        4.8090    -4.1250    -0.2590 C.3   1 <1>   0.2200 
 11 N        5.8990    -4.5530     0.6760 N.am  1 <1>  -0.6600 
 12 C        6.4780    -3.7360     1.6270 C.2   1 <1>   0.7030 
 13 C        6.1060    -6.0290     0.7930 C.3   1 <1>   0.0600 
 14 O        6.4370    -4.0940     2.7880 O.2   1 <1>  -0.5700 
 15 C        7.1530    -2.4830     1.3150 C.2   1 <1>   0.2770 
 16 N        7.7980    -2.0750     0.1380 N.pl3 1 <1>  -0.7640 
 17 C        7.3090    -1.4550     2.1890 C.2   1 <1>   0.2000 
 18 C        8.2910    -0.8600     0.3430 C.cat 1 <1>   0.6500 
 19 C        7.9710    -2.9070    -1.0860 C.3   1 <1>   0.2740 
 20 N        8.0070    -0.4550     1.5710 N.pl3 1 <1>  -0.7000 
 21 H       -0.8270    -3.3890    -0.7150 H     1 <1>   0.3700 
 22 H        2.2480    -0.6250    -0.3940 H     1 <1>   0.0800 
 23 H        2.0330    -1.6820     0.9740 H     1 <1>   0.0800 
 24 H        1.1110    -4.3380     0.9730 H     1 <1>   0.0800 
 25 H        0.6140    -5.2460    -0.4370 H     1 <1>   0.0800 
 26 H        3.0690    -2.3620    -1.7760 H     1 <1>   0.0800 
 27 H        2.3570    -4.4230    -1.7620 H     1 <1>   0.0800 
 28 H        4.2180    -2.4630     0.9670 H     1 <1>   0.0800 
 29 H        4.9900    -1.9700    -0.5400 H     1 <1>   0.0800 
 30 H        3.5890    -5.9120    -0.4940 H     1 <1>   0.0800 
 31 H        3.3220    -5.0120     0.9960 H     1 <1>   0.0800 
 32 H        5.1410    -4.2630    -1.2750 H     1 <1>   0.0800 
 33 H        6.1330    -6.4830    -0.1820 H     1 <1>   0.0800 
 34 H        5.3100    -6.4690     1.3700 H     1 <1>   0.0800 
 35 H        7.0370    -6.2350     1.2960 H     1 <1>   0.0800 
 36 H        6.9600    -1.4050     3.2100 H     1 <1>   0.1500 
 37 H        8.8550    -0.2840    -0.3800 H     1 <1>   0.1500 
 38 H        8.2430    -3.9130    -0.8130 H     1 <1>   0.0800 
 39 H        8.7480    -2.4990    -1.7110 H     1 <1>   0.0800 
 40 H        7.0540    -2.9320    -1.6490 H     1 <1>   0.0800 
 41 H        8.2780     0.4380     1.9960 H     1 <1>   0.4500 
@<TRIPOS>BOND
  1   1   2  2   
  2   2   3  am  
  3   2   4  1   
  4   3   5  1   
  5   3  21  1   
  6   4   6  1   
  7   4  22  1   
  8   4  23  1   
  9   5   7  1   
 10   5  24  1   
 11   5  25  1   
 12   6   7  1   
 13   6   8  1   
 14   6  26  1   
 15   7   9  1   
 16   7  27  1   
 17   8  10  1   
 18   8  28  1   
 19   8  29  1   
 20   9  10  1   
 21   9  30  1   
 22   9  31  1   
 23  10  11  1   
 24  10  32  1   
 25  11  12  am  
 26  11  13  1   
 27  12  14  2   
 28  12  15  1   
 29  13  33  1   
 30  13  34  1   
 31  13  35  1   
 32  15  16  1   
 33  15  17  2   
 34  16  18  ar  
 35  16  19  1   
 36  17  20  1   
 37  17  36  1   
 38  18  20  ar  
 39  18  37  1   
 40  19  38  1   
 41  19  39  1   
 42  19  40  1   
 43  20  41  1   
@<TRIPOS>SUBSTRUCTURE
  1 ****   8 GROUP 4 **** **** 0

# MOE 2024.06 (io_trps.svl 2023.06)
