@<TRIPOS>MOLECULE
NONAME
48 51 1 0 0 
SMALL
USER_CHARGES


@<TRIPOS>ATOM
  1 O       -2.1670     0.3870    -2.0600 O.2   1 <1>  -0.5700 
  2 C       -2.0340     0.8570    -0.9470 C.2   1 <1>   0.5440 
  3 N       -2.2760     0.0200     0.1220 N.am  1 <1>  -0.6600 
  4 C       -1.7470     2.2690    -0.7680 C.ar  1 <1>   0.0860 
  5 C       -3.1330     0.4650     1.2590 C.3   1 <1>   0.1400 
  6 C       -2.2690    -1.4580    -0.0730 C.3   1 <1>   0.1400 
  7 C       -0.7030     2.7480     0.0400 C.ar  1 <1>  -0.1440 
  8 C       -2.5560     3.2070    -1.4150 C.ar  1 <1>  -0.1500 
  9 C       -4.5850    -0.0490     1.0870 C.3   1 <1>   0.4230 
 10 C       -3.7060    -1.9550    -0.3010 C.3   1 <1>   0.3430 
 11 C       -0.5200     4.1110     0.2110 C.ar  1 <1>  -0.1500 
 12 C        0.2680     1.7970     0.7300 C.3   1 <1>  -0.0960 
 13 C       -2.3700     4.5640    -1.2450 C.ar  1 <1>  -0.1500 
 14 N       -4.6370    -1.5480     0.8230 N.4   1 <1>  -0.9590 
 15 C       -5.3120     0.7340    -0.0330 C.3   1 <1>   0.1200 
 16 C       -1.3540     5.0150    -0.4250 C.ar  1 <1>   0.0830 
 17 C       -6.0600    -1.9670     0.5780 C.3   1 <1>   0.5180 
 18 O       -6.6230     0.2690    -0.1730 O.3   1 <1>  -0.5600 
 19 O       -1.1820     6.3310    -0.2600 O.3   1 <1>  -0.5330 
 20 C       -6.1080    -3.4820     0.2940 C.3   1 <1>  -0.1950 
 21 C       -6.7280    -1.0870    -0.5090 C.3   1 <1>   0.1200 
 22 C       -5.9560    -4.1060    -1.0640 C.3   1 <1>  -0.2000 
 23 C       -7.2810    -4.1520    -0.3580 C.3   1 <1>  -0.2000 
 24 H       -2.7220     0.0860     2.1790 H     1 <1>   0.0800 
 25 H       -3.1370     1.5400     1.3300 H     1 <1>   0.0800 
 26 H       -1.6610    -1.7160    -0.9250 H     1 <1>   0.0800 
 27 H       -1.8390    -1.9360     0.7890 H     1 <1>   0.0800 
 28 H       -3.3400     2.8610    -2.0670 H     1 <1>   0.1500 
 29 H       -5.1120     0.1630     2.0020 H     1 <1>   0.0800 
 30 H       -3.6900    -3.0270    -0.3980 H     1 <1>   0.0800 
 31 H       -4.0560    -1.5450    -1.2350 H     1 <1>   0.0800 
 32 H        0.2760     4.4770     0.8340 H     1 <1>   0.1500 
 33 H        1.1570     2.3150     1.0440 H     1 <1>   0.0800 
 34 H        0.5670     1.0120     0.0570 H     1 <1>   0.0800 
 35 H       -0.1920     1.3580     1.5970 H     1 <1>   0.0800 
 36 H       -3.0000     5.2780    -1.7460 H     1 <1>   0.1500 
 37 H       -4.3250    -2.0300     1.6710 H     1 <1>   0.4500 
 38 H       -4.8080     0.6370    -0.9790 H     1 <1>   0.0800 
 39 H       -5.3640     1.7800     0.2170 H     1 <1>   0.0800 
 40 H       -6.6220    -1.8020     1.4830 H     1 <1>   0.0800 
 41 H       -0.4240     6.5640     0.3050 H     1 <1>   0.4500 
 42 H       -5.7040    -4.0300     1.1280 H     1 <1>   0.1000 
 43 H       -7.7760    -1.3170    -0.5790 H     1 <1>   0.0800 
 44 H       -6.2800    -1.2390    -1.4750 H     1 <1>   0.0800 
 45 H       -5.8990    -3.5100    -1.9600 H     1 <1>   0.1000 
 46 H       -5.4120    -5.0310    -1.1630 H     1 <1>   0.1000 
 47 H       -7.6180    -5.1010     0.0260 H     1 <1>   0.1000 
 48 H       -8.0920    -3.5860    -0.7830 H     1 <1>   0.1000 
@<TRIPOS>BOND
  1   1   2  2   
  2   2   3  am  
  3   2   4  1   
  4   3   5  1   
  5   3   6  1   
  6   4   7  ar  
  7   4   8  ar  
  8   5   9  1   
  9   5  24  1   
 10   5  25  1   
 11   6  10  1   
 12   6  26  1   
 13   6  27  1   
 14   7  11  ar  
 15   7  12  1   
 16   8  13  ar  
 17   8  28  1   
 18   9  14  1   
 19   9  15  1   
 20   9  29  1   
 21  10  14  1   
 22  10  30  1   
 23  10  31  1   
 24  11  16  ar  
 25  11  32  1   
 26  12  33  1   
 27  12  34  1   
 28  12  35  1   
 29  13  16  ar  
 30  13  36  1   
 31  14  17  1   
 32  14  37  1   
 33  15  18  1   
 34  15  38  1   
 35  15  39  1   
 36  16  19  1   
 37  17  20  1   
 38  17  21  1   
 39  17  40  1   
 40  18  21  1   
 41  19  41  1   
 42  20  22  1   
 43  20  23  1   
 44  20  42  1   
 45  21  43  1   
 46  21  44  1   
 47  22  23  1   
 48  22  45  1   
 49  22  46  1   
 50  23  47  1   
 51  23  48  1   
@<TRIPOS>SUBSTRUCTURE
  1 ****   3 GROUP 4 **** **** 0

# MOE 2024.06 (io_trps.svl 2023.06)
