@<TRIPOS>MOLECULE
NONAME
44 45 1 0 0 
SMALL
USER_CHARGES


@<TRIPOS>ATOM
  1 S        1.9720     0.4610    -2.0440 S.3   1 <1>  -0.0800 
  2 C        2.0100    -0.0060    -0.3490 C.2   1 <1>  -0.1400 
  3 C        0.3900    -0.2690    -2.2550 C.2   1 <1>  -0.1100 
  4 C        0.8840    -0.6660    -0.0190 C.2   1 <1>  -0.1500 
  5 C        3.2360     0.3720     0.4580 C.3   1 <1>   0.0200 
  6 C       -0.0380    -0.8150    -1.1030 C.2   1 <1>  -0.1500 
  7 C        3.2870     1.8870     0.6930 C.3   1 <1>  -0.1600 
  8 C        4.5360     2.2980     1.4910 C.3   1 <1>  -0.0990 
  9 C        4.5760     3.7900     1.7660 C.2   1 <1>   0.5690 
 10 O        4.4530     4.1630     2.9060 O.2   1 <1>  -0.5700 
 11 N        4.7610     4.6240     0.7000 N.am  1 <1>  -0.4940 
 12 C        4.8870     6.0330     0.6100 C.2   1 <1>  -0.0880 
 13 N        4.3220     6.9840     1.4080 N.pl3 1 <1>   0.3140 
 14 C        5.6010     6.7030    -0.3280 C.2   1 <1>  -0.1810 
 15 N        4.6590     8.2280     1.0050 N.2   1 <1>  -0.7070 
 16 C        3.3750     6.8200     2.5180 C.3   1 <1>   0.0160 
 17 C        5.4250     8.0520    -0.0240 C.2   1 <1>   0.1080 
 18 C        6.4270     6.1250    -1.4650 C.3   1 <1>   0.0210 
 19 C        6.0290     9.2250    -0.7750 C.3   1 <1>   0.0210 
 20 C        7.8610     5.8630    -1.0010 C.3   1 <1>  -0.2400 
 21 C        5.1150     9.6840    -1.9160 C.3   1 <1>  -0.2400 
 22 H       -0.0550    -0.2100    -3.2320 H     1 <1>   0.1500 
 23 H        0.6540    -1.0630     0.9550 H     1 <1>   0.1500 
 24 H        4.1160     0.0440    -0.0670 H     1 <1>   0.0800 
 25 H        3.2020    -0.1380     1.4050 H     1 <1>   0.0800 
 26 H       -0.9760    -1.3240    -0.9630 H     1 <1>   0.1500 
 27 H        2.4040     2.1870     1.2330 H     1 <1>   0.0800 
 28 H        3.2790     2.3940    -0.2560 H     1 <1>   0.0800 
 29 H        5.4260     2.0220     0.9560 H     1 <1>   0.0800 
 30 H        4.5460     1.7800     2.4340 H     1 <1>   0.0800 
 31 H        4.9210     4.1460    -0.1850 H     1 <1>   0.3700 
 32 H        2.7070     6.0090     2.3010 H     1 <1>   0.0800 
 33 H        2.8150     7.7270     2.6410 H     1 <1>   0.0800 
 34 H        3.9250     6.6120     3.4170 H     1 <1>   0.0800 
 35 H        6.4300     6.8060    -2.2970 H     1 <1>   0.0800 
 36 H        5.9840     5.2050    -1.8020 H     1 <1>   0.0800 
 37 H        6.9930     8.9510    -1.1610 H     1 <1>   0.0800 
 38 H        6.1710    10.0370    -0.0830 H     1 <1>   0.0800 
 39 H        8.3190     6.7800    -0.6770 H     1 <1>   0.0800 
 40 H        8.4430     5.4480    -1.8040 H     1 <1>   0.0800 
 41 H        7.8610     5.1720    -0.1770 H     1 <1>   0.0800 
 42 H        4.9660     8.8840    -2.6190 H     1 <1>   0.0800 
 43 H        5.5500    10.5240    -2.4260 H     1 <1>   0.0800 
 44 H        4.1590     9.9740    -1.5180 H     1 <1>   0.0800 
@<TRIPOS>BOND
  1   1   2  1   
  2   1   3  1   
  3   2   4  2   
  4   2   5  1   
  5   3   6  2   
  6   3  22  1   
  7   4   6  1   
  8   4  23  1   
  9   5   7  1   
 10   5  24  1   
 11   5  25  1   
 12   6  26  1   
 13   7   8  1   
 14   7  27  1   
 15   7  28  1   
 16   8   9  1   
 17   8  29  1   
 18   8  30  1   
 19   9  10  2   
 20   9  11  am  
 21  11  12  1   
 22  11  31  1   
 23  12  13  1   
 24  12  14  2   
 25  13  15  1   
 26  13  16  1   
 27  14  17  1   
 28  14  18  1   
 29  15  17  2   
 30  16  32  1   
 31  16  33  1   
 32  16  34  1   
 33  17  19  1   
 34  18  20  1   
 35  18  35  1   
 36  18  36  1   
 37  19  21  1   
 38  19  37  1   
 39  19  38  1   
 40  20  39  1   
 41  20  40  1   
 42  20  41  1   
 43  21  42  1   
 44  21  43  1   
 45  21  44  1   
@<TRIPOS>SUBSTRUCTURE
  1 ****  11 GROUP 4 **** **** 0

# MOE 2024.06 (io_trps.svl 2023.06)
