@<TRIPOS>MOLECULE
NONAME
41 42 1 0 0 
SMALL
USER_CHARGES


@<TRIPOS>ATOM
  1 CL      -0.8750    -1.5310    -0.0830 Cl    1 <1>  -0.1770 
  2 C       -1.7700    -0.0240    -0.0490 C.ar  1 <1>   0.1770 
  3 C       -1.0720     1.1410     0.2310 C.ar  1 <1>   0.1770 
  4 C       -3.1430     0.0060    -0.3070 C.ar  1 <1>   0.0860 
  5 CL       0.6450     1.0940     0.5620 Cl    1 <1>  -0.1770 
  6 C       -1.7070     2.3670     0.2560 C.ar  1 <1>  -0.1500 
  7 C       -3.9410    -1.1710    -0.5930 C.2   1 <1>   0.5440 
  8 C       -3.7620     1.2610    -0.2850 C.ar  1 <1>  -0.1500 
  9 C       -3.0640     2.4230    -0.0080 C.ar  1 <1>  -0.1500 
 10 O       -4.8530    -1.1080    -1.3940 O.2   1 <1>  -0.5700 
 11 N       -3.7460    -2.3540     0.0550 N.am  1 <1>  -0.7300 
 12 C       -4.4930    -3.6020    -0.2190 C.3   1 <1>   0.2200 
 13 C       -5.7660    -3.6230     0.6310 C.3   1 <1>  -0.0800 
 14 C       -3.7160    -4.8160     0.2850 C.3   1 <1>   0.1200 
 15 C       -5.5570    -4.8120     1.5770 C.3   1 <1>   0.1200 
 16 C       -7.0640    -3.6110    -0.2090 C.3   1 <1>  -0.0550 
 17 O       -4.1860    -5.0360     1.5760 O.3   1 <1>  -0.5600 
 18 S       -7.4350    -5.0700    -1.1960 S.o2  1 <1>   1.3330 
 19 O       -8.4860    -4.7480    -2.1340 O.2   1 <1>  -0.6500 
 20 O       -6.1990    -5.6440    -1.6810 O.2   1 <1>  -0.6500 
 21 N       -8.1020    -6.1500    -0.0650 N.am  1 <1>  -0.8490 
 22 C       -7.8780    -7.5510    -0.4360 C.3   1 <1>   0.1160 
 23 C       -9.5320    -5.9270     0.1820 C.3   1 <1>   0.1160 
 24 H       -1.1480     3.2600     0.4750 H     1 <1>   0.1500 
 25 H       -4.8180     1.3190    -0.4940 H     1 <1>   0.1500 
 26 H       -3.5760     3.3720     0.0010 H     1 <1>   0.1500 
 27 H       -3.0150    -2.4440     0.7660 H     1 <1>   0.3700 
 28 H       -4.6810    -3.6840    -1.2760 H     1 <1>   0.0800 
 29 H       -5.7890    -2.7410     1.2460 H     1 <1>   0.0800 
 30 H       -2.6520    -4.6600     0.3050 H     1 <1>   0.0800 
 31 H       -3.9490    -5.6870    -0.3050 H     1 <1>   0.0800 
 32 H       -6.0230    -5.7150     1.2280 H     1 <1>   0.0800 
 33 H       -5.8780    -4.6010     2.5820 H     1 <1>   0.0800 
 34 H       -6.9980    -2.7700    -0.8750 H     1 <1>   0.0800 
 35 H       -7.8910    -3.4190     0.4440 H     1 <1>   0.0800 
 36 H       -8.3060    -8.2070     0.3030 H     1 <1>   0.0800 
 37 H       -6.8220    -7.7530    -0.4920 H     1 <1>   0.0800 
 38 H       -8.3210    -7.7590    -1.3960 H     1 <1>   0.0800 
 39 H       -9.8750    -6.5710     0.9740 H     1 <1>   0.0800 
 40 H      -10.1050    -6.1300    -0.7080 H     1 <1>   0.0800 
 41 H       -9.7050    -4.9060     0.4760 H     1 <1>   0.0800 
@<TRIPOS>BOND
  1   1   2  1   
  2   2   3  ar  
  3   2   4  ar  
  4   3   5  1   
  5   3   6  ar  
  6   4   7  1   
  7   4   8  ar  
  8   6   9  ar  
  9   6  24  1   
 10   7  10  2   
 11   7  11  am  
 12   8   9  ar  
 13   8  25  1   
 14   9  26  1   
 15  11  12  1   
 16  11  27  1   
 17  12  13  1   
 18  12  14  1   
 19  12  28  1   
 20  13  15  1   
 21  13  16  1   
 22  13  29  1   
 23  14  17  1   
 24  14  30  1   
 25  14  31  1   
 26  15  17  1   
 27  15  32  1   
 28  15  33  1   
 29  16  18  1   
 30  16  34  1   
 31  16  35  1   
 32  18  19  2   
 33  18  20  2   
 34  18  21  am  
 35  21  22  1   
 36  21  23  1   
 37  22  36  1   
 38  22  37  1   
 39  22  38  1   
 40  23  39  1   
 41  23  40  1   
 42  23  41  1   
@<TRIPOS>SUBSTRUCTURE
  1 ****  11 GROUP 4 **** **** 0

# MOE 2024.06 (io_trps.svl 2023.06)
