@<TRIPOS>MOLECULE
NONAME
51 54 1 0 0 
SMALL
USER_CHARGES


@<TRIPOS>ATOM
  1 O       -0.9280     0.3440    -1.2380 O.2   1 <1>  -0.5700 
  2 C       -1.9380     0.9530    -0.9430 C.2   1 <1>   0.7160 
  3 N       -3.1570     0.3160    -1.0280 N.am  1 <1>  -0.6600 
  4 C       -1.8440     2.3180    -0.4940 C.2   1 <1>  -0.0860 
  5 C       -4.3800     0.7670    -0.2930 C.3   1 <1>   0.1400 
  6 C       -3.3060    -1.0420    -1.6360 C.3   1 <1>   0.1400 
  7 C       -1.0810     2.8100     0.5530 C.2   1 <1>   0.1080 
  8 C       -2.4480     3.4440    -0.9300 C.2   1 <1>  -0.0400 
  9 C       -4.8320    -0.2970     0.7250 C.3   1 <1>   0.1900 
 10 C       -3.7970    -2.0600    -0.5940 C.3   1 <1>   0.1100 
 11 N       -1.2710     4.0680     0.6930 N.2   1 <1>  -0.4100 
 12 C       -0.1430     1.9990     1.4330 C.3   1 <1>   0.0210 
 13 O       -2.1170     4.4930    -0.2170 O.3   1 <1>  -0.0190 
 14 C       -3.4040     3.6430    -2.0900 C.3   1 <1>  -0.0600 
 15 N       -5.0460    -1.6050     0.0570 N.3   1 <1>  -0.8100 
 16 C       -6.1150     0.1600     1.4470 C.3   1 <1>   0.1200 
 17 C        1.2760     1.9770     0.8560 C.3   1 <1>  -0.2400 
 18 C       -5.5490    -2.5980     1.0390 C.3   1 <1>   0.3330 
 19 O       -6.5290    -0.8070     2.3690 O.3   1 <1>  -0.5600 
 20 C       -5.9070    -3.9150     0.3530 C.ar  1 <1>  -0.1440 
 21 C       -6.7880    -2.0550     1.7810 C.3   1 <1>   0.1200 
 22 C       -5.4620    -5.1190     0.8820 C.ar  1 <1>  -0.1500 
 23 C       -6.6800    -3.9310    -0.8000 C.ar  1 <1>  -0.1500 
 24 C       -5.7860    -6.3170     0.2700 C.ar  1 <1>  -0.1500 
 25 C       -7.0050    -5.1290    -1.4140 C.ar  1 <1>  -0.1500 
 26 C       -6.5580    -6.3230    -0.8780 C.ar  1 <1>  -0.1500 
 27 H       -4.1950     1.6880     0.2300 H     1 <1>   0.0800 
 28 H       -5.1710     0.9380    -1.0020 H     1 <1>   0.0800 
 29 H       -4.0210    -0.9920    -2.4380 H     1 <1>   0.0800 
 30 H       -2.3730    -1.3820    -2.0510 H     1 <1>   0.0800 
 31 H       -4.0580    -0.3960     1.4670 H     1 <1>   0.0800 
 32 H       -3.0270    -2.2100     0.1430 H     1 <1>   0.0800 
 33 H       -3.9660    -2.9990    -1.0940 H     1 <1>   0.0800 
 34 H       -0.1210     2.4380     2.4140 H     1 <1>   0.0800 
 35 H       -0.5120     0.9930     1.5270 H     1 <1>   0.0800 
 36 H       -3.5630     2.7190    -2.6160 H     1 <1>   0.0800 
 37 H       -2.9940     4.3630    -2.7750 H     1 <1>   0.0800 
 38 H       -4.3480     4.0070    -1.7270 H     1 <1>   0.0800 
 39 H       -6.9110     0.3250     0.7420 H     1 <1>   0.0800 
 40 H       -5.9360     1.0700     1.9910 H     1 <1>   0.0800 
 41 H        1.6540     2.9800     0.7680 H     1 <1>   0.0800 
 42 H        1.2730     1.5230    -0.1200 H     1 <1>   0.0800 
 43 H        1.9290     1.4130     1.4970 H     1 <1>   0.0800 
 44 H       -4.7820    -2.7830     1.7710 H     1 <1>   0.0800 
 45 H       -7.0740    -2.7350     2.5640 H     1 <1>   0.0800 
 46 H       -7.6150    -1.9490     1.1010 H     1 <1>   0.0800 
 47 H       -4.8620    -5.1310     1.7750 H     1 <1>   0.1500 
 48 H       -7.0260    -3.0040    -1.2230 H     1 <1>   0.1500 
 49 H       -5.4370    -7.2460     0.6860 H     1 <1>   0.1500 
 50 H       -7.6050    -5.1290    -2.3070 H     1 <1>   0.1500 
 51 H       -6.8100    -7.2540    -1.3550 H     1 <1>   0.1500 
@<TRIPOS>BOND
  1   1   2  2   
  2   2   3  am  
  3   2   4  1   
  4   3   5  1   
  5   3   6  1   
  6   4   7  1   
  7   4   8  2   
  8   5   9  1   
  9   5  27  1   
 10   5  28  1   
 11   6  10  1   
 12   6  29  1   
 13   6  30  1   
 14   7  11  2   
 15   7  12  1   
 16   8  13  1   
 17   8  14  1   
 18   9  15  1   
 19   9  16  1   
 20   9  31  1   
 21  10  15  1   
 22  10  32  1   
 23  10  33  1   
 24  11  13  1   
 25  12  17  1   
 26  12  34  1   
 27  12  35  1   
 28  14  36  1   
 29  14  37  1   
 30  14  38  1   
 31  15  18  1   
 32  16  19  1   
 33  16  39  1   
 34  16  40  1   
 35  17  41  1   
 36  17  42  1   
 37  17  43  1   
 38  18  20  1   
 39  18  21  1   
 40  18  44  1   
 41  19  21  1   
 42  20  22  ar  
 43  20  23  ar  
 44  21  45  1   
 45  21  46  1   
 46  22  24  ar  
 47  22  47  1   
 48  23  25  ar  
 49  23  48  1   
 50  24  26  ar  
 51  24  49  1   
 52  25  26  ar  
 53  25  50  1   
 54  26  51  1   
@<TRIPOS>SUBSTRUCTURE
  1 ****   9 GROUP 4 **** **** 0

# MOE 2024.06 (io_trps.svl 2023.06)
