@<TRIPOS>MOLECULE
NONAME
47 49 1 0 0 
SMALL
USER_CHARGES


@<TRIPOS>ATOM
  1 O       -3.1310    -1.8570    -3.2220 O.2   1 <1>  -0.5700 
  2 C       -3.5910    -1.5490    -2.1380 C.2   1 <1>   0.5410 
  3 C       -4.5530    -2.3440    -1.4680 C.2   1 <1>  -0.1360 
  4 C       -3.1950    -0.3630    -1.4630 C.2   1 <1>  -0.1360 
  5 C       -5.0680    -1.9820    -0.2590 C.2   1 <1>   0.0910 
  6 C       -3.7260    -0.0470    -0.2610 C.2   1 <1>  -0.0620 
  7 O       -4.6340    -0.8410     0.3170 O.3   1 <1>  -0.1530 
  8 C       -6.0380    -2.7610     0.4850 C.2   1 <1>   0.6160 
  9 C       -3.3760     1.1850     0.5490 C.3   1 <1>  -0.1020 
 10 O       -5.9350    -3.9750     0.4710 O.2   1 <1>  -0.5700 
 11 N       -7.0830    -2.1960     1.1920 N.am  1 <1>  -0.6600 
 12 C       -7.9370    -3.0400     2.0830 C.3   1 <1>   0.1400 
 13 C       -7.6790    -0.8730     0.8620 C.3   1 <1>   0.1400 
 14 C       -8.8980    -3.9540     1.3020 C.3   1 <1>   0.1400 
 15 C       -8.7240    -0.9920    -0.2540 C.3   1 <1>  -0.1600 
 16 N       -9.3560    -3.3820    -0.0110 N.am  1 <1>  -0.6600 
 17 C       -9.8610    -1.9830     0.0350 C.3   1 <1>   0.1400 
 18 C       -9.2570    -4.0420    -1.2150 C.2   1 <1>   0.5690 
 19 O       -9.5910    -3.5070    -2.2500 O.2   1 <1>  -0.5700 
 20 C       -8.7560    -5.4880    -1.3300 C.3   1 <1>   0.2010 
 21 N       -9.8490    -6.4920    -1.1380 N.am  1 <1>  -0.6600 
 22 C      -10.2070    -7.0530     0.0370 C.2   1 <1>   0.7800 
 23 C      -10.9560    -6.5950    -2.0920 C.3   1 <1>   0.1400 
 24 O       -9.5640    -7.0410     1.0640 O.2   1 <1>  -0.5700 
 25 O      -11.4070    -7.6100    -0.0280 O.3   1 <1>  -0.4300 
 26 C      -11.9840    -7.4170    -1.3050 C.3   1 <1>   0.1200 
 27 H       -4.8540    -3.2490    -1.9600 H     1 <1>   0.1500 
 28 H       -2.4640     0.2440    -1.9620 H     1 <1>   0.1500 
 29 H       -4.2560     1.7820     0.7080 H     1 <1>   0.0800 
 30 H       -2.6420     1.7810     0.0370 H     1 <1>   0.0800 
 31 H       -2.9780     0.8940     1.5050 H     1 <1>   0.0800 
 32 H       -8.5070    -2.4090     2.7420 H     1 <1>   0.0800 
 33 H       -7.3060    -3.6540     2.7030 H     1 <1>   0.0800 
 34 H       -6.9190    -0.1800     0.5540 H     1 <1>   0.0800 
 35 H       -8.1390    -0.4620     1.7450 H     1 <1>   0.0800 
 36 H       -9.7570    -4.1760     1.9110 H     1 <1>   0.0800 
 37 H       -8.3820    -4.8800     1.1540 H     1 <1>   0.0800 
 38 H       -8.2420    -1.2620    -1.1770 H     1 <1>   0.0800 
 39 H       -9.1600    -0.0220    -0.4020 H     1 <1>   0.0800 
 40 H      -10.6290    -1.8640    -0.7110 H     1 <1>   0.0800 
 41 H      -10.3050    -1.7820     0.9940 H     1 <1>   0.0800 
 42 H       -7.9590    -5.6720    -0.6350 H     1 <1>   0.0800 
 43 H       -8.3430    -5.6190    -2.3130 H     1 <1>   0.0800 
 44 H      -10.6460    -7.1040    -2.9880 H     1 <1>   0.0800 
 45 H      -11.3460    -5.6210    -2.3370 H     1 <1>   0.0800 
 46 H      -12.1520    -8.3780    -1.7560 H     1 <1>   0.0800 
 47 H      -12.9140    -6.8890    -1.1910 H     1 <1>   0.0800 
@<TRIPOS>BOND
  1   1   2  2   
  2   2   3  1   
  3   2   4  1   
  4   3   5  2   
  5   3  27  1   
  6   4   6  2   
  7   4  28  1   
  8   5   7  1   
  9   5   8  1   
 10   6   7  1   
 11   6   9  1   
 12   8  10  2   
 13   8  11  am  
 14   9  29  1   
 15   9  30  1   
 16   9  31  1   
 17  11  12  1   
 18  11  13  1   
 19  12  14  1   
 20  12  32  1   
 21  12  33  1   
 22  13  15  1   
 23  13  34  1   
 24  13  35  1   
 25  14  16  1   
 26  14  36  1   
 27  14  37  1   
 28  15  17  1   
 29  15  38  1   
 30  15  39  1   
 31  16  17  1   
 32  16  18  am  
 33  17  40  1   
 34  17  41  1   
 35  18  19  2   
 36  18  20  1   
 37  20  21  1   
 38  20  42  1   
 39  20  43  1   
 40  21  22  am  
 41  21  23  1   
 42  22  24  2   
 43  22  25  1   
 44  23  26  1   
 45  23  44  1   
 46  23  45  1   
 47  25  26  1   
 48  26  46  1   
 49  26  47  1   
@<TRIPOS>SUBSTRUCTURE
  1 ****   8 GROUP 4 **** **** 0

# MOE 2024.06 (io_trps.svl 2023.06)
