@<TRIPOS>MOLECULE
NONAME
64 66 1 0 0 
SMALL
USER_CHARGES


@<TRIPOS>ATOM
  1 O       -0.8430     0.7620    -0.0080 O.2   1 <1>  -0.5700 
  2 C       -1.7690     1.4920    -0.2760 C.2   1 <1>   0.5690 
  3 N       -2.9390     0.9710    -0.7650 N.am  1 <1>  -0.6600 
  4 C       -1.6360     2.9890    -0.0240 C.3   1 <1>  -0.0990 
  5 C       -3.0130    -0.4600    -1.1590 C.3   1 <1>   0.1400 
  6 C       -4.2790     1.5910    -0.6050 C.3   1 <1>   0.1400 
  7 C       -0.1800     3.4900     0.0390 C.3   1 <1>  -0.1600 
  8 C       -3.6970    -1.2450    -0.0200 C.3   1 <1>   0.4230 
  9 C       -5.0010     0.8730     0.5470 C.3   1 <1>  -0.1600 
 10 C       -0.1130     5.0070     0.2560 C.3   1 <1>  -0.0170 
 11 N       -3.6690    -2.7540    -0.1880 N.4   1 <1>  -0.9590 
 12 C       -5.0920    -0.6770     0.3930 C.3   1 <1>   0.0000 
 13 C        1.3300     5.4810     0.2980 C.ar  1 <1>  -0.1440 
 14 C       -4.5750    -3.4790     0.7590 C.3   1 <1>   0.3430 
 15 C       -3.9190    -3.2110    -1.5940 C.3   1 <1>   0.2630 
 16 C       -5.4530    -1.2890     1.7780 C.3   1 <1>  -0.1600 
 17 C       -6.2540    -1.0260    -0.5850 C.3   1 <1>   0.1200 
 18 C        2.0180     5.5310     1.4990 C.ar  1 <1>  -0.1500 
 19 C        1.9750     5.8700    -0.8640 C.ar  1 <1>  -0.1500 
 20 C       -4.8110    -2.6700     2.0380 C.3   1 <1>  -0.1600 
 21 O       -5.9350    -0.7710    -1.9080 O.3   1 <1>  -0.6800 
 22 C        3.3320     5.9670     1.5380 C.ar  1 <1>  -0.1500 
 23 C        3.2880     6.3060    -0.8250 C.ar  1 <1>  -0.1500 
 24 C        3.9810     6.3600     0.3770 C.ar  1 <1>  -0.1440 
 25 C        5.4300     6.8400     0.4380 C.3   1 <1>   0.0630 
 26 C        5.5450     8.2940    -0.0320 C.3   1 <1>  -0.2400 
 27 C        6.3440     5.9280    -0.3860 C.3   1 <1>  -0.2400 
 28 H       -2.1390     3.5110    -0.8170 H     1 <1>   0.0800 
 29 H       -2.1290     3.2180     0.9020 H     1 <1>   0.0800 
 30 H       -3.5510    -0.5360    -2.0840 H     1 <1>   0.0800 
 31 H       -2.0220    -0.8470    -1.3200 H     1 <1>   0.0800 
 32 H       -4.1970     2.6400    -0.3820 H     1 <1>   0.0800 
 33 H       -4.8320     1.4950    -1.5250 H     1 <1>   0.0800 
 34 H        0.3380     2.9960     0.8430 H     1 <1>   0.0800 
 35 H        0.3250     3.2390    -0.8780 H     1 <1>   0.0800 
 36 H       -3.0690    -1.0400     0.8320 H     1 <1>   0.0800 
 37 H       -4.4570     1.1200     1.4430 H     1 <1>   0.0800 
 38 H       -5.9850     1.2940     0.6580 H     1 <1>   0.0800 
 39 H       -0.6010     5.2660     1.1790 H     1 <1>   0.0800 
 40 H       -0.6300     5.5130    -0.5410 H     1 <1>   0.0800 
 41 H       -2.7050    -3.0250     0.0540 H     1 <1>   0.4500 
 42 H       -5.5280    -3.6530     0.2860 H     1 <1>   0.0800 
 43 H       -4.1520    -4.4390     1.0070 H     1 <1>   0.0800 
 44 H       -4.9030    -2.9140    -1.9160 H     1 <1>   0.0800 
 45 H       -3.8450    -4.2840    -1.6580 H     1 <1>   0.0800 
 46 H       -3.1950    -2.7800    -2.2660 H     1 <1>   0.0800 
 47 H       -5.1330    -0.6410     2.5780 H     1 <1>   0.0800 
 48 H       -6.5230    -1.3680     1.8760 H     1 <1>   0.0800 
 49 H       -7.1270    -0.4430    -0.3400 H     1 <1>   0.0800 
 50 H       -6.5250    -2.0640    -0.5170 H     1 <1>   0.0800 
 51 H        1.5360     5.2280     2.4110 H     1 <1>   0.1500 
 52 H        1.4590     5.8350    -1.8060 H     1 <1>   0.1500 
 53 H       -5.4450    -3.2340     2.7010 H     1 <1>   0.0800 
 54 H       -3.8680    -2.5440     2.5430 H     1 <1>   0.0800 
 55 H       -6.7460    -0.7250    -2.4590 H     1 <1>   0.4000 
 56 H        3.8450     5.9960     2.4820 H     1 <1>   0.1500 
 57 H        3.7680     6.6030    -1.7390 H     1 <1>   0.1500 
 58 H        5.7630     6.7990     1.4610 H     1 <1>   0.0800 
 59 H        5.2690     8.3840    -1.0670 H     1 <1>   0.0800 
 60 H        6.5530     8.6460     0.0890 H     1 <1>   0.0800 
 61 H        4.8910     8.9170     0.5520 H     1 <1>   0.0800 
 62 H        6.0850     5.9660    -1.4280 H     1 <1>   0.0800 
 63 H        6.2460     4.9120    -0.0460 H     1 <1>   0.0800 
 64 H        7.3700     6.2290    -0.2740 H     1 <1>   0.0800 
@<TRIPOS>BOND
  1   1   2  2   
  2   2   3  am  
  3   2   4  1   
  4   3   5  1   
  5   3   6  1   
  6   4   7  1   
  7   4  28  1   
  8   4  29  1   
  9   5   8  1   
 10   5  30  1   
 11   5  31  1   
 12   6   9  1   
 13   6  32  1   
 14   6  33  1   
 15   7  10  1   
 16   7  34  1   
 17   7  35  1   
 18   8  11  1   
 19   8  12  1   
 20   8  36  1   
 21   9  12  1   
 22   9  37  1   
 23   9  38  1   
 24  10  13  1   
 25  10  39  1   
 26  10  40  1   
 27  11  14  1   
 28  11  15  1   
 29  11  41  1   
 30  12  16  1   
 31  12  17  1   
 32  13  18  ar  
 33  13  19  ar  
 34  14  20  1   
 35  14  42  1   
 36  14  43  1   
 37  15  44  1   
 38  15  45  1   
 39  15  46  1   
 40  16  20  1   
 41  16  47  1   
 42  16  48  1   
 43  17  21  1   
 44  17  49  1   
 45  17  50  1   
 46  18  22  ar  
 47  18  51  1   
 48  19  23  ar  
 49  19  52  1   
 50  20  53  1   
 51  20  54  1   
 52  21  55  1   
 53  22  24  ar  
 54  22  56  1   
 55  23  24  ar  
 56  23  57  1   
 57  24  25  1   
 58  25  26  1   
 59  25  27  1   
 60  25  58  1   
 61  26  59  1   
 62  26  60  1   
 63  26  61  1   
 64  27  62  1   
 65  27  63  1   
 66  27  64  1   
@<TRIPOS>SUBSTRUCTURE
  1 ****   2 GROUP 4 **** **** 0

# MOE 2024.06 (io_trps.svl 2023.06)
