@<TRIPOS>MOLECULE
NONAME
42 45 1 0 0 
SMALL
USER_CHARGES


@<TRIPOS>ATOM
  1 S       -0.7510     0.3850     1.0240 S.3   1 <1>  -0.0800 
  2 C       -0.3460     1.8800     0.2100 C.2   1 <1>  -0.1400 
  3 C        0.7800     0.4190     1.8880 C.2   1 <1>  -0.1100 
  4 C        0.8600     2.3360     0.5690 C.2   1 <1>  -0.1810 
  5 C       -1.2750     2.5470    -0.7680 C.3   1 <1>   0.0200 
  6 C        1.5060     1.5000     1.5420 C.2   1 <1>  -0.1500 
  7 C        1.4260     3.6210    -0.0370 C.3   1 <1>   0.4610 
  8 C       -0.8110     4.0060    -0.9070 C.3   1 <1>   0.1200 
  9 O        0.5870     4.0850    -1.0780 O.3   1 <1>  -0.5600 
 10 C        1.5630     4.7250     1.0190 C.3   1 <1>  -0.1600 
 11 C        2.7820     3.3420    -0.6940 C.3   1 <1>  -0.1600 
 12 C        2.2000     5.9860     0.4350 C.3   1 <1>   0.2090 
 13 C        3.3860     4.6210    -1.2700 C.3   1 <1>   0.2090 
 14 N        3.5200     5.6310    -0.1730 N.pl3 1 <1>  -0.8380 
 15 C        4.6640     6.3290     0.1020 C.ar  1 <1>   0.4610 
 16 N        5.8390     5.6810     0.0470 N.ar  1 <1>  -0.1790 
 17 C        4.7230     7.6550     0.4570 C.ar  1 <1>  -0.1500 
 18 C        7.0050     6.2970     0.3230 C.ar  1 <1>   0.7710 
 19 C        5.9550     8.2280     0.7270 C.ar  1 <1>   0.4100 
 20 N        7.0920     7.5540     0.6610 N.ar  1 <1>  -0.6200 
 21 N        8.1490     5.6090     0.2620 N.pl3 1 <1>  -0.9000 
 22 N        6.0810     9.5150     1.0760 N.pl3 1 <1>  -0.9000 
 23 H        0.9730    -0.3860     2.5740 H     1 <1>   0.1500 
 24 H       -2.2860     2.5190    -0.4050 H     1 <1>   0.0800 
 25 H       -1.2320     2.0470    -1.7180 H     1 <1>   0.0800 
 26 H        2.4760     1.7410     1.9390 H     1 <1>   0.1500 
 27 H       -1.0810     4.5680    -0.0310 H     1 <1>   0.0800 
 28 H       -1.2750     4.4610    -1.7640 H     1 <1>   0.0800 
 29 H        2.1760     4.3700     1.8260 H     1 <1>   0.0800 
 30 H        0.6000     4.9560     1.4340 H     1 <1>   0.0800 
 31 H        2.6440     2.6170    -1.4760 H     1 <1>   0.0800 
 32 H        3.4570     2.9220     0.0260 H     1 <1>   0.0800 
 33 H        2.3200     6.7120     1.2210 H     1 <1>   0.0800 
 34 H        1.5550     6.4060    -0.3210 H     1 <1>   0.0800 
 35 H        2.7370     5.0150    -2.0370 H     1 <1>   0.0800 
 36 H        4.3350     4.4080    -1.7290 H     1 <1>   0.0800 
 37 H        5.8320     4.6930    -0.1460 H     1 <1>   0.4570 
 38 H        3.8380     8.2550     0.5180 H     1 <1>   0.1500 
 39 H        9.0120     6.1190     0.4820 H     1 <1>   0.4000 
 40 H        8.2960     4.6330     0.0050 H     1 <1>   0.4000 
 41 H        7.0110     9.9040     1.2640 H     1 <1>   0.4000 
 42 H        5.3140    10.1860     1.1580 H     1 <1>   0.4000 
@<TRIPOS>BOND
  1   1   2  1   
  2   1   3  1   
  3   2   4  2   
  4   2   5  1   
  5   3   6  2   
  6   3  23  1   
  7   4   6  1   
  8   4   7  1   
  9   5   8  1   
 10   5  24  1   
 11   5  25  1   
 12   6  26  1   
 13   7   9  1   
 14   7  10  1   
 15   7  11  1   
 16   8   9  1   
 17   8  27  1   
 18   8  28  1   
 19  10  12  1   
 20  10  29  1   
 21  10  30  1   
 22  11  13  1   
 23  11  31  1   
 24  11  32  1   
 25  12  14  1   
 26  12  33  1   
 27  12  34  1   
 28  13  14  1   
 29  13  35  1   
 30  13  36  1   
 31  14  15  1   
 32  15  16  ar  
 33  15  17  ar  
 34  16  18  ar  
 35  16  37  1   
 36  17  19  ar  
 37  17  38  1   
 38  18  20  ar  
 39  18  21  1   
 40  19  20  ar  
 41  19  22  1   
 42  21  39  1   
 43  21  40  1   
 44  22  41  1   
 45  22  42  1   
@<TRIPOS>SUBSTRUCTURE
  1 ****  14 GROUP 4 **** **** 0

# MOE 2024.06 (io_trps.svl 2023.06)
