@<TRIPOS>MOLECULE
NONAME
51 54 1 0 0 
SMALL
USER_CHARGES


@<TRIPOS>ATOM
  1 CL       1.9970    -0.5050    -0.4580 Cl    1 <1>  -0.1230 
  2 C        1.5190    -2.1780    -0.2780 C.2   1 <1>   0.4120 
  3 N        0.5730    -2.7290    -0.9470 N.2   1 <1>  -0.4100 
  4 C        2.1270    -3.0570     0.6080 C.2   1 <1>  -0.1500 
  5 O        0.5350    -3.9610    -0.5210 O.3   1 <1>  -0.0190 
  6 C        1.4430    -4.1930     0.3980 C.2   1 <1>  -0.0400 
  7 C        1.5620    -5.5750     1.0110 C.3   1 <1>   0.0200 
  8 C        1.8670    -6.6190    -0.0740 C.3   1 <1>  -0.0990 
  9 C        2.0590    -8.0160     0.4890 C.2   1 <1>   0.5690 
 10 O        1.4690    -8.3400     1.4920 O.2   1 <1>  -0.5700 
 11 N        2.8340    -8.9310    -0.1660 N.am  1 <1>  -0.6600 
 12 C        3.3640   -10.1130     0.6160 C.3   1 <1>   0.2200 
 13 C        2.8690    -8.9940    -1.6590 C.3   1 <1>   0.1400 
 14 C        4.6740   -10.6830     0.0470 C.3   1 <1>   0.1200 
 15 C        2.2890   -11.2210     0.7360 C.3   1 <1>   0.3430 
 16 C        2.7580   -10.4260    -2.2240 C.3   1 <1>  -0.0800 
 17 O        4.4080   -11.6390    -0.9350 O.3   1 <1>  -0.5600 
 18 N        1.1830   -11.0280    -0.2600 N.4   1 <1>  -0.9590 
 19 C        4.1120   -11.1550    -2.2000 C.3   1 <1>   0.1200 
 20 C        1.6120   -11.3110    -1.6730 C.3   1 <1>   0.3430 
 21 C       -0.0450   -11.8050     0.1200 C.3   1 <1>   0.4860 
 22 C        0.1920   -13.3150     0.1890 C.ar  1 <1>   0.1670 
 23 N        0.3380   -13.9530    -0.9660 N.ar  1 <1>  -0.6200 
 24 C        0.2410   -13.9370     1.4290 C.ar  1 <1>  -0.1500 
 25 C        0.5420   -15.2600    -0.8800 C.ar  1 <1>   0.1600 
 26 C        0.4580   -15.2960     1.5020 C.ar  1 <1>  -0.1500 
 27 C        0.6120   -15.9660     0.3080 C.ar  1 <1>  -0.1500 
 28 H        2.9390    -2.8300     1.2720 H     1 <1>   0.1500 
 29 H        2.3460    -5.5740     1.7480 H     1 <1>   0.0800 
 30 H        0.6380    -5.8180     1.5060 H     1 <1>   0.0800 
 31 H        2.7610    -6.3240    -0.5930 H     1 <1>   0.0800 
 32 H        1.0560    -6.6400    -0.7780 H     1 <1>   0.0800 
 33 H        3.5940    -9.7710     1.6110 H     1 <1>   0.0800 
 34 H        2.0540    -8.4140    -2.0570 H     1 <1>   0.0800 
 35 H        3.7820    -8.5380    -2.0050 H     1 <1>   0.0800 
 36 H        5.2040   -11.1950     0.8320 H     1 <1>   0.0800 
 37 H        5.3160    -9.9120    -0.3440 H     1 <1>   0.0800 
 38 H        1.8820   -11.1720     1.7320 H     1 <1>   0.0800 
 39 H        2.7410   -12.1920     0.6130 H     1 <1>   0.0800 
 40 H        2.5490   -10.3050    -3.2720 H     1 <1>   0.0800 
 41 H        0.9700   -10.0220    -0.1910 H     1 <1>   0.4500 
 42 H        4.9170   -10.5170    -2.5280 H     1 <1>   0.0800 
 43 H        4.0770   -12.0080    -2.8560 H     1 <1>   0.0800 
 44 H        1.9160   -12.3440    -1.7510 H     1 <1>   0.0800 
 45 H        0.7570   -11.1880    -2.3160 H     1 <1>   0.0800 
 46 H       -0.3980   -11.4650     1.0790 H     1 <1>   0.0800 
 47 H       -0.8250   -11.6210    -0.6000 H     1 <1>   0.0800 
 48 H        0.1090   -13.3770     2.3380 H     1 <1>   0.1500 
 49 H        0.6600   -15.8000    -1.8050 H     1 <1>   0.1500 
 50 H        0.5030   -15.8150     2.4450 H     1 <1>   0.1500 
 51 H        0.7820   -17.0280     0.2950 H     1 <1>   0.1500 
@<TRIPOS>BOND
  1   1   2  1   
  2   2   3  2   
  3   2   4  1   
  4   3   5  1   
  5   4   6  2   
  6   4  28  1   
  7   5   6  1   
  8   6   7  1   
  9   7   8  1   
 10   7  29  1   
 11   7  30  1   
 12   8   9  1   
 13   8  31  1   
 14   8  32  1   
 15   9  10  2   
 16   9  11  am  
 17  11  12  1   
 18  11  13  1   
 19  12  14  1   
 20  12  15  1   
 21  12  33  1   
 22  13  16  1   
 23  13  34  1   
 24  13  35  1   
 25  14  17  1   
 26  14  36  1   
 27  14  37  1   
 28  15  18  1   
 29  15  38  1   
 30  15  39  1   
 31  16  19  1   
 32  16  20  1   
 33  16  40  1   
 34  17  19  1   
 35  18  20  1   
 36  18  21  1   
 37  18  41  1   
 38  19  42  1   
 39  19  43  1   
 40  20  44  1   
 41  20  45  1   
 42  21  22  1   
 43  21  46  1   
 44  21  47  1   
 45  22  23  ar  
 46  22  24  ar  
 47  23  25  ar  
 48  24  26  ar  
 49  24  48  1   
 50  25  27  ar  
 51  25  49  1   
 52  26  27  ar  
 53  26  50  1   
 54  27  51  1   
@<TRIPOS>SUBSTRUCTURE
  1 ****  11 GROUP 4 **** **** 0

# MOE 2024.06 (io_trps.svl 2023.06)
