@<TRIPOS>MOLECULE
NONAME
56 58 1 0 0 
SMALL
USER_CHARGES


@<TRIPOS>ATOM
  1 S       -0.3060     0.4280    -0.8690 S.o2  1 <1>   1.3330 
  2 O       -0.2350     1.3990    -1.9370 O.2   1 <1>  -0.6500 
  3 O       -1.1550    -0.7330    -1.0030 O.2   1 <1>  -0.6500 
  4 N        1.2730    -0.1400    -0.5870 N.am  1 <1>  -0.8490 
  5 C       -0.7140     1.2800     0.6620 C.3   1 <1>  -0.0550 
  6 C        2.0000    -0.3550    -1.8440 C.3   1 <1>   0.1160 
  7 C        1.3080    -1.3780     0.2030 C.3   1 <1>   0.1160 
  8 C       -0.0840     2.6730     0.8850 C.3   1 <1>  -0.0800 
  9 C       -0.7540     3.7930     0.0880 C.3   1 <1>   0.2000 
 10 C        1.4040     2.8310     0.5660 C.3   1 <1>   0.2090 
 11 O       -1.8980     4.2060     0.7570 O.3   1 <1>  -0.6800 
 12 C        0.2900     4.9130     0.0010 C.3   1 <1>   0.2090 
 13 N        1.5880     4.2950     0.4100 N.pl3 1 <1>  -0.8380 
 14 C        2.7420     4.9980     0.5370 C.ar  1 <1>   0.4100 
 15 N        2.6590     6.3130     0.4850 N.ar  1 <1>  -0.6200 
 16 C        3.9800     4.3490     0.7080 C.ar  1 <1>  -0.1500 
 17 C        3.7690     7.0280     0.6080 C.ar  1 <1>   0.7710 
 18 C        5.1050     5.0920     0.8260 C.ar  1 <1>   0.2180 
 19 N        4.9650     6.4360     0.7710 N.ar  1 <1>  -0.1790 
 20 N        3.7060     8.3880     0.5630 N.pl3 1 <1>  -0.8380 
 21 C        6.4930     4.5010     1.0060 C.3   1 <1>  -0.0970 
 22 C        4.8170     9.3570     0.8200 C.3   1 <1>   0.2090 
 23 C        2.4390     9.1040     0.1970 C.3   1 <1>   0.2090 
 24 C        5.1070    10.1380    -0.4640 C.3   1 <1>  -0.1600 
 25 C        2.6690     9.8970    -1.0940 C.3   1 <1>  -0.1600 
 26 C        3.8530    10.8680    -0.9670 C.3   1 <1>  -0.1600 
 27 H       -1.7800     1.3980     0.7060 H     1 <1>   0.0800 
 28 H       -0.4420     0.6490     1.4840 H     1 <1>   0.0800 
 29 H        2.9940    -0.7180    -1.6460 H     1 <1>   0.0800 
 30 H        2.0820     0.5710    -2.3880 H     1 <1>   0.0800 
 31 H        1.4790    -1.0700    -2.4600 H     1 <1>   0.0800 
 32 H        2.3270    -1.6520     0.4170 H     1 <1>   0.0800 
 33 H        0.8370    -2.1850    -0.3360 H     1 <1>   0.0800 
 34 H        0.7910    -1.2440     1.1370 H     1 <1>   0.0800 
 35 H       -0.1870     2.9090     1.9300 H     1 <1>   0.0800 
 36 H       -1.0370     3.4820    -0.9030 H     1 <1>   0.0800 
 37 H        1.6650     2.3640    -0.3670 H     1 <1>   0.0800 
 38 H        2.0120     2.4320     1.3590 H     1 <1>   0.0800 
 39 H       -1.6670     4.5800     1.6290 H     1 <1>   0.4000 
 40 H        0.0470     5.7230     0.6660 H     1 <1>   0.0800 
 41 H        0.3630     5.2780    -1.0080 H     1 <1>   0.0800 
 42 H        4.0100     3.2780     0.7340 H     1 <1>   0.1500 
 43 H        5.7540     7.0640     0.8210 H     1 <1>   0.4570 
 44 H        6.4440     3.4260     1.0270 H     1 <1>   0.0800 
 45 H        6.9260     4.8340     1.9330 H     1 <1>   0.0800 
 46 H        7.1350     4.7920     0.1930 H     1 <1>   0.0800 
 47 H        4.5100    10.0440     1.5930 H     1 <1>   0.0800 
 48 H        5.7120     8.8700     1.1610 H     1 <1>   0.0800 
 49 H        1.6140     8.4290     0.0490 H     1 <1>   0.0800 
 50 H        2.1660     9.7760     0.9940 H     1 <1>   0.0800 
 51 H        5.8840    10.8580    -0.2780 H     1 <1>   0.0800 
 52 H        5.4600     9.4630    -1.2240 H     1 <1>   0.0800 
 53 H        2.8480     9.2050    -1.8980 H     1 <1>   0.0800 
 54 H        1.7770    10.4490    -1.3340 H     1 <1>   0.0800 
 55 H        4.0520    11.3260    -1.9210 H     1 <1>   0.0800 
 56 H        3.5950    11.6520    -0.2740 H     1 <1>   0.0800 
@<TRIPOS>BOND
  1   1   2  2   
  2   1   3  2   
  3   1   4  am  
  4   1   5  1   
  5   4   6  1   
  6   4   7  1   
  7   5   8  1   
  8   5  27  1   
  9   5  28  1   
 10   6  29  1   
 11   6  30  1   
 12   6  31  1   
 13   7  32  1   
 14   7  33  1   
 15   7  34  1   
 16   8   9  1   
 17   8  10  1   
 18   8  35  1   
 19   9  11  1   
 20   9  12  1   
 21   9  36  1   
 22  10  13  1   
 23  10  37  1   
 24  10  38  1   
 25  11  39  1   
 26  12  13  1   
 27  12  40  1   
 28  12  41  1   
 29  13  14  1   
 30  14  15  ar  
 31  14  16  ar  
 32  15  17  ar  
 33  16  18  ar  
 34  16  42  1   
 35  17  19  ar  
 36  17  20  1   
 37  18  19  ar  
 38  18  21  1   
 39  19  43  1   
 40  20  22  1   
 41  20  23  1   
 42  21  44  1   
 43  21  45  1   
 44  21  46  1   
 45  22  24  1   
 46  22  47  1   
 47  22  48  1   
 48  23  25  1   
 49  23  49  1   
 50  23  50  1   
 51  24  26  1   
 52  24  51  1   
 53  24  52  1   
 54  25  26  1   
 55  25  53  1   
 56  25  54  1   
 57  26  55  1   
 58  26  56  1   
@<TRIPOS>SUBSTRUCTURE
  1 ****  13 GROUP 4 **** **** 0

# MOE 2024.06 (io_trps.svl 2023.06)
