@<TRIPOS>MOLECULE
NONAME
43 44 1 0 0 
SMALL
USER_CHARGES


@<TRIPOS>ATOM
  1 S       -0.4250     0.4120    -1.0240 S.o2  1 <1>   1.4470 
  2 O       -0.0260    -0.6850    -1.8820 O.2   1 <1>  -0.6500 
  3 O       -1.1420     1.5220    -1.6180 O.2   1 <1>  -0.6500 
  4 N       -1.3970    -0.2280     0.2100 N.am  1 <1>  -0.8490 
  5 C        1.0400     1.0460    -0.1400 C.ar  1 <1>  -0.0090 
  6 C       -0.8620    -1.4360     0.8750 C.3   1 <1>   0.1960 
  7 C       -2.8240    -0.3240    -0.1050 C.3   1 <1>   0.1960 
  8 C        0.9760     2.0020     0.8780 C.ar  1 <1>  -0.1440 
  9 C        2.2930     0.5560    -0.4900 C.ar  1 <1>  -0.1500 
 10 C       -1.6640    -2.7240     0.6150 C.3   1 <1>  -0.1860 
 11 C       -3.1010    -1.4600    -1.0940 C.3   1 <1>  -0.1600 
 12 C        2.1350     2.4290     1.5100 C.ar  1 <1>  -0.1500 
 13 C       -0.3480     2.6040     1.3360 C.3   1 <1>  -0.0970 
 14 C        3.4560     0.9830     0.1410 C.ar  1 <1>   0.0820 
 15 C       -2.6620    -2.9440     1.7380 C.2   1 <1>   0.9060 
 16 C       -2.2700    -2.7180    -0.7960 C.3   1 <1>   0.2000 
 17 C        3.3730     1.9290     1.1520 C.ar  1 <1>  -0.1440 
 18 O        4.6890     0.5120    -0.1880 O.3   1 <1>  -0.3630 
 19 O       -2.2360    -2.9690     2.8960 O.co2 1 <1>  -0.9000 
 20 O       -3.8630    -3.1130     1.4810 O.co2 1 <1>  -0.9000 
 21 O       -3.0880    -3.8170    -0.9310 O.3   1 <1>  -0.6800 
 22 C        4.6260     2.4170     1.8650 C.3   1 <1>  -0.0970 
 23 C        4.8770    -0.4290    -1.2220 C.3   1 <1>   0.0400 
 24 H        0.1520    -1.6010     0.5550 H     1 <1>   0.0800 
 25 H       -0.8170    -1.2470     1.9360 H     1 <1>   0.0800 
 26 H       -3.3660    -0.5120     0.8080 H     1 <1>   0.0800 
 27 H       -3.1850     0.6090    -0.5020 H     1 <1>   0.0800 
 28 H        2.3430    -0.1760    -1.2730 H     1 <1>   0.1500 
 29 H       -0.9810    -3.5480     0.6800 H     1 <1>   0.0800 
 30 H       -2.8810    -1.1250    -2.0910 H     1 <1>   0.0800 
 31 H       -4.1520    -1.6850    -1.0460 H     1 <1>   0.0800 
 32 H        2.0720     3.1620     2.2950 H     1 <1>   0.1500 
 33 H       -0.1890     3.4150     2.0230 H     1 <1>   0.0800 
 34 H       -0.9420     1.8580     1.8350 H     1 <1>   0.0800 
 35 H       -0.9010     2.9890     0.4990 H     1 <1>   0.0800 
 36 H       -1.4840    -2.8070    -1.5260 H     1 <1>   0.0800 
 37 H       -3.6670    -3.8060    -0.1140 H     1 <1>   0.4000 
 38 H        4.3890     3.1450     2.6190 H     1 <1>   0.0800 
 39 H        5.2970     2.8650     1.1530 H     1 <1>   0.0800 
 40 H        5.1240     1.5870     2.3320 H     1 <1>   0.0800 
 41 H        5.9300    -0.6340    -1.2980 H     1 <1>   0.0800 
 42 H        4.5190    -0.0100    -2.1450 H     1 <1>   0.0800 
 43 H        4.3460    -1.3310    -0.9740 H     1 <1>   0.0800 
@<TRIPOS>BOND
  1   1   2  2   
  2   1   3  2   
  3   1   4  am  
  4   1   5  1   
  5   4   6  1   
  6   4   7  1   
  7   5   8  ar  
  8   5   9  ar  
  9   6  10  1   
 10   6  24  1   
 11   6  25  1   
 12   7  11  1   
 13   7  26  1   
 14   7  27  1   
 15   8  12  ar  
 16   8  13  1   
 17   9  14  ar  
 18   9  28  1   
 19  10  15  1   
 20  10  16  1   
 21  10  29  1   
 22  11  16  1   
 23  11  30  1   
 24  11  31  1   
 25  12  17  ar  
 26  12  32  1   
 27  13  33  1   
 28  13  34  1   
 29  13  35  1   
 30  14  17  ar  
 31  14  18  1   
 32  15  19  ar  
 33  15  20  ar  
 34  16  21  1   
 35  16  36  1   
 36  17  22  1   
 37  18  23  1   
 38  21  37  1   
 39  22  38  1   
 40  22  39  1   
 41  22  40  1   
 42  23  41  1   
 43  23  42  1   
 44  23  43  1   
@<TRIPOS>SUBSTRUCTURE
  1 ****   4 GROUP 4 **** **** 0

# MOE 2024.06 (io_trps.svl 2023.06)
