@<TRIPOS>MOLECULE
NONAME
43 45 1 0 0 
SMALL
USER_CHARGES


@<TRIPOS>ATOM
  1 O        0.9320    -0.4690     1.9490 O.3   1 <1>  -0.0190 
  2 N        1.2860     0.7060     1.5230 N.2   1 <1>  -0.4100 
  3 C        1.1400    -1.2530     0.9220 C.2   1 <1>   0.2980 
  4 C        1.6670     0.5700     0.3130 C.2   1 <1>   0.3350 
  5 N        1.5920    -0.6810    -0.1230 N.2   1 <1>  -0.5650 
  6 C        0.8340    -2.7410     1.0610 C.3   1 <1>   0.2900 
  7 C        2.1770     1.6860    -0.6010 C.3   1 <1>   0.1010 
  8 N       -0.6130    -3.0310     1.2030 N.3   1 <1>  -0.8100 
  9 C        3.7120     1.7300    -0.5920 C.3   1 <1>  -0.2400 
 10 C        1.6090     3.0630    -0.2240 C.3   1 <1>  -0.2400 
 11 C       -1.4050    -2.4970     0.0810 C.3   1 <1>   0.1100 
 12 C       -0.8890    -4.4770     1.2910 C.3   1 <1>   0.1100 
 13 C       -2.6110    -3.4230    -0.0210 C.3   1 <1>   0.2000 
 14 C       -2.0140    -4.7910     0.2890 C.3   1 <1>  -0.0800 
 15 O       -3.4820    -3.0970     1.0010 O.3   1 <1>  -0.6800 
 16 C       -1.4870    -5.4630    -0.9950 C.3   1 <1>  -0.0170 
 17 C       -0.9060    -6.8440    -0.7300 C.ar  1 <1>   0.1670 
 18 N        0.4110    -6.9260    -0.6240 N.ar  1 <1>  -0.6200 
 19 C       -1.7570    -7.9410    -0.6150 C.ar  1 <1>   0.1600 
 20 C        0.8150    -8.1660    -0.4020 C.ar  1 <1>   0.1600 
 21 N       -1.3550    -9.1810    -0.3870 N.ar  1 <1>  -0.6200 
 22 C       -0.0390    -9.2560    -0.2870 C.ar  1 <1>   0.1600 
 23 H        1.3540    -3.1140     1.9250 H     1 <1>   0.0800 
 24 H        1.2180    -3.2510     0.1940 H     1 <1>   0.0800 
 25 H        1.8510     1.4560    -1.6000 H     1 <1>   0.0800 
 26 H        4.0720     1.9510     0.3970 H     1 <1>   0.0800 
 27 H        4.0710     2.4820    -1.2710 H     1 <1>   0.0800 
 28 H        4.1070     0.7770    -0.8950 H     1 <1>   0.0800 
 29 H        1.9290     3.3440     0.7640 H     1 <1>   0.0800 
 30 H        0.5340     3.0320    -0.2370 H     1 <1>   0.0800 
 31 H        1.9400     3.8110    -0.9220 H     1 <1>   0.0800 
 32 H       -1.6960    -1.4750     0.2540 H     1 <1>   0.0800 
 33 H       -0.8380    -2.5500    -0.8330 H     1 <1>   0.0800 
 34 H       -0.0060    -5.0610     1.0970 H     1 <1>   0.0800 
 35 H       -1.2230    -4.7000     2.2900 H     1 <1>   0.0800 
 36 H       -3.1360    -3.3610    -0.9590 H     1 <1>   0.0800 
 37 H       -2.7520    -5.4360     0.7360 H     1 <1>   0.0800 
 38 H       -2.9300    -2.9060     1.7900 H     1 <1>   0.4000 
 39 H       -0.7310    -4.8490    -1.4550 H     1 <1>   0.0800 
 40 H       -2.2920    -5.5610    -1.7010 H     1 <1>   0.0800 
 41 H       -2.8170    -7.7870    -0.7130 H     1 <1>   0.1500 
 42 H        1.8730    -8.3290    -0.3060 H     1 <1>   0.1500 
 43 H        0.3840   -10.2280    -0.1040 H     1 <1>   0.1500 
@<TRIPOS>BOND
  1   1   2  1   
  2   1   3  1   
  3   2   4  2   
  4   3   5  2   
  5   3   6  1   
  6   4   5  1   
  7   4   7  1   
  8   6   8  1   
  9   6  23  1   
 10   6  24  1   
 11   7   9  1   
 12   7  10  1   
 13   7  25  1   
 14   8  11  1   
 15   8  12  1   
 16   9  26  1   
 17   9  27  1   
 18   9  28  1   
 19  10  29  1   
 20  10  30  1   
 21  10  31  1   
 22  11  13  1   
 23  11  32  1   
 24  11  33  1   
 25  12  14  1   
 26  12  34  1   
 27  12  35  1   
 28  13  14  1   
 29  13  15  1   
 30  13  36  1   
 31  14  16  1   
 32  14  37  1   
 33  15  38  1   
 34  16  17  1   
 35  16  39  1   
 36  16  40  1   
 37  17  18  ar  
 38  17  19  ar  
 39  18  20  ar  
 40  19  21  ar  
 41  19  41  1   
 42  20  22  ar  
 43  20  42  1   
 44  21  22  ar  
 45  22  43  1   
@<TRIPOS>SUBSTRUCTURE
  1 ****   8 GROUP 4 **** **** 0

# MOE 2024.06 (io_trps.svl 2023.06)
