@<TRIPOS>MOLECULE
NONAME
53 56 1 0 0 
SMALL
USER_CHARGES


@<TRIPOS>ATOM
  1 O        2.2360    -0.0350     2.2990 O.co2 1 <1>  -0.9000 
  2 C        2.0110     1.0080     1.6620 C.2   1 <1>   0.9060 
  3 O        1.5300     2.0020     2.2030 O.co2 1 <1>  -0.9000 
  4 C        2.3460     1.0500     0.1580 C.3   1 <1>  -0.1060 
  5 C        3.5540     0.1250    -0.1110 C.3   1 <1>   0.4230 
  6 C        2.7270     2.4940    -0.2780 C.3   1 <1>  -0.1600 
  7 C        1.1380     0.5750    -0.6840 C.3   1 <1>  -0.1600 
  8 N        3.2000    -1.3010     0.2030 N.4   1 <1>  -0.9590 
  9 C        4.8020     0.6530     0.6340 C.3   1 <1>   0.1400 
 10 C        3.9930     3.0000     0.4300 C.3   1 <1>   0.1400 
 11 C        0.8400    -0.9140    -0.4480 C.3   1 <1>  -0.1600 
 12 C        2.0780    -1.7950    -0.6350 C.3   1 <1>   0.3430 
 13 C        4.3440    -2.2510     0.2430 C.3   1 <1>   0.2630 
 14 N        5.1020     2.0380     0.1650 N.am  1 <1>  -0.6600 
 15 C        6.2650     2.3290    -0.5070 C.2   1 <1>   0.5690 
 16 O        7.0030     1.4440    -0.8770 O.2   1 <1>  -0.5700 
 17 C        6.6580     3.7600    -0.8670 C.3   1 <1>   0.1810 
 18 O        6.6700     4.5960     0.2800 O.3   1 <1>  -0.3630 
 19 C        6.8900     5.9280     0.1790 C.ar  1 <1>   0.0820 
 20 C        6.6750     6.6790     1.3220 C.ar  1 <1>  -0.1500 
 21 C        7.3110     6.5600    -0.9860 C.ar  1 <1>  -0.1500 
 22 C        6.8720     8.0470     1.3080 C.ar  1 <1>  -0.1500 
 23 C        7.5080     7.9300    -0.9980 C.ar  1 <1>  -0.1500 
 24 C        7.2880     8.6940     0.1470 C.ar  1 <1>  -0.0230 
 25 N        7.4850    10.1070     0.1380 N.pl3 1 <1>   0.5930 
 26 N        7.9350    10.8180     1.1600 N.2   1 <1>  -0.4180 
 27 C        7.2620    10.9730    -0.8400 C.2   1 <1>   0.0360 
 28 N        7.9740    12.0440     0.7800 N.2   1 <1>   0.0000 
 29 N        7.5540    12.1600    -0.4740 N.2   1 <1>  -0.3380 
 30 H        3.7840     0.1810    -1.1610 H     1 <1>   0.0800 
 31 H        1.9160     3.1650    -0.0470 H     1 <1>   0.0800 
 32 H        2.8860     2.5390    -1.3410 H     1 <1>   0.0800 
 33 H        0.2700     1.1590    -0.4210 H     1 <1>   0.0800 
 34 H        1.3360     0.7320    -1.7300 H     1 <1>   0.0800 
 35 H        2.8100    -1.1920     1.1790 H     1 <1>   0.4500 
 36 H        5.6460     0.0180     0.4430 H     1 <1>   0.0800 
 37 H        4.6310     0.6730     1.6970 H     1 <1>   0.0800 
 38 H        3.8230     3.0680     1.4930 H     1 <1>   0.0800 
 39 H        4.2310     3.9860     0.0750 H     1 <1>   0.0800 
 40 H        0.0710    -1.2370    -1.1280 H     1 <1>   0.0800 
 41 H        0.4600    -1.0550     0.5500 H     1 <1>   0.0800 
 42 H        2.3720    -1.7870    -1.6720 H     1 <1>   0.0800 
 43 H        1.8340    -2.8070    -0.3570 H     1 <1>   0.0800 
 44 H        4.8310    -2.2920    -0.7170 H     1 <1>   0.0800 
 45 H        3.9960    -3.2370     0.5040 H     1 <1>   0.0800 
 46 H        5.0600    -1.9390     0.9860 H     1 <1>   0.0800 
 47 H        5.9540     4.1580    -1.5740 H     1 <1>   0.0800 
 48 H        7.6450     3.7600    -1.2900 H     1 <1>   0.0800 
 49 H        6.3540     6.1830     2.2210 H     1 <1>   0.1500 
 50 H        7.4970     6.0040    -1.8860 H     1 <1>   0.1500 
 51 H        6.7010     8.6130     2.2090 H     1 <1>   0.1500 
 52 H        7.8440     8.3970    -1.9080 H     1 <1>   0.1500 
 53 H        6.8820    10.6900    -1.8020 H     1 <1>   0.1500 
@<TRIPOS>BOND
  1   1   2  ar  
  2   2   3  ar  
  3   2   4  1   
  4   4   5  1   
  5   4   6  1   
  6   4   7  1   
  7   5   8  1   
  8   5   9  1   
  9   5  30  1   
 10   6  10  1   
 11   6  31  1   
 12   6  32  1   
 13   7  11  1   
 14   7  33  1   
 15   7  34  1   
 16   8  12  1   
 17   8  13  1   
 18   8  35  1   
 19   9  14  1   
 20   9  36  1   
 21   9  37  1   
 22  10  14  1   
 23  10  38  1   
 24  10  39  1   
 25  11  12  1   
 26  11  40  1   
 27  11  41  1   
 28  12  42  1   
 29  12  43  1   
 30  13  44  1   
 31  13  45  1   
 32  13  46  1   
 33  14  15  am  
 34  15  16  2   
 35  15  17  1   
 36  17  18  1   
 37  17  47  1   
 38  17  48  1   
 39  18  19  1   
 40  19  20  ar  
 41  19  21  ar  
 42  20  22  ar  
 43  20  49  1   
 44  21  23  ar  
 45  21  50  1   
 46  22  24  ar  
 47  22  51  1   
 48  23  24  ar  
 49  23  52  1   
 50  24  25  1   
 51  25  26  1   
 52  25  27  1   
 53  26  28  2   
 54  27  29  2   
 55  27  53  1   
 56  28  29  1   
@<TRIPOS>SUBSTRUCTURE
  1 ****  10 GROUP 4 **** **** 0

# MOE 2024.06 (io_trps.svl 2023.06)
