@<TRIPOS>MOLECULE
NONAME
44 46 1 0 0 
SMALL
USER_CHARGES


@<TRIPOS>ATOM
  1 S       -0.1370    -1.1380    -1.6780 S.o2  1 <1>   1.4470 
  2 O       -0.8840    -2.3770    -1.6350 O.2   1 <1>  -0.6500 
  3 O        0.7140    -0.8860    -2.8200 O.2   1 <1>  -0.6500 
  4 N       -1.2810     0.1130    -1.5970 N.am  1 <1>  -0.8490 
  5 C        0.8000    -1.0070    -0.1320 C.ar  1 <1>  -0.0090 
  6 C       -2.1750     0.0130    -0.4320 C.3   1 <1>   0.1960 
  7 C       -0.7230     1.4560    -1.7560 C.3   1 <1>   0.1960 
  8 C        1.8490    -0.1150     0.0290 C.ar  1 <1>   0.1900 
  9 C        0.4750    -1.7890     0.9740 C.ar  1 <1>  -0.1500 
 10 C       -3.3730     0.9870    -0.5470 C.3   1 <1>   0.0000 
 11 C       -1.8510     2.4790    -1.9260 C.3   1 <1>  -0.1600 
 12 F        2.2020     0.6630    -0.9570 F     1 <1>  -0.1900 
 13 C        2.5610     0.0130     1.2090 C.ar  1 <1>  -0.1500 
 14 C        1.1710    -1.6800     2.1680 C.ar  1 <1>  -0.1500 
 15 C       -4.2840     0.8930     0.6890 C.3   1 <1>   0.2000 
 16 C       -2.8480     2.4220    -0.7580 C.3   1 <1>  -0.1600 
 17 C       -4.3200     0.5380    -1.6740 C.3   1 <1>  -0.1600 
 18 C        2.2160    -0.7790     2.2880 C.ar  1 <1>  -0.1500 
 19 O       -3.5370     0.7450     1.8610 O.3   1 <1>  -0.5600 
 20 C       -5.1900    -0.3200     0.4520 C.3   1 <1>  -0.1600 
 21 C       -5.2000    -0.5570    -1.0640 C.3   1 <1>  -0.1600 
 22 C       -4.2430     0.9780     3.0380 C.3   1 <1>   0.0400 
 23 H       -2.5460    -0.9930    -0.3450 H     1 <1>   0.0800 
 24 H       -1.6160     0.2360     0.4610 H     1 <1>   0.0800 
 25 H       -0.1330     1.7150    -0.8930 H     1 <1>   0.0800 
 26 H       -0.0880     1.4880    -2.6270 H     1 <1>   0.0800 
 27 H       -0.3350    -2.4970     0.9010 H     1 <1>   0.1500 
 28 H       -1.4270     3.4650    -1.9900 H     1 <1>   0.0800 
 29 H       -2.3580     2.2820    -2.8540 H     1 <1>   0.0800 
 30 H        3.3690     0.7200     1.2770 H     1 <1>   0.1500 
 31 H        0.8970    -2.2990     3.0060 H     1 <1>   0.1500 
 32 H       -4.8790     1.7890     0.7590 H     1 <1>   0.0800 
 33 H       -3.6640     3.0990    -0.9420 H     1 <1>   0.0800 
 34 H       -2.3510     2.7440     0.1410 H     1 <1>   0.0800 
 35 H       -4.9460     1.3610    -1.9710 H     1 <1>   0.0800 
 36 H       -3.7910     0.1830    -2.5430 H     1 <1>   0.0800 
 37 H        2.7550    -0.6970     3.2170 H     1 <1>   0.1500 
 38 H       -4.7910    -1.1880     0.9480 H     1 <1>   0.0800 
 39 H       -6.1830    -0.1220     0.8130 H     1 <1>   0.0800 
 40 H       -4.7770    -1.5240    -1.2810 H     1 <1>   0.0800 
 41 H       -6.1980    -0.5180    -1.4670 H     1 <1>   0.0800 
 42 H       -3.5660     0.8500     3.8640 H     1 <1>   0.0800 
 43 H       -5.0500     0.2720     3.1210 H     1 <1>   0.0800 
 44 H       -4.6200     1.9860     3.0330 H     1 <1>   0.0800 
@<TRIPOS>BOND
  1   1   2  2   
  2   1   3  2   
  3   1   4  am  
  4   1   5  1   
  5   4   6  1   
  6   4   7  1   
  7   5   8  ar  
  8   5   9  ar  
  9   6  10  1   
 10   6  23  1   
 11   6  24  1   
 12   7  11  1   
 13   7  25  1   
 14   7  26  1   
 15   8  12  1   
 16   8  13  ar  
 17   9  14  ar  
 18   9  27  1   
 19  10  15  1   
 20  10  16  1   
 21  10  17  1   
 22  11  16  1   
 23  11  28  1   
 24  11  29  1   
 25  13  18  ar  
 26  13  30  1   
 27  14  18  ar  
 28  14  31  1   
 29  15  19  1   
 30  15  20  1   
 31  15  32  1   
 32  16  33  1   
 33  16  34  1   
 34  17  21  1   
 35  17  35  1   
 36  17  36  1   
 37  18  37  1   
 38  19  22  1   
 39  20  21  1   
 40  20  38  1   
 41  20  39  1   
 42  21  40  1   
 43  21  41  1   
 44  22  42  1   
 45  22  43  1   
 46  22  44  1   
@<TRIPOS>SUBSTRUCTURE
  1 ****   6 GROUP 4 **** **** 0

# MOE 2024.06 (io_trps.svl 2023.06)
