@<TRIPOS>MOLECULE
NONAME
50 52 1 0 0 
SMALL
USER_CHARGES


@<TRIPOS>ATOM
  1 O       -1.3940     0.0630     0.4600 O.2   1 <1>  -0.5700 
  2 C       -2.1360     0.8590    -0.0930 C.2   1 <1>   0.5440 
  3 N       -3.2990     0.3590    -0.6390 N.am  1 <1>  -0.6600 
  4 C       -1.8130     2.2760    -0.1260 C.ar  1 <1>   0.0860 
  5 C       -3.3770    -1.0840    -0.9690 C.3   1 <1>   0.1400 
  6 C       -4.6190     0.9280    -0.2380 C.3   1 <1>   0.1400 
  7 C       -1.0170     2.8590     0.8600 C.ar  1 <1>  -0.1500 
  8 C       -2.2750     3.1160    -1.1390 C.ar  1 <1>  -0.1500 
  9 C       -4.0160    -1.7230     0.2710 C.3   1 <1>   0.4230 
 10 C       -5.3320     0.0060     0.7890 C.3   1 <1>  -0.1600 
 11 C       -0.7090     4.2070     0.8410 C.ar  1 <1>  -0.1500 
 12 C       -1.9670     4.4630    -1.1560 C.ar  1 <1>  -0.1500 
 13 N       -3.4680    -3.0550     0.7150 N.4   1 <1>  -0.9590 
 14 C       -5.5990    -1.5010     0.2420 C.3   1 <1>   0.0000 
 15 C       -1.1740     5.0490    -0.1700 C.ar  1 <1>   0.0860 
 16 C       -3.5800    -4.1070    -0.3030 C.3   1 <1>   0.3430 
 17 C       -2.0610    -2.9070     1.2110 C.3   1 <1>   0.2630 
 18 C       -5.8930    -2.9670    -0.3720 C.3   1 <1>  -0.1600 
 19 C       -7.1800    -1.2390     0.3050 C.3   1 <1>   0.1200 
 20 C       -0.8570     6.4670    -0.2110 C.2   1 <1>   0.5440 
 21 C       -4.8480    -3.8580    -1.0940 C.3   1 <1>  -0.1600 
 22 O       -7.5750    -1.3460     1.6370 O.3   1 <1>  -0.6800 
 23 O       -1.5500     7.2560    -0.8150 O.2   1 <1>  -0.5700 
 24 N        0.2300     6.9840     0.4070 N.am  1 <1>  -0.8000 
 25 H       -3.9860    -1.2180    -1.8440 H     1 <1>   0.0800 
 26 H       -2.3920    -1.4740    -1.1570 H     1 <1>   0.0800 
 27 H       -4.4810     1.9050     0.1970 H     1 <1>   0.0800 
 28 H       -5.2320     1.0450    -1.1160 H     1 <1>   0.0800 
 29 H       -0.6360     2.2400     1.6540 H     1 <1>   0.1500 
 30 H       -2.8810     2.7080    -1.9290 H     1 <1>   0.1500 
 31 H       -3.6060    -1.1120     1.0530 H     1 <1>   0.0800 
 32 H       -4.7920     0.0100     1.7230 H     1 <1>   0.0800 
 33 H       -6.1780     0.6030     1.0940 H     1 <1>   0.0800 
 34 H       -0.1020     4.6130     1.6310 H     1 <1>   0.1500 
 35 H       -2.3440     5.0860    -1.9520 H     1 <1>   0.1500 
 36 H       -4.0640    -3.3310     1.5080 H     1 <1>   0.4500 
 37 H       -2.7300    -4.0880    -0.9670 H     1 <1>   0.0800 
 38 H       -3.6220    -5.0730     0.1760 H     1 <1>   0.0800 
 39 H       -1.4090    -2.5940     0.4120 H     1 <1>   0.0800 
 40 H       -1.7000    -3.8400     1.6100 H     1 <1>   0.0800 
 41 H       -2.0150    -2.1590     1.9880 H     1 <1>   0.0800 
 42 H       -6.3350    -3.5730     0.4060 H     1 <1>   0.0800 
 43 H       -6.6050    -2.9100    -1.1810 H     1 <1>   0.0800 
 44 H       -7.8600    -1.8960    -0.2100 H     1 <1>   0.0800 
 45 H       -7.4740    -0.2750    -0.0780 H     1 <1>   0.0800 
 46 H       -4.5810    -3.4120    -2.0360 H     1 <1>   0.0800 
 47 H       -5.2900    -4.8100    -1.3330 H     1 <1>   0.0800 
 48 H       -8.5350    -1.1770     1.7370 H     1 <1>   0.4000 
 49 H        0.4120     7.9830     0.3090 H     1 <1>   0.3700 
 50 H        0.9700     6.4230     0.8250 H     1 <1>   0.3700 
@<TRIPOS>BOND
  1   1   2  2   
  2   2   3  am  
  3   2   4  1   
  4   3   5  1   
  5   3   6  1   
  6   4   7  ar  
  7   4   8  ar  
  8   5   9  1   
  9   5  25  1   
 10   5  26  1   
 11   6  10  1   
 12   6  27  1   
 13   6  28  1   
 14   7  11  ar  
 15   7  29  1   
 16   8  12  ar  
 17   8  30  1   
 18   9  13  1   
 19   9  14  1   
 20   9  31  1   
 21  10  14  1   
 22  10  32  1   
 23  10  33  1   
 24  11  15  ar  
 25  11  34  1   
 26  12  15  ar  
 27  12  35  1   
 28  13  16  1   
 29  13  17  1   
 30  13  36  1   
 31  14  18  1   
 32  14  19  1   
 33  15  20  1   
 34  16  21  1   
 35  16  37  1   
 36  16  38  1   
 37  17  39  1   
 38  17  40  1   
 39  17  41  1   
 40  18  21  1   
 41  18  42  1   
 42  18  43  1   
 43  19  22  1   
 44  19  44  1   
 45  19  45  1   
 46  20  23  2   
 47  20  24  am  
 48  21  46  1   
 49  21  47  1   
 50  22  48  1   
 51  24  49  1   
 52  24  50  1   
@<TRIPOS>SUBSTRUCTURE
  1 ****   3 GROUP 4 **** **** 0

# MOE 2024.06 (io_trps.svl 2023.06)
