@<TRIPOS>MOLECULE
NONAME
52 53 1 0 0 
SMALL
USER_CHARGES


@<TRIPOS>ATOM
  1 S        0.7140    -1.9330    -1.7490 S.3   1 <1>  -0.0800 
  2 C       -0.4850    -2.2510    -0.5380 C.2   1 <1>   0.4420 
  3 C        1.2800    -0.6420    -0.7450 C.2   1 <1>   0.1980 
  4 N       -0.3980    -1.4430     0.4530 N.2   1 <1>  -0.3380 
  5 N       -1.3580    -3.2910    -0.7860 N.am  1 <1>  -0.4940 
  6 N        0.6100    -0.5290     0.3290 N.2   1 <1>  -0.3380 
  7 C        2.4600     0.1720    -1.2400 C.3   1 <1>   0.0200 
  8 C       -2.3380    -3.7880     0.0260 C.2   1 <1>   0.5690 
  9 C        2.8400     1.2630    -0.2400 C.3   1 <1>   0.1200 
 10 O       -2.5370    -3.3960     1.1470 O.2   1 <1>  -0.5700 
 11 C       -3.2350    -4.9000    -0.5100 C.3   1 <1>  -0.0190 
 12 O        3.9370     1.9770    -0.7610 O.3   1 <1>  -0.3630 
 13 C       -4.4700    -4.9890     0.4110 C.3   1 <1>   0.3430 
 14 C       -2.4590    -6.2300    -0.6300 C.3   1 <1>  -0.2400 
 15 C        4.4950     3.0170    -0.0840 C.ar  1 <1>   0.0820 
 16 N       -5.4570    -6.0400    -0.0090 N.4   1 <1>  -0.9590 
 17 C        5.5730     3.6680    -0.6770 C.ar  1 <1>  -0.1430 
 18 C        4.0320     3.4440     1.1600 C.ar  1 <1>  -0.1500 
 19 C       -6.8540    -5.5370     0.1780 C.3   1 <1>   0.2630 
 20 C       -5.2650    -7.3030     0.7740 C.3   1 <1>   0.2630 
 21 C        6.1710     4.7330    -0.0240 C.ar  1 <1>  -0.1500 
 22 C        6.0990     3.2220    -2.0340 C.3   1 <1>  -0.0970 
 23 C        4.6360     4.5080     1.8090 C.ar  1 <1>  -0.1430 
 24 C        5.7060     5.1510     1.2100 C.ar  1 <1>  -0.1500 
 25 C        4.1240     4.9680     3.1620 C.3   1 <1>  -0.0970 
 26 H       -1.2240    -3.7430    -1.6860 H     1 <1>   0.3700 
 27 H        2.2000     0.6270    -2.1780 H     1 <1>   0.0800 
 28 H        3.2990    -0.4830    -1.3840 H     1 <1>   0.0800 
 29 H        3.1290     0.8290     0.7020 H     1 <1>   0.0800 
 30 H        2.0220     1.9480    -0.0980 H     1 <1>   0.0800 
 31 H       -3.5690    -4.5970    -1.4860 H     1 <1>   0.0800 
 32 H       -4.9490    -4.0220     0.4100 H     1 <1>   0.0800 
 33 H       -4.1450    -5.1750     1.4220 H     1 <1>   0.0800 
 34 H       -2.1440    -6.5700     0.3430 H     1 <1>   0.0800 
 35 H       -1.5780    -6.0990    -1.2340 H     1 <1>   0.0800 
 36 H       -3.0570    -6.9930    -1.0930 H     1 <1>   0.0800 
 37 H       -5.3170    -6.2420    -1.0100 H     1 <1>   0.4500 
 38 H        3.2030     2.9610     1.6380 H     1 <1>   0.1500 
 39 H       -7.0350    -5.3100     1.2160 H     1 <1>   0.0800 
 40 H       -7.5660    -6.2820    -0.1410 H     1 <1>   0.0800 
 41 H       -7.0120    -4.6420    -0.4030 H     1 <1>   0.0800 
 42 H       -5.4200    -7.1180     1.8250 H     1 <1>   0.0800 
 43 H       -4.2660    -7.6850     0.6380 H     1 <1>   0.0800 
 44 H       -5.9660    -8.0550     0.4500 H     1 <1>   0.0800 
 45 H        7.0040     5.2450    -0.4720 H     1 <1>   0.1500 
 46 H        5.3200     3.3030    -2.7700 H     1 <1>   0.0800 
 47 H        6.4190     2.1970    -1.9800 H     1 <1>   0.0800 
 48 H        6.9310     3.8260    -2.3460 H     1 <1>   0.0800 
 49 H        6.1830     5.9810     1.7010 H     1 <1>   0.1500 
 50 H        3.7960     4.1250     3.7440 H     1 <1>   0.0800 
 51 H        3.2970     5.6420     3.0280 H     1 <1>   0.0800 
 52 H        4.8990     5.4740     3.7080 H     1 <1>   0.0800 
@<TRIPOS>BOND
  1   1   2  1   
  2   1   3  1   
  3   2   4  2   
  4   2   5  1   
  5   3   6  2   
  6   3   7  1   
  7   4   6  1   
  8   5   8  am  
  9   5  26  1   
 10   7   9  1   
 11   7  27  1   
 12   7  28  1   
 13   8  10  2   
 14   8  11  1   
 15   9  12  1   
 16   9  29  1   
 17   9  30  1   
 18  11  13  1   
 19  11  14  1   
 20  11  31  1   
 21  12  15  1   
 22  13  16  1   
 23  13  32  1   
 24  13  33  1   
 25  14  34  1   
 26  14  35  1   
 27  14  36  1   
 28  15  17  ar  
 29  15  18  ar  
 30  16  19  1   
 31  16  20  1   
 32  16  37  1   
 33  17  21  ar  
 34  17  22  1   
 35  18  23  ar  
 36  18  38  1   
 37  19  39  1   
 38  19  40  1   
 39  19  41  1   
 40  20  42  1   
 41  20  43  1   
 42  20  44  1   
 43  21  24  ar  
 44  21  45  1   
 45  22  46  1   
 46  22  47  1   
 47  22  48  1   
 48  23  24  ar  
 49  23  25  1   
 50  24  49  1   
 51  25  50  1   
 52  25  51  1   
 53  25  52  1   
@<TRIPOS>SUBSTRUCTURE
  1 ****   6 GROUP 4 **** **** 0

# MOE 2024.06 (io_trps.svl 2023.06)
