@<TRIPOS>MOLECULE
NONAME
35 36 1 0 0 
SMALL
USER_CHARGES


@<TRIPOS>ATOM
  1 O        0.9430    -1.4640    -1.7440 O.2   1 <1>  -0.5700 
  2 C        1.2530    -1.4020    -0.5800 C.2   1 <1>   0.5690 
  3 N        0.3470    -1.5290     0.4240 N.am  1 <1>  -0.7300 
  4 C        2.7070    -1.1720    -0.2280 C.3   1 <1>  -0.0990 
  5 C       -1.1080    -1.7550     0.2340 C.3   1 <1>   0.0600 
  6 C        3.1130     0.3010    -0.4070 C.3   1 <1>  -0.0800 
  7 C        4.5940     0.5540    -0.1210 C.3   1 <1>   0.2090 
  8 C        2.3760     1.2580     0.5300 C.3   1 <1>  -0.1600 
  9 N        4.6570     1.9220     0.4420 N.pl3 1 <1>  -0.8380 
 10 C        3.2920     2.4690     0.6240 C.3   1 <1>   0.2090 
 11 C        5.7480     2.7530     0.2750 C.ar  1 <1>   0.4100 
 12 N        5.5360     4.0550     0.2440 N.ar  1 <1>  -0.6200 
 13 C        7.0310     2.2510     0.1530 C.ar  1 <1>  -0.1500 
 14 C        6.5980     4.8170     0.0770 C.ar  1 <1>   0.4770 
 15 C        8.0570     3.1390    -0.0160 C.ar  1 <1>   0.1600 
 16 N        7.8560     4.4400    -0.0620 N.ar  1 <1>  -0.6200 
 17 C        6.3410     6.3030     0.0340 C.3   1 <1>  -0.0970 
 18 H        0.6640    -1.4650     1.3930 H     1 <1>   0.3700 
 19 H        3.3030    -1.7860    -0.8790 H     1 <1>   0.0800 
 20 H        2.8890    -1.4890     0.7820 H     1 <1>   0.0800 
 21 H       -1.3450    -1.8110    -0.8150 H     1 <1>   0.0800 
 22 H       -1.6630    -0.9430     0.6710 H     1 <1>   0.0800 
 23 H       -1.3980    -2.6780     0.7040 H     1 <1>   0.0800 
 24 H        2.9210     0.5970    -1.4250 H     1 <1>   0.0800 
 25 H        5.1770     0.4780    -1.0230 H     1 <1>   0.0800 
 26 H        4.9660    -0.1390     0.6140 H     1 <1>   0.0800 
 27 H        2.2770     0.8300     1.5110 H     1 <1>   0.0800 
 28 H        1.4030     1.5270     0.1590 H     1 <1>   0.0800 
 29 H        3.2050     2.9690     1.5740 H     1 <1>   0.0800 
 30 H        3.0770     3.1640    -0.1710 H     1 <1>   0.0800 
 31 H        7.2130     1.1980     0.1980 H     1 <1>   0.1500 
 32 H        9.0700     2.7860    -0.1160 H     1 <1>   0.1500 
 33 H        5.5600     6.5600     0.7250 H     1 <1>   0.0800 
 34 H        6.0410     6.5810    -0.9580 H     1 <1>   0.0800 
 35 H        7.2310     6.8430     0.2990 H     1 <1>   0.0800 
@<TRIPOS>BOND
  1   1   2  2   
  2   2   3  am  
  3   2   4  1   
  4   3   5  1   
  5   3  18  1   
  6   4   6  1   
  7   4  19  1   
  8   4  20  1   
  9   5  21  1   
 10   5  22  1   
 11   5  23  1   
 12   6   7  1   
 13   6   8  1   
 14   6  24  1   
 15   7   9  1   
 16   7  25  1   
 17   7  26  1   
 18   8  10  1   
 19   8  27  1   
 20   8  28  1   
 21   9  10  1   
 22   9  11  1   
 23  10  29  1   
 24  10  30  1   
 25  11  12  ar  
 26  11  13  ar  
 27  12  14  ar  
 28  13  15  ar  
 29  13  31  1   
 30  14  16  ar  
 31  14  17  1   
 32  15  16  ar  
 33  15  32  1   
 34  17  33  1   
 35  17  34  1   
 36  17  35  1   
@<TRIPOS>SUBSTRUCTURE
  1 ****   9 GROUP 4 **** **** 0

# MOE 2024.06 (io_trps.svl 2023.06)
