@<TRIPOS>MOLECULE
NONAME
48 50 1 0 0 
SMALL
USER_CHARGES


@<TRIPOS>ATOM
  1 O       -2.4560     0.7110    -2.0860 O.2   1 <1>  -0.5700 
  2 C       -2.2150     0.8120    -0.8990 C.2   1 <1>   0.5440 
  3 N       -2.1440    -0.3260    -0.1510 N.am  1 <1>  -0.7300 
  4 C       -2.0140     2.1040    -0.2670 C.ar  1 <1>   0.0860 
  5 C       -2.2440    -1.7090    -0.6730 C.3   1 <1>   0.2200 
  6 C       -0.7480     2.4910     0.1920 C.ar  1 <1>  -0.1440 
  7 C       -3.0830     2.9920    -0.0850 C.ar  1 <1>  -0.1440 
  8 C       -3.5490    -2.3690    -0.2470 C.3   1 <1>  -0.0800 
  9 C       -1.2350    -2.5860     0.0540 C.3   1 <1>   0.1200 
 10 C       -0.5730     3.7090     0.8270 C.ar  1 <1>  -0.1500 
 11 C        0.4690     1.5930    -0.0040 C.3   1 <1>  -0.0970 
 12 C       -2.8880     4.2070     0.5500 C.ar  1 <1>  -0.1500 
 13 C       -4.4810     2.6430    -0.5820 C.3   1 <1>  -0.0970 
 14 C       -3.2220    -2.9150     1.1480 C.3   1 <1>   0.1200 
 15 C       -4.7980    -1.4710    -0.2980 C.3   1 <1>  -0.0170 
 16 O       -1.8300    -2.8890     1.2800 O.3   1 <1>  -0.5600 
 17 C       -1.6370     4.5710     1.0130 C.ar  1 <1>  -0.1440 
 18 C       -6.0530    -2.2660     0.0310 C.ar  1 <1>  -0.1440 
 19 C       -1.4330     5.9050     1.7080 C.3   1 <1>  -0.0970 
 20 C       -6.6910    -3.0360    -0.9190 C.ar  1 <1>  -0.1500 
 21 C       -6.6160    -2.2600     1.2910 C.ar  1 <1>  -0.1500 
 22 C       -7.8280    -3.7480    -0.5730 C.ar  1 <1>   0.1600 
 23 C       -7.7560    -3.0080     1.5340 C.ar  1 <1>   0.1600 
 24 N       -8.3750    -3.7540     0.6320 N.ar  1 <1>  -0.6200 
 25 H       -1.9690    -0.2620     0.8540 H     1 <1>   0.3700 
 26 H       -2.1010    -1.7250    -1.7400 H     1 <1>   0.0800 
 27 H       -3.7140    -3.2130    -0.8930 H     1 <1>   0.0800 
 28 H       -0.2940    -2.0920     0.2170 H     1 <1>   0.0800 
 29 H       -1.0800    -3.5100    -0.4750 H     1 <1>   0.0800 
 30 H        0.4030     3.9970     1.1780 H     1 <1>   0.1500 
 31 H        1.3790     2.1260     0.2000 H     1 <1>   0.0800 
 32 H        0.5110     1.2400    -1.0200 H     1 <1>   0.0800 
 33 H        0.4140     0.7470     0.6570 H     1 <1>   0.0800 
 34 H       -3.7150     4.8820     0.6850 H     1 <1>   0.1500 
 35 H       -5.1780     3.4350    -0.3750 H     1 <1>   0.0800 
 36 H       -4.8330     1.7490    -0.1030 H     1 <1>   0.0800 
 37 H       -4.4630     2.4840    -1.6460 H     1 <1>   0.0800 
 38 H       -3.5670    -3.9280     1.2690 H     1 <1>   0.0800 
 39 H       -3.6330    -2.2960     1.9250 H     1 <1>   0.0800 
 40 H       -4.8910    -1.0460    -1.2830 H     1 <1>   0.0800 
 41 H       -4.7020    -0.6570     0.3970 H     1 <1>   0.0800 
 42 H       -0.6520     5.8300     2.4430 H     1 <1>   0.0800 
 43 H       -2.3350     6.2150     2.2020 H     1 <1>   0.0800 
 44 H       -1.1580     6.6520     0.9850 H     1 <1>   0.0800 
 45 H       -6.3170    -3.0890    -1.9250 H     1 <1>   0.1500 
 46 H       -6.1830    -1.6810     2.0850 H     1 <1>   0.1500 
 47 H       -8.3130    -4.3440    -1.3270 H     1 <1>   0.1500 
 48 H       -8.1820    -2.9920     2.5220 H     1 <1>   0.1500 
@<TRIPOS>BOND
  1   1   2  2   
  2   2   3  am  
  3   2   4  1   
  4   3   5  1   
  5   3  25  1   
  6   4   6  ar  
  7   4   7  ar  
  8   5   8  1   
  9   5   9  1   
 10   5  26  1   
 11   6  10  ar  
 12   6  11  1   
 13   7  12  ar  
 14   7  13  1   
 15   8  14  1   
 16   8  15  1   
 17   8  27  1   
 18   9  16  1   
 19   9  28  1   
 20   9  29  1   
 21  10  17  ar  
 22  10  30  1   
 23  11  31  1   
 24  11  32  1   
 25  11  33  1   
 26  12  17  ar  
 27  12  34  1   
 28  13  35  1   
 29  13  36  1   
 30  13  37  1   
 31  14  16  1   
 32  14  38  1   
 33  14  39  1   
 34  15  18  1   
 35  15  40  1   
 36  15  41  1   
 37  17  19  1   
 38  18  20  ar  
 39  18  21  ar  
 40  19  42  1   
 41  19  43  1   
 42  19  44  1   
 43  20  22  ar  
 44  20  45  1   
 45  21  23  ar  
 46  21  46  1   
 47  22  24  ar  
 48  22  47  1   
 49  23  24  ar  
 50  23  48  1   
@<TRIPOS>SUBSTRUCTURE
  1 ****   3 GROUP 4 **** **** 0

# MOE 2024.06 (io_trps.svl 2023.06)
