@<TRIPOS>MOLECULE
NONAME
35 36 1 0 0 
SMALL
USER_CHARGES


@<TRIPOS>ATOM
  1 CL      -2.6150    -1.4130     3.6390 Cl    1 <1>  -0.1240 
  2 C       -2.1980    -2.1740     2.1290 C.2   1 <1>   0.1640 
  3 S       -2.3200    -3.9200     2.0700 S.3   1 <1>  -0.0800 
  4 C       -1.7870    -1.6580     0.9580 C.2   1 <1>  -0.1500 
  5 C       -1.7920    -3.9200     0.3880 C.2   1 <1>  -0.1400 
  6 C       -1.5540    -2.6610    -0.0390 C.2   1 <1>  -0.1500 
  7 C       -1.6920    -5.2690    -0.2950 C.3   1 <1>   0.5230 
  8 N       -3.0310    -5.9000    -0.3080 N.4   1 <1>  -0.9590 
  9 C       -2.9780    -7.3410    -0.6710 C.3   1 <1>   0.5240 
 10 C       -4.0570    -5.1110    -1.0630 C.3   1 <1>   0.3430 
 11 C       -3.9050    -8.0750     0.2880 C.2   1 <1>   0.0460 
 12 C       -5.5000    -5.4840    -0.6930 C.3   1 <1>   0.1200 
 13 N       -4.0300    -7.6300     1.5580 N.2   1 <1>  -0.5650 
 14 C       -4.6940    -9.1540     0.0750 C.2   1 <1>  -0.3320 
 15 O       -6.3460    -4.6980    -1.4560 O.3   1 <1>  -0.6800 
 16 C       -4.8740    -8.4520     2.0930 C.2   1 <1>   0.0360 
 17 N       -5.3160    -9.4030     1.2440 N.pl3 1 <1>   0.0330 
 18 C       -4.9210   -10.0080    -1.1630 C.3   1 <1>  -0.0600 
 19 H       -1.6390    -0.6110     0.7590 H     1 <1>   0.1500 
 20 H       -1.2190    -2.3740    -1.0230 H     1 <1>   0.1500 
 21 H       -0.9970    -5.8860     0.2520 H     1 <1>   0.0800 
 22 H       -1.3270    -5.1440    -1.3010 H     1 <1>   0.0800 
 23 H       -3.3410    -5.9440     0.6840 H     1 <1>   0.4500 
 24 H       -1.9810    -7.7240    -0.5300 H     1 <1>   0.0800 
 25 H       -3.2790    -7.5010    -1.6920 H     1 <1>   0.0800 
 26 H       -3.9200    -5.2530    -2.1220 H     1 <1>   0.0800 
 27 H       -3.9330    -4.0630    -0.8460 H     1 <1>   0.0800 
 28 H       -5.6940    -5.2800     0.3470 H     1 <1>   0.0800 
 29 H       -5.7180    -6.5130    -0.9180 H     1 <1>   0.0800 
 30 H       -7.2850    -4.8420    -1.2130 H     1 <1>   0.4000 
 31 H       -5.2070    -8.4040     3.1170 H     1 <1>   0.1500 
 32 H       -5.9800   -10.1560     1.4580 H     1 <1>   0.2700 
 33 H       -4.3320    -9.6560    -1.9900 H     1 <1>   0.0800 
 34 H       -5.9580    -9.9820    -1.4480 H     1 <1>   0.0800 
 35 H       -4.6470   -11.0300    -0.9640 H     1 <1>   0.0800 
@<TRIPOS>BOND
  1   1   2  1   
  2   2   3  1   
  3   2   4  2   
  4   3   5  1   
  5   4   6  1   
  6   4  19  1   
  7   5   6  2   
  8   5   7  1   
  9   6  20  1   
 10   7   8  1   
 11   7  21  1   
 12   7  22  1   
 13   8   9  1   
 14   8  10  1   
 15   8  23  1   
 16   9  11  1   
 17   9  24  1   
 18   9  25  1   
 19  10  12  1   
 20  10  26  1   
 21  10  27  1   
 22  11  13  1   
 23  11  14  2   
 24  12  15  1   
 25  12  28  1   
 26  12  29  1   
 27  13  16  2   
 28  14  17  1   
 29  14  18  1   
 30  15  30  1   
 31  16  17  1   
 32  16  31  1   
 33  17  32  1   
 34  18  33  1   
 35  18  34  1   
 36  18  35  1   
@<TRIPOS>SUBSTRUCTURE
  1 ****   8 GROUP 4 **** **** 0

# MOE 2024.06 (io_trps.svl 2023.06)
