@<TRIPOS>MOLECULE
NONAME
47 50 1 0 0 
SMALL
USER_CHARGES


@<TRIPOS>ATOM
  1 S        0.4650     1.9660     1.9900 S.3   1 <1>  -0.0800 
  2 C        0.2840     0.2500     1.6370 C.2   1 <1>   0.4620 
  3 C        1.8250     2.0270     0.8920 C.ar  1 <1>   0.0400 
  4 N        1.1310    -0.2210     0.8050 N.2   1 <1>  -0.5650 
  5 N       -0.7070    -0.4310     2.2520 N.pl3 1 <1>  -0.8840 
  6 C        2.0080     0.7600     0.3700 C.ar  1 <1>   0.2270 
  7 C        2.6050     3.1170     0.5720 C.ar  1 <1>  -0.1500 
  8 C        3.0490     0.5860    -0.5400 C.ar  1 <1>  -0.1440 
  9 C        3.6560     2.9540    -0.3330 C.ar  1 <1>   0.0860 
 10 C        3.8460     1.6710    -0.8750 C.ar  1 <1>  -0.1500 
 11 C        3.2980    -0.7830    -1.1560 C.3   1 <1>  -0.0970 
 12 C        4.5220     4.0610    -0.7030 C.2   1 <1>   0.5440 
 13 O        5.3540     3.9710    -1.5870 O.2   1 <1>  -0.5700 
 14 N        4.4820     5.2620    -0.0450 N.am  1 <1>  -0.6600 
 15 C        5.3740     5.4160     1.1580 C.3   1 <1>   0.2200 
 16 C        4.0940     6.4740    -0.8310 C.3   1 <1>   0.1400 
 17 C        4.9050     6.5290     2.1090 C.3   1 <1>   0.1200 
 18 C        6.8550     5.6330     0.7470 C.3   1 <1>   0.3430 
 19 C        5.0170     7.6950    -0.6520 C.3   1 <1>  -0.0800 
 20 O        5.4400     7.7600     1.7280 O.3   1 <1>  -0.5600 
 21 N        7.0110     6.0750    -0.6820 N.4   1 <1>  -0.9590 
 22 C        4.7870     8.4090     0.6900 C.3   1 <1>   0.1200 
 23 C        6.5140     7.4610    -0.9490 C.3   1 <1>   0.3430 
 24 C        8.4050     5.8820    -1.1690 C.3   1 <1>   0.2630 
 25 H       -1.3590     0.0030     2.9050 H     1 <1>   0.4000 
 26 H       -0.8330    -1.4260     2.0620 H     1 <1>   0.4000 
 27 H        2.3920     4.0710     1.0180 H     1 <1>   0.1500 
 28 H        4.6470     1.5320    -1.5810 H     1 <1>   0.1500 
 29 H        4.1280    -0.7610    -1.8380 H     1 <1>   0.0800 
 30 H        2.4220    -1.1050    -1.6900 H     1 <1>   0.0800 
 31 H        3.5060    -1.4980    -0.3800 H     1 <1>   0.0800 
 32 H        5.3220     4.4990     1.7190 H     1 <1>   0.0800 
 33 H        4.0680     6.2150    -1.8770 H     1 <1>   0.0800 
 34 H        3.0900     6.7470    -0.5550 H     1 <1>   0.0800 
 35 H        5.2800     6.3290     3.0980 H     1 <1>   0.0800 
 36 H        3.8310     6.5880     2.1630 H     1 <1>   0.0800 
 37 H        7.3690     4.6960     0.8780 H     1 <1>   0.0800 
 38 H        7.3140     6.3480     1.4100 H     1 <1>   0.0800 
 39 H        4.6870     8.4070    -1.3870 H     1 <1>   0.0800 
 40 H        6.3880     5.4210    -1.2110 H     1 <1>   0.4500 
 41 H        3.7390     8.4880     0.9270 H     1 <1>   0.0800 
 42 H        5.1920     9.4060     0.6450 H     1 <1>   0.0800 
 43 H        7.0950     8.1670    -0.3770 H     1 <1>   0.0800 
 44 H        6.6790     7.6780    -1.9920 H     1 <1>   0.0800 
 45 H        9.0840     6.5170    -0.6240 H     1 <1>   0.0800 
 46 H        8.4690     6.1230    -2.2180 H     1 <1>   0.0800 
 47 H        8.7050     4.8550    -1.0370 H     1 <1>   0.0800 
@<TRIPOS>BOND
  1   1   2  1   
  2   1   3  1   
  3   2   4  2   
  4   2   5  1   
  5   3   6  ar  
  6   3   7  ar  
  7   4   6  1   
  8   5  25  1   
  9   5  26  1   
 10   6   8  ar  
 11   7   9  ar  
 12   7  27  1   
 13   8  10  ar  
 14   8  11  1   
 15   9  10  ar  
 16   9  12  1   
 17  10  28  1   
 18  11  29  1   
 19  11  30  1   
 20  11  31  1   
 21  12  13  2   
 22  12  14  am  
 23  14  15  1   
 24  14  16  1   
 25  15  17  1   
 26  15  18  1   
 27  15  32  1   
 28  16  19  1   
 29  16  33  1   
 30  16  34  1   
 31  17  20  1   
 32  17  35  1   
 33  17  36  1   
 34  18  21  1   
 35  18  37  1   
 36  18  38  1   
 37  19  22  1   
 38  19  23  1   
 39  19  39  1   
 40  20  22  1   
 41  21  23  1   
 42  21  24  1   
 43  21  40  1   
 44  22  41  1   
 45  22  42  1   
 46  23  43  1   
 47  23  44  1   
 48  24  45  1   
 49  24  46  1   
 50  24  47  1   
@<TRIPOS>SUBSTRUCTURE
  1 ****   9 GROUP 4 **** **** 0

# MOE 2024.06 (io_trps.svl 2023.06)
