@<TRIPOS>MOLECULE
NONAME
46 49 1 0 0 
SMALL
USER_CHARGES


@<TRIPOS>ATOM
  1 S       -1.7120    -0.1730     1.7670 S.3   1 <1>  -0.1570 
  2 C       -1.8070    -1.6150     0.7380 C.2   1 <1>   0.2420 
  3 C       -0.9990     0.7580     0.4240 C.2   1 <1>  -0.0490 
  4 N       -2.2330    -2.8110     0.9520 N.2   1 <1>  -0.5650 
  5 N       -1.3300    -1.3420    -0.4900 N.pl3 1 <1>   0.3340 
  6 C       -0.8770    -0.0170    -0.6670 C.2   1 <1>  -0.1810 
  7 C       -2.0210    -3.4220    -0.2620 C.2   1 <1>   0.1410 
  8 C       -1.4740    -2.5130    -1.1330 C.2   1 <1>  -0.3020 
  9 C       -2.3240    -4.8210    -0.5490 C.2   1 <1>   0.7160 
 10 O       -2.1030    -5.2770    -1.6580 O.2   1 <1>  -0.5700 
 11 N       -2.8890    -5.6910     0.3680 N.am  1 <1>  -0.6600 
 12 C       -4.0190    -5.3060     1.2670 C.3   1 <1>   0.1400 
 13 C       -2.6760    -7.1630     0.2530 C.3   1 <1>   0.1400 
 14 C       -5.3270    -6.0250     0.8640 C.3   1 <1>   0.4230 
 15 C       -3.9740    -7.8540    -0.1950 C.3   1 <1>   0.3430 
 16 N       -5.1410    -7.5280     0.7140 N.4   1 <1>  -0.9590 
 17 C       -5.9050    -5.4120    -0.4330 C.3   1 <1>   0.1200 
 18 C       -6.4390    -8.1410     0.2590 C.3   1 <1>   0.4230 
 19 O       -7.0970    -6.0570    -0.7860 O.3   1 <1>  -0.5600 
 20 C       -6.9840    -7.4350    -1.0070 C.3   1 <1>   0.1200 
 21 C       -6.2860    -9.6600     0.0780 C.3   1 <1>  -0.1600 
 22 C       -7.6420   -10.3790    -0.0100 C.3   1 <1>  -0.1600 
 23 C       -7.4500   -11.8950    -0.1070 C.3   1 <1>  -0.2400 
 24 H       -0.7550     1.7880     0.6240 H     1 <1>   0.1500 
 25 H       -0.4830     0.2570    -1.6280 H     1 <1>   0.1500 
 26 H       -1.1840    -2.6560    -2.1580 H     1 <1>   0.1500 
 27 H       -3.7610    -5.5540     2.2820 H     1 <1>   0.0800 
 28 H       -4.1940    -4.2460     1.2330 H     1 <1>   0.0800 
 29 H       -1.8950    -7.3750    -0.4580 H     1 <1>   0.0800 
 30 H       -2.3590    -7.5530     1.2040 H     1 <1>   0.0800 
 31 H       -6.0490    -5.8380     1.6410 H     1 <1>   0.0800 
 32 H       -3.8080    -8.9180    -0.2160 H     1 <1>   0.0800 
 33 H       -4.1930    -7.5350    -1.2010 H     1 <1>   0.0800 
 34 H       -4.9280    -7.9040     1.6450 H     1 <1>   0.4500 
 35 H       -5.2110    -5.4900    -1.2530 H     1 <1>   0.0800 
 36 H       -6.1340    -4.3710    -0.2820 H     1 <1>   0.0800 
 37 H       -7.1700    -7.9870     1.0360 H     1 <1>   0.0800 
 38 H       -7.9680    -7.7980    -1.2440 H     1 <1>   0.0800 
 39 H       -6.3470    -7.5990    -1.8580 H     1 <1>   0.0800 
 40 H       -5.7280    -9.8760    -0.8170 H     1 <1>   0.0800 
 41 H       -5.7530   -10.0630     0.9210 H     1 <1>   0.0800 
 42 H       -8.2350   -10.1600     0.8630 H     1 <1>   0.0800 
 43 H       -8.1910   -10.0500    -0.8770 H     1 <1>   0.0800 
 44 H       -6.9360   -12.2730     0.7600 H     1 <1>   0.0800 
 45 H       -6.8840   -12.1540    -0.9850 H     1 <1>   0.0800 
 46 H       -8.4070   -12.3830    -0.1690 H     1 <1>   0.0800 
@<TRIPOS>BOND
  1   1   2  1   
  2   1   3  1   
  3   2   4  2   
  4   2   5  1   
  5   3   6  2   
  6   3  24  1   
  7   4   7  1   
  8   5   6  1   
  9   5   8  1   
 10   6  25  1   
 11   7   8  2   
 12   7   9  1   
 13   8  26  1   
 14   9  10  2   
 15   9  11  am  
 16  11  12  1   
 17  11  13  1   
 18  12  14  1   
 19  12  27  1   
 20  12  28  1   
 21  13  15  1   
 22  13  29  1   
 23  13  30  1   
 24  14  16  1   
 25  14  17  1   
 26  14  31  1   
 27  15  16  1   
 28  15  32  1   
 29  15  33  1   
 30  16  18  1   
 31  16  34  1   
 32  17  19  1   
 33  17  35  1   
 34  17  36  1   
 35  18  20  1   
 36  18  21  1   
 37  18  37  1   
 38  19  20  1   
 39  20  38  1   
 40  20  39  1   
 41  21  22  1   
 42  21  40  1   
 43  21  41  1   
 44  22  23  1   
 45  22  42  1   
 46  22  43  1   
 47  23  44  1   
 48  23  45  1   
 49  23  46  1   
@<TRIPOS>SUBSTRUCTURE
  1 ****  11 GROUP 4 **** **** 0

# MOE 2024.06 (io_trps.svl 2023.06)
