@<TRIPOS>MOLECULE
NONAME
54 57 1 0 0 
SMALL
USER_CHARGES


@<TRIPOS>ATOM
  1 O        1.7350     1.0770     2.3710 O.2   1 <1>  -0.5700 
  2 C        2.2600     0.1530     1.7970 C.2   1 <1>   0.9370 
  3 N        3.5310     0.3050     1.2360 N.pl3 1 <1>  -0.5760 
  4 C        1.5930    -1.0910     1.6730 C.2   1 <1>  -0.1360 
  5 C        4.1170    -0.7370     0.5920 C.cat 1 <1>   0.7390 
  6 C        4.2040     1.5000     1.3440 C.2   1 <1>   0.1910 
  7 C        2.1630    -2.1200     1.0150 C.2   1 <1>   0.2030 
  8 N        3.4300    -1.9100     0.4850 N.pl3 1 <1>  -0.6450 
  9 C        5.4120    -0.5970     0.0450 C.2   1 <1>  -0.1680 
 10 C        5.4530     1.6600     0.8190 C.2   1 <1>  -0.1500 
 11 C        1.4620    -3.4860     0.8510 C.3   1 <1>   0.4810 
 12 C        6.0750     0.5980     0.1580 C.2   1 <1>  -0.1500 
 13 C        6.1090    -1.7500    -0.6790 C.3   1 <1>  -0.1020 
 14 N        1.1260    -3.8000    -0.5890 N.4   1 <1>  -0.9590 
 15 C       -0.3310    -3.7270    -0.9490 C.3   1 <1>   0.4230 
 16 C        1.6540    -5.1520    -0.9820 C.3   1 <1>   0.2630 
 17 C       -1.2400    -4.6730    -0.1630 C.3   1 <1>  -0.1600 
 18 C       -0.9480    -2.3500    -0.7330 C.3   1 <1>  -0.1600 
 19 C       -2.6500    -4.1120    -0.3990 C.3   1 <1>  -0.0800 
 20 C       -2.4610    -2.6130    -0.7300 C.3   1 <1>  -0.0800 
 21 C       -3.6350    -4.4160     0.7500 C.3   1 <1>   0.1400 
 22 C       -3.2470    -1.6690     0.1990 C.3   1 <1>  -0.0990 
 23 N       -4.8100    -3.5180     0.6610 N.am  1 <1>  -0.6600 
 24 C       -4.6580    -2.1830     0.4040 C.2   1 <1>   0.5690 
 25 C       -6.1430    -4.1300     0.9200 C.3   1 <1>   0.0600 
 26 O       -5.5760    -1.4050     0.3370 O.2   1 <1>  -0.5700 
 27 H        0.6240    -1.1380     2.1360 H     1 <1>   0.1500 
 28 H        3.7280     2.3270     1.8570 H     1 <1>   0.1500 
 29 H        3.9670    -2.6660     0.0460 H     1 <1>   0.4500 
 30 H        5.9730     2.6000     0.9090 H     1 <1>   0.1500 
 31 H        0.5620    -3.4880     1.4430 H     1 <1>   0.0800 
 32 H        2.1070    -4.2520     1.2500 H     1 <1>   0.0800 
 33 H        7.0650     0.7490    -0.2450 H     1 <1>   0.1500 
 34 H        5.5460    -2.0570    -1.5430 H     1 <1>   0.0800 
 35 H        6.2460    -2.5890    -0.0190 H     1 <1>   0.0800 
 36 H        7.0850    -1.4480    -1.0220 H     1 <1>   0.0800 
 37 H        1.5850    -3.1030    -1.1920 H     1 <1>   0.4500 
 38 H       -0.4460    -3.9670    -1.9960 H     1 <1>   0.0800 
 39 H        1.1890    -5.9260    -0.3920 H     1 <1>   0.0800 
 40 H        2.7210    -5.2050    -0.8360 H     1 <1>   0.0800 
 41 H        1.4450    -5.3490    -2.0220 H     1 <1>   0.0800 
 42 H       -1.1760    -5.6850    -0.5220 H     1 <1>   0.0800 
 43 H       -1.0210    -4.6470     0.8880 H     1 <1>   0.0800 
 44 H       -0.6700    -1.9410     0.2170 H     1 <1>   0.0800 
 45 H       -0.6840    -1.6640    -1.5190 H     1 <1>   0.0800 
 46 H       -3.0520    -4.5840    -1.2820 H     1 <1>   0.0800 
 47 H       -2.8390    -2.4590    -1.7300 H     1 <1>   0.0800 
 48 H       -3.1670    -4.2580     1.7060 H     1 <1>   0.0800 
 49 H       -3.9520    -5.4440     0.6960 H     1 <1>   0.0800 
 50 H       -3.2900    -0.6810    -0.2230 H     1 <1>   0.0800 
 51 H       -2.7880    -1.6020     1.1670 H     1 <1>   0.0800 
 52 H       -6.3430    -4.8920     0.1880 H     1 <1>   0.0800 
 53 H       -6.9190    -3.3860     0.8600 H     1 <1>   0.0800 
 54 H       -6.1610    -4.5640     1.9040 H     1 <1>   0.0800 
@<TRIPOS>BOND
  1   1   2  2   
  2   2   3  1   
  3   2   4  1   
  4   3   5  ar  
  5   3   6  1   
  6   4   7  2   
  7   4  27  1   
  8   5   8  ar  
  9   5   9  1   
 10   6  10  2   
 11   6  28  1   
 12   7   8  1   
 13   7  11  1   
 14   8  29  1   
 15   9  12  2   
 16   9  13  1   
 17  10  12  1   
 18  10  30  1   
 19  11  14  1   
 20  11  31  1   
 21  11  32  1   
 22  12  33  1   
 23  13  34  1   
 24  13  35  1   
 25  13  36  1   
 26  14  15  1   
 27  14  16  1   
 28  14  37  1   
 29  15  17  1   
 30  15  18  1   
 31  15  38  1   
 32  16  39  1   
 33  16  40  1   
 34  16  41  1   
 35  17  19  1   
 36  17  42  1   
 37  17  43  1   
 38  18  20  1   
 39  18  44  1   
 40  18  45  1   
 41  19  20  1   
 42  19  21  1   
 43  19  46  1   
 44  20  22  1   
 45  20  47  1   
 46  21  23  1   
 47  21  48  1   
 48  21  49  1   
 49  22  24  1   
 50  22  50  1   
 51  22  51  1   
 52  23  24  am  
 53  23  25  1   
 54  24  26  2   
 55  25  52  1   
 56  25  53  1   
 57  25  54  1   
@<TRIPOS>SUBSTRUCTURE
  1 ****   7 GROUP 4 **** **** 0

# MOE 2024.06 (io_trps.svl 2023.06)
