@<TRIPOS>MOLECULE
NONAME
46 48 1 0 0 
SMALL
USER_CHARGES


@<TRIPOS>ATOM
  1 O        0.1530    -0.7540     0.8960 O.3   1 <1>  -0.3630 
  2 C        0.0030    -2.0680     0.6010 C.ar  1 <1>   0.0830 
  3 C        1.0590    -0.3100     1.8810 C.3   1 <1>   0.0400 
  4 C       -0.8850    -2.3970    -0.3860 C.ar  1 <1>  -0.1500 
  5 C        0.7140    -3.0900     1.2590 C.ar  1 <1>  -0.1500 
  6 C       -1.1110    -3.7340    -0.7640 C.ar  1 <1>   0.0000 
  7 C        0.5130    -4.3970     0.9100 C.ar  1 <1>  -0.1500 
  8 C       -0.4010    -4.7570    -0.1020 C.ar  1 <1>   0.0000 
  9 C       -2.0180    -4.0910    -1.7810 C.ar  1 <1>  -0.1500 
 10 C       -0.6330    -6.0950    -0.4750 C.ar  1 <1>  -0.1500 
 11 C       -2.2250    -5.3980    -2.1250 C.ar  1 <1>  -0.1500 
 12 C       -1.5320    -6.4210    -1.4590 C.ar  1 <1>  -0.1430 
 13 C       -1.7930    -7.8660    -1.8340 C.3   1 <1>   0.4860 
 14 N       -2.6920    -8.4660    -0.8090 N.4   1 <1>  -0.9590 
 15 C       -2.7940    -9.9530    -0.9880 C.3   1 <1>   0.3430 
 16 C       -4.0340    -7.8110    -0.8040 C.3   1 <1>   0.3430 
 17 C       -3.6960   -10.6120     0.0730 C.3   1 <1>   0.2000 
 18 C       -4.9030    -8.4130     0.2990 C.3   1 <1>  -0.1600 
 19 O       -3.8410   -11.9400    -0.2830 O.3   1 <1>  -0.6800 
 20 C       -5.0790    -9.9390     0.1380 C.3   1 <1>  -0.0800 
 21 C       -5.9480   -10.5350     1.2600 C.3   1 <1>   0.1200 
 22 O       -7.1630    -9.8750     1.2810 O.3   1 <1>  -0.6800 
 23 H        1.0040     0.7620     1.9260 H     1 <1>   0.0800 
 24 H        2.0530    -0.6140     1.6030 H     1 <1>   0.0800 
 25 H        0.7770    -0.7300     2.8300 H     1 <1>   0.0800 
 26 H       -1.4240    -1.6150    -0.8880 H     1 <1>   0.1500 
 27 H        1.4170    -2.8510     2.0340 H     1 <1>   0.1500 
 28 H        1.0590    -5.1760     1.4120 H     1 <1>   0.1500 
 29 H       -2.5450    -3.3010    -2.2880 H     1 <1>   0.1500 
 30 H       -0.0730    -6.8520     0.0440 H     1 <1>   0.1500 
 31 H       -2.9200    -5.6360    -2.9120 H     1 <1>   0.1500 
 32 H       -0.8560    -8.3980    -1.8600 H     1 <1>   0.0800 
 33 H       -2.2440    -7.9210    -2.8110 H     1 <1>   0.0800 
 34 H       -2.2610    -8.2640     0.1020 H     1 <1>   0.4500 
 35 H       -3.2110   -10.1660    -1.9590 H     1 <1>   0.0800 
 36 H       -1.8150   -10.3990    -0.9320 H     1 <1>   0.0800 
 37 H       -3.9290    -6.7500    -0.6330 H     1 <1>   0.0800 
 38 H       -4.5170    -7.9530    -1.7580 H     1 <1>   0.0800 
 39 H       -3.2090   -10.5800     1.0330 H     1 <1>   0.0800 
 40 H       -4.4810    -8.1810     1.2610 H     1 <1>   0.0800 
 41 H       -5.8670    -7.9330     0.2530 H     1 <1>   0.0800 
 42 H       -4.3480   -12.4460     0.3840 H     1 <1>   0.4000 
 43 H       -5.5810   -10.1220    -0.7990 H     1 <1>   0.0800 
 44 H       -5.4830   -10.4110     2.2240 H     1 <1>   0.0800 
 45 H       -6.1440   -11.5800     1.0850 H     1 <1>   0.0800 
 46 H       -7.7670   -10.2620     1.9470 H     1 <1>   0.4000 
@<TRIPOS>BOND
  1   1   2  1   
  2   1   3  1   
  3   2   4  ar  
  4   2   5  ar  
  5   3  23  1   
  6   3  24  1   
  7   3  25  1   
  8   4   6  ar  
  9   4  26  1   
 10   5   7  ar  
 11   5  27  1   
 12   6   8  ar  
 13   6   9  ar  
 14   7   8  ar  
 15   7  28  1   
 16   8  10  ar  
 17   9  11  ar  
 18   9  29  1   
 19  10  12  ar  
 20  10  30  1   
 21  11  12  ar  
 22  11  31  1   
 23  12  13  1   
 24  13  14  1   
 25  13  32  1   
 26  13  33  1   
 27  14  15  1   
 28  14  16  1   
 29  14  34  1   
 30  15  17  1   
 31  15  35  1   
 32  15  36  1   
 33  16  18  1   
 34  16  37  1   
 35  16  38  1   
 36  17  19  1   
 37  17  20  1   
 38  17  39  1   
 39  18  20  1   
 40  18  40  1   
 41  18  41  1   
 42  19  42  1   
 43  20  21  1   
 44  20  43  1   
 45  21  22  1   
 46  21  44  1   
 47  21  45  1   
 48  22  46  1   
@<TRIPOS>SUBSTRUCTURE
  1 ****  12 GROUP 4 **** **** 0

# MOE 2024.06 (io_trps.svl 2023.06)
