@<TRIPOS>MOLECULE
NONAME
46 47 1 0 0 
SMALL
USER_CHARGES


@<TRIPOS>ATOM
  1 S        0.2750    -0.1100    -1.3650 S.o2  1 <1>   1.4470 
  2 O       -0.6800     0.8180    -1.9340 O.2   1 <1>  -0.6500 
  3 O        1.0270    -0.9860    -2.2370 O.2   1 <1>  -0.6500 
  4 N       -0.5370    -1.0640    -0.2250 N.am  1 <1>  -0.8490 
  5 C        1.4570     0.7900    -0.3220 C.ar  1 <1>  -0.0090 
  6 C       -1.2090    -2.2280    -0.8380 C.3   1 <1>   0.1960 
  7 C       -1.5110    -0.2950     0.5570 C.3   1 <1>   0.1960 
  8 C        1.5800     2.1710    -0.3890 C.ar  1 <1>  -0.1500 
  9 C        2.2760     0.1070     0.5700 C.ar  1 <1>  -0.1500 
 10 C       -1.6810    -3.2140     0.2500 C.3   1 <1>  -0.1060 
 11 C       -2.0580    -1.1440     1.7100 C.3   1 <1>  -0.1600 
 12 C        2.4830     2.8590     0.4050 C.ar  1 <1>   0.0820 
 13 C        3.1840     0.7780     1.3710 C.ar  1 <1>  -0.1500 
 14 C       -2.4820    -4.3370    -0.4210 C.2   1 <1>   0.9060 
 15 C       -2.6500    -2.4600     1.1920 C.3   1 <1>   0.2000 
 16 C       -0.4620    -3.7660     1.0680 C.3   1 <1>  -0.1600 
 17 O        2.5200     4.2060     0.2600 O.3   1 <1>  -0.3630 
 18 C        3.2910     2.1540     1.2920 C.ar  1 <1>  -0.1500 
 19 O       -2.3170    -5.5180    -0.1000 O.co2 1 <1>  -0.9000 
 20 O       -3.3570    -4.0160    -1.2390 O.co2 1 <1>  -0.9000 
 21 O       -3.8140    -2.1190     0.5170 O.3   1 <1>  -0.6800 
 22 C        0.6480    -4.4300     0.2310 C.3   1 <1>  -0.1600 
 23 C        3.4250     5.0010     0.9930 C.3   1 <1>   0.0400 
 24 C        1.7330    -5.0220     1.1340 C.3   1 <1>  -0.2400 
 25 H       -2.0490    -1.8900    -1.4260 H     1 <1>   0.0800 
 26 H       -0.5450    -2.7400    -1.5120 H     1 <1>   0.0800 
 27 H       -1.0440     0.5860     0.9620 H     1 <1>   0.0800 
 28 H       -2.3250     0.0180    -0.0780 H     1 <1>   0.0800 
 29 H        0.9630     2.7300    -1.0720 H     1 <1>   0.1500 
 30 H        2.1940    -0.9670     0.6350 H     1 <1>   0.1500 
 31 H       -2.8180    -0.5960     2.2360 H     1 <1>   0.0800 
 32 H       -1.2680    -1.3400     2.4080 H     1 <1>   0.0800 
 33 H        3.8060     0.2260     2.0540 H     1 <1>   0.1500 
 34 H       -2.9360    -3.1010     2.0090 H     1 <1>   0.0800 
 35 H       -0.0050    -2.9750     1.6310 H     1 <1>   0.0800 
 36 H       -0.8350    -4.4880     1.7750 H     1 <1>   0.0800 
 37 H        4.0010     2.6550     1.9220 H     1 <1>   0.1500 
 38 H       -3.9410    -2.7970    -0.2150 H     1 <1>   0.4000 
 39 H        0.2280    -5.2160    -0.3740 H     1 <1>   0.0800 
 40 H        1.1010    -3.7080    -0.4240 H     1 <1>   0.0800 
 41 H        3.2800     6.0260     0.7030 H     1 <1>   0.0800 
 42 H        4.4290     4.6940     0.7580 H     1 <1>   0.0800 
 43 H        3.2210     4.8860     2.0430 H     1 <1>   0.0800 
 44 H        1.3090    -5.7730     1.7770 H     1 <1>   0.0800 
 45 H        2.1800    -4.2530     1.7380 H     1 <1>   0.0800 
 46 H        2.4990    -5.4790     0.5320 H     1 <1>   0.0800 
@<TRIPOS>BOND
  1   1   2  2   
  2   1   3  2   
  3   1   4  am  
  4   1   5  1   
  5   4   6  1   
  6   4   7  1   
  7   5   8  ar  
  8   5   9  ar  
  9   6  10  1   
 10   6  25  1   
 11   6  26  1   
 12   7  11  1   
 13   7  27  1   
 14   7  28  1   
 15   8  12  ar  
 16   8  29  1   
 17   9  13  ar  
 18   9  30  1   
 19  10  14  1   
 20  10  15  1   
 21  10  16  1   
 22  11  15  1   
 23  11  31  1   
 24  11  32  1   
 25  12  17  1   
 26  12  18  ar  
 27  13  18  ar  
 28  13  33  1   
 29  14  19  ar  
 30  14  20  ar  
 31  15  21  1   
 32  15  34  1   
 33  16  22  1   
 34  16  35  1   
 35  16  36  1   
 36  17  23  1   
 37  18  37  1   
 38  21  38  1   
 39  22  24  1   
 40  22  39  1   
 41  22  40  1   
 42  23  41  1   
 43  23  42  1   
 44  23  43  1   
 45  24  44  1   
 46  24  45  1   
 47  24  46  1   
@<TRIPOS>SUBSTRUCTURE
  1 ****   4 GROUP 4 **** **** 0

# MOE 2024.06 (io_trps.svl 2023.06)
