@<TRIPOS>MOLECULE
NONAME
46 48 1 0 0 
SMALL
USER_CHARGES


@<TRIPOS>ATOM
  1 O       -2.3340    -2.0970    -2.6780 O.co2 1 <1>  -0.9000 
  2 C       -3.1570    -1.8600    -1.7980 C.2   1 <1>   0.9060 
  3 O       -4.2890    -2.3770    -1.7460 O.co2 1 <1>  -0.9000 
  4 C       -2.8490    -0.8170    -0.7150 C.3   1 <1>   0.2370 
  5 N       -4.1390    -0.3900    -0.0560 N.4   1 <1>  -0.9590 
  6 C       -4.1630    -0.2420     1.4280 C.3   1 <1>   0.3430 
  7 C       -4.9130     0.5990    -0.8470 C.3   1 <1>   0.3430 
  8 C       -5.5590    -0.6010     1.9930 C.3   1 <1>   0.2200 
  9 C       -6.4310     0.4860    -0.6030 C.3   1 <1>  -0.0800 
 10 N       -6.3010    -1.5110     1.0350 N.am  1 <1>  -0.6600 
 11 C       -6.3630     0.6450     2.3920 C.3   1 <1>   0.1200 
 12 C       -6.9570     1.5900     0.3230 C.3   1 <1>   0.1200 
 13 C       -6.9270    -0.9190    -0.2000 C.3   1 <1>   0.1400 
 14 C       -6.2060    -2.8760     1.2170 C.2   1 <1>   0.5690 
 15 O       -6.1910     1.6840     1.4760 O.3   1 <1>  -0.5600 
 16 O       -5.6440    -3.3250     2.1900 O.2   1 <1>  -0.5700 
 17 C       -6.7730    -3.8810     0.2170 C.3   1 <1>   0.0440 
 18 C       -8.2640    -3.6960    -0.0510 C.ar  1 <1>  -0.1440 
 19 C       -9.1620    -3.6240     1.0030 C.ar  1 <1>  -0.1500 
 20 C       -8.7300    -3.5870    -1.3540 C.ar  1 <1>  -0.1500 
 21 C      -10.5100    -3.4300     0.7490 C.ar  1 <1>   0.0820 
 22 C      -10.0790    -3.3940    -1.6040 C.ar  1 <1>  -0.1500 
 23 O      -11.3820    -3.3550     1.7640 O.3   1 <1>  -0.5330 
 24 C      -10.9720    -3.3120    -0.5500 C.ar  1 <1>  -0.1500 
 25 H       -2.3470     0.0190    -1.1660 H     1 <1>   0.0800 
 26 H       -2.1960    -1.2800     0.0000 H     1 <1>   0.0800 
 27 H       -4.6910    -1.2670    -0.2230 H     1 <1>   0.4500 
 28 H       -3.4470    -0.9210     1.8590 H     1 <1>   0.0800 
 29 H       -3.8910     0.7600     1.7140 H     1 <1>   0.0800 
 30 H       -4.5740     1.5980    -0.6260 H     1 <1>   0.0800 
 31 H       -4.7320     0.4070    -1.8920 H     1 <1>   0.0800 
 32 H       -5.3970    -1.1290     2.9160 H     1 <1>   0.0800 
 33 H       -6.8920     0.6880    -1.5530 H     1 <1>   0.0800 
 34 H       -5.9930     1.0100     3.3350 H     1 <1>   0.0800 
 35 H       -7.4100     0.4190     2.5090 H     1 <1>   0.0800 
 36 H       -7.9880     1.4310     0.5910 H     1 <1>   0.0800 
 37 H       -6.8840     2.5440    -0.1730 H     1 <1>   0.0800 
 38 H       -6.7360    -1.5720    -1.0350 H     1 <1>   0.0800 
 39 H       -7.9950    -0.8900    -0.0590 H     1 <1>   0.0800 
 40 H       -6.2100    -3.8080    -0.6950 H     1 <1>   0.0800 
 41 H       -6.6170    -4.8730     0.6010 H     1 <1>   0.0800 
 42 H       -8.8120    -3.7170     2.0150 H     1 <1>   0.1500 
 43 H       -8.0440    -3.6520    -2.1830 H     1 <1>   0.1500 
 44 H      -10.4330    -3.3110    -2.6160 H     1 <1>   0.1500 
 45 H      -10.9690    -3.5030     2.6320 H     1 <1>   0.4500 
 46 H      -12.0220    -3.1630    -0.7270 H     1 <1>   0.1500 
@<TRIPOS>BOND
  1   1   2  ar  
  2   2   3  ar  
  3   2   4  1   
  4   4   5  1   
  5   4  25  1   
  6   4  26  1   
  7   5   6  1   
  8   5   7  1   
  9   5  27  1   
 10   6   8  1   
 11   6  28  1   
 12   6  29  1   
 13   7   9  1   
 14   7  30  1   
 15   7  31  1   
 16   8  10  1   
 17   8  11  1   
 18   8  32  1   
 19   9  12  1   
 20   9  13  1   
 21   9  33  1   
 22  10  13  1   
 23  10  14  am  
 24  11  15  1   
 25  11  34  1   
 26  11  35  1   
 27  12  15  1   
 28  12  36  1   
 29  12  37  1   
 30  13  38  1   
 31  13  39  1   
 32  14  16  2   
 33  14  17  1   
 34  17  18  1   
 35  17  40  1   
 36  17  41  1   
 37  18  19  ar  
 38  18  20  ar  
 39  19  21  ar  
 40  19  42  1   
 41  20  22  ar  
 42  20  43  1   
 43  21  23  1   
 44  21  24  ar  
 45  22  24  ar  
 46  22  44  1   
 47  23  45  1   
 48  24  46  1   
@<TRIPOS>SUBSTRUCTURE
  1 ****  13 GROUP 4 **** **** 0

# MOE 2024.06 (io_trps.svl 2023.06)
