@<TRIPOS>MOLECULE
NONAME
59 62 1 0 0 
SMALL
USER_CHARGES


@<TRIPOS>ATOM
  1 O        2.2960     0.7820     0.2700 O.2   1 <1>  -0.5700 
  2 C        2.1820     1.9560     0.0350 C.2   1 <1>   0.5690 
  3 N        0.9580     2.5220    -0.0700 N.am  1 <1>  -0.7300 
  4 C        3.4270     2.8020    -0.1590 C.3   1 <1>  -0.0990 
  5 C        0.6680     3.9700    -0.2180 C.3   1 <1>   0.1400 
  6 C        3.1680     4.3100     0.0010 C.3   1 <1>  -0.1600 
  7 C        1.8920     4.7250    -0.7620 C.3   1 <1>  -0.0190 
  8 C        1.6500     6.2280    -0.6850 C.2   1 <1>   0.5690 
  9 O        1.3460     6.7310     0.3710 O.2   1 <1>  -0.5700 
 10 N        1.8970     7.0280    -1.7660 N.am  1 <1>  -0.6600 
 11 C        3.2800     7.0940    -2.3250 C.3   1 <1>   0.1400 
 12 C        1.0690     8.2420    -2.0350 C.3   1 <1>   0.1400 
 13 C        4.2540     7.6940    -1.2880 C.3   1 <1>   0.3430 
 14 C        1.4200     9.4390    -1.1290 C.3   1 <1>  -0.1600 
 15 N        3.5620     8.5860    -0.3010 N.4   1 <1>  -0.9590 
 16 C        2.9110     9.7470    -0.9520 C.3   1 <1>   0.3430 
 17 C        4.4220     8.9400     0.8640 C.3   1 <1>   0.4860 
 18 C        5.7280     9.5960     0.4330 C.ar  1 <1>  -0.1440 
 19 C        6.8850     8.8340     0.2210 C.ar  1 <1>   0.0000 
 20 C        5.7640    10.9740     0.2710 C.ar  1 <1>  -0.1500 
 21 C        6.9190     7.3940     0.3700 C.ar  1 <1>   0.0000 
 22 C        8.0480     9.4960    -0.1640 C.ar  1 <1>  -0.1500 
 23 C        6.9290    11.6080    -0.1160 C.ar  1 <1>  -0.1500 
 24 C        6.6720     6.7780     1.5940 C.ar  1 <1>  -0.1500 
 25 C        7.1940     6.5790    -0.7260 C.ar  1 <1>  -0.1500 
 26 C        8.0730    10.8660    -0.3350 C.ar  1 <1>  -0.1500 
 27 C        6.6470     5.4000     1.7090 C.ar  1 <1>  -0.1500 
 28 C        7.1740     5.2000    -0.6160 C.ar  1 <1>  -0.1500 
 29 C        6.8920     4.6090     0.6020 C.ar  1 <1>  -0.1500 
 30 H        0.1640     1.8990     0.1000 H     1 <1>   0.3700 
 31 H        3.8020     2.6000    -1.1460 H     1 <1>   0.0800 
 32 H        4.1730     2.4830     0.5470 H     1 <1>   0.0800 
 33 H        0.3930     4.3600     0.7480 H     1 <1>   0.0800 
 34 H       -0.1670     4.1020    -0.8840 H     1 <1>   0.0800 
 35 H        4.0240     4.8530    -0.3550 H     1 <1>   0.0800 
 36 H        3.0420     4.5340     1.0470 H     1 <1>   0.0800 
 37 H        2.0010     4.4590    -1.7980 H     1 <1>   0.0800 
 38 H        3.2860     7.7000    -3.2150 H     1 <1>   0.0800 
 39 H        3.6160     6.1110    -2.6080 H     1 <1>   0.0800 
 40 H        0.0300     7.9920    -1.8910 H     1 <1>   0.0800 
 41 H        1.1840     8.5230    -3.0690 H     1 <1>   0.0800 
 42 H        5.0440     8.2280    -1.7910 H     1 <1>   0.0800 
 43 H        4.7070     6.8770    -0.7520 H     1 <1>   0.0800 
 44 H        0.9750     9.2900    -0.1610 H     1 <1>   0.0800 
 45 H        0.9460    10.3110    -1.5420 H     1 <1>   0.0800 
 46 H        2.7690     8.0190     0.0680 H     1 <1>   0.4500 
 47 H        3.0120    10.6210    -0.3300 H     1 <1>   0.0800 
 48 H        3.3730     9.9550    -1.9040 H     1 <1>   0.0800 
 49 H        4.6360     8.0490     1.4290 H     1 <1>   0.0800 
 50 H        3.8870     9.6110     1.5160 H     1 <1>   0.0800 
 51 H        4.8910    11.5770     0.4500 H     1 <1>   0.1500 
 52 H        8.9490     8.9280    -0.3270 H     1 <1>   0.1500 
 53 H        6.9530    12.6780    -0.2420 H     1 <1>   0.1500 
 54 H        6.5080     7.3820     2.4700 H     1 <1>   0.1500 
 55 H        7.4330     7.0290    -1.6740 H     1 <1>   0.1500 
 56 H        8.9850    11.3560    -0.6330 H     1 <1>   0.1500 
 57 H        6.4490     4.9400     2.6630 H     1 <1>   0.1500 
 58 H        7.3890     4.5830    -1.4730 H     1 <1>   0.1500 
 59 H        6.8790     3.5350     0.6930 H     1 <1>   0.1500 
@<TRIPOS>BOND
  1   1   2  2   
  2   2   3  am  
  3   2   4  1   
  4   3   5  1   
  5   3  30  1   
  6   4   6  1   
  7   4  31  1   
  8   4  32  1   
  9   5   7  1   
 10   5  33  1   
 11   5  34  1   
 12   6   7  1   
 13   6  35  1   
 14   6  36  1   
 15   7   8  1   
 16   7  37  1   
 17   8   9  2   
 18   8  10  am  
 19  10  11  1   
 20  10  12  1   
 21  11  13  1   
 22  11  38  1   
 23  11  39  1   
 24  12  14  1   
 25  12  40  1   
 26  12  41  1   
 27  13  15  1   
 28  13  42  1   
 29  13  43  1   
 30  14  16  1   
 31  14  44  1   
 32  14  45  1   
 33  15  16  1   
 34  15  17  1   
 35  15  46  1   
 36  16  47  1   
 37  16  48  1   
 38  17  18  1   
 39  17  49  1   
 40  17  50  1   
 41  18  19  ar  
 42  18  20  ar  
 43  19  21  1   
 44  19  22  ar  
 45  20  23  ar  
 46  20  51  1   
 47  21  24  ar  
 48  21  25  ar  
 49  22  26  ar  
 50  22  52  1   
 51  23  26  ar  
 52  23  53  1   
 53  24  27  ar  
 54  24  54  1   
 55  25  28  ar  
 56  25  55  1   
 57  26  56  1   
 58  27  29  ar  
 59  27  57  1   
 60  28  29  ar  
 61  28  58  1   
 62  29  59  1   
@<TRIPOS>SUBSTRUCTURE
  1 ****  13 GROUP 4 **** **** 0

# MOE 2024.06 (io_trps.svl 2023.06)
