@<TRIPOS>MOLECULE
NONAME
54 57 1 0 0 
SMALL
USER_CHARGES


@<TRIPOS>ATOM
  1 O       -0.9200    -0.1340    -2.5640 O.2   1 <1>  -0.5700 
  2 C       -1.7070     0.4910    -1.8940 C.2   1 <1>   0.5690 
  3 N       -2.8470    -0.0950    -1.4120 N.am  1 <1>  -0.6600 
  4 C       -1.3880     1.9520    -1.6130 C.3   1 <1>  -0.0990 
  5 C       -3.9250     0.5490    -0.6210 C.3   1 <1>   0.1400 
  6 C       -3.1310    -1.5340    -1.6130 C.3   1 <1>   0.1400 
  7 C       -0.2970     2.1310    -0.5390 C.3   1 <1>  -0.0800 
  8 C       -4.9610    -0.5520    -0.3870 C.3   1 <1>   0.2000 
  9 C       -4.2210    -1.8720    -0.5970 C.3   1 <1>  -0.0800 
 10 C       -0.7360     1.5800     0.8310 C.3   1 <1>  -0.1600 
 11 C        0.0910     3.6160    -0.4190 C.3   1 <1>  -0.1600 
 12 O       -5.4750    -0.4990     0.8980 O.3   1 <1>  -0.6800 
 13 C       -5.1490    -3.0120    -1.0490 C.3   1 <1>  -0.0170 
 14 C        0.3470     1.7930     1.8960 C.3   1 <1>  -0.1600 
 15 C        1.1740     3.8300     0.6480 C.3   1 <1>  -0.1600 
 16 C       -4.3790    -4.3190    -1.2040 C.ar  1 <1>  -0.1440 
 17 C        0.7330     3.2730     2.0070 C.3   1 <1>  -0.1600 
 18 C       -4.0130    -5.1180    -0.0950 C.ar  1 <1>   0.0000 
 19 C       -4.0110    -4.7550    -2.4430 C.ar  1 <1>  -0.1500 
 20 C       -3.2800    -6.3020    -0.3510 C.ar  1 <1>   0.3100 
 21 C       -4.3320    -4.8140     1.2500 C.ar  1 <1>  -0.1500 
 22 C       -3.2910    -5.9470    -2.5870 C.ar  1 <1>   0.1600 
 23 N       -2.9290    -6.7020    -1.5990 N.ar  1 <1>  -0.6200 
 24 C       -2.8930    -7.1090     0.7310 C.ar  1 <1>  -0.1500 
 25 C       -3.9400    -5.6240     2.2820 C.ar  1 <1>  -0.1500 
 26 C       -3.2100    -6.7860     2.0220 C.ar  1 <1>  -0.1500 
 27 H       -1.0400     2.3800    -2.5350 H     1 <1>   0.0800 
 28 H       -2.2730     2.4890    -1.3300 H     1 <1>   0.0800 
 29 H       -3.5240     0.9030     0.3110 H     1 <1>   0.0800 
 30 H       -4.3600     1.3620    -1.1750 H     1 <1>   0.0800 
 31 H       -3.4800    -1.6790    -2.6210 H     1 <1>   0.0800 
 32 H       -2.2460    -2.1280    -1.4550 H     1 <1>   0.0800 
 33 H        0.5740     1.5820    -0.8590 H     1 <1>   0.0800 
 34 H       -5.7740    -0.4410    -1.0840 H     1 <1>   0.0800 
 35 H       -3.7220    -2.1480     0.3140 H     1 <1>   0.0800 
 36 H       -1.6370     2.0770     1.1460 H     1 <1>   0.0800 
 37 H       -0.9420     0.5260     0.7540 H     1 <1>   0.0800 
 38 H        0.4570     3.9730    -1.3660 H     1 <1>   0.0800 
 39 H       -0.7770     4.1970    -0.1590 H     1 <1>   0.0800 
 40 H       -4.7630    -0.6210     1.5550 H     1 <1>   0.4000 
 41 H       -5.6060    -2.7480    -1.9870 H     1 <1>   0.0800 
 42 H       -5.9500    -3.1400    -0.3410 H     1 <1>   0.0800 
 43 H       -0.0080     1.4410     2.8490 H     1 <1>   0.0800 
 44 H        1.2190     1.2170     1.6360 H     1 <1>   0.0800 
 45 H        2.0800     3.3370     0.3380 H     1 <1>   0.0800 
 46 H        1.3860     4.8820     0.7400 H     1 <1>   0.0800 
 47 H        1.5320     3.3860     2.7190 H     1 <1>   0.0800 
 48 H       -0.1110     3.8370     2.3660 H     1 <1>   0.0800 
 49 H       -4.2560    -4.2030    -3.3330 H     1 <1>   0.1500 
 50 H       -4.8960    -3.9290     1.4730 H     1 <1>   0.1500 
 51 H       -3.0190    -6.2530    -3.5830 H     1 <1>   0.1500 
 52 H       -2.3340    -7.9990     0.5060 H     1 <1>   0.1500 
 53 H       -4.1890    -5.3800     3.3000 H     1 <1>   0.1500 
 54 H       -2.9060    -7.4150     2.8410 H     1 <1>   0.1500 
@<TRIPOS>BOND
  1   1   2  2   
  2   2   3  am  
  3   2   4  1   
  4   3   5  1   
  5   3   6  1   
  6   4   7  1   
  7   4  27  1   
  8   4  28  1   
  9   5   8  1   
 10   5  29  1   
 11   5  30  1   
 12   6   9  1   
 13   6  31  1   
 14   6  32  1   
 15   7  10  1   
 16   7  11  1   
 17   7  33  1   
 18   8   9  1   
 19   8  12  1   
 20   8  34  1   
 21   9  13  1   
 22   9  35  1   
 23  10  14  1   
 24  10  36  1   
 25  10  37  1   
 26  11  15  1   
 27  11  38  1   
 28  11  39  1   
 29  12  40  1   
 30  13  16  1   
 31  13  41  1   
 32  13  42  1   
 33  14  17  1   
 34  14  43  1   
 35  14  44  1   
 36  15  17  1   
 37  15  45  1   
 38  15  46  1   
 39  16  18  ar  
 40  16  19  ar  
 41  17  47  1   
 42  17  48  1   
 43  18  20  ar  
 44  18  21  ar  
 45  19  22  ar  
 46  19  49  1   
 47  20  23  ar  
 48  20  24  ar  
 49  21  25  ar  
 50  21  50  1   
 51  22  23  ar  
 52  22  51  1   
 53  24  26  ar  
 54  24  52  1   
 55  25  26  ar  
 56  25  53  1   
 57  26  54  1   
@<TRIPOS>SUBSTRUCTURE
  1 ****   6 GROUP 4 **** **** 0

# MOE 2024.06 (io_trps.svl 2023.06)
