@<TRIPOS>MOLECULE
NONAME
54 56 1 0 0 
SMALL
USER_CHARGES


@<TRIPOS>ATOM
  1 S       -0.0670     0.2410     2.4750 S.3   1 <1>  -0.0800 
  2 C        0.6990     0.2960     0.9100 C.2   1 <1>   0.1980 
  3 C       -0.3880    -1.4470     2.2250 C.2   1 <1>  -0.1100 
  4 N        0.6890    -0.8130     0.2850 N.2   1 <1>  -0.5650 
  5 C        1.3140     1.6140     0.4560 C.3   1 <1>   0.5230 
  6 C        0.0730    -1.8460     1.0170 C.2   1 <1>   0.1410 
  7 N        1.9070     1.4450    -0.9140 N.4   1 <1>  -0.9590 
  8 C       -0.0030    -3.2020     0.4740 C.2   1 <1>   0.7160 
  9 C        3.0320     2.3870    -1.1850 C.3   1 <1>   0.2630 
 10 C        0.8590     1.4940    -1.9790 C.3   1 <1>   0.2630 
 11 O        0.8230    -3.5860    -0.3350 O.2   1 <1>  -0.5700 
 12 N       -0.9970    -4.0810     0.8520 N.am  1 <1>  -0.6600 
 13 C       -0.8480    -5.5590     0.6530 C.3   1 <1>   0.1400 
 14 C       -2.4180    -3.6640     1.0590 C.3   1 <1>   0.1400 
 15 C       -1.8490    -6.0840    -0.3890 C.3   1 <1>   0.3430 
 16 C       -3.3480    -4.2990    -0.0020 C.3   1 <1>   0.2000 
 17 O       -3.1470    -5.6840    -0.0340 O.3   1 <1>  -0.5600 
 18 C       -1.7880    -7.6070    -0.4720 C.ar  1 <1>  -0.1430 
 19 C       -4.8490    -4.0400     0.2700 C.3   1 <1>  -0.0800 
 20 C       -2.5530    -8.4100     0.3630 C.ar  1 <1>  -0.1500 
 21 C       -0.9390    -8.2080    -1.3920 C.ar  1 <1>  -0.1500 
 22 C       -5.7370    -4.7130    -0.7900 C.3   1 <1>  -0.2400 
 23 C       -5.1860    -2.5390     0.3110 C.3   1 <1>  -0.2400 
 24 C       -2.4710    -9.7890     0.2820 C.ar  1 <1>  -0.1500 
 25 C       -0.8560    -9.5880    -1.4740 C.ar  1 <1>  -0.1500 
 26 C       -1.6210   -10.3790    -0.6370 C.ar  1 <1>  -0.1500 
 27 H       -0.8830    -1.9890     3.0110 H     1 <1>   0.1500 
 28 H        2.0850     1.8850     1.1580 H     1 <1>   0.0800 
 29 H        0.5660     2.3890     0.4500 H     1 <1>   0.0800 
 30 H        2.2610     0.4680    -0.9080 H     1 <1>   0.4500 
 31 H        2.6800     3.4060    -1.1800 H     1 <1>   0.0800 
 32 H        3.4670     2.1790    -2.1500 H     1 <1>   0.0800 
 33 H        3.8000     2.2810    -0.4360 H     1 <1>   0.0800 
 34 H        0.3970     2.4680    -2.0120 H     1 <1>   0.0800 
 35 H        0.0970     0.7540    -1.7850 H     1 <1>   0.0800 
 36 H        1.2950     1.2850    -2.9420 H     1 <1>   0.0800 
 37 H        0.1510    -5.8040     0.3370 H     1 <1>   0.0800 
 38 H       -1.0230    -6.0620     1.5880 H     1 <1>   0.0800 
 39 H       -2.7390    -3.9700     2.0400 H     1 <1>   0.0800 
 40 H       -2.5000    -2.5950     0.9970 H     1 <1>   0.0800 
 41 H       -1.6230    -5.6650    -1.3540 H     1 <1>   0.0800 
 42 H       -3.1000    -3.9070    -0.9740 H     1 <1>   0.0800 
 43 H       -5.0930    -4.4630     1.2300 H     1 <1>   0.0800 
 44 H       -3.2200    -7.9610     1.0780 H     1 <1>   0.1500 
 45 H       -0.3370    -7.6060    -2.0490 H     1 <1>   0.1500 
 46 H       -5.5110    -4.3350    -1.7720 H     1 <1>   0.0800 
 47 H       -6.7760    -4.5340    -0.5820 H     1 <1>   0.0800 
 48 H       -5.5800    -5.7780    -0.7920 H     1 <1>   0.0800 
 49 H       -4.8980    -2.0610    -0.6090 H     1 <1>   0.0800 
 50 H       -4.6920    -2.0500     1.1300 H     1 <1>   0.0800 
 51 H       -6.2460    -2.4030     0.4450 H     1 <1>   0.0800 
 52 H       -3.0700   -10.4020     0.9320 H     1 <1>   0.1500 
 53 H       -0.1960   -10.0450    -2.1900 H     1 <1>   0.1500 
 54 H       -1.5580   -11.4520    -0.7010 H     1 <1>   0.1500 
@<TRIPOS>BOND
  1   1   2  1   
  2   1   3  1   
  3   2   4  2   
  4   2   5  1   
  5   3   6  2   
  6   3  27  1   
  7   4   6  1   
  8   5   7  1   
  9   5  28  1   
 10   5  29  1   
 11   6   8  1   
 12   7   9  1   
 13   7  10  1   
 14   7  30  1   
 15   8  11  2   
 16   8  12  am  
 17   9  31  1   
 18   9  32  1   
 19   9  33  1   
 20  10  34  1   
 21  10  35  1   
 22  10  36  1   
 23  12  13  1   
 24  12  14  1   
 25  13  15  1   
 26  13  37  1   
 27  13  38  1   
 28  14  16  1   
 29  14  39  1   
 30  14  40  1   
 31  15  17  1   
 32  15  18  1   
 33  15  41  1   
 34  16  17  1   
 35  16  19  1   
 36  16  42  1   
 37  18  20  ar  
 38  18  21  ar  
 39  19  22  1   
 40  19  23  1   
 41  19  43  1   
 42  20  24  ar  
 43  20  44  1   
 44  21  25  ar  
 45  21  45  1   
 46  22  46  1   
 47  22  47  1   
 48  22  48  1   
 49  23  49  1   
 50  23  50  1   
 51  23  51  1   
 52  24  26  ar  
 53  24  52  1   
 54  25  26  ar  
 55  25  53  1   
 56  26  54  1   
@<TRIPOS>SUBSTRUCTURE
  1 ****  12 GROUP 4 **** **** 0

# MOE 2024.06 (io_trps.svl 2023.06)
