@<TRIPOS>MOLECULE
NONAME
62 64 1 0 0 
SMALL
USER_CHARGES


@<TRIPOS>ATOM
  1 S       -0.4050     0.3120     1.5950 S.o2  1 <1>   1.0900 
  2 O       -1.3110     0.8570     2.5780 O.2   1 <1>  -0.6500 
  3 O       -0.2010    -1.1050     1.4180 O.2   1 <1>  -0.6500 
  4 C        1.1880     1.0940     1.7930 C.3   1 <1>  -0.0550 
  5 C       -0.7450     1.0790     0.0170 C.3   1 <1>  -0.0550 
  6 C        1.2530     2.2860     0.8240 C.3   1 <1>  -0.0800 
  7 C        0.5180     1.8240    -0.4480 C.3   1 <1>  -0.1600 
  8 C        2.7030     2.7410     0.5710 C.3   1 <1>  -0.1600 
  9 C        2.7680     3.9810    -0.3290 C.3   1 <1>   0.3430 
 10 N        4.1790     4.4670    -0.4540 N.4   1 <1>  -0.9590 
 11 C        4.2030     5.9250    -0.8970 C.3   1 <1>   0.3430 
 12 C        4.9560     3.5540    -1.3670 C.3   1 <1>   0.2630 
 13 C        5.4660     6.8260    -0.5700 C.3   1 <1>   0.5030 
 14 N        5.0750     8.3010    -0.6350 N.4   1 <1>  -0.9590 
 15 C        6.5570     6.5650    -1.6480 C.3   1 <1>  -0.1600 
 16 C        5.9950     6.5240     0.8650 C.3   1 <1>  -0.1600 
 17 C        6.2310     9.2680    -0.5720 C.3   1 <1>   0.3430 
 18 C        4.0440     8.7190     0.3790 C.3   1 <1>   0.3430 
 19 C        7.9920     6.5210    -1.0960 C.3   1 <1>  -0.1600 
 20 C        6.9870     5.3490     0.9720 C.3   1 <1>  -0.1600 
 21 C        5.7570    10.6760    -0.9350 C.3   1 <1>  -0.1600 
 22 C        3.5050    10.1080     0.0350 C.3   1 <1>  -0.1600 
 23 C        8.1440     5.4200    -0.0400 C.3   1 <1>  -0.1600 
 24 C        4.6270    11.1500    -0.0150 C.3   1 <1>  -0.1600 
 25 H        1.9520     0.3830     1.5390 H     1 <1>   0.0800 
 26 H        1.3380     1.4050     2.8100 H     1 <1>   0.0800 
 27 H       -1.5460     1.7850     0.1400 H     1 <1>   0.0800 
 28 H       -1.0510     0.3490    -0.7090 H     1 <1>   0.0800 
 29 H        0.6920     3.0950     1.2670 H     1 <1>   0.0800 
 30 H        0.2550     2.6440    -1.0930 H     1 <1>   0.0800 
 31 H        1.1370     1.1330    -0.9970 H     1 <1>   0.0800 
 32 H        3.2440     1.9250     0.1240 H     1 <1>   0.0800 
 33 H        3.1530     2.9690     1.5210 H     1 <1>   0.0800 
 34 H        2.1550     4.7510     0.1130 H     1 <1>   0.0800 
 35 H        2.3640     3.7510    -1.3030 H     1 <1>   0.0800 
 36 H        4.5970     4.3990     0.4870 H     1 <1>   0.4500 
 37 H        3.3600     6.4020    -0.4300 H     1 <1>   0.0800 
 38 H        4.0300     5.9630    -1.9600 H     1 <1>   0.0800 
 39 H        4.5910     3.6280    -2.3790 H     1 <1>   0.0800 
 40 H        4.8610     2.5290    -1.0470 H     1 <1>   0.0800 
 41 H        6.0040     3.8030    -1.3540 H     1 <1>   0.0800 
 42 H        4.6620     8.4810    -1.5580 H     1 <1>   0.4500 
 43 H        6.4970     7.2900    -2.4420 H     1 <1>   0.0800 
 44 H        6.3930     5.6200    -2.1240 H     1 <1>   0.0800 
 45 H        5.1750     6.3490     1.5390 H     1 <1>   0.0800 
 46 H        6.5250     7.3780     1.2450 H     1 <1>   0.0800 
 47 H        7.0040     8.9850    -1.2660 H     1 <1>   0.0800 
 48 H        6.6560     9.2800     0.4190 H     1 <1>   0.0800 
 49 H        4.4870     8.7460     1.3620 H     1 <1>   0.0800 
 50 H        3.2200     8.0270     0.3990 H     1 <1>   0.0800 
 51 H        8.2690     7.4630    -0.6580 H     1 <1>   0.0800 
 52 H        8.6870     6.3340    -1.8990 H     1 <1>   0.0800 
 53 H        6.4870     4.4060     0.8610 H     1 <1>   0.0800 
 54 H        7.4070     5.3430     1.9660 H     1 <1>   0.0800 
 55 H        5.4310    10.6950    -1.9600 H     1 <1>   0.0800 
 56 H        6.5870    11.3570    -0.8520 H     1 <1>   0.0800 
 57 H        2.7880    10.4030     0.7830 H     1 <1>   0.0800 
 58 H        2.9890    10.0770    -0.9080 H     1 <1>   0.0800 
 59 H        9.0710     5.5810     0.4890 H     1 <1>   0.0800 
 60 H        8.2390     4.4660    -0.5330 H     1 <1>   0.0800 
 61 H        4.2390    12.0930    -0.3660 H     1 <1>   0.0800 
 62 H        5.0160    11.3100     0.9780 H     1 <1>   0.0800 
@<TRIPOS>BOND
  1   1   2  2   
  2   1   3  2   
  3   1   4  1   
  4   1   5  1   
  5   4   6  1   
  6   4  25  1   
  7   4  26  1   
  8   5   7  1   
  9   5  27  1   
 10   5  28  1   
 11   6   7  1   
 12   6   8  1   
 13   6  29  1   
 14   7  30  1   
 15   7  31  1   
 16   8   9  1   
 17   8  32  1   
 18   8  33  1   
 19   9  10  1   
 20   9  34  1   
 21   9  35  1   
 22  10  11  1   
 23  10  12  1   
 24  10  36  1   
 25  11  13  1   
 26  11  37  1   
 27  11  38  1   
 28  12  39  1   
 29  12  40  1   
 30  12  41  1   
 31  13  14  1   
 32  13  15  1   
 33  13  16  1   
 34  14  17  1   
 35  14  18  1   
 36  14  42  1   
 37  15  19  1   
 38  15  43  1   
 39  15  44  1   
 40  16  20  1   
 41  16  45  1   
 42  16  46  1   
 43  17  21  1   
 44  17  47  1   
 45  17  48  1   
 46  18  22  1   
 47  18  49  1   
 48  18  50  1   
 49  19  23  1   
 50  19  51  1   
 51  19  52  1   
 52  20  23  1   
 53  20  53  1   
 54  20  54  1   
 55  21  24  1   
 56  21  55  1   
 57  21  56  1   
 58  22  24  1   
 59  22  57  1   
 60  22  58  1   
 61  23  59  1   
 62  23  60  1   
 63  24  61  1   
 64  24  62  1   
@<TRIPOS>SUBSTRUCTURE
  1 ****  10 GROUP 4 **** **** 0

# MOE 2024.06 (io_trps.svl 2023.06)
