@<TRIPOS>MOLECULE
NONAME
54 56 1 0 0 
SMALL
USER_CHARGES


@<TRIPOS>ATOM
  1 O        3.4140    -3.0670    -1.2510 O.2   1 <1>  -0.5700 
  2 C        3.2170    -2.7650    -0.0890 C.2   1 <1>   0.5440 
  3 N        4.2970    -2.3210     0.6510 N.am  1 <1>  -0.6600 
  4 C        1.8900    -2.8880     0.4610 C.ar  1 <1>   0.0860 
  5 C        5.6690    -2.3930     0.0740 C.3   1 <1>   0.1400 
  6 C        4.1680    -1.5380     1.9060 C.3   1 <1>   0.1400 
  7 C        1.0310    -1.7870     0.5600 C.ar  1 <1>   0.3920 
  8 C        1.4210    -4.1150     0.9050 C.ar  1 <1>  -0.1500 
  9 C        5.8400    -1.3340    -1.0300 C.3   1 <1>   0.3430 
 10 C        4.7130    -0.1170     1.7120 C.3   1 <1>  -0.1600 
 11 O        1.4790    -0.5870     0.1260 O.3   1 <1>  -0.3630 
 12 N       -0.2020    -1.8340     1.0640 N.ar  1 <1>  -0.6200 
 13 C        0.1460    -4.1740     1.4210 C.ar  1 <1>  -0.1500 
 14 N        5.7530     0.0960    -0.5610 N.4   1 <1>  -0.9590 
 15 C        4.5570     0.4200     0.2850 C.3   1 <1>   0.3430 
 16 C        0.6100     0.5270     0.0420 C.3   1 <1>   0.1200 
 17 C       -0.6140    -3.0190     1.4770 C.ar  1 <1>   0.1600 
 18 C        5.8000     0.9950    -1.7410 C.3   1 <1>   0.5240 
 19 C        1.3900     1.7170    -0.5130 C.3   1 <1>  -0.2400 
 20 C        6.0450     2.3980    -1.2400 C.2   1 <1>  -0.1810 
 21 C        7.1540     2.9620    -0.7050 C.2   1 <1>  -0.3320 
 22 C        5.0920     3.4080    -1.2360 C.2   1 <1>   0.1390 
 23 N        6.8260     4.2410    -0.4040 N.pl3 1 <1>   0.3140 
 24 C        8.5370     2.3730    -0.4630 C.3   1 <1>  -0.0600 
 25 N        5.5490     4.5030    -0.7250 N.2   1 <1>  -0.7070 
 26 C        7.6850     5.2790     0.1850 C.3   1 <1>   0.0160 
 27 H        5.8060    -3.3690    -0.3610 H     1 <1>   0.0800 
 28 H        6.4130    -2.2700     0.8400 H     1 <1>   0.0800 
 29 H        4.7000    -2.0360     2.6990 H     1 <1>   0.0800 
 30 H        3.1350    -1.4800     2.2030 H     1 <1>   0.0800 
 31 H        2.0390    -4.9950     0.8390 H     1 <1>   0.1500 
 32 H        5.0790    -1.5140    -1.7730 H     1 <1>   0.0800 
 33 H        6.7930    -1.4940    -1.5050 H     1 <1>   0.0800 
 34 H        5.7410    -0.0650     2.0240 H     1 <1>   0.0800 
 35 H        4.1600     0.5250     2.3740 H     1 <1>   0.0800 
 36 H       -0.2610    -5.1050     1.7750 H     1 <1>   0.1500 
 37 H        6.5800     0.3370    -0.0040 H     1 <1>   0.4500 
 38 H        4.4490     1.4900     0.3530 H     1 <1>   0.0800 
 39 H        3.6620     0.0260    -0.1680 H     1 <1>   0.0800 
 40 H        0.2290     0.7440     1.0260 H     1 <1>   0.0800 
 41 H       -0.2060     0.2680    -0.6110 H     1 <1>   0.0800 
 42 H       -1.6110    -3.0760     1.8830 H     1 <1>   0.1500 
 43 H        4.8740     0.9470    -2.2900 H     1 <1>   0.0800 
 44 H        6.6070     0.7100    -2.3960 H     1 <1>   0.0800 
 45 H        2.1520     2.0220     0.1790 H     1 <1>   0.0800 
 46 H        0.7180     2.5450    -0.6530 H     1 <1>   0.0800 
 47 H        1.8220     1.4680    -1.4650 H     1 <1>   0.0800 
 48 H        4.0830     3.3200    -1.6050 H     1 <1>   0.1500 
 49 H        8.5970     1.3610    -0.8170 H     1 <1>   0.0800 
 50 H        8.7710     2.3880     0.5880 H     1 <1>   0.0800 
 51 H        9.2780     2.9530    -0.9860 H     1 <1>   0.0800 
 52 H        8.0480     4.9440     1.1370 H     1 <1>   0.0800 
 53 H        7.1110     6.1780     0.3160 H     1 <1>   0.0800 
 54 H        8.5080     5.4750    -0.4770 H     1 <1>   0.0800 
@<TRIPOS>BOND
  1   1   2  2   
  2   2   3  am  
  3   2   4  1   
  4   3   5  1   
  5   3   6  1   
  6   4   7  ar  
  7   4   8  ar  
  8   5   9  1   
  9   5  27  1   
 10   5  28  1   
 11   6  10  1   
 12   6  29  1   
 13   6  30  1   
 14   7  11  1   
 15   7  12  ar  
 16   8  13  ar  
 17   8  31  1   
 18   9  14  1   
 19   9  32  1   
 20   9  33  1   
 21  10  15  1   
 22  10  34  1   
 23  10  35  1   
 24  11  16  1   
 25  12  17  ar  
 26  13  17  ar  
 27  13  36  1   
 28  14  15  1   
 29  14  18  1   
 30  14  37  1   
 31  15  38  1   
 32  15  39  1   
 33  16  19  1   
 34  16  40  1   
 35  16  41  1   
 36  17  42  1   
 37  18  20  1   
 38  18  43  1   
 39  18  44  1   
 40  19  45  1   
 41  19  46  1   
 42  19  47  1   
 43  20  21  2   
 44  20  22  1   
 45  21  23  1   
 46  21  24  1   
 47  22  25  2   
 48  22  48  1   
 49  23  25  1   
 50  23  26  1   
 51  24  49  1   
 52  24  50  1   
 53  24  51  1   
 54  26  52  1   
 55  26  53  1   
 56  26  54  1   
@<TRIPOS>SUBSTRUCTURE
  1 ****  15 GROUP 4 **** **** 0

# MOE 2024.06 (io_trps.svl 2023.06)
