@<TRIPOS>MOLECULE
NONAME
45 45 1 0 0 
SMALL
USER_CHARGES


@<TRIPOS>ATOM
  1 O      -13.4220     2.9510     1.0970 O.2   1 <1>  -0.5700 
  2 C      -12.8330     3.4510     0.1670 C.2   1 <1>   0.5690 
  3 N      -11.6730     2.9230    -0.3150 N.am  1 <1>  -0.7300 
  4 C      -13.4610     4.7280    -0.4430 C.3   1 <1>   0.4840 
  5 C      -10.9610     1.8140     0.3390 C.3   1 <1>   0.2810 
  6 N      -14.7610     5.0620     0.2090 N.4   1 <1>  -0.9060 
  7 C      -12.5640     5.9600    -0.2720 C.3   1 <1>  -0.1600 
  8 C       -9.4280     2.0000     0.2150 C.2   1 <1>   0.5690 
  9 C      -11.5230     0.4820    -0.2040 C.3   1 <1>  -0.1600 
 10 C      -14.6530     6.4430     0.7210 C.3   1 <1>   0.3430 
 11 C      -13.5650     7.1070    -0.1110 C.3   1 <1>  -0.1600 
 12 O       -8.7650     2.3190     1.1960 O.2   1 <1>  -0.5700 
 13 N       -8.8370     1.8670    -1.0070 N.am  1 <1>  -0.7300 
 14 C      -10.9740    -0.8190     0.4250 C.3   1 <1>  -0.0800 
 15 C       -7.3730     2.0820    -1.2600 C.3   1 <1>   0.2010 
 16 C       -9.5650    -1.2140    -0.0390 C.3   1 <1>  -0.2400 
 17 C      -11.9210    -1.9710     0.0570 C.3   1 <1>  -0.2400 
 18 C       -6.4800     0.9660    -0.7110 C.2   1 <1>   0.5690 
 19 O       -5.8680     0.2590    -1.4700 O.2   1 <1>  -0.5700 
 20 N       -6.3920     0.7830     0.6200 N.am  1 <1>  -0.8000 
 21 H      -11.1670     3.3750    -1.0610 H     1 <1>   0.3700 
 22 H      -13.6200     4.5550    -1.5090 H     1 <1>   0.0800 
 23 H      -11.1780     1.8390     1.4100 H     1 <1>   0.0800 
 24 H      -15.5250     4.9580    -0.4430 H     1 <1>   0.4500 
 25 H      -14.8710     4.3920     0.9730 H     1 <1>   0.4500 
 26 H      -11.9650     5.8640     0.6380 H     1 <1>   0.0800 
 27 H      -11.9140     6.1070    -1.1360 H     1 <1>   0.0800 
 28 H      -12.6000     0.5060    -0.0280 H     1 <1>   0.0800 
 29 H      -11.3760     0.4410    -1.2840 H     1 <1>   0.0800 
 30 H      -15.5960     6.9910     0.6430 H     1 <1>   0.0800 
 31 H      -14.3300     6.4280     1.7670 H     1 <1>   0.0800 
 32 H      -13.9650     7.4100    -1.0810 H     1 <1>   0.0800 
 33 H      -13.1270     7.9620     0.4090 H     1 <1>   0.0800 
 34 H       -9.3290     1.3640    -1.7500 H     1 <1>   0.3700 
 35 H      -10.9730    -0.7190     1.5140 H     1 <1>   0.0800 
 36 H       -7.2040     2.1660    -2.3190 H     1 <1>   0.0800 
 37 H       -7.0690     3.0060    -0.8020 H     1 <1>   0.0800 
 38 H       -9.4950    -1.1950    -1.1270 H     1 <1>   0.0800 
 39 H       -9.3260    -2.2210     0.3070 H     1 <1>   0.0800 
 40 H       -8.8200    -0.5490     0.3910 H     1 <1>   0.0800 
 41 H      -11.9520    -2.1090    -1.0250 H     1 <1>   0.0800 
 42 H      -12.9290    -1.7630     0.4200 H     1 <1>   0.0800 
 43 H      -11.5810    -2.8980     0.5220 H     1 <1>   0.0800 
 44 H       -5.8230     0.0320     1.0100 H     1 <1>   0.3700 
 45 H       -7.0000     1.3030     1.2680 H     1 <1>   0.3700 
@<TRIPOS>BOND
  1   1   2  2   
  2   2   3  am  
  3   2   4  1   
  4   3   5  1   
  5   3  21  1   
  6   4   6  1   
  7   4   7  1   
  8   4  22  1   
  9   5   8  1   
 10   5   9  1   
 11   5  23  1   
 12   6  10  1   
 13   6  24  1   
 14   6  25  1   
 15   7  11  1   
 16   7  26  1   
 17   7  27  1   
 18   8  12  2   
 19   8  13  am  
 20   9  14  1   
 21   9  28  1   
 22   9  29  1   
 23  10  11  1   
 24  10  30  1   
 25  10  31  1   
 26  11  32  1   
 27  11  33  1   
 28  13  15  1   
 29  13  34  1   
 30  14  16  1   
 31  14  17  1   
 32  14  35  1   
 33  15  18  1   
 34  15  36  1   
 35  15  37  1   
 36  16  38  1   
 37  16  39  1   
 38  16  40  1   
 39  17  41  1   
 40  17  42  1   
 41  17  43  1   
 42  18  19  2   
 43  18  20  am  
 44  20  44  1   
 45  20  45  1   
@<TRIPOS>SUBSTRUCTURE
  1 ****   5 GROUP 4 **** **** 0

# MOE 2024.06 (io_trps.svl 2023.06)
