@<TRIPOS>MOLECULE
NONAME
47 49 1 0 0 
SMALL
USER_CHARGES


@<TRIPOS>ATOM
  1 O       -1.0970     1.1910     1.9860 O.2   1 <1>  -0.5700 
  2 C       -1.8670     0.9670     1.0720 C.2   1 <1>   0.5440 
  3 N       -1.8710     1.8150    -0.0180 N.am  1 <1>  -0.6600 
  4 C       -2.7590    -0.1640     1.1620 C.ar  1 <1>   0.0860 
  5 C       -0.7890     2.8250    -0.2360 C.3   1 <1>   0.1400 
  6 C       -3.0620     2.0400    -0.8930 C.3   1 <1>   0.1400 
  7 C       -2.9400    -1.0290     0.0860 C.ar  1 <1>   0.1600 
  8 C       -3.4750    -0.4470     2.3190 C.ar  1 <1>  -0.1500 
  9 C       -1.3670     4.2490    -0.2180 C.3   1 <1>   0.1200 
 10 C       -3.5040     3.5130    -0.8420 C.3   1 <1>   0.1200 
 11 N       -3.7580    -2.0660     0.0490 N.ar  1 <1>  -0.6200 
 12 C       -4.3200    -1.5310     2.3070 C.ar  1 <1>  -0.1500 
 13 O       -2.4290     4.3610    -1.1250 O.3   1 <1>  -0.5600 
 14 C       -4.4420    -2.3120     1.1610 C.ar  1 <1>   0.4100 
 15 N       -5.3060    -3.3710     1.1650 N.pl3 1 <1>  -0.8690 
 16 C       -5.6730    -4.1750    -0.0030 C.3   1 <1>   0.4690 
 17 C       -7.1400    -3.8840    -0.2610 C.2   1 <1>  -0.3320 
 18 C       -5.3850    -5.6450     0.3260 C.3   1 <1>  -0.1600 
 19 N       -7.5600    -2.7480    -0.8610 N.pl3 1 <1>   0.3140 
 20 C       -8.2510    -4.6020     0.0240 C.2   1 <1>  -0.1500 
 21 C       -5.6000    -6.5860    -0.8710 C.3   1 <1>  -0.2400 
 22 N       -8.8990    -2.7160    -0.9690 N.2   1 <1>  -0.7070 
 23 C       -6.7450    -1.6280    -1.3530 C.3   1 <1>   0.0160 
 24 C       -9.3050    -3.8270    -0.4400 C.2   1 <1>   0.1390 
 25 H       -0.3250     2.6460    -1.1900 H     1 <1>   0.0800 
 26 H       -0.0270     2.7410     0.5190 H     1 <1>   0.0800 
 27 H       -3.8880     1.4240    -0.5850 H     1 <1>   0.0800 
 28 H       -2.8110     1.7830    -1.9080 H     1 <1>   0.0800 
 29 H       -2.3640    -0.8400    -0.8040 H     1 <1>   0.1500 
 30 H       -3.3570     0.1720     3.1920 H     1 <1>   0.1500 
 31 H       -0.6120     4.9600    -0.5040 H     1 <1>   0.0800 
 32 H       -1.7220     4.4990     0.7670 H     1 <1>   0.0800 
 33 H       -3.8900     3.7600     0.1310 H     1 <1>   0.0800 
 34 H       -4.2680     3.6980    -1.5750 H     1 <1>   0.0800 
 35 H       -4.8900    -1.7880     3.1790 H     1 <1>   0.1500 
 36 H       -6.0410    -3.3850     1.8710 H     1 <1>   0.4000 
 37 H       -5.0870    -3.9010    -0.8640 H     1 <1>   0.0800 
 38 H       -6.0030    -5.9590     1.1480 H     1 <1>   0.0800 
 39 H       -4.3570    -5.7230     0.6350 H     1 <1>   0.0800 
 40 H       -8.3440    -5.5600     0.5010 H     1 <1>   0.1500 
 41 H       -6.6210    -6.5530    -1.2090 H     1 <1>   0.0800 
 42 H       -5.3670    -7.5980    -0.5890 H     1 <1>   0.0800 
 43 H       -4.9590    -6.3040    -1.6880 H     1 <1>   0.0800 
 44 H       -5.9130    -2.0070    -1.9150 H     1 <1>   0.0800 
 45 H       -6.3900    -1.0610    -0.5140 H     1 <1>   0.0800 
 46 H       -7.3500    -1.0020    -1.9810 H     1 <1>   0.0800 
 47 H      -10.3440    -4.1050    -0.3730 H     1 <1>   0.1500 
@<TRIPOS>BOND
  1   1   2  2   
  2   2   3  am  
  3   2   4  1   
  4   3   5  1   
  5   3   6  1   
  6   4   7  ar  
  7   4   8  ar  
  8   5   9  1   
  9   5  25  1   
 10   5  26  1   
 11   6  10  1   
 12   6  27  1   
 13   6  28  1   
 14   7  11  ar  
 15   7  29  1   
 16   8  12  ar  
 17   8  30  1   
 18   9  13  1   
 19   9  31  1   
 20   9  32  1   
 21  10  13  1   
 22  10  33  1   
 23  10  34  1   
 24  11  14  ar  
 25  12  14  ar  
 26  12  35  1   
 27  14  15  1   
 28  15  16  1   
 29  15  36  1   
 30  16  17  1   
 31  16  18  1   
 32  16  37  1   
 33  17  19  1   
 34  17  20  2   
 35  18  21  1   
 36  18  38  1   
 37  18  39  1   
 38  19  22  1   
 39  19  23  1   
 40  20  24  1   
 41  20  40  1   
 42  21  41  1   
 43  21  42  1   
 44  21  43  1   
 45  22  24  2   
 46  23  44  1   
 47  23  45  1   
 48  23  46  1   
 49  24  47  1   
@<TRIPOS>SUBSTRUCTURE
  1 ****  11 GROUP 4 **** **** 0

# MOE 2024.06 (io_trps.svl 2023.06)
