@<TRIPOS>MOLECULE
NONAME
51 54 1 0 0 
SMALL
USER_CHARGES


@<TRIPOS>ATOM
  1 O        3.0160    -2.4090     1.6070 O.2   1 <1>  -0.5700 
  2 C        2.6110    -1.8880     0.5850 C.2   1 <1>   0.7160 
  3 N        2.6710    -0.5130     0.4800 N.am  1 <1>  -0.6600 
  4 C        2.0740    -2.6950    -0.4740 C.2   1 <1>  -0.0860 
  5 C        3.0340     0.2990     1.7020 C.3   1 <1>   0.2200 
  6 C        2.6840     0.1330    -0.8770 C.3   1 <1>   0.1400 
  7 C        0.7970    -2.6030    -1.0140 C.2   1 <1>   0.2350 
  8 C        2.6260    -3.6710    -1.2170 C.2   1 <1>  -0.0400 
  9 C        2.2610     1.6240     1.7890 C.3   1 <1>   0.1200 
 10 C        4.5650     0.5070     1.7910 C.3   1 <1>   0.3430 
 11 C        3.4420     1.4730    -0.9700 C.3   1 <1>  -0.0800 
 12 N        0.6810    -3.4510    -1.9800 N.2   1 <1>  -0.4100 
 13 C       -0.2340    -1.6810    -0.5860 C.ar  1 <1>   0.0540 
 14 O        1.7950    -4.1310    -2.1190 O.3   1 <1>  -0.0190 
 15 C        4.0260    -4.2500    -1.1560 C.3   1 <1>  -0.0600 
 16 O        2.9010     2.6370     1.0730 O.3   1 <1>  -0.5600 
 17 N        5.2060     0.3680     0.4510 N.4   1 <1>  -0.9590 
 18 C        2.6850     2.6260    -0.2970 C.3   1 <1>   0.1200 
 19 C        4.9260     1.4250    -0.5530 C.3   1 <1>   0.3430 
 20 C       -0.5370    -1.4910     0.7620 C.ar  1 <1>  -0.1500 
 21 C       -0.9430    -0.9300    -1.5210 C.ar  1 <1>  -0.1500 
 22 C        6.6290    -0.1370     0.4080 C.3   1 <1>   0.2370 
 23 C       -1.4880    -0.5700     1.1610 C.ar  1 <1>  -0.1500 
 24 C       -1.8950    -0.0070    -1.1290 C.ar  1 <1>  -0.1500 
 25 C        6.7660    -1.1740    -0.7140 C.2   1 <1>   0.9060 
 26 C       -2.1660     0.1780     0.2150 C.ar  1 <1>  -0.1500 
 27 O        7.8770    -1.5530    -1.0760 O.co2 1 <1>  -0.9000 
 28 O        5.7000    -1.5590    -1.2270 O.co2 1 <1>  -0.9000 
 29 H        2.7370    -0.2550     2.5750 H     1 <1>   0.0800 
 30 H        3.1350    -0.5510    -1.5800 H     1 <1>   0.0800 
 31 H        1.6660     0.2870    -1.1920 H     1 <1>   0.0800 
 32 H        2.2370     1.9480     2.8150 H     1 <1>   0.0800 
 33 H        1.2440     1.5120     1.4490 H     1 <1>   0.0800 
 34 H        4.9610    -0.2500     2.4470 H     1 <1>   0.0800 
 35 H        4.7860     1.4710     2.2180 H     1 <1>   0.0800 
 36 H        3.4440     1.7250    -2.0150 H     1 <1>   0.0800 
 37 H        4.5740    -3.8340    -0.3290 H     1 <1>   0.0800 
 38 H        4.5580    -4.0150    -2.0610 H     1 <1>   0.0800 
 39 H        3.9810    -5.3170    -1.0400 H     1 <1>   0.0800 
 40 H        4.7370    -0.4660     0.0210 H     1 <1>   0.4500 
 41 H        1.6260     2.5780    -0.4910 H     1 <1>   0.0800 
 42 H        3.0500     3.5670    -0.6740 H     1 <1>   0.0800 
 43 H        5.2350     2.3850    -0.1760 H     1 <1>   0.0800 
 44 H        5.5080     1.2080    -1.4350 H     1 <1>   0.0800 
 45 H       -0.0260    -2.0770     1.5070 H     1 <1>   0.1500 
 46 H       -0.7410    -1.0780    -2.5680 H     1 <1>   0.1500 
 47 H        7.3220     0.6640     0.2320 H     1 <1>   0.0800 
 48 H        6.8830    -0.6280     1.3290 H     1 <1>   0.0800 
 49 H       -1.7080    -0.4390     2.2070 H     1 <1>   0.1500 
 50 H       -2.4290     0.5640    -1.8690 H     1 <1>   0.1500 
 51 H       -2.9080     0.8940     0.5230 H     1 <1>   0.1500 
@<TRIPOS>BOND
  1   1   2  2   
  2   2   3  am  
  3   2   4  1   
  4   3   5  1   
  5   3   6  1   
  6   4   7  1   
  7   4   8  2   
  8   5   9  1   
  9   5  10  1   
 10   5  29  1   
 11   6  11  1   
 12   6  30  1   
 13   6  31  1   
 14   7  12  2   
 15   7  13  1   
 16   8  14  1   
 17   8  15  1   
 18   9  16  1   
 19   9  32  1   
 20   9  33  1   
 21  10  17  1   
 22  10  34  1   
 23  10  35  1   
 24  11  18  1   
 25  11  19  1   
 26  11  36  1   
 27  12  14  1   
 28  13  20  ar  
 29  13  21  ar  
 30  15  37  1   
 31  15  38  1   
 32  15  39  1   
 33  16  18  1   
 34  17  19  1   
 35  17  22  1   
 36  17  40  1   
 37  18  41  1   
 38  18  42  1   
 39  19  43  1   
 40  19  44  1   
 41  20  23  ar  
 42  20  45  1   
 43  21  24  ar  
 44  21  46  1   
 45  22  25  1   
 46  22  47  1   
 47  22  48  1   
 48  23  26  ar  
 49  23  49  1   
 50  24  26  ar  
 51  24  50  1   
 52  25  27  ar  
 53  25  28  ar  
 54  26  51  1   
@<TRIPOS>SUBSTRUCTURE
  1 ****   3 GROUP 4 **** **** 0

# MOE 2024.06 (io_trps.svl 2023.06)
