@<TRIPOS>MOLECULE
NONAME
47 49 1 0 0 
SMALL
USER_CHARGES


@<TRIPOS>ATOM
  1 S        0.6300     0.0230    -0.4970 S.o2  1 <1>   1.3330 
  2 O        0.3660    -0.1080    -1.9120 O.2   1 <1>  -0.6500 
  3 O        1.9970     0.1500    -0.0410 O.2   1 <1>  -0.6500 
  4 N       -0.0610    -1.3070     0.2990 N.am  1 <1>  -0.8490 
  5 C       -0.3320     1.4080     0.1070 C.3   1 <1>  -0.0550 
  6 C        0.1250    -2.5550    -0.4470 C.3   1 <1>   0.1160 
  7 C        0.4130    -1.4740     1.6760 C.3   1 <1>   0.1160 
  8 C        0.0670     2.7460    -0.5450 C.3   1 <1>  -0.0800 
  9 C       -0.8370     3.9240    -0.1840 C.3   1 <1>   0.2000 
 10 C        1.4850     3.2190    -0.1770 C.3   1 <1>   0.1100 
 11 O       -1.1440     3.8630     1.1630 O.3   1 <1>  -0.6800 
 12 C        0.0950     5.1120    -0.3780 C.3   1 <1>   0.1100 
 13 N        1.3730     4.6420     0.1790 N.3   1 <1>  -0.8100 
 14 C        2.5480     5.4410    -0.2450 C.3   1 <1>   0.2900 
 15 C        2.5570     6.9000     0.2220 C.2   1 <1>   0.2980 
 16 O        3.5030     7.6680    -0.2390 O.3   1 <1>  -0.2800 
 17 N        1.7460     7.4800     1.0200 N.2   1 <1>  -0.3380 
 18 C        3.2040     8.8000     0.3550 C.2   1 <1>   0.4250 
 19 N        2.1620     8.7200     1.1080 N.2   1 <1>  -0.3380 
 20 C        4.0190     9.9760     0.1260 C.ar  1 <1>   0.0530 
 21 C        3.7160    11.1900     0.7460 C.ar  1 <1>  -0.1500 
 22 C        5.1370     9.9490    -0.7180 C.ar  1 <1>  -0.1500 
 23 C        4.5050    12.2980     0.5150 C.ar  1 <1>   0.1900 
 24 C        5.9190    11.0710    -0.9400 C.ar  1 <1>  -0.1500 
 25 F        4.2000    13.4210     1.1060 F     1 <1>  -0.1900 
 26 C        5.6050    12.2660    -0.3180 C.ar  1 <1>  -0.1500 
 27 H       -1.3690     1.2230    -0.1000 H     1 <1>   0.0800 
 28 H       -0.2230     1.4820     1.1710 H     1 <1>   0.0800 
 29 H       -0.3410    -3.3740     0.0730 H     1 <1>   0.0800 
 30 H        1.1740    -2.7630    -0.5730 H     1 <1>   0.0800 
 31 H       -0.3310    -2.4740    -1.4200 H     1 <1>   0.0800 
 32 H       -0.1200    -2.2770     2.1560 H     1 <1>   0.0800 
 33 H        0.2440    -0.5720     2.2400 H     1 <1>   0.0800 
 34 H        1.4680    -1.6970     1.6880 H     1 <1>   0.0800 
 35 H        0.0320     2.6260    -1.6140 H     1 <1>   0.0800 
 36 H       -1.7470     3.9750    -0.7560 H     1 <1>   0.0800 
 37 H        2.1470     3.0720    -1.0150 H     1 <1>   0.0800 
 38 H        1.8740     2.6800     0.6710 H     1 <1>   0.0800 
 39 H       -0.3350     4.1530     1.6400 H     1 <1>   0.4000 
 40 H       -0.2690     5.9890     0.1310 H     1 <1>   0.0800 
 41 H        0.2000     5.3220    -1.4290 H     1 <1>   0.0800 
 42 H        3.4350     4.9740     0.1440 H     1 <1>   0.0800 
 43 H        2.6140     5.4290    -1.3190 H     1 <1>   0.0800 
 44 H        2.8710    11.2720     1.4060 H     1 <1>   0.1500 
 45 H        5.4020     9.0310    -1.2130 H     1 <1>   0.1500 
 46 H        6.7720    11.0150    -1.5960 H     1 <1>   0.1500 
 47 H        6.1950    13.1530    -0.4730 H     1 <1>   0.1500 
@<TRIPOS>BOND
  1   1   2  2   
  2   1   3  2   
  3   1   4  am  
  4   1   5  1   
  5   4   6  1   
  6   4   7  1   
  7   5   8  1   
  8   5  27  1   
  9   5  28  1   
 10   6  29  1   
 11   6  30  1   
 12   6  31  1   
 13   7  32  1   
 14   7  33  1   
 15   7  34  1   
 16   8   9  1   
 17   8  10  1   
 18   8  35  1   
 19   9  11  1   
 20   9  12  1   
 21   9  36  1   
 22  10  13  1   
 23  10  37  1   
 24  10  38  1   
 25  11  39  1   
 26  12  13  1   
 27  12  40  1   
 28  12  41  1   
 29  13  14  1   
 30  14  15  1   
 31  14  42  1   
 32  14  43  1   
 33  15  16  1   
 34  15  17  2   
 35  16  18  1   
 36  17  19  1   
 37  18  19  2   
 38  18  20  1   
 39  20  21  ar  
 40  20  22  ar  
 41  21  23  ar  
 42  21  44  1   
 43  22  24  ar  
 44  22  45  1   
 45  23  25  1   
 46  23  26  ar  
 47  24  26  ar  
 48  24  46  1   
 49  26  47  1   
@<TRIPOS>SUBSTRUCTURE
  1 ****  14 GROUP 4 **** **** 0

# MOE 2024.06 (io_trps.svl 2023.06)
