@<TRIPOS>MOLECULE
NONAME
52 55 1 0 0 
SMALL
USER_CHARGES


@<TRIPOS>ATOM
  1 O        1.9880     0.2910     0.8880 O.2   1 <1>  -0.5700 
  2 C        1.5760     1.2700     0.3110 C.2   1 <1>   0.5690 
  3 N        1.8830     1.5230    -1.0090 N.am  1 <1>  -0.6600 
  4 C        0.6940     2.2360     1.1070 C.3   1 <1>   0.2010 
  5 C        1.3740     2.7230    -1.7540 C.3   1 <1>   0.2200 
  6 C        2.9450     0.7320    -1.7000 C.3   1 <1>   0.0600 
  7 N        0.6430     3.5970     0.4840 N.am  1 <1>  -0.6600 
  8 C        0.3190     3.5350    -0.9660 C.3   1 <1>   0.1400 
  9 C        0.7830     2.2870    -3.0990 C.3   1 <1>  -0.2400 
 10 C        1.2120     4.6890     1.0960 C.2   1 <1>   0.7160 
 11 O        1.3930     4.6630     2.3000 O.2   1 <1>  -0.5700 
 12 C        1.6620     5.8060     0.3340 C.2   1 <1>  -0.0860 
 13 C        0.9800     7.0080     0.1400 C.2   1 <1>   0.3720 
 14 C        2.7840     5.9460    -0.4200 C.2   1 <1>   0.0870 
 15 N        1.6320     7.7830    -0.6540 N.2   1 <1>  -0.4100 
 16 N       -0.2640     7.3180     0.6980 N.pl3 1 <1>  -0.8210 
 17 O        2.7180     7.1290    -0.9740 O.3   1 <1>  -0.0190 
 18 C        3.8830     5.0540    -0.6970 C.ar  1 <1>   0.0530 
 19 C       -1.0460     8.3780    -0.0100 C.3   1 <1>   0.2090 
 20 C       -0.2200     7.6120     2.1640 C.3   1 <1>   0.2090 
 21 C        4.6090     5.1650    -1.8840 C.ar  1 <1>  -0.1500 
 22 C        4.2490     4.0330     0.1820 C.ar  1 <1>  -0.1500 
 23 C       -2.4290     8.5640     0.6380 C.3   1 <1>   0.1200 
 24 C       -1.6380     7.8300     2.7210 C.3   1 <1>   0.1200 
 25 C        5.6350     4.2900    -2.1890 C.ar  1 <1>  -0.1500 
 26 C        5.2700     3.1520    -0.1200 C.ar  1 <1>  -0.1500 
 27 O       -2.3090     8.8330     2.0080 O.3   1 <1>  -0.5600 
 28 C        5.9660     3.2770    -1.3080 C.ar  1 <1>  -0.1500 
 29 H        1.0770     2.2910     2.1100 H     1 <1>   0.0800 
 30 H       -0.3000     1.8320     1.1560 H     1 <1>   0.0800 
 31 H        2.2100     3.3710    -1.9490 H     1 <1>   0.0800 
 32 H        3.6370     1.3960    -2.1880 H     1 <1>   0.0800 
 33 H        2.4970     0.0800    -2.4280 H     1 <1>   0.0800 
 34 H        3.4930     0.1320    -0.9950 H     1 <1>   0.0800 
 35 H       -0.6430     3.0650    -1.0750 H     1 <1>   0.0800 
 36 H        0.2360     4.5230    -1.3830 H     1 <1>   0.0800 
 37 H        0.0060     1.5580    -2.9490 H     1 <1>   0.0800 
 38 H        1.5430     1.8700    -3.7340 H     1 <1>   0.0800 
 39 H        0.3640     3.1360    -3.6100 H     1 <1>   0.0800 
 40 H       -0.5110     9.3120     0.0250 H     1 <1>   0.0800 
 41 H       -1.1680     8.1010    -1.0430 H     1 <1>   0.0800 
 42 H        0.2390     6.7970     2.6940 H     1 <1>   0.0800 
 43 H        0.3710     8.4950     2.3390 H     1 <1>   0.0800 
 44 H        4.3640     5.9480    -2.5810 H     1 <1>   0.1500 
 45 H        3.7360     3.9180     1.1200 H     1 <1>   0.1500 
 46 H       -3.0230     7.6750     0.5130 H     1 <1>   0.0800 
 47 H       -2.9430     9.3920     0.1860 H     1 <1>   0.0800 
 48 H       -1.5880     8.1360     3.7510 H     1 <1>   0.0800 
 49 H       -2.2080     6.9200     2.6570 H     1 <1>   0.0800 
 50 H        6.1790     4.3970    -3.1120 H     1 <1>   0.1500 
 51 H        5.5240     2.3680     0.5740 H     1 <1>   0.1500 
 52 H        6.7630     2.5930    -1.5420 H     1 <1>   0.1500 
@<TRIPOS>BOND
  1   1   2  2   
  2   2   3  am  
  3   2   4  1   
  4   3   5  1   
  5   3   6  1   
  6   4   7  1   
  7   4  29  1   
  8   4  30  1   
  9   5   8  1   
 10   5   9  1   
 11   5  31  1   
 12   6  32  1   
 13   6  33  1   
 14   6  34  1   
 15   7   8  1   
 16   7  10  am  
 17   8  35  1   
 18   8  36  1   
 19   9  37  1   
 20   9  38  1   
 21   9  39  1   
 22  10  11  2   
 23  10  12  1   
 24  12  13  1   
 25  12  14  2   
 26  13  15  2   
 27  13  16  1   
 28  14  17  1   
 29  14  18  1   
 30  15  17  1   
 31  16  19  1   
 32  16  20  1   
 33  18  21  ar  
 34  18  22  ar  
 35  19  23  1   
 36  19  40  1   
 37  19  41  1   
 38  20  24  1   
 39  20  42  1   
 40  20  43  1   
 41  21  25  ar  
 42  21  44  1   
 43  22  26  ar  
 44  22  45  1   
 45  23  27  1   
 46  23  46  1   
 47  23  47  1   
 48  24  27  1   
 49  24  48  1   
 50  24  49  1   
 51  25  28  ar  
 52  25  50  1   
 53  26  28  ar  
 54  26  51  1   
 55  28  52  1   
@<TRIPOS>SUBSTRUCTURE
  1 ****  12 GROUP 4 **** **** 0

# MOE 2024.06 (io_trps.svl 2023.06)
