@<TRIPOS>MOLECULE
NONAME
31 33 1 0 0 
SMALL
USER_CHARGES


@<TRIPOS>ATOM
  1 O        0.9750     2.5800     1.4680 O.co2 1 <1>  -0.9000 
  2 C        2.1420     2.1790     1.5670 C.2   1 <1>   0.9470 
  3 O        2.8000     2.3740     2.5980 O.co2 1 <1>  -0.9000 
  4 C        2.8610     1.6460     0.3270 C.3   1 <1>  -0.2420 
  5 C        3.1180     0.2460    -0.1780 C.3   1 <1>  -0.2420 
  6 C        4.1020     2.4700     0.0490 C.3   1 <1>   0.2350 
  7 C        2.0340     1.0870    -0.8040 C.3   1 <1>  -0.2000 
  8 C        2.7550    -1.1180     0.4110 C.2   1 <1>   0.9470 
  9 C        4.5120     0.2180    -0.7820 C.3   1 <1>   0.2350 
 10 N        4.9100     1.6500    -0.9010 N.am  1 <1>  -0.6600 
 11 O        1.7570    -1.7180    -0.0130 O.co2 1 <1>  -0.9000 
 12 O        3.5520    -1.6680     1.1830 O.co2 1 <1>  -0.9000 
 13 C        5.7880     2.1050    -1.8420 C.2   1 <1>   0.5690 
 14 O        6.3740     1.3540    -2.5880 O.2   1 <1>  -0.5700 
 15 C        6.0460     3.5870    -2.0070 C.3   1 <1>   0.1570 
 16 N        6.9820     4.1110    -0.9970 N.pl3 1 <1>   0.3140 
 17 N        7.4480     5.3730    -1.1030 N.2   1 <1>  -0.7070 
 18 C        7.4780     3.5100     0.1080 C.2   1 <1>  -0.3020 
 19 C        8.2200     5.5370    -0.0720 C.2   1 <1>   0.1390 
 20 C        8.2800     4.4020     0.7250 C.2   1 <1>  -0.1500 
 21 H        4.6590     2.6130     0.9600 H     1 <1>   0.0800 
 22 H        3.8260     3.4230    -0.3620 H     1 <1>   0.0800 
 23 H        2.1640     1.4630    -1.8000 H     1 <1>   0.1000 
 24 H        1.0110     0.8200    -0.5940 H     1 <1>   0.1000 
 25 H        4.5060    -0.2710    -1.7400 H     1 <1>   0.0800 
 26 H        5.1950    -0.2880    -0.1200 H     1 <1>   0.0800 
 27 H        5.1280     4.1340    -1.9440 H     1 <1>   0.0800 
 28 H        6.4750     3.7580    -2.9750 H     1 <1>   0.0800 
 29 H        7.2370     2.5000     0.3960 H     1 <1>   0.1500 
 30 H        8.7490     6.4520     0.1320 H     1 <1>   0.1500 
 31 H        8.8450     4.2880     1.6320 H     1 <1>   0.1500 
@<TRIPOS>BOND
  1   1   2  ar  
  2   2   3  ar  
  3   2   4  1   
  4   4   5  1   
  5   4   6  1   
  6   4   7  1   
  7   5   7  1   
  8   5   8  1   
  9   5   9  1   
 10   6  10  1   
 11   6  21  1   
 12   6  22  1   
 13   7  23  1   
 14   7  24  1   
 15   8  11  ar  
 16   8  12  ar  
 17   9  10  1   
 18   9  25  1   
 19   9  26  1   
 20  10  13  am  
 21  13  14  2   
 22  13  15  1   
 23  15  16  1   
 24  15  27  1   
 25  15  28  1   
 26  16  17  1   
 27  16  18  1   
 28  17  19  2   
 29  18  20  2   
 30  18  29  1   
 31  19  20  1   
 32  19  30  1   
 33  20  31  1   
@<TRIPOS>SUBSTRUCTURE
  1 ****   6 GROUP 4 **** **** 0

# MOE 2024.06 (io_trps.svl 2023.06)
