@<TRIPOS>MOLECULE
NONAME
48 51 1 0 0 
SMALL
USER_CHARGES


@<TRIPOS>ATOM
  1 O        1.8680    -2.6110     2.1000 O.2   1 <1>  -0.5700 
  2 C        1.5950    -1.9530     1.1080 C.2   1 <1>   0.5440 
  3 N        0.2700    -1.6860     0.7770 N.am  1 <1>  -0.2980 
  4 C        2.6230    -1.4150     0.2570 C.ar  1 <1>   0.0860 
  5 N       -0.1130    -0.8950    -0.2830 N.2   1 <1>  -0.5120 
  6 C       -0.8260    -2.2370     1.6360 C.3   1 <1>   0.2010 
  7 C        2.2210    -0.6200    -0.8240 C.ar  1 <1>   0.0860 
  8 C        3.9870    -1.6430     0.4590 C.ar  1 <1>  -0.1500 
  9 C        0.8210    -0.4030    -1.0170 C.2   1 <1>   0.3040 
 10 C       -0.9650    -3.7610     1.6010 C.2   1 <1>   0.5690 
 11 C        3.1940    -0.0750    -1.6690 C.ar  1 <1>  -0.1500 
 12 C        4.9330    -1.1000    -0.3830 C.ar  1 <1>  -0.1500 
 13 O       -1.1140    -4.3330     2.6570 O.2   1 <1>  -0.5700 
 14 N       -0.9840    -4.4660     0.4240 N.am  1 <1>  -0.6600 
 15 C        4.5340    -0.3100    -1.4520 C.ar  1 <1>  -0.1500 
 16 C       -1.0710    -3.9120    -0.9500 C.3   1 <1>   0.1400 
 17 C       -1.0130    -5.9500     0.3790 C.3   1 <1>   0.1400 
 18 C       -1.6780    -5.0480    -1.7710 C.3   1 <1>   0.2000 
 19 C       -1.1080    -6.3060    -1.1090 C.3   1 <1>  -0.0800 
 20 O       -3.0540    -5.0140    -1.5960 O.3   1 <1>  -0.6800 
 21 C       -1.8770    -7.6100    -1.3890 C.3   1 <1>   0.0210 
 22 C       -1.2140    -8.7830    -0.6950 C.2   1 <1>   0.1080 
 23 N       -0.0380    -9.2210    -1.0220 N.2   1 <1>  -0.7070 
 24 C       -1.7700    -9.5030     0.3570 C.2   1 <1>  -0.1500 
 25 N        0.1910   -10.2440    -0.1770 N.pl3 1 <1>   0.3000 
 26 C       -0.8440   -10.4340     0.6690 C.2   1 <1>  -0.3320 
 27 C       -0.8830   -11.5070     1.7410 C.3   1 <1>  -0.0600 
 28 H       -0.6410    -1.9400     2.6510 H     1 <1>   0.0800 
 29 H       -1.7610    -1.8060     1.3320 H     1 <1>   0.0800 
 30 H        4.2940    -2.2560     1.2910 H     1 <1>   0.1500 
 31 H        0.5450     0.2210    -1.8470 H     1 <1>   0.0600 
 32 H        2.8900     0.5380    -2.5000 H     1 <1>   0.1500 
 33 H        5.9820    -1.2830    -0.2140 H     1 <1>   0.1500 
 34 H        5.2780     0.1140    -2.1070 H     1 <1>   0.1500 
 35 H       -1.6760    -3.0230    -0.9940 H     1 <1>   0.0800 
 36 H       -0.0780    -3.6940    -1.3010 H     1 <1>   0.0800 
 37 H       -0.1230    -6.3620     0.8240 H     1 <1>   0.0800 
 38 H       -1.8740    -6.3030     0.9200 H     1 <1>   0.0800 
 39 H       -1.4600    -4.9780    -2.8230 H     1 <1>   0.0800 
 40 H       -0.1010    -6.4350    -1.4670 H     1 <1>   0.0800 
 41 H       -3.2370    -4.9330    -0.6380 H     1 <1>   0.4000 
 42 H       -1.8910    -7.7990    -2.4470 H     1 <1>   0.0800 
 43 H       -2.8940    -7.5320    -1.0520 H     1 <1>   0.0800 
 44 H       -2.7310    -9.3310     0.8070 H     1 <1>   0.1500 
 45 H        1.0610   -10.7880    -0.2020 H     1 <1>   0.2700 
 46 H       -1.8120   -11.4560     2.2810 H     1 <1>   0.0800 
 47 H       -0.0740   -11.3680     2.4360 H     1 <1>   0.0800 
 48 H       -0.8000   -12.4820     1.2940 H     1 <1>   0.0800 
@<TRIPOS>BOND
  1   1   2  2   
  2   2   3  am  
  3   2   4  1   
  4   3   5  1   
  5   3   6  1   
  6   4   7  ar  
  7   4   8  ar  
  8   5   9  2   
  9   6  10  1   
 10   6  28  1   
 11   6  29  1   
 12   7   9  1   
 13   7  11  ar  
 14   8  12  ar  
 15   8  30  1   
 16   9  31  1   
 17  10  13  2   
 18  10  14  am  
 19  11  15  ar  
 20  11  32  1   
 21  12  15  ar  
 22  12  33  1   
 23  14  16  1   
 24  14  17  1   
 25  15  34  1   
 26  16  18  1   
 27  16  35  1   
 28  16  36  1   
 29  17  19  1   
 30  17  37  1   
 31  17  38  1   
 32  18  19  1   
 33  18  20  1   
 34  18  39  1   
 35  19  21  1   
 36  19  40  1   
 37  20  41  1   
 38  21  22  1   
 39  21  42  1   
 40  21  43  1   
 41  22  23  2   
 42  22  24  1   
 43  23  25  1   
 44  24  26  2   
 45  24  44  1   
 46  25  26  1   
 47  25  45  1   
 48  26  27  1   
 49  27  46  1   
 50  27  47  1   
 51  27  48  1   
@<TRIPOS>SUBSTRUCTURE
  1 ****  14 GROUP 4 **** **** 0

# MOE 2024.06 (io_trps.svl 2023.06)
