@<TRIPOS>MOLECULE
NONAME
45 47 1 0 0 
SMALL
USER_CHARGES


@<TRIPOS>ATOM
  1 O       -2.8310     1.4210    -1.9210 O.2   1 <1>  -0.5700 
  2 C       -2.4420     1.3740    -0.7810 C.2   1 <1>   0.5690 
  3 N       -2.2890     0.2030    -0.1210 N.am  1 <1>  -0.7300 
  4 C       -2.1070     2.6620    -0.0720 C.3   1 <1>  -0.0990 
  5 C       -2.5610    -1.1330    -0.6980 C.3   1 <1>   0.2200 
  6 C       -0.9560     3.3680    -0.7940 C.3   1 <1>   0.0960 
  7 C       -3.8490    -1.6810    -0.1070 C.3   1 <1>  -0.0800 
  8 C       -1.5320    -2.1330    -0.1800 C.3   1 <1>   0.1200 
  9 N       -0.5790     4.5950    -0.0740 N.pl3 1 <1>   0.3140 
 10 C       -3.3640    -2.2940     1.2110 C.3   1 <1>   0.1200 
 11 C       -4.4950    -2.7270    -1.0360 C.3   1 <1>  -0.0170 
 12 O       -1.9980    -2.5580     1.0660 O.3   1 <1>  -0.5600 
 13 N        0.0720     4.5520     1.1030 N.2   1 <1>  -0.7070 
 14 C       -0.8250     5.8650    -0.4520 C.2   1 <1>  -0.3020 
 15 C       -5.7980    -3.2570    -0.4570 C.ar  1 <1>  -0.1440 
 16 C        0.2260     5.7950     1.4420 C.2   1 <1>   0.1390 
 17 C       -0.3170     6.6680     0.5060 C.2   1 <1>  -0.1810 
 18 C       -5.8910    -4.5100     0.1150 C.ar  1 <1>  -0.1500 
 19 C       -6.9580    -2.5090    -0.4760 C.ar  1 <1>  -0.1500 
 20 C       -0.3240     8.1810     0.5720 C.3   1 <1>  -0.0590 
 21 C       -7.1030    -4.9390     0.6300 C.ar  1 <1>   0.1600 
 22 C       -8.1200    -3.0330     0.0670 C.ar  1 <1>   0.1600 
 23 N       -8.2200    -4.2300     0.6210 N.ar  1 <1>  -0.6200 
 24 H       -1.9640     0.1840     0.8490 H     1 <1>   0.3700 
 25 H       -2.9780     3.2910    -0.0740 H     1 <1>   0.0800 
 26 H       -1.8270     2.4570     0.9450 H     1 <1>   0.0800 
 27 H       -2.5730    -1.0810    -1.7740 H     1 <1>   0.0800 
 28 H       -1.2450     3.6250    -1.7970 H     1 <1>   0.0800 
 29 H       -0.0950     2.7270    -0.8350 H     1 <1>   0.0800 
 30 H       -4.5600    -0.8930     0.0710 H     1 <1>   0.0800 
 31 H       -0.5520    -1.7030    -0.0740 H     1 <1>   0.0800 
 32 H       -1.4830    -2.9950    -0.8210 H     1 <1>   0.0800 
 33 H       -3.8710    -3.2070     1.4670 H     1 <1>   0.0800 
 34 H       -3.4720    -1.5900     2.0190 H     1 <1>   0.0800 
 35 H       -3.8180    -3.5460    -1.2060 H     1 <1>   0.0800 
 36 H       -4.7040    -2.2750    -1.9900 H     1 <1>   0.0800 
 37 H       -1.3370     6.1200    -1.3610 H     1 <1>   0.1500 
 38 H        0.7190     6.1040     2.3480 H     1 <1>   0.1500 
 39 H       -5.0350    -5.1570     0.1670 H     1 <1>   0.1500 
 40 H       -6.9700    -1.5250    -0.9080 H     1 <1>   0.1500 
 41 H       -0.8460     8.5070     1.4530 H     1 <1>   0.0800 
 42 H       -0.8150     8.5880    -0.2940 H     1 <1>   0.0800 
 43 H        0.6850     8.5500     0.6040 H     1 <1>   0.0800 
 44 H       -7.1570    -5.9190     1.0730 H     1 <1>   0.1500 
 45 H       -9.0140    -2.4340     0.0420 H     1 <1>   0.1500 
@<TRIPOS>BOND
  1   1   2  2   
  2   2   3  am  
  3   2   4  1   
  4   3   5  1   
  5   3  24  1   
  6   4   6  1   
  7   4  25  1   
  8   4  26  1   
  9   5   7  1   
 10   5   8  1   
 11   5  27  1   
 12   6   9  1   
 13   6  28  1   
 14   6  29  1   
 15   7  10  1   
 16   7  11  1   
 17   7  30  1   
 18   8  12  1   
 19   8  31  1   
 20   8  32  1   
 21   9  13  1   
 22   9  14  1   
 23  10  12  1   
 24  10  33  1   
 25  10  34  1   
 26  11  15  1   
 27  11  35  1   
 28  11  36  1   
 29  13  16  2   
 30  14  17  2   
 31  14  37  1   
 32  15  18  ar  
 33  15  19  ar  
 34  16  17  1   
 35  16  38  1   
 36  17  20  1   
 37  18  21  ar  
 38  18  39  1   
 39  19  22  ar  
 40  19  40  1   
 41  20  41  1   
 42  20  42  1   
 43  20  43  1   
 44  21  23  ar  
 45  21  44  1   
 46  22  23  ar  
 47  22  45  1   
@<TRIPOS>SUBSTRUCTURE
  1 ****   3 GROUP 4 **** **** 0

# MOE 2024.06 (io_trps.svl 2023.06)
