@<TRIPOS>MOLECULE
NONAME
31 33 1 0 0 
SMALL
USER_CHARGES


@<TRIPOS>ATOM
  1 F       -1.6550    -0.7510    -0.1710 F     1 <1>  -0.3400 
  2 C       -1.1820    -1.7240     0.6070 C.3   1 <1>   0.8560 
  3 F       -0.0400    -1.2430     1.0980 F     1 <1>  -0.3400 
  4 N       -0.9200    -2.9600    -0.2050 N.pl3 1 <1>   0.3140 
  5 N       -1.4750    -4.1540     0.0920 N.2   1 <1>  -0.7070 
  6 C       -0.1320    -3.0620    -1.2990 C.2   1 <1>  -0.3020 
  7 C       -1.0400    -5.0120    -0.8200 C.2   1 <1>   0.2030 
  8 C       -0.1860    -4.3440    -1.7090 C.2   1 <1>  -0.1500 
  9 C       -1.3410    -6.4420    -0.9470 C.2   1 <1>   0.7160 
 10 O       -0.6400    -7.1230    -1.6830 O.2   1 <1>  -0.5700 
 11 N       -2.3720    -7.0690    -0.2840 N.am  1 <1>  -0.6600 
 12 C       -3.4600    -6.3890     0.4730 C.3   1 <1>   0.2350 
 13 C       -2.6660    -8.5260    -0.3950 C.3   1 <1>   0.2350 
 14 C       -4.6440    -7.3380     0.4240 C.3   1 <1>  -0.2420 
 15 C       -4.1530    -8.6620    -0.1140 C.3   1 <1>  -0.2420 
 16 C       -5.6650    -6.9790     1.5080 C.2   1 <1>   0.9470 
 17 C       -5.1500    -7.8520    -0.9010 C.3   1 <1>  -0.2000 
 18 C       -4.5050   -10.1060     0.2570 C.2   1 <1>   0.9470 
 19 O       -6.8310    -6.7100     1.1870 O.co2 1 <1>  -0.9000 
 20 O       -5.2670    -6.7940     2.6670 O.co2 1 <1>  -0.9000 
 21 O       -5.3080   -10.7380    -0.4440 O.co2 1 <1>  -0.9000 
 22 O       -3.8620   -10.6700     1.1530 O.co2 1 <1>  -0.9000 
 23 H       -1.8690    -1.8940     1.4160 H     1 <1>   0.0800 
 24 H        0.4090    -2.2290    -1.7100 H     1 <1>   0.1500 
 25 H        0.3090    -4.8090    -2.5440 H     1 <1>   0.1500 
 26 H       -3.1420    -6.2350     1.4900 H     1 <1>   0.0800 
 27 H       -3.7250    -5.4470     0.0270 H     1 <1>   0.0800 
 28 H       -2.4290    -8.9040    -1.3740 H     1 <1>   0.0800 
 29 H       -2.0970    -9.0600     0.3470 H     1 <1>   0.0800 
 30 H       -4.8430    -7.3730    -1.8110 H     1 <1>   0.1000 
 31 H       -6.1640    -8.2140    -0.9460 H     1 <1>   0.1000 
@<TRIPOS>BOND
  1   1   2  1   
  2   2   3  1   
  3   2   4  1   
  4   2  23  1   
  5   4   5  1   
  6   4   6  1   
  7   5   7  2   
  8   6   8  2   
  9   6  24  1   
 10   7   8  1   
 11   7   9  1   
 12   8  25  1   
 13   9  10  2   
 14   9  11  am  
 15  11  12  1   
 16  11  13  1   
 17  12  14  1   
 18  12  26  1   
 19  12  27  1   
 20  13  15  1   
 21  13  28  1   
 22  13  29  1   
 23  14  15  1   
 24  14  16  1   
 25  14  17  1   
 26  15  17  1   
 27  15  18  1   
 28  16  19  ar  
 29  16  20  ar  
 30  17  30  1   
 31  17  31  1   
 32  18  21  ar  
 33  18  22  ar  
@<TRIPOS>SUBSTRUCTURE
  1 ****  12 GROUP 4 **** **** 0

# MOE 2024.06 (io_trps.svl 2023.06)
