@<TRIPOS>MOLECULE
NONAME
50 53 1 0 0 
SMALL
USER_CHARGES


@<TRIPOS>ATOM
  1 O       -3.4600     1.6870    -2.2150 O.2   1 <1>  -0.5700 
  2 C       -2.5320     1.4230    -1.4910 C.2   1 <1>   0.5690 
  3 N       -1.9800     0.1860    -1.4600 N.am  1 <1>  -0.7300 
  4 C       -1.9710     2.4990    -0.5760 C.3   1 <1>   0.0820 
  5 C       -2.3630    -0.9750    -2.2950 C.3   1 <1>   0.2200 
  6 C       -1.4360     1.9050     0.7220 C.2   1 <1>  -0.1810 
  7 C       -3.1730    -1.9840    -1.4920 C.3   1 <1>  -0.0800 
  8 C       -1.1110    -1.7960    -2.5710 C.3   1 <1>   0.1200 
  9 C       -0.1760     1.5930     1.0670 C.2   1 <1>  -0.0400 
 10 C       -2.1790     1.5200     1.8400 C.2   1 <1>   0.1080 
 11 C       -2.0780    -2.7030    -0.6920 C.3   1 <1>   0.1200 
 12 C       -4.3130    -1.3730    -0.6510 C.3   1 <1>  -0.0170 
 13 O       -0.8830    -2.5230    -1.4000 O.3   1 <1>  -0.5600 
 14 O       -0.2050     1.0780     2.2660 O.3   1 <1>  -0.0190 
 15 C        1.1530     1.7130     0.3500 C.3   1 <1>  -0.0600 
 16 N       -1.4130     1.0260     2.7430 N.2   1 <1>  -0.4100 
 17 C       -3.6770     1.6470     2.0150 C.3   1 <1>  -0.0590 
 18 C       -5.2660    -2.3520     0.0450 C.ar  1 <1>  -0.1440 
 19 C       -6.3060    -1.8450     0.8650 C.ar  1 <1>   0.0000 
 20 C       -5.1820    -3.7120    -0.0720 C.ar  1 <1>  -0.1500 
 21 C       -7.1410    -2.7730     1.5340 C.ar  1 <1>   0.3100 
 22 C       -6.5710    -0.4680     1.0530 C.ar  1 <1>  -0.1500 
 23 C       -6.0710    -4.5420     0.6210 C.ar  1 <1>   0.1600 
 24 N       -7.0120    -4.1160     1.4000 N.ar  1 <1>  -0.6200 
 25 C       -8.1580    -2.2930     2.3750 C.ar  1 <1>  -0.1500 
 26 C       -7.5750    -0.0320     1.8750 C.ar  1 <1>  -0.1500 
 27 C       -8.3770    -0.9540     2.5500 C.ar  1 <1>  -0.1500 
 28 H       -1.2770    -0.0320    -0.7450 H     1 <1>   0.3700 
 29 H       -1.1850     3.0080    -1.1000 H     1 <1>   0.0800 
 30 H       -2.7390     3.2180    -0.3590 H     1 <1>   0.0800 
 31 H       -2.8600    -0.6540    -3.1960 H     1 <1>   0.0800 
 32 H       -3.5990    -2.6830    -2.1900 H     1 <1>   0.0800 
 33 H       -0.2530    -1.1870    -2.7960 H     1 <1>   0.0800 
 34 H       -1.2830    -2.4980    -3.3680 H     1 <1>   0.0800 
 35 H       -2.2620    -3.7570    -0.5890 H     1 <1>   0.0800 
 36 H       -1.9480    -2.2600     0.2810 H     1 <1>   0.0800 
 37 H       -4.8980    -0.7450    -1.3000 H     1 <1>   0.0800 
 38 H       -3.8800    -0.7450     0.1070 H     1 <1>   0.0800 
 39 H        1.0220     2.1320    -0.6300 H     1 <1>   0.0800 
 40 H        1.6030     0.7410     0.2550 H     1 <1>   0.0800 
 41 H        1.8130     2.3460     0.9150 H     1 <1>   0.0800 
 42 H       -4.1670     1.7510     1.0670 H     1 <1>   0.0800 
 43 H       -3.8940     2.5080     2.6200 H     1 <1>   0.0800 
 44 H       -4.0570     0.7720     2.5110 H     1 <1>   0.0800 
 45 H       -4.4500    -4.1990    -0.6840 H     1 <1>   0.1500 
 46 H       -5.9780     0.2590     0.5330 H     1 <1>   0.1500 
 47 H       -5.9620    -5.6060     0.4980 H     1 <1>   0.1500 
 48 H       -8.7660    -3.0220     2.8780 H     1 <1>   0.1500 
 49 H       -7.7620     1.0200     2.0090 H     1 <1>   0.1500 
 50 H       -9.1620    -0.6010     3.1970 H     1 <1>   0.1500 
@<TRIPOS>BOND
  1   1   2  2   
  2   2   3  am  
  3   2   4  1   
  4   3   5  1   
  5   3  28  1   
  6   4   6  1   
  7   4  29  1   
  8   4  30  1   
  9   5   7  1   
 10   5   8  1   
 11   5  31  1   
 12   6   9  2   
 13   6  10  1   
 14   7  11  1   
 15   7  12  1   
 16   7  32  1   
 17   8  13  1   
 18   8  33  1   
 19   8  34  1   
 20   9  14  1   
 21   9  15  1   
 22  10  16  2   
 23  10  17  1   
 24  11  13  1   
 25  11  35  1   
 26  11  36  1   
 27  12  18  1   
 28  12  37  1   
 29  12  38  1   
 30  14  16  1   
 31  15  39  1   
 32  15  40  1   
 33  15  41  1   
 34  17  42  1   
 35  17  43  1   
 36  17  44  1   
 37  18  19  ar  
 38  18  20  ar  
 39  19  21  ar  
 40  19  22  ar  
 41  20  23  ar  
 42  20  45  1   
 43  21  24  ar  
 44  21  25  ar  
 45  22  26  ar  
 46  22  46  1   
 47  23  24  ar  
 48  23  47  1   
 49  25  27  ar  
 50  25  48  1   
 51  26  27  ar  
 52  26  49  1   
 53  27  50  1   
@<TRIPOS>SUBSTRUCTURE
  1 ****  12 GROUP 4 **** **** 0

# MOE 2024.06 (io_trps.svl 2023.06)
