@<TRIPOS>MOLECULE
NONAME
44 45 1 0 0 
SMALL
USER_CHARGES


@<TRIPOS>ATOM
  1 S        0.7790    -0.8150    -1.5540 S.o2  1 <1>   1.4470 
  2 O        0.0270    -0.2050    -2.6280 O.2   1 <1>  -0.6500 
  3 O        1.5590    -2.0020    -1.8240 O.2   1 <1>  -0.6500 
  4 N       -0.3730    -1.2510    -0.4170 N.am  1 <1>  -0.9140 
  5 C        1.7820     0.4180    -0.6920 C.ar  1 <1>  -0.0090 
  6 C       -1.2930    -2.2720    -0.9180 C.3   1 <1>   0.1960 
  7 C        1.1890     1.5210    -0.0860 C.ar  1 <1>   0.0830 
  8 C        3.1640     0.2950    -0.6300 C.ar  1 <1>  -0.1500 
  9 C       -2.3820    -2.6050     0.1150 C.3   1 <1>   0.2000 
 10 O       -0.1650     1.6320    -0.1520 O.3   1 <1>  -0.3630 
 11 C        1.9790     2.4670     0.5630 C.ar  1 <1>  -0.1500 
 12 C        3.9560     1.2330     0.0120 C.ar  1 <1>  -0.1440 
 13 O       -3.2300    -3.5590    -0.4560 O.3   1 <1>  -0.5600 
 14 C       -3.2220    -1.3790     0.5250 C.3   1 <1>  -0.1600 
 15 C       -0.8310     2.8320     0.1780 C.3   1 <1>   0.0400 
 16 C        3.3560     2.3310     0.6150 C.ar  1 <1>  -0.1430 
 17 C        5.4650     1.0320     0.0400 C.3   1 <1>  -0.0970 
 18 C       -4.2020    -4.0730     0.4020 C.3   1 <1>   0.1200 
 19 C       -4.3770    -1.7840     1.4480 C.3   1 <1>  -0.1600 
 20 C        4.1820     3.3890     1.3350 C.3   1 <1>  -0.0970 
 21 C       -5.1540    -2.9480     0.8240 C.3   1 <1>  -0.1600 
 22 H       -0.9070    -0.3880    -0.3100 H     1 <1>   0.4200 
 23 H       -0.7390    -3.1700    -1.1380 H     1 <1>   0.0800 
 24 H       -1.7620    -1.9260    -1.8240 H     1 <1>   0.0800 
 25 H        3.6240    -0.5590    -1.0980 H     1 <1>   0.1500 
 26 H       -1.9160    -3.0490     0.9780 H     1 <1>   0.0800 
 27 H        1.5310     3.3180     1.0380 H     1 <1>   0.1500 
 28 H       -3.6130    -0.9100    -0.3620 H     1 <1>   0.0800 
 29 H       -2.6010    -0.6630     1.0330 H     1 <1>   0.0800 
 30 H       -1.8710     2.7170    -0.0690 H     1 <1>   0.0800 
 31 H       -0.4070     3.6360    -0.3970 H     1 <1>   0.0800 
 32 H       -0.7240     3.0130     1.2330 H     1 <1>   0.0800 
 33 H        5.7450     0.1300    -0.4740 H     1 <1>   0.0800 
 34 H        5.8090     0.9600     1.0560 H     1 <1>   0.0800 
 35 H        5.9560     1.8580    -0.4400 H     1 <1>   0.0800 
 36 H       -3.7130    -4.5130     1.2550 H     1 <1>   0.0800 
 37 H       -4.7370    -4.8400    -0.1300 H     1 <1>   0.0800 
 38 H       -5.0330    -0.9470     1.6140 H     1 <1>   0.0800 
 39 H       -3.9790    -2.0930     2.4000 H     1 <1>   0.0800 
 40 H        3.5560     4.1640     1.7380 H     1 <1>   0.0800 
 41 H        4.8780     3.8410     0.6510 H     1 <1>   0.0800 
 42 H        4.7270     2.9410     2.1460 H     1 <1>   0.0800 
 43 H       -5.8730    -3.3290     1.5270 H     1 <1>   0.0800 
 44 H       -5.6900    -2.6070    -0.0450 H     1 <1>   0.0800 
@<TRIPOS>BOND
  1   1   2  2   
  2   1   3  2   
  3   1   4  am  
  4   1   5  1   
  5   4   6  1   
  6   4  22  1   
  7   5   7  ar  
  8   5   8  ar  
  9   6   9  1   
 10   6  23  1   
 11   6  24  1   
 12   7  10  1   
 13   7  11  ar  
 14   8  12  ar  
 15   8  25  1   
 16   9  13  1   
 17   9  14  1   
 18   9  26  1   
 19  10  15  1   
 20  11  16  ar  
 21  11  27  1   
 22  12  16  ar  
 23  12  17  1   
 24  13  18  1   
 25  14  19  1   
 26  14  28  1   
 27  14  29  1   
 28  15  30  1   
 29  15  31  1   
 30  15  32  1   
 31  16  20  1   
 32  17  33  1   
 33  17  34  1   
 34  17  35  1   
 35  18  21  1   
 36  18  36  1   
 37  18  37  1   
 38  19  21  1   
 39  19  38  1   
 40  19  39  1   
 41  20  40  1   
 42  20  41  1   
 43  20  42  1   
 44  21  43  1   
 45  21  44  1   
@<TRIPOS>SUBSTRUCTURE
  1 ****   4 GROUP 4 **** **** 0

# MOE 2024.06 (io_trps.svl 2023.06)
