@<TRIPOS>MOLECULE
NONAME
47 50 1 0 0 
SMALL
USER_CHARGES


@<TRIPOS>ATOM
  1 O        0.9190     0.3930     1.2180 O.2   1 <1>  -0.5700 
  2 C        1.5810    -0.1090     0.3270 C.2   1 <1>   0.5440 
  3 N        2.0530     0.6960    -0.6930 N.am  1 <1>  -0.6600 
  4 C        1.8220    -1.5370     0.3690 C.ar  1 <1>   0.0860 
  5 C        2.6840     0.1480    -1.9420 C.3   1 <1>   0.1400 
  6 C        1.9310     2.1780    -0.6010 C.3   1 <1>   0.1400 
  7 C        0.7650    -2.4370     0.2940 C.ar  1 <1>  -0.1500 
  8 C        3.1290    -2.0480     0.4990 C.ar  1 <1>  -0.1500 
  9 C        3.8580     0.9830    -2.4870 C.3   1 <1>   0.1400 
 10 C        3.1890     2.7670     0.0490 C.3   1 <1>  -0.1600 
 11 C        1.0040    -3.8080     0.3260 C.ar  1 <1>   0.0000 
 12 C        3.3790    -3.4040     0.5290 C.ar  1 <1>  -0.1500 
 13 N        4.7620     1.4730    -1.4060 N.am  1 <1>  -0.6600 
 14 C        4.4170     2.8170    -0.8670 C.3   1 <1>   0.1400 
 15 C        2.3010    -4.2730     0.4390 C.ar  1 <1>   0.1400 
 16 C        0.2110    -4.9740     0.2680 C.2   1 <1>  -0.1500 
 17 C        5.6840     0.6230    -0.8260 C.2   1 <1>   0.7160 
 18 O        2.3190    -5.6050     0.4480 O.3   1 <1>  -0.2800 
 19 C        1.0600    -6.0160     0.3460 C.2   1 <1>  -0.0400 
 20 O        5.6900    -0.5470    -1.1700 O.2   1 <1>  -0.5700 
 21 C        6.6280     1.0650     0.1790 C.2   1 <1>  -0.0860 
 22 C        0.8010    -7.5060     0.3350 C.3   1 <1>  -0.0600 
 23 C        7.4740     2.1480     0.1940 C.2   1 <1>  -0.3020 
 24 C        6.8750     0.3970     1.3950 C.2   1 <1>  -0.1500 
 25 N        8.1940     2.1700     1.3390 N.pl3 1 <1>   0.0330 
 26 C        7.8210     1.0910     2.0740 C.2   1 <1>  -0.3020 
 27 H        1.9290     0.0740    -2.7050 H     1 <1>   0.0800 
 28 H        3.0500    -0.8460    -1.7690 H     1 <1>   0.0800 
 29 H        1.0750     2.4320     0.0010 H     1 <1>   0.0800 
 30 H        1.7700     2.6010    -1.5770 H     1 <1>   0.0800 
 31 H       -0.2430    -2.0730     0.2150 H     1 <1>   0.1500 
 32 H        3.9450    -1.3510     0.5720 H     1 <1>   0.1500 
 33 H        3.4740     1.8190    -3.0440 H     1 <1>   0.0800 
 34 H        4.4230     0.3780    -3.1750 H     1 <1>   0.0800 
 35 H        3.4230     2.2150     0.9430 H     1 <1>   0.0800 
 36 H        2.9660     3.7730     0.3510 H     1 <1>   0.0800 
 37 H        4.3760    -3.7960     0.6190 H     1 <1>   0.1500 
 38 H        5.2410     3.2250    -0.3130 H     1 <1>   0.0800 
 39 H        4.2270     3.4850    -1.6890 H     1 <1>   0.0800 
 40 H       -0.8590    -4.9750     0.1800 H     1 <1>   0.1500 
 41 H       -0.2520    -7.7010     0.2490 H     1 <1>   0.0800 
 42 H        1.1660    -7.9430     1.2470 H     1 <1>   0.0800 
 43 H        1.3120    -7.9550    -0.4970 H     1 <1>   0.0800 
 44 H        7.5910     2.8930    -0.5730 H     1 <1>   0.1500 
 45 H        6.3770    -0.5100     1.6940 H     1 <1>   0.1500 
 46 H        8.9030     2.8640     1.6050 H     1 <1>   0.2700 
 47 H        8.2510     0.8720     3.0360 H     1 <1>   0.1500 
@<TRIPOS>BOND
  1   1   2  2   
  2   2   3  am  
  3   2   4  1   
  4   3   5  1   
  5   3   6  1   
  6   4   7  ar  
  7   4   8  ar  
  8   5   9  1   
  9   5  27  1   
 10   5  28  1   
 11   6  10  1   
 12   6  29  1   
 13   6  30  1   
 14   7  11  ar  
 15   7  31  1   
 16   8  12  ar  
 17   8  32  1   
 18   9  13  1   
 19   9  33  1   
 20   9  34  1   
 21  10  14  1   
 22  10  35  1   
 23  10  36  1   
 24  11  15  ar  
 25  11  16  1   
 26  12  15  ar  
 27  12  37  1   
 28  13  14  1   
 29  13  17  am  
 30  14  38  1   
 31  14  39  1   
 32  15  18  1   
 33  16  19  2   
 34  16  40  1   
 35  17  20  2   
 36  17  21  1   
 37  18  19  1   
 38  19  22  1   
 39  21  23  2   
 40  21  24  1   
 41  22  41  1   
 42  22  42  1   
 43  22  43  1   
 44  23  25  1   
 45  23  44  1   
 46  24  26  2   
 47  24  45  1   
 48  25  26  1   
 49  25  46  1   
 50  26  47  1   
@<TRIPOS>SUBSTRUCTURE
  1 ****   8 GROUP 4 **** **** 0

# MOE 2024.06 (io_trps.svl 2023.06)
