@<TRIPOS>MOLECULE
NONAME
57 60 1 0 0 
SMALL
USER_CHARGES


@<TRIPOS>ATOM
  1 O       -0.1890     0.6760     0.9510 O.2   1 <1>  -0.5700 
  2 C       -1.2300     0.8740     0.3460 C.2   1 <1>   0.7160 
  3 N       -2.3940     0.3100     0.8430 N.am  1 <1>  -0.6600 
  4 C       -1.2100     1.6910    -0.8590 C.2   1 <1>   0.1410 
  5 C       -2.3830    -0.7620     1.8760 C.3   1 <1>   0.1400 
  6 C       -3.7550     0.6240     0.3330 C.3   1 <1>   0.1400 
  7 N       -1.7660     1.3000    -2.0520 N.2   1 <1>  -0.5650 
  8 C       -0.6550     2.9140    -1.0560 C.2   1 <1>  -0.0400 
  9 C       -2.9660    -2.0400     1.2680 C.3   1 <1>  -0.1600 
 10 C       -4.3440    -0.6340    -0.3070 C.3   1 <1>  -0.1600 
 11 C       -1.4990     2.2670    -2.8450 C.2   1 <1>   0.3280 
 12 O       -0.8390     3.2550    -2.2980 O.3   1 <1>  -0.2800 
 13 C        0.0870     3.8930    -0.1530 C.3   1 <1>   0.1000 
 14 C       -4.3690    -1.8140     0.6810 C.3   1 <1>   0.4240 
 15 C        1.5650     3.5090    -0.0490 C.3   1 <1>  -0.2400 
 16 C       -0.5500     4.0070     1.2380 C.3   1 <1>  -0.2400 
 17 O       -5.1720    -1.4470     1.7800 O.3   1 <1>  -0.5600 
 18 C       -4.8840    -3.1010     0.0020 C.ar  1 <1>  -0.1440 
 19 C       -6.5490    -1.6210     1.6590 C.3   1 <1>   0.1200 
 20 C       -6.0550    -3.7200     0.4190 C.ar  1 <1>  -0.1440 
 21 C       -4.1820    -3.6690    -1.0530 C.ar  1 <1>  -0.1500 
 22 C       -6.8490    -3.1140     1.5590 C.3   1 <1>  -0.0170 
 23 C       -6.5030    -4.8750    -0.2010 C.ar  1 <1>  -0.1500 
 24 C       -4.6100    -4.8260    -1.6810 C.ar  1 <1>   0.0820 
 25 C       -5.7980    -5.4430    -1.2590 C.ar  1 <1>   0.0820 
 26 O       -3.8020    -5.2600    -2.6900 O.3   1 <1>  -0.3620 
 27 O       -6.2510    -6.5640    -1.8940 O.3   1 <1>  -0.3620 
 28 C       -3.6640    -6.6320    -2.9800 C.3   1 <1>   0.0400 
 29 C       -7.5140    -7.1280    -1.6170 C.3   1 <1>   0.0400 
 30 H       -2.9750    -0.4470     2.7180 H     1 <1>   0.0800 
 31 H       -1.3820    -0.9530     2.2240 H     1 <1>   0.0800 
 32 H       -3.7300     1.4260    -0.3830 H     1 <1>   0.0800 
 33 H       -4.3730     0.9390     1.1570 H     1 <1>   0.0800 
 34 H       -3.0180    -2.8100     2.0160 H     1 <1>   0.0800 
 35 H       -2.2950    -2.3790     0.5020 H     1 <1>   0.0800 
 36 H       -3.7410    -0.8880    -1.1590 H     1 <1>   0.0800 
 37 H       -5.3330    -0.4350    -0.6720 H     1 <1>   0.0800 
 38 H       -1.7640     2.3360    -3.8860 H     1 <1>   0.1500 
 39 H        0.0250     4.8650    -0.6120 H     1 <1>   0.0800 
 40 H        1.6710     2.5420     0.4100 H     1 <1>   0.0800 
 41 H        2.1000     4.2320     0.5400 H     1 <1>   0.0800 
 42 H        2.0040     3.4720    -1.0300 H     1 <1>   0.0800 
 43 H       -0.4160     3.1030     1.8030 H     1 <1>   0.0800 
 44 H       -1.6020     4.2080     1.1470 H     1 <1>   0.0800 
 45 H       -0.0950     4.8130     1.7840 H     1 <1>   0.0800 
 46 H       -6.8990    -1.0960     0.7870 H     1 <1>   0.0800 
 47 H       -7.0130    -1.2010     2.5340 H     1 <1>   0.0800 
 48 H       -3.2750    -3.2160    -1.4110 H     1 <1>   0.1500 
 49 H       -7.9020    -3.2520     1.3960 H     1 <1>   0.0800 
 50 H       -6.5820    -3.5940     2.4830 H     1 <1>   0.0800 
 51 H       -7.4100    -5.3200     0.1580 H     1 <1>   0.1500 
 52 H       -2.7500    -6.7690    -3.5280 H     1 <1>   0.0800 
 53 H       -4.4980    -6.9450    -3.5810 H     1 <1>   0.0800 
 54 H       -3.6280    -7.1850    -2.0580 H     1 <1>   0.0800 
 55 H       -7.6650    -7.9540    -2.2880 H     1 <1>   0.0800 
 56 H       -8.2730    -6.3830    -1.7800 H     1 <1>   0.0800 
 57 H       -7.5250    -7.4780    -0.6000 H     1 <1>   0.0800 
@<TRIPOS>BOND
  1   1   2  2   
  2   2   3  am  
  3   2   4  1   
  4   3   5  1   
  5   3   6  1   
  6   4   7  1   
  7   4   8  2   
  8   5   9  1   
  9   5  30  1   
 10   5  31  1   
 11   6  10  1   
 12   6  32  1   
 13   6  33  1   
 14   7  11  2   
 15   8  12  1   
 16   8  13  1   
 17   9  14  1   
 18   9  34  1   
 19   9  35  1   
 20  10  14  1   
 21  10  36  1   
 22  10  37  1   
 23  11  12  1   
 24  11  38  1   
 25  13  15  1   
 26  13  16  1   
 27  13  39  1   
 28  14  17  1   
 29  14  18  1   
 30  15  40  1   
 31  15  41  1   
 32  15  42  1   
 33  16  43  1   
 34  16  44  1   
 35  16  45  1   
 36  17  19  1   
 37  18  20  ar  
 38  18  21  ar  
 39  19  22  1   
 40  19  46  1   
 41  19  47  1   
 42  20  22  1   
 43  20  23  ar  
 44  21  24  ar  
 45  21  48  1   
 46  22  49  1   
 47  22  50  1   
 48  23  25  ar  
 49  23  51  1   
 50  24  25  ar  
 51  24  26  1   
 52  25  27  1   
 53  26  28  1   
 54  27  29  1   
 55  28  52  1   
 56  28  53  1   
 57  28  54  1   
 58  29  55  1   
 59  29  56  1   
 60  29  57  1   
@<TRIPOS>SUBSTRUCTURE
  1 ****  10 GROUP 4 **** **** 0

# MOE 2024.06 (io_trps.svl 2023.06)
