@<TRIPOS>MOLECULE
NONAME
51 53 1 0 0 
SMALL
USER_CHARGES


@<TRIPOS>ATOM
  1 O        1.3900    -0.0920     1.2010 O.3   1 <1>  -0.6800 
  2 C        1.7720    -0.2290    -0.1310 C.3   1 <1>   0.2000 
  3 C        2.7030    -1.4350    -0.2860 C.3   1 <1>  -0.0800 
  4 C        2.6950     0.9410    -0.4670 C.3   1 <1>   0.3430 
  5 C        4.1010    -0.8990     0.0600 C.3   1 <1>   0.3430 
  6 C        2.3340    -2.6930     0.5240 C.3   1 <1>   0.0210 
  7 N        3.9710     0.5810     0.2100 N.4   1 <1>  -0.9590 
  8 C        3.2600    -3.8500     0.1970 C.2   1 <1>   0.1080 
  9 C        5.1780     1.3290    -0.2200 C.3   1 <1>   0.3430 
 10 N        4.5550    -3.7610     0.2430 N.2   1 <1>  -0.7070 
 11 C        2.8340    -5.1180    -0.1810 C.2   1 <1>  -0.1500 
 12 C        5.0650     2.7970     0.1930 C.3   1 <1>  -0.1600 
 13 N        4.9920    -4.9930    -0.0980 N.pl3 1 <1>   0.3000 
 14 C        3.9660    -5.8270    -0.3630 C.2   1 <1>  -0.3320 
 15 C        6.3480     3.5600    -0.1650 C.3   1 <1>  -0.1600 
 16 C        4.1350    -7.2780    -0.7770 C.3   1 <1>  -0.0600 
 17 C        6.2700     5.0350     0.2480 C.3   1 <1>  -0.0170 
 18 C        7.5600     5.7460    -0.1220 C.ar  1 <1>  -0.1440 
 19 C        8.6160     5.7910     0.7750 C.ar  1 <1>  -0.1500 
 20 C        7.6940     6.3540    -1.3610 C.ar  1 <1>  -0.1500 
 21 C        9.7940     6.4350     0.4360 C.ar  1 <1>  -0.1500 
 22 C        8.8720     6.9980    -1.7010 C.ar  1 <1>  -0.1500 
 23 C        9.9230     7.0390    -0.8020 C.ar  1 <1>  -0.1500 
 24 H        0.6530    -0.6970     1.4270 H     1 <1>   0.4000 
 25 H        0.8930    -0.2660    -0.7530 H     1 <1>   0.0800 
 26 H        2.7220    -1.7100    -1.3260 H     1 <1>   0.0800 
 27 H        2.2920     1.8730    -0.1060 H     1 <1>   0.0800 
 28 H        2.8440     0.9940    -1.5330 H     1 <1>   0.0800 
 29 H        4.7900    -1.1550    -0.7290 H     1 <1>   0.0800 
 30 H        4.4550    -1.3390     0.9790 H     1 <1>   0.0800 
 31 H        1.3220    -2.9840     0.3020 H     1 <1>   0.0800 
 32 H        2.4030    -2.4980     1.5800 H     1 <1>   0.0800 
 33 H        3.7970     0.7440     1.2140 H     1 <1>   0.4500 
 34 H        6.0510     0.9010     0.2460 H     1 <1>   0.0800 
 35 H        5.2990     1.2560    -1.2890 H     1 <1>   0.0800 
 36 H        1.8150    -5.4450    -0.2930 H     1 <1>   0.1500 
 37 H        4.2350     3.2600    -0.3120 H     1 <1>   0.0800 
 38 H        4.9070     2.8600     1.2560 H     1 <1>   0.0800 
 39 H        5.9900    -5.2370    -0.1370 H     1 <1>   0.2700 
 40 H        7.1920     3.1090     0.3300 H     1 <1>   0.0800 
 41 H        6.5230     3.5080    -1.2270 H     1 <1>   0.0800 
 42 H        3.1720    -7.7340    -0.9290 H     1 <1>   0.0800 
 43 H        4.6540    -7.8260    -0.0110 H     1 <1>   0.0800 
 44 H        4.6920    -7.3430    -1.6940 H     1 <1>   0.0800 
 45 H        6.1100     5.1150     1.3090 H     1 <1>   0.0800 
 46 H        5.4430     5.5150    -0.2450 H     1 <1>   0.0800 
 47 H        8.5290     5.3260     1.7410 H     1 <1>   0.1500 
 48 H        6.8850     6.3300    -2.0690 H     1 <1>   0.1500 
 49 H       10.6100     6.4660     1.1370 H     1 <1>   0.1500 
 50 H        8.9700     7.4670    -2.6640 H     1 <1>   0.1500 
 51 H       10.8380     7.5400    -1.0650 H     1 <1>   0.1500 
@<TRIPOS>BOND
  1   1   2  1   
  2   1  24  1   
  3   2   3  1   
  4   2   4  1   
  5   2  25  1   
  6   3   5  1   
  7   3   6  1   
  8   3  26  1   
  9   4   7  1   
 10   4  27  1   
 11   4  28  1   
 12   5   7  1   
 13   5  29  1   
 14   5  30  1   
 15   6   8  1   
 16   6  31  1   
 17   6  32  1   
 18   7   9  1   
 19   7  33  1   
 20   8  10  2   
 21   8  11  1   
 22   9  12  1   
 23   9  34  1   
 24   9  35  1   
 25  10  13  1   
 26  11  14  2   
 27  11  36  1   
 28  12  15  1   
 29  12  37  1   
 30  12  38  1   
 31  13  14  1   
 32  13  39  1   
 33  14  16  1   
 34  15  17  1   
 35  15  40  1   
 36  15  41  1   
 37  16  42  1   
 38  16  43  1   
 39  16  44  1   
 40  17  18  1   
 41  17  45  1   
 42  17  46  1   
 43  18  19  ar  
 44  18  20  ar  
 45  19  21  ar  
 46  19  47  1   
 47  20  22  ar  
 48  20  48  1   
 49  21  23  ar  
 50  21  49  1   
 51  22  23  ar  
 52  22  50  1   
 53  23  51  1   
@<TRIPOS>SUBSTRUCTURE
  1 ****   9 GROUP 4 **** **** 0

# MOE 2024.06 (io_trps.svl 2023.06)
