@<TRIPOS>MOLECULE
NONAME
54 57 1 0 0 
SMALL
USER_CHARGES


@<TRIPOS>ATOM
  1 O        0.2000     0.0530    -1.0080 O.2   1 <1>  -0.5700 
  2 C        0.9890    -0.6920    -0.4610 C.2   1 <1>   0.5440 
  3 N        2.2410    -0.2360    -0.1540 N.am  1 <1>  -0.5790 
  4 C        0.6080    -2.0560    -0.1480 C.ar  1 <1>   0.0860 
  5 C        2.7440     1.1250    -0.3950 C.3   1 <1>   0.0490 
  6 C       -0.2940    -2.7610    -0.9220 C.ar  1 <1>  -0.1500 
  7 C        1.1060    -2.7560     0.9450 C.ar  1 <1>  -0.1500 
  8 C        4.1630     1.2820    -0.8270 C.3   1 <1>  -0.2000 
  9 C        3.7500     1.6790     0.5580 C.3   1 <1>  -0.2000 
 10 C       -0.6500    -4.0650    -0.6090 C.ar  1 <1>   0.4100 
 11 C        0.7030    -4.0540     1.1810 C.ar  1 <1>   0.1600 
 12 N       -0.1560    -4.7260     0.4340 N.ar  1 <1>  -0.6200 
 13 N       -1.5720    -4.7360    -1.3940 N.pl3 1 <1>  -0.8380 
 14 C       -1.4840    -6.2180    -1.4830 C.3   1 <1>   0.2090 
 15 C       -2.9620    -4.2050    -1.4240 C.3   1 <1>   0.2090 
 16 C       -2.2810    -6.8670    -0.3240 C.3   1 <1>   0.4230 
 17 C       -3.7570    -4.8300    -0.2700 C.3   1 <1>  -0.1600 
 18 N       -2.1170    -8.3810    -0.2210 N.4   1 <1>  -0.9590 
 19 C       -3.7620    -6.3850    -0.2840 C.3   1 <1>   0.0000 
 20 C       -3.1680    -9.0560     0.6060 C.3   1 <1>   0.3430 
 21 C       -1.9470    -9.1020    -1.5240 C.3   1 <1>   0.2630 
 22 C       -4.4340    -6.8900     1.0280 C.3   1 <1>  -0.1600 
 23 C       -4.5310    -6.9130    -1.5290 C.3   1 <1>   0.1200 
 24 C       -3.7290    -8.1050     1.6610 C.3   1 <1>  -0.1600 
 25 O       -5.7890    -6.3450    -1.6340 O.3   1 <1>  -0.6800 
 26 H        2.9420    -0.8900     0.1900 H     1 <1>   0.3700 
 27 H        2.0000     1.7900    -0.8080 H     1 <1>   0.1000 
 28 H       -0.7290    -2.2950    -1.7860 H     1 <1>   0.1500 
 29 H        1.8000    -2.2860     1.6170 H     1 <1>   0.1500 
 30 H        4.7660     0.4020    -0.9650 H     1 <1>   0.1000 
 31 H        4.4010     2.0600    -1.5300 H     1 <1>   0.1000 
 32 H        3.7090     2.7280     0.7950 H     1 <1>   0.1000 
 33 H        4.0630     1.0770     1.3930 H     1 <1>   0.1000 
 34 H        1.1080    -4.5690     2.0360 H     1 <1>   0.1500 
 35 H       -1.8630    -6.5240    -2.4410 H     1 <1>   0.0800 
 36 H       -0.4500    -6.5100    -1.4200 H     1 <1>   0.0800 
 37 H       -2.9530    -3.1330    -1.3140 H     1 <1>   0.0800 
 38 H       -3.4200    -4.4320    -2.3720 H     1 <1>   0.0800 
 39 H       -1.8380    -6.4600     0.5700 H     1 <1>   0.0800 
 40 H       -3.3160    -4.4740     0.6450 H     1 <1>   0.0800 
 41 H       -4.7610    -4.4450    -0.2980 H     1 <1>   0.0800 
 42 H       -1.2330    -8.4940     0.3000 H     1 <1>   0.4500 
 43 H       -3.9790    -9.3780    -0.0270 H     1 <1>   0.0800 
 44 H       -2.7530    -9.9290     1.0850 H     1 <1>   0.0800 
 45 H       -2.8230    -8.9820    -2.1400 H     1 <1>   0.0800 
 46 H       -1.7920   -10.1550    -1.3510 H     1 <1>   0.0800 
 47 H       -1.0920    -8.7200    -2.0600 H     1 <1>   0.0800 
 48 H       -4.4500    -6.1090     1.7700 H     1 <1>   0.0800 
 49 H       -5.4640    -7.1430     0.8430 H     1 <1>   0.0800 
 50 H       -4.6630    -7.9790    -1.4880 H     1 <1>   0.0800 
 51 H       -4.0140    -6.6700    -2.4410 H     1 <1>   0.0800 
 52 H       -4.4310    -8.6360     2.2810 H     1 <1>   0.0800 
 53 H       -2.9280    -7.7770     2.3020 H     1 <1>   0.0800 
 54 H       -6.3490    -6.5400    -0.8560 H     1 <1>   0.4000 
@<TRIPOS>BOND
  1   1   2  2   
  2   2   3  am  
  3   2   4  1   
  4   3   5  1   
  5   3  26  1   
  6   4   6  ar  
  7   4   7  ar  
  8   5   8  1   
  9   5   9  1   
 10   5  27  1   
 11   6  10  ar  
 12   6  28  1   
 13   7  11  ar  
 14   7  29  1   
 15   8   9  1   
 16   8  30  1   
 17   8  31  1   
 18   9  32  1   
 19   9  33  1   
 20  10  12  ar  
 21  10  13  1   
 22  11  12  ar  
 23  11  34  1   
 24  13  14  1   
 25  13  15  1   
 26  14  16  1   
 27  14  35  1   
 28  14  36  1   
 29  15  17  1   
 30  15  37  1   
 31  15  38  1   
 32  16  18  1   
 33  16  19  1   
 34  16  39  1   
 35  17  19  1   
 36  17  40  1   
 37  17  41  1   
 38  18  20  1   
 39  18  21  1   
 40  18  42  1   
 41  19  22  1   
 42  19  23  1   
 43  20  24  1   
 44  20  43  1   
 45  20  44  1   
 46  21  45  1   
 47  21  46  1   
 48  21  47  1   
 49  22  24  1   
 50  22  48  1   
 51  22  49  1   
 52  23  25  1   
 53  23  50  1   
 54  23  51  1   
 55  24  52  1   
 56  24  53  1   
 57  25  54  1   
@<TRIPOS>SUBSTRUCTURE
  1 ****  10 GROUP 4 **** **** 0

# MOE 2024.06 (io_trps.svl 2023.06)
