@<TRIPOS>MOLECULE
NONAME
52 55 1 0 0 
SMALL
USER_CHARGES


@<TRIPOS>ATOM
  1 O        1.6740     0.0820     2.2820 O.3   1 <1>  -0.6800 
  2 C        1.3970    -0.1610     0.9390 C.3   1 <1>   0.2000 
  3 C        2.0130    -1.4930     0.5150 C.3   1 <1>  -0.0800 
  4 C        2.1930     0.8400     0.0980 C.3   1 <1>   0.3430 
  5 C        3.4970    -1.1700     0.3090 C.3   1 <1>   0.3430 
  6 C        1.7780    -2.6950     1.4550 C.3   1 <1>  -0.0170 
  7 N        3.5870     0.2970     0.0420 N.4   1 <1>  -0.9590 
  8 C        2.6270    -3.8830     1.0150 C.ar  1 <1>  -0.1440 
  9 C        4.4440     0.9740     1.0460 C.3   1 <1>   0.5240 
 10 C        2.3290    -4.6470    -0.1390 C.ar  1 <1>   0.0000 
 11 C        3.7360    -4.2300     1.7330 C.ar  1 <1>  -0.1500 
 12 C        4.7050     2.3720     0.5250 C.2   1 <1>  -0.1810 
 13 C        3.2430    -5.6670    -0.5040 C.ar  1 <1>   0.3100 
 14 C        1.1830    -4.4670    -0.9480 C.ar  1 <1>  -0.1500 
 15 C        4.5580    -5.2760     1.2990 C.ar  1 <1>   0.1600 
 16 C        5.5440     2.7680    -0.4720 C.2   1 <1>  -0.3320 
 17 C        4.0870     3.5220     1.0180 C.2   1 <1>  -0.1500 
 18 N        4.3490    -5.9610     0.2210 N.ar  1 <1>  -0.6200 
 19 C        3.0000    -6.4130    -1.6680 C.ar  1 <1>  -0.1500 
 20 C        0.9730    -5.2170    -2.0730 C.ar  1 <1>  -0.1500 
 21 N        5.4580     4.1230    -0.6160 N.pl3 1 <1>   0.0480 
 22 C        6.4760     1.9100    -1.3200 C.3   1 <1>  -0.0600 
 23 C        4.5590     4.5850     0.3060 C.2   1 <1>  -0.1320 
 24 C        1.8950    -6.1980    -2.4440 C.ar  1 <1>  -0.1500 
 25 C        6.2250     4.9680    -1.5630 C.3   1 <1>   0.0160 
 26 C        4.2200     5.9680     0.4560 C.1   1 <1>   0.5370 
 27 N        3.9570     7.0720     0.5480 N.1   1 <1>  -0.5570 
 28 H        0.9900    -0.3160     2.8630 H     1 <1>   0.4000 
 29 H        0.3340    -0.0900     0.7760 H     1 <1>   0.0800 
 30 H        1.6170    -1.7410    -0.4540 H     1 <1>   0.0800 
 31 H        2.1510     1.8300     0.5220 H     1 <1>   0.0800 
 32 H        1.7810     0.8680    -0.8970 H     1 <1>   0.0800 
 33 H        3.9010    -1.7470    -0.5090 H     1 <1>   0.0800 
 34 H        4.0400    -1.4150     1.2070 H     1 <1>   0.0800 
 35 H        0.7380    -2.9680     1.4690 H     1 <1>   0.0800 
 36 H        2.0480    -2.4360     2.4640 H     1 <1>   0.0800 
 37 H        4.0050     0.5110    -0.8720 H     1 <1>   0.4500 
 38 H        3.9540     1.0090     2.0060 H     1 <1>   0.0800 
 39 H        5.3810     0.4530     1.1490 H     1 <1>   0.0800 
 40 H        4.0150    -3.7190     2.6370 H     1 <1>   0.1500 
 41 H        0.4480    -3.7350    -0.6760 H     1 <1>   0.1500 
 42 H        5.4220    -5.5230     1.8940 H     1 <1>   0.1500 
 43 H        3.3690     3.5610     1.8220 H     1 <1>   0.1500 
 44 H        3.7170    -7.1710    -1.9280 H     1 <1>   0.1500 
 45 H        0.0970    -5.0700    -2.6840 H     1 <1>   0.1500 
 46 H        6.4500     0.8820    -1.0110 H     1 <1>   0.0800 
 47 H        7.4890     2.2610    -1.2200 H     1 <1>   0.0800 
 48 H        6.1940     1.9640    -2.3570 H     1 <1>   0.0800 
 49 H        1.7210    -6.7790    -3.3330 H     1 <1>   0.1500 
 50 H        6.5720     4.3790    -2.3910 H     1 <1>   0.0800 
 51 H        7.0670     5.3980    -1.0520 H     1 <1>   0.0800 
 52 H        5.5970     5.7560    -1.9400 H     1 <1>   0.0800 
@<TRIPOS>BOND
  1   1   2  1   
  2   1  28  1   
  3   2   3  1   
  4   2   4  1   
  5   2  29  1   
  6   3   5  1   
  7   3   6  1   
  8   3  30  1   
  9   4   7  1   
 10   4  31  1   
 11   4  32  1   
 12   5   7  1   
 13   5  33  1   
 14   5  34  1   
 15   6   8  1   
 16   6  35  1   
 17   6  36  1   
 18   7   9  1   
 19   7  37  1   
 20   8  10  ar  
 21   8  11  ar  
 22   9  12  1   
 23   9  38  1   
 24   9  39  1   
 25  10  13  ar  
 26  10  14  ar  
 27  11  15  ar  
 28  11  40  1   
 29  12  16  2   
 30  12  17  1   
 31  13  18  ar  
 32  13  19  ar  
 33  14  20  ar  
 34  14  41  1   
 35  15  18  ar  
 36  15  42  1   
 37  16  21  1   
 38  16  22  1   
 39  17  23  2   
 40  17  43  1   
 41  19  24  ar  
 42  19  44  1   
 43  20  24  ar  
 44  20  45  1   
 45  21  23  1   
 46  21  25  1   
 47  22  46  1   
 48  22  47  1   
 49  22  48  1   
 50  23  26  1   
 51  24  49  1   
 52  25  50  1   
 53  25  51  1   
 54  25  52  1   
 55  26  27  3   
@<TRIPOS>SUBSTRUCTURE
  1 ****   5 GROUP 4 **** **** 0

# MOE 2024.06 (io_trps.svl 2023.06)
