@<TRIPOS>MOLECULE
NONAME
45 47 1 0 0 
SMALL
USER_CHARGES


@<TRIPOS>ATOM
  1 S        0.5760    -0.3390     1.7860 S.o2  1 <1>   1.4470 
  2 O        1.3040    -1.5260     2.1850 O.2   1 <1>  -0.6500 
  3 O        0.0800     0.5450     2.8200 O.2   1 <1>  -0.6500 
  4 N        1.6490     0.5580     0.8250 N.am  1 <1>  -0.8490 
  5 C       -0.7940    -0.7520     0.6530 C.ar  1 <1>  -0.0090 
  6 C        2.5120     1.4570     1.6220 C.3   1 <1>   0.1960 
  7 C        2.4030    -0.2950    -0.1110 C.3   1 <1>   0.1960 
  8 C       -1.6630    -1.8230     0.8810 C.ar  1 <1>  -0.1440 
  9 C       -1.0210     0.0300    -0.4770 C.ar  1 <1>  -0.1500 
 10 C        3.2890     2.5300     0.8120 C.3   1 <1>   0.2200 
 11 C        3.1150     0.4770    -1.2380 C.3   1 <1>  -0.0190 
 12 C       -2.6860    -2.1020    -0.0140 C.ar  1 <1>  -0.1500 
 13 C       -1.5220    -2.7140     2.1100 C.3   1 <1>  -0.0960 
 14 C       -2.0420    -0.2500    -1.3660 C.ar  1 <1>  -0.1500 
 15 N        2.6660     2.8300    -0.5180 N.am  1 <1>  -0.6600 
 16 C        4.7820     2.1810     0.6530 C.3   1 <1>   0.1200 
 17 C        2.5320     1.8590    -1.4740 C.2   1 <1>   0.5690 
 18 C        4.6380     0.5470    -1.0570 C.3   1 <1>   0.1200 
 19 C       -2.8800    -1.3250    -1.1400 C.ar  1 <1>  -0.1440 
 20 C        2.0380     4.1720    -0.6630 C.3   1 <1>   0.0600 
 21 O        4.9920     0.8570     0.2550 O.3   1 <1>  -0.5600 
 22 O        1.9760     2.0620    -2.5280 O.2   1 <1>  -0.5700 
 23 C       -4.0040    -1.6410    -2.1100 C.3   1 <1>  -0.0970 
 24 H        1.8930     2.0020     2.3130 H     1 <1>   0.0800 
 25 H        3.1960     0.8730     2.2150 H     1 <1>   0.0800 
 26 H        3.1120    -0.8990     0.4330 H     1 <1>   0.0800 
 27 H        1.7090    -0.9720    -0.5810 H     1 <1>   0.0800 
 28 H       -0.3920     0.8810    -0.6780 H     1 <1>   0.1500 
 29 H        3.2650     3.4350     1.3930 H     1 <1>   0.0800 
 30 H        2.9580    -0.0780    -2.1440 H     1 <1>   0.0800 
 31 H       -3.3450    -2.9330     0.1680 H     1 <1>   0.1500 
 32 H       -2.3770    -3.3560     2.2220 H     1 <1>   0.0800 
 33 H       -1.4400    -2.1170     3.0010 H     1 <1>   0.0800 
 34 H       -0.6470    -3.3320     2.0210 H     1 <1>   0.0800 
 35 H       -2.1790     0.3760    -2.2310 H     1 <1>   0.1500 
 36 H        5.2690     2.2900     1.6060 H     1 <1>   0.0800 
 37 H        5.2610     2.8430    -0.0470 H     1 <1>   0.0800 
 38 H        5.0800     1.2680    -1.7250 H     1 <1>   0.0800 
 39 H        5.0660    -0.4170    -1.2700 H     1 <1>   0.0800 
 40 H        2.7750     4.9400    -0.5090 H     1 <1>   0.0800 
 41 H        1.2480     4.2820     0.0600 H     1 <1>   0.0800 
 42 H        1.6190     4.2930    -1.6470 H     1 <1>   0.0800 
 43 H       -3.7600    -1.2920    -3.0970 H     1 <1>   0.0800 
 44 H       -4.9090    -1.1610    -1.7860 H     1 <1>   0.0800 
 45 H       -4.1700    -2.7020    -2.1580 H     1 <1>   0.0800 
@<TRIPOS>BOND
  1   1   2  2   
  2   1   3  2   
  3   1   4  am  
  4   1   5  1   
  5   4   6  1   
  6   4   7  1   
  7   5   8  ar  
  8   5   9  ar  
  9   6  10  1   
 10   6  24  1   
 11   6  25  1   
 12   7  11  1   
 13   7  26  1   
 14   7  27  1   
 15   8  12  ar  
 16   8  13  1   
 17   9  14  ar  
 18   9  28  1   
 19  10  15  1   
 20  10  16  1   
 21  10  29  1   
 22  11  17  1   
 23  11  18  1   
 24  11  30  1   
 25  12  19  ar  
 26  12  31  1   
 27  13  32  1   
 28  13  33  1   
 29  13  34  1   
 30  14  19  ar  
 31  14  35  1   
 32  15  17  am  
 33  15  20  1   
 34  16  21  1   
 35  16  36  1   
 36  16  37  1   
 37  17  22  2   
 38  18  21  1   
 39  18  38  1   
 40  18  39  1   
 41  19  23  1   
 42  20  40  1   
 43  20  41  1   
 44  20  42  1   
 45  23  43  1   
 46  23  44  1   
 47  23  45  1   
@<TRIPOS>SUBSTRUCTURE
  1 ****   4 GROUP 4 **** **** 0

# MOE 2024.06 (io_trps.svl 2023.06)
