@<TRIPOS>MOLECULE
NONAME
52 54 1 0 0 
SMALL
USER_CHARGES


@<TRIPOS>ATOM
  1 O       -1.6210     0.4900    -0.9890 O.2   1 <1>  -0.5700 
  2 C       -2.2010     1.0850    -0.0950 C.2   1 <1>   0.7160 
  3 N       -3.0880     0.3300     0.6580 N.am  1 <1>  -0.6600 
  4 C       -1.9840     2.5180     0.0990 C.2   1 <1>   0.2030 
  5 C       -4.4430     0.8290     1.0410 C.3   1 <1>   0.1400 
  6 C       -2.9660    -1.1550     0.7110 C.3   1 <1>   0.1400 
  7 N       -2.5430     3.2970     1.0120 N.2   1 <1>  -0.7070 
  8 C       -1.1130     3.2740    -0.6970 C.2   1 <1>  -0.1500 
  9 C       -5.5400     0.1740     0.1700 C.3   1 <1>   0.4230 
 10 C       -4.0260    -1.7980    -0.1980 C.3   1 <1>   0.3430 
 11 N       -2.0280     4.5190     0.8060 N.pl3 1 <1>   0.3000 
 12 C       -1.1640     4.5340    -0.2260 C.2   1 <1>  -0.3320 
 13 N       -5.4300    -1.3440     0.1480 N.4   1 <1>  -0.9590 
 14 C       -5.5070     0.7510    -1.2650 C.3   1 <1>   0.1200 
 15 C       -0.4280     5.7720    -0.7070 C.3   1 <1>   0.0200 
 16 C       -6.4800    -1.8990    -0.7770 C.3   1 <1>   0.4230 
 17 O       -6.5080     0.1630    -2.0460 O.3   1 <1>  -0.5600 
 18 C        0.5740     6.2540     0.3480 C.3   1 <1>  -0.1600 
 19 C       -6.4180    -1.2280    -2.1720 C.3   1 <1>   0.1200 
 20 C       -6.3860    -3.4330    -0.8460 C.3   1 <1>  -0.1600 
 21 C        1.3480     7.4860    -0.1340 C.3   1 <1>  -0.2400 
 22 C       -7.6460    -4.0700    -1.4550 C.3   1 <1>  -0.1600 
 23 C       -7.5490    -5.5980    -1.4300 C.3   1 <1>  -0.2400 
 24 H       -4.6190     0.6080     2.0800 H     1 <1>   0.0800 
 25 H       -4.5130     1.8940     0.9290 H     1 <1>   0.0800 
 26 H       -1.9840    -1.4620     0.3920 H     1 <1>   0.0800 
 27 H       -3.0940    -1.4900     1.7260 H     1 <1>   0.0800 
 28 H       -0.5320     2.8840    -1.5160 H     1 <1>   0.1500 
 29 H       -6.4920     0.4500     0.5910 H     1 <1>   0.0800 
 30 H       -3.9520    -2.8690    -0.1100 H     1 <1>   0.0800 
 31 H       -3.7960    -1.5340    -1.2170 H     1 <1>   0.0800 
 32 H       -2.2750     5.3320     1.3850 H     1 <1>   0.2700 
 33 H       -5.6420    -1.6790     1.0940 H     1 <1>   0.4500 
 34 H       -4.5550     0.5850    -1.7390 H     1 <1>   0.0800 
 35 H       -5.6940     1.8110    -1.2440 H     1 <1>   0.0800 
 36 H        0.0980     5.5370    -1.6170 H     1 <1>   0.0800 
 37 H       -1.1370     6.5510    -0.9280 H     1 <1>   0.0800 
 38 H       -7.4470    -1.6600    -0.3650 H     1 <1>   0.0800 
 39 H        0.0570     6.4960     1.2590 H     1 <1>   0.0800 
 40 H        1.2690     5.4600     0.5620 H     1 <1>   0.0800 
 41 H       -7.2490    -1.5450    -2.7770 H     1 <1>   0.0800 
 42 H       -5.5080    -1.4730    -2.6900 H     1 <1>   0.0800 
 43 H       -5.5360    -3.7290    -1.4360 H     1 <1>   0.0800 
 44 H       -6.2680    -3.8230     0.1500 H     1 <1>   0.0800 
 45 H        0.6740     8.3010    -0.3360 H     1 <1>   0.0800 
 46 H        1.8980     7.2590    -1.0300 H     1 <1>   0.0800 
 47 H        2.0450     7.8000     0.6230 H     1 <1>   0.0800 
 48 H       -8.5190    -3.7690    -0.9000 H     1 <1>   0.0800 
 49 H       -7.7760    -3.7550    -2.4770 H     1 <1>   0.0800 
 50 H       -7.4560    -5.9600    -0.4210 H     1 <1>   0.0800 
 51 H       -6.7020    -5.9370    -2.0000 H     1 <1>   0.0800 
 52 H       -8.4380    -6.0280    -1.8600 H     1 <1>   0.0800 
@<TRIPOS>BOND
  1   1   2  2   
  2   2   3  am  
  3   2   4  1   
  4   3   5  1   
  5   3   6  1   
  6   4   7  2   
  7   4   8  1   
  8   5   9  1   
  9   5  24  1   
 10   5  25  1   
 11   6  10  1   
 12   6  26  1   
 13   6  27  1   
 14   7  11  1   
 15   8  12  2   
 16   8  28  1   
 17   9  13  1   
 18   9  14  1   
 19   9  29  1   
 20  10  13  1   
 21  10  30  1   
 22  10  31  1   
 23  11  12  1   
 24  11  32  1   
 25  12  15  1   
 26  13  16  1   
 27  13  33  1   
 28  14  17  1   
 29  14  34  1   
 30  14  35  1   
 31  15  18  1   
 32  15  36  1   
 33  15  37  1   
 34  16  19  1   
 35  16  20  1   
 36  16  38  1   
 37  17  19  1   
 38  18  21  1   
 39  18  39  1   
 40  18  40  1   
 41  19  41  1   
 42  19  42  1   
 43  20  22  1   
 44  20  43  1   
 45  20  44  1   
 46  21  45  1   
 47  21  46  1   
 48  21  47  1   
 49  22  23  1   
 50  22  48  1   
 51  22  49  1   
 52  23  50  1   
 53  23  51  1   
 54  23  52  1   
@<TRIPOS>SUBSTRUCTURE
  1 ****   3 GROUP 4 **** **** 0

# MOE 2024.06 (io_trps.svl 2023.06)
