@<TRIPOS>MOLECULE
NONAME
37 39 1 0 0 
SMALL
USER_CHARGES


@<TRIPOS>ATOM
  1 CL      -0.0110     1.2290    -0.3530 Cl    1 <1>  -0.1770 
  2 C        1.6400     1.8040    -0.3310 C.ar  1 <1>   0.1770 
  3 C        2.3680     1.7920     0.8440 C.ar  1 <1>   0.1600 
  4 C        2.2130     2.2720    -1.4930 C.ar  1 <1>  -0.1500 
  5 N        3.6230     2.2100     0.9500 N.ar  1 <1>  -0.6200 
  6 C        3.5170     2.7040    -1.3930 C.ar  1 <1>  -0.1500 
  7 C        4.1890     2.6520    -0.1690 C.ar  1 <1>   0.4100 
  8 N        5.5070     3.0780    -0.0810 N.pl3 1 <1>  -0.8380 
  9 C        6.0370     3.4640     1.2760 C.3   1 <1>   0.2090 
 10 C        6.5130     2.3620    -0.9190 C.3   1 <1>   0.2090 
 11 C        7.1970     4.5010     1.2620 C.3   1 <1>   0.4230 
 12 C        7.6440     3.3110    -1.3670 C.3   1 <1>  -0.0800 
 13 N        7.2190     5.4370     0.0630 N.4   1 <1>  -0.9590 
 14 C        8.5740     3.8430     1.5010 C.3   1 <1>   0.1200 
 15 C        8.9930     3.0220    -0.6910 C.3   1 <1>   0.1200 
 16 C        7.2300     4.7890    -1.2990 C.3   1 <1>   0.3430 
 17 C        6.0350     6.3480     0.1320 C.3   1 <1>   0.2630 
 18 O        8.8250     2.7590     0.6620 O.3   1 <1>  -0.5600 
 19 H        1.8910     1.4210     1.7350 H     1 <1>   0.1500 
 20 H        1.6610     2.2920    -2.4160 H     1 <1>   0.1500 
 21 H        4.0250     3.0860    -2.2560 H     1 <1>   0.1500 
 22 H        5.2360     3.8960     1.8490 H     1 <1>   0.0800 
 23 H        6.3450     2.5760     1.8010 H     1 <1>   0.0800 
 24 H        6.9090     1.5230    -0.3690 H     1 <1>   0.0800 
 25 H        6.0290     1.9590    -1.7920 H     1 <1>   0.0800 
 26 H        7.0420     5.1150     2.1320 H     1 <1>   0.0800 
 27 H        7.8020     3.1050    -2.4100 H     1 <1>   0.0800 
 28 H        8.0720     6.0040     0.1410 H     1 <1>   0.4500 
 29 H        8.6010     3.4550     2.5040 H     1 <1>   0.0800 
 30 H        9.3740     4.5550     1.4030 H     1 <1>   0.0800 
 31 H        9.6980     3.8270    -0.8170 H     1 <1>   0.0800 
 32 H        9.4220     2.1320    -1.1200 H     1 <1>   0.0800 
 33 H        6.2380     4.8520    -1.7180 H     1 <1>   0.0800 
 34 H        7.8790     5.3570    -1.9440 H     1 <1>   0.0800 
 35 H        5.1250     5.7730     0.0460 H     1 <1>   0.0800 
 36 H        6.0650     7.0660    -0.6710 H     1 <1>   0.0800 
 37 H        6.0200     6.8800     1.0690 H     1 <1>   0.0800 
@<TRIPOS>BOND
  1   1   2  1   
  2   2   3  ar  
  3   2   4  ar  
  4   3   5  ar  
  5   3  19  1   
  6   4   6  ar  
  7   4  20  1   
  8   5   7  ar  
  9   6   7  ar  
 10   6  21  1   
 11   7   8  1   
 12   8   9  1   
 13   8  10  1   
 14   9  11  1   
 15   9  22  1   
 16   9  23  1   
 17  10  12  1   
 18  10  24  1   
 19  10  25  1   
 20  11  13  1   
 21  11  14  1   
 22  11  26  1   
 23  12  15  1   
 24  12  16  1   
 25  12  27  1   
 26  13  16  1   
 27  13  17  1   
 28  13  28  1   
 29  14  18  1   
 30  14  29  1   
 31  14  30  1   
 32  15  18  1   
 33  15  31  1   
 34  15  32  1   
 35  16  33  1   
 36  16  34  1   
 37  17  35  1   
 38  17  36  1   
 39  17  37  1   
@<TRIPOS>SUBSTRUCTURE
  1 ****   8 GROUP 4 **** **** 0

# MOE 2024.06 (io_trps.svl 2023.06)
