@<TRIPOS>MOLECULE
NONAME
54 57 1 0 0 
SMALL
USER_CHARGES


@<TRIPOS>ATOM
  1 O       -1.0220    -1.8810    -0.0760 O.2   1 <1>  -0.5700 
  2 C       -0.0080    -2.5030    -0.2820 C.2   1 <1>   0.5690 
  3 N        0.2690    -3.1220    -1.4700 N.am  1 <1>  -0.6600 
  4 C        1.0200    -2.6180     0.8250 C.3   1 <1>  -0.0990 
  5 C        1.5340    -3.8780    -1.6450 C.3   1 <1>   0.1400 
  6 C       -0.6770    -3.1160    -2.6170 C.3   1 <1>   0.0600 
  7 C        2.4330    -2.3590     0.2740 C.3   1 <1>  -0.0800 
  8 C        2.7180    -3.0770    -1.0670 C.3   1 <1>  -0.0800 
  9 C        3.5450    -2.7780     1.2450 C.3   1 <1>  -0.1600 
 10 C        3.9620    -3.9430    -0.8280 C.3   1 <1>  -0.1600 
 11 C        4.6710    -3.2650     0.3410 C.3   1 <1>   0.2200 
 12 N        5.6510    -4.1420     1.0550 N.am  1 <1>  -0.6600 
 13 C        6.9340    -3.7170     1.3560 C.2   1 <1>   0.5440 
 14 C        5.2020    -5.5050     1.4820 C.3   1 <1>   0.0600 
 15 O        7.6570    -4.4370     2.0170 O.2   1 <1>  -0.5700 
 16 C        7.4400    -2.4340     0.9240 C.ar  1 <1>   0.0860 
 17 C        7.7460    -2.1640    -0.4320 C.ar  1 <1>   0.0000 
 18 C        7.6240    -1.4140     1.8180 C.ar  1 <1>  -0.1500 
 19 C        8.1430    -0.8530    -0.7810 C.ar  1 <1>   0.3100 
 20 C        7.6660    -3.1400    -1.4480 C.ar  1 <1>  -0.1500 
 21 C        8.0440    -0.1550     1.3870 C.ar  1 <1>   0.1670 
 22 N        8.2810     0.1310     0.1470 N.ar  1 <1>  -0.6200 
 23 C        8.4080    -0.5600    -2.1400 C.ar  1 <1>  -0.1440 
 24 C        7.9330    -2.8330    -2.7530 C.ar  1 <1>  -0.1500 
 25 C        8.2360     0.9570     2.3960 C.3   1 <1>  -0.0970 
 26 C        8.3010    -1.5330    -3.1010 C.ar  1 <1>  -0.1500 
 27 C        8.8200     0.8510    -2.5460 C.3   1 <1>  -0.0970 
 28 H        0.7920    -1.9120     1.6030 H     1 <1>   0.0800 
 29 H        0.9470    -3.6080     1.2350 H     1 <1>   0.0800 
 30 H        1.4360    -4.8190    -1.1320 H     1 <1>   0.0800 
 31 H        1.7080    -4.0770    -2.6890 H     1 <1>   0.0800 
 32 H       -0.9540    -4.1250    -2.8660 H     1 <1>   0.0800 
 33 H       -0.2130    -2.6510    -3.4690 H     1 <1>   0.0800 
 34 H       -1.5680    -2.5660    -2.3690 H     1 <1>   0.0800 
 35 H        2.5230    -1.3000     0.0930 H     1 <1>   0.0800 
 36 H        2.9770    -2.3200    -1.7880 H     1 <1>   0.0800 
 37 H        3.2020    -3.5740     1.8790 H     1 <1>   0.0800 
 38 H        3.8650    -1.9530     1.8550 H     1 <1>   0.0800 
 39 H        4.5920    -3.9780    -1.6990 H     1 <1>   0.0800 
 40 H        3.6590    -4.9390    -0.5620 H     1 <1>   0.0800 
 41 H        5.1600    -2.3910    -0.0510 H     1 <1>   0.0800 
 42 H        4.1420    -5.5300     1.6530 H     1 <1>   0.0800 
 43 H        5.6940    -5.7940     2.3950 H     1 <1>   0.0800 
 44 H        5.4530    -6.2190     0.7170 H     1 <1>   0.0800 
 45 H        7.4360    -1.5830     2.8630 H     1 <1>   0.1500 
 46 H        7.3920    -4.1480    -1.1880 H     1 <1>   0.1500 
 47 H        7.8690    -3.5830    -3.5220 H     1 <1>   0.1500 
 48 H        8.0110     0.6260     3.3920 H     1 <1>   0.0800 
 49 H        7.5920     1.7810     2.1480 H     1 <1>   0.0800 
 50 H        9.2550     1.2950     2.3650 H     1 <1>   0.0800 
 51 H        8.5030    -1.3160    -4.1360 H     1 <1>   0.1500 
 52 H        8.9820     0.9240    -3.6050 H     1 <1>   0.0800 
 53 H        9.7300     1.1230    -2.0400 H     1 <1>   0.0800 
 54 H        8.0520     1.5500    -2.2670 H     1 <1>   0.0800 
@<TRIPOS>BOND
  1   1   2  2   
  2   2   3  am  
  3   2   4  1   
  4   3   5  1   
  5   3   6  1   
  6   4   7  1   
  7   4  28  1   
  8   4  29  1   
  9   5   8  1   
 10   5  30  1   
 11   5  31  1   
 12   6  32  1   
 13   6  33  1   
 14   6  34  1   
 15   7   8  1   
 16   7   9  1   
 17   7  35  1   
 18   8  10  1   
 19   8  36  1   
 20   9  11  1   
 21   9  37  1   
 22   9  38  1   
 23  10  11  1   
 24  10  39  1   
 25  10  40  1   
 26  11  12  1   
 27  11  41  1   
 28  12  13  am  
 29  12  14  1   
 30  13  15  2   
 31  13  16  1   
 32  14  42  1   
 33  14  43  1   
 34  14  44  1   
 35  16  17  ar  
 36  16  18  ar  
 37  17  19  ar  
 38  17  20  ar  
 39  18  21  ar  
 40  18  45  1   
 41  19  22  ar  
 42  19  23  ar  
 43  20  24  ar  
 44  20  46  1   
 45  21  22  ar  
 46  21  25  1   
 47  23  26  ar  
 48  23  27  1   
 49  24  26  ar  
 50  24  47  1   
 51  25  48  1   
 52  25  49  1   
 53  25  50  1   
 54  26  51  1   
 55  27  52  1   
 56  27  53  1   
 57  27  54  1   
@<TRIPOS>SUBSTRUCTURE
  1 ****  11 GROUP 4 **** **** 0

# MOE 2024.06 (io_trps.svl 2023.06)
