@<TRIPOS>MOLECULE
NONAME
50 52 1 0 0 
SMALL
USER_CHARGES


@<TRIPOS>ATOM
  1 O        0.6920    -0.5240     0.2800 O.3   1 <1>  -0.5600 
  2 C        2.0370    -0.1960     0.1420 C.3   1 <1>   0.2000 
  3 C        0.2800    -1.6860    -0.3740 C.3   1 <1>   0.2640 
  4 C        2.4100     0.6780     1.3400 C.3   1 <1>  -0.1600 
  5 C        2.2530     0.5590    -1.1750 C.3   1 <1>  -0.1600 
  6 C       -1.1980    -1.9130    -0.1040 C.ar  1 <1>  -0.1440 
  7 C        3.8460     1.1840     1.2130 C.3   1 <1>   0.2090 
  8 C        3.6900     1.0720    -1.2720 C.3   1 <1>   0.2090 
  9 C       -1.6640    -3.1740     0.2390 C.ar  1 <1>   0.1600 
 10 C       -2.1070    -0.8780    -0.2040 C.ar  1 <1>  -0.1500 
 11 N        4.0010     1.8920    -0.0780 N.pl3 1 <1>  -0.8380 
 12 N       -2.9300    -3.4810     0.4770 N.ar  1 <1>  -0.6200 
 13 C       -3.4300    -1.1760     0.0440 C.ar  1 <1>  -0.1500 
 14 C        5.0360     2.7920    -0.1730 C.ar  1 <1>   0.4100 
 15 C       -3.7820    -2.4730     0.3750 C.ar  1 <1>   0.1600 
 16 N        6.2060     2.3030    -0.5270 N.ar  1 <1>  -0.6200 
 17 C        4.8570     4.1430     0.0990 C.ar  1 <1>  -0.1430 
 18 C        7.1920     3.1710    -0.5980 C.ar  1 <1>   0.4770 
 19 C        5.9700     4.9380    -0.0140 C.ar  1 <1>   0.1600 
 20 C        3.4700     4.6600     0.4930 C.3   1 <1>  -0.0170 
 21 N        7.1520     4.4690    -0.3620 N.ar  1 <1>  -0.6200 
 22 C        8.5350     2.6160    -1.0050 C.3   1 <1>  -0.0970 
 23 C        3.3550     6.1850     0.6410 C.3   1 <1>  -0.1600 
 24 C        1.9250     6.6020     0.9980 C.3   1 <1>  -0.2400 
 25 H        2.6280    -1.0970     0.1650 H     1 <1>   0.0800 
 26 H        0.8640    -2.5110    -0.0030 H     1 <1>   0.0800 
 27 H        0.4420    -1.5700    -1.4300 H     1 <1>   0.0800 
 28 H        2.3120     0.1100     2.2460 H     1 <1>   0.0800 
 29 H        1.7490     1.5250     1.3910 H     1 <1>   0.0800 
 30 H        1.5850     1.4000    -1.2240 H     1 <1>   0.0800 
 31 H        2.0620    -0.0830    -2.0140 H     1 <1>   0.0800 
 32 H        4.5390     0.3600     1.2490 H     1 <1>   0.0800 
 33 H        4.0750     1.8530     2.0250 H     1 <1>   0.0800 
 34 H        3.8110     1.6710    -2.1590 H     1 <1>   0.0800 
 35 H        4.3820     0.2480    -1.3240 H     1 <1>   0.0800 
 36 H       -0.9590    -3.9830     0.3220 H     1 <1>   0.1500 
 37 H       -1.7920     0.1190    -0.4590 H     1 <1>   0.1500 
 38 H       -4.1820    -0.4100    -0.0160 H     1 <1>   0.1500 
 39 H       -4.8180    -2.6930     0.5670 H     1 <1>   0.1500 
 40 H        5.9160     5.9940     0.1810 H     1 <1>   0.1500 
 41 H        3.1870     4.1960     1.4210 H     1 <1>   0.0800 
 42 H        2.7670     4.3330    -0.2550 H     1 <1>   0.0800 
 43 H        8.6200     1.5900    -0.6980 H     1 <1>   0.0800 
 44 H        9.3230     3.1830    -0.5460 H     1 <1>   0.0800 
 45 H        8.6330     2.6760    -2.0720 H     1 <1>   0.0800 
 46 H        3.6380     6.6590    -0.2840 H     1 <1>   0.0800 
 47 H        4.0200     6.5240     1.4170 H     1 <1>   0.0800 
 48 H        1.2390     6.2940     0.2280 H     1 <1>   0.0800 
 49 H        1.8670     7.6720     1.0970 H     1 <1>   0.0800 
 50 H        1.6230     6.1560     1.9300 H     1 <1>   0.0800 
@<TRIPOS>BOND
  1   1   2  1   
  2   1   3  1   
  3   2   4  1   
  4   2   5  1   
  5   2  25  1   
  6   3   6  1   
  7   3  26  1   
  8   3  27  1   
  9   4   7  1   
 10   4  28  1   
 11   4  29  1   
 12   5   8  1   
 13   5  30  1   
 14   5  31  1   
 15   6   9  ar  
 16   6  10  ar  
 17   7  11  1   
 18   7  32  1   
 19   7  33  1   
 20   8  11  1   
 21   8  34  1   
 22   8  35  1   
 23   9  12  ar  
 24   9  36  1   
 25  10  13  ar  
 26  10  37  1   
 27  11  14  1   
 28  12  15  ar  
 29  13  15  ar  
 30  13  38  1   
 31  14  16  ar  
 32  14  17  ar  
 33  15  39  1   
 34  16  18  ar  
 35  17  19  ar  
 36  17  20  1   
 37  18  21  ar  
 38  18  22  1   
 39  19  21  ar  
 40  19  40  1   
 41  20  23  1   
 42  20  41  1   
 43  20  42  1   
 44  22  43  1   
 45  22  44  1   
 46  22  45  1   
 47  23  24  1   
 48  23  46  1   
 49  23  47  1   
 50  24  48  1   
 51  24  49  1   
 52  24  50  1   
@<TRIPOS>SUBSTRUCTURE
  1 ****   5 GROUP 4 **** **** 0

# MOE 2024.06 (io_trps.svl 2023.06)
