@<TRIPOS>MOLECULE
NONAME
40 41 1 0 0 
SMALL
USER_CHARGES


@<TRIPOS>ATOM
  1 O       -0.4400     0.0400     0.4550 O.2   1 <1>  -0.5700 
  2 C       -1.4950     0.6340     0.5050 C.2   1 <1>   0.5690 
  3 N       -2.6920    -0.0370     0.5460 N.am  1 <1>  -0.6600 
  4 C       -1.4520     2.1690     0.5140 C.3   1 <1>   0.1810 
  5 C       -2.7520    -1.5330     0.6020 C.3   1 <1>   0.1400 
  6 C       -4.0470     0.5910     0.4820 C.3   1 <1>   0.1400 
  7 O       -0.1540     2.6470     0.6950 O.3   1 <1>  -0.6800 
  8 C       -3.6880    -2.0970    -0.4820 C.3   1 <1>   0.3440 
  9 C       -4.9080    -0.0780    -0.6150 C.3   1 <1>   0.2000 
 10 O       -4.9400    -1.4630    -0.4180 O.3   1 <1>  -0.5600 
 11 C       -3.8690    -3.6020    -0.3050 C.ar  1 <1>  -0.1440 
 12 C       -6.3680     0.4280    -0.6750 C.3   1 <1>  -0.0800 
 13 C       -3.0320    -4.4780    -0.9820 C.ar  1 <1>  -0.1500 
 14 C       -4.8470    -4.1180     0.5340 C.ar  1 <1>  -0.1500 
 15 C       -6.4470     1.9200    -1.0370 C.3   1 <1>  -0.2400 
 16 C       -7.1670     0.1670     0.6140 C.3   1 <1>  -0.2400 
 17 C       -3.1690    -5.8460    -0.8220 C.ar  1 <1>  -0.1500 
 18 C       -4.9850    -5.4860     0.6960 C.ar  1 <1>  -0.1500 
 19 C       -4.1460    -6.3510     0.0180 C.ar  1 <1>  -0.1500 
 20 H       -2.0560     2.5540     1.3140 H     1 <1>   0.0800 
 21 H       -1.8110     2.5460    -0.4260 H     1 <1>   0.0800 
 22 H       -1.7740    -1.9610     0.4730 H     1 <1>   0.0800 
 23 H       -3.1150    -1.8370     1.5690 H     1 <1>   0.0800 
 24 H       -4.5270     0.4720     1.4370 H     1 <1>   0.0800 
 25 H       -3.9710     1.6420     0.2770 H     1 <1>   0.0800 
 26 H        0.4530     1.8740     0.6310 H     1 <1>   0.4000 
 27 H       -3.2700    -1.9030    -1.4550 H     1 <1>   0.0800 
 28 H       -4.4520     0.1020    -1.5740 H     1 <1>   0.0800 
 29 H       -6.8480    -0.1160    -1.4720 H     1 <1>   0.0800 
 30 H       -2.2660    -4.1010    -1.6370 H     1 <1>   0.1500 
 31 H       -5.5070    -3.4530     1.0630 H     1 <1>   0.1500 
 32 H       -6.0540     2.5360    -0.2480 H     1 <1>   0.0800 
 33 H       -7.4720     2.2030    -1.2020 H     1 <1>   0.0800 
 34 H       -5.8980     2.1170    -1.9410 H     1 <1>   0.0800 
 35 H       -6.7840     0.7410     1.4380 H     1 <1>   0.0800 
 36 H       -7.1280    -0.8770     0.8720 H     1 <1>   0.0800 
 37 H       -8.1990     0.4340     0.4690 H     1 <1>   0.0800 
 38 H       -2.5160    -6.5180    -1.3510 H     1 <1>   0.1500 
 39 H       -5.7480    -5.8750     1.3470 H     1 <1>   0.1500 
 40 H       -4.2530    -7.4140     0.1420 H     1 <1>   0.1500 
@<TRIPOS>BOND
  1   1   2  2   
  2   2   3  am  
  3   2   4  1   
  4   3   5  1   
  5   3   6  1   
  6   4   7  1   
  7   4  20  1   
  8   4  21  1   
  9   5   8  1   
 10   5  22  1   
 11   5  23  1   
 12   6   9  1   
 13   6  24  1   
 14   6  25  1   
 15   7  26  1   
 16   8  10  1   
 17   8  11  1   
 18   8  27  1   
 19   9  10  1   
 20   9  12  1   
 21   9  28  1   
 22  11  13  ar  
 23  11  14  ar  
 24  12  15  1   
 25  12  16  1   
 26  12  29  1   
 27  13  17  ar  
 28  13  30  1   
 29  14  18  ar  
 30  14  31  1   
 31  15  32  1   
 32  15  33  1   
 33  15  34  1   
 34  16  35  1   
 35  16  36  1   
 36  16  37  1   
 37  17  19  ar  
 38  17  38  1   
 39  18  19  ar  
 40  18  39  1   
 41  19  40  1   
@<TRIPOS>SUBSTRUCTURE
  1 ****   8 GROUP 4 **** **** 0

# MOE 2024.06 (io_trps.svl 2023.06)
