@<TRIPOS>MOLECULE
NONAME
43 44 1 0 0 
SMALL
USER_CHARGES


@<TRIPOS>ATOM
  1 CL      -0.1940    -1.4400     1.1450 Cl    1 <1>  -0.1770 
  2 C       -1.6390    -1.7850     0.2300 C.ar  1 <1>   0.1770 
  3 C       -2.2010    -3.0440     0.3120 C.ar  1 <1>  -0.1500 
  4 C       -2.1930    -0.7920    -0.5560 C.ar  1 <1>  -0.1500 
  5 C       -3.3570    -3.3170    -0.4150 C.ar  1 <1>   0.0830 
  6 C       -3.3390    -1.0660    -1.2820 C.ar  1 <1>  -0.1500 
  7 O       -3.9990    -4.5130    -0.4080 O.3   1 <1>  -0.3630 
  8 C       -3.9140    -2.3240    -1.2080 C.ar  1 <1>  -0.1500 
  9 C       -3.6620    -5.5840     0.4650 C.3   1 <1>   0.2610 
 10 C       -4.1760    -6.9310    -0.0860 C.2   1 <1>   0.5690 
 11 C       -4.1740    -5.2650     1.8800 C.3   1 <1>  -0.2400 
 12 O       -3.3590    -7.8250    -0.1140 O.2   1 <1>  -0.5700 
 13 N       -5.4710    -7.1640    -0.5060 N.am  1 <1>  -0.6600 
 14 C       -5.7890    -8.4060    -1.2690 C.3   1 <1>   0.3200 
 15 C       -6.6080    -6.1920    -0.4040 C.3   1 <1>   0.1400 
 16 C       -6.7340    -9.2900    -0.4790 C.2   1 <1>  -0.3320 
 17 C       -7.4820    -6.4670     0.8280 C.3   1 <1>   0.1200 
 18 N       -6.4140    -9.9390     0.6590 N.pl3 1 <1>   0.0480 
 19 C       -8.0220    -9.6000    -0.7480 C.2   1 <1>   0.0770 
 20 O       -8.2440    -5.3400     1.1070 O.3   1 <1>  -0.6800 
 21 C       -7.5440   -10.5940     1.0070 C.2   1 <1>   0.0360 
 22 C       -5.1230    -9.9620     1.3700 C.3   1 <1>   0.0160 
 23 N       -8.5310   -10.4160     0.1910 N.2   1 <1>  -0.5650 
 24 H       -1.7220    -3.7730     0.9350 H     1 <1>   0.1500 
 25 H       -1.7300     0.1780    -0.5980 H     1 <1>   0.1500 
 26 H       -3.7820    -0.3040    -1.9010 H     1 <1>   0.1500 
 27 H       -4.8040    -2.5430    -1.7720 H     1 <1>   0.1500 
 28 H       -2.5910    -5.6610     0.4820 H     1 <1>   0.0800 
 29 H       -5.2270    -5.0620     1.8700 H     1 <1>   0.0800 
 30 H       -3.6600    -4.4140     2.2860 H     1 <1>   0.0800 
 31 H       -3.9900    -6.1050     2.5260 H     1 <1>   0.0800 
 32 H       -4.8960    -8.9590    -1.5040 H     1 <1>   0.0800 
 33 H       -6.2470    -8.1350    -2.2040 H     1 <1>   0.0800 
 34 H       -7.2200    -6.2610    -1.2860 H     1 <1>   0.0800 
 35 H       -6.2360    -5.1890    -0.3500 H     1 <1>   0.0800 
 36 H       -6.8830    -6.6890     1.6930 H     1 <1>   0.0800 
 37 H       -8.1590    -7.2820     0.6440 H     1 <1>   0.0800 
 38 H       -8.6230    -9.2730    -1.5800 H     1 <1>   0.1500 
 39 H       -7.6850    -4.5990     1.4100 H     1 <1>   0.4000 
 40 H       -7.5980   -11.2080     1.8890 H     1 <1>   0.1500 
 41 H       -4.3350   -10.1790     0.6710 H     1 <1>   0.0800 
 42 H       -5.1410   -10.7180     2.1320 H     1 <1>   0.0800 
 43 H       -4.9480    -9.0020     1.8180 H     1 <1>   0.0800 
@<TRIPOS>BOND
  1   1   2  1   
  2   2   3  ar  
  3   2   4  ar  
  4   3   5  ar  
  5   3  24  1   
  6   4   6  ar  
  7   4  25  1   
  8   5   7  1   
  9   5   8  ar  
 10   6   8  ar  
 11   6  26  1   
 12   7   9  1   
 13   8  27  1   
 14   9  10  1   
 15   9  11  1   
 16   9  28  1   
 17  10  12  2   
 18  10  13  am  
 19  11  29  1   
 20  11  30  1   
 21  11  31  1   
 22  13  14  1   
 23  13  15  1   
 24  14  16  1   
 25  14  32  1   
 26  14  33  1   
 27  15  17  1   
 28  15  34  1   
 29  15  35  1   
 30  16  18  1   
 31  16  19  2   
 32  17  20  1   
 33  17  36  1   
 34  17  37  1   
 35  18  21  1   
 36  18  22  1   
 37  19  23  1   
 38  19  38  1   
 39  20  39  1   
 40  21  23  2   
 41  21  40  1   
 42  22  41  1   
 43  22  42  1   
 44  22  43  1   
@<TRIPOS>SUBSTRUCTURE
  1 ****  10 GROUP 4 **** **** 0

# MOE 2024.06 (io_trps.svl 2023.06)
