@<TRIPOS>MOLECULE
NONAME
44 45 1 0 0 
SMALL
USER_CHARGES


@<TRIPOS>ATOM
  1 CL      -6.8020    -4.5810     4.5600 Cl    1 <1>  -0.1770 
  2 C       -6.2290    -4.3640     2.9270 C.ar  1 <1>   0.1770 
  3 C       -4.9470    -4.7650     2.6010 C.ar  1 <1>  -0.1500 
  4 C       -7.0690    -3.8090     1.9810 C.ar  1 <1>  -0.1500 
  5 C       -4.5000    -4.6150     1.2990 C.ar  1 <1>  -0.1500 
  6 C       -6.6140    -3.6540     0.6830 C.ar  1 <1>  -0.1500 
  7 C       -5.3340    -4.0640     0.3340 C.ar  1 <1>  -0.1430 
  8 C       -4.8720    -3.9290    -1.1130 C.3   1 <1>   0.0440 
  9 C       -5.6190    -4.9090    -1.9980 C.2   1 <1>   0.5690 
 10 O       -6.3370    -4.4920    -2.8730 O.2   1 <1>  -0.5700 
 11 N       -5.5030    -6.2370    -1.7430 N.am  1 <1>  -0.7300 
 12 C       -6.3540    -7.2950    -2.3360 C.3   1 <1>   0.2200 
 13 C       -7.4180    -7.7410    -1.3380 C.3   1 <1>  -0.0800 
 14 C       -5.5350    -8.5690    -2.4710 C.3   1 <1>   0.1200 
 15 C       -6.6940    -8.8160    -0.5160 C.3   1 <1>   0.1200 
 16 C       -8.0300    -6.5970    -0.4990 C.3   1 <1>  -0.0550 
 17 O       -5.5020    -9.1050    -1.1860 O.3   1 <1>  -0.5600 
 18 S       -9.4500    -7.0530     0.4950 S.o2  1 <1>   1.3330 
 19 O       -9.9210    -5.8820     1.2000 O.2   1 <1>  -0.6500 
 20 O      -10.3600    -7.7990    -0.3430 O.2   1 <1>  -0.6500 
 21 N       -8.8210    -8.1210     1.6570 N.am  1 <1>  -0.8490 
 22 C       -8.1140    -7.4420     2.7490 C.3   1 <1>   0.1160 
 23 C       -9.8590    -8.9940     2.2130 C.3   1 <1>   0.1160 
 24 H       -4.3120    -5.1890     3.3580 H     1 <1>   0.1500 
 25 H       -8.0650    -3.5070     2.2560 H     1 <1>   0.1500 
 26 H       -3.5020    -4.9300     1.0450 H     1 <1>   0.1500 
 27 H       -7.2670    -3.2220    -0.0580 H     1 <1>   0.1500 
 28 H       -3.8180    -4.1150    -1.1990 H     1 <1>   0.0800 
 29 H       -5.0600    -2.9290    -1.4590 H     1 <1>   0.0800 
 30 H       -4.9200    -6.5680    -0.9710 H     1 <1>   0.3700 
 31 H       -6.7700    -6.9700    -3.2760 H     1 <1>   0.0800 
 32 H       -8.2080    -8.2250    -1.8880 H     1 <1>   0.0800 
 33 H       -4.5340    -8.3880    -2.8190 H     1 <1>   0.0800 
 34 H       -6.0290    -9.2770    -3.1150 H     1 <1>   0.0800 
 35 H       -7.2790    -9.7170    -0.4380 H     1 <1>   0.0800 
 36 H       -6.4330    -8.4680     0.4680 H     1 <1>   0.0800 
 37 H       -8.3330    -5.8190    -1.1730 H     1 <1>   0.0800 
 38 H       -7.2780    -6.1890     0.1440 H     1 <1>   0.0800 
 39 H       -7.6920    -8.1650     3.4250 H     1 <1>   0.0800 
 40 H       -8.7860    -6.8020     3.2980 H     1 <1>   0.0800 
 41 H       -7.3120    -6.8430     2.3550 H     1 <1>   0.0800 
 42 H       -9.4320    -9.6710     2.9330 H     1 <1>   0.0800 
 43 H      -10.3090    -9.5790     1.4280 H     1 <1>   0.0800 
 44 H      -10.6260    -8.4060     2.6890 H     1 <1>   0.0800 
@<TRIPOS>BOND
  1   1   2  1   
  2   2   3  ar  
  3   2   4  ar  
  4   3   5  ar  
  5   3  24  1   
  6   4   6  ar  
  7   4  25  1   
  8   5   7  ar  
  9   5  26  1   
 10   6   7  ar  
 11   6  27  1   
 12   7   8  1   
 13   8   9  1   
 14   8  28  1   
 15   8  29  1   
 16   9  10  2   
 17   9  11  am  
 18  11  12  1   
 19  11  30  1   
 20  12  13  1   
 21  12  14  1   
 22  12  31  1   
 23  13  15  1   
 24  13  16  1   
 25  13  32  1   
 26  14  17  1   
 27  14  33  1   
 28  14  34  1   
 29  15  17  1   
 30  15  35  1   
 31  15  36  1   
 32  16  18  1   
 33  16  37  1   
 34  16  38  1   
 35  18  19  2   
 36  18  20  2   
 37  18  21  am  
 38  21  22  1   
 39  21  23  1   
 40  22  39  1   
 41  22  40  1   
 42  22  41  1   
 43  23  42  1   
 44  23  43  1   
 45  23  44  1   
@<TRIPOS>SUBSTRUCTURE
  1 ****  16 GROUP 4 **** **** 0

# MOE 2024.06 (io_trps.svl 2023.06)
