@<TRIPOS>MOLECULE
NONAME
38 40 1 0 0 
SMALL
USER_CHARGES


@<TRIPOS>ATOM
  1 CL       1.6420     0.5710    -3.0390 Cl    1 <1>  -0.1770 
  2 C        2.3870     1.2340    -1.6070 C.ar  1 <1>   0.1770 
  3 C        2.6870     2.5810    -1.5610 C.ar  1 <1>  -0.1500 
  4 C        2.6660     0.3980    -0.5420 C.ar  1 <1>  -0.1500 
  5 C        3.2790     3.1110    -0.4250 C.ar  1 <1>   0.0830 
  6 C        3.2560     0.9250     0.5950 C.ar  1 <1>  -0.1500 
  7 O        3.5500     4.4390    -0.4460 O.3   1 <1>  -0.3400 
  8 C        3.5610     2.2750     0.6560 C.ar  1 <1>  -0.1500 
  9 C        4.2590     5.0620     0.6110 C.3   1 <1>   0.2580 
 10 C        4.5970     6.5310     0.2800 C.3   1 <1>   0.2450 
 11 C        5.7800     4.8050     0.5500 C.3   1 <1>   0.2450 
 12 N        5.9860     6.2790     0.8100 N.3   1 <1>  -0.5900 
 13 C        7.0500     6.9590     0.1960 C.ar  1 <1>   0.4100 
 14 N        8.0620     6.1970    -0.1950 N.ar  1 <1>  -0.6200 
 15 C        7.0450     8.3900     0.0210 C.ar  1 <1>   0.4100 
 16 C        9.0320     6.8820    -0.7820 C.ar  1 <1>   0.1600 
 17 N        8.0280     9.0420    -0.5800 N.ar  1 <1>  -0.6200 
 18 N        6.0080     9.2100     0.5000 N.pl3 1 <1>  -0.8380 
 19 C        9.0140     8.2490    -0.9710 C.ar  1 <1>   0.1600 
 20 C        5.6690    10.4510    -0.2500 C.3   1 <1>   0.1290 
 21 C        5.9240     9.3590     1.9750 C.3   1 <1>   0.1290 
 22 H        2.4640     3.2140    -2.3990 H     1 <1>   0.1500 
 23 H        2.4220    -0.6480    -0.6050 H     1 <1>   0.1500 
 24 H        3.4770     0.2830     1.4310 H     1 <1>   0.1500 
 25 H        4.0150     2.6550     1.5520 H     1 <1>   0.1500 
 26 H        3.7880     4.9180     1.5680 H     1 <1>   0.0000 
 27 H        4.0630     7.2390     0.8870 H     1 <1>   0.0000 
 28 H        4.6110     6.7560    -0.7720 H     1 <1>   0.0000 
 29 H        6.1240     4.5070    -0.4260 H     1 <1>   0.0000 
 30 H        6.1510     4.2050     1.3620 H     1 <1>   0.0000 
 31 H        9.8810     6.3200    -1.1280 H     1 <1>   0.1500 
 32 H        9.8460     8.7180    -1.4640 H     1 <1>   0.1500 
 33 H        5.7260    10.2640    -1.3090 H     1 <1>   0.0800 
 34 H        6.3640    11.2330     0.0020 H     1 <1>   0.0800 
 35 H        4.6700    10.7660    -0.0060 H     1 <1>   0.0800 
 36 H        6.2860     8.4700     2.4630 H     1 <1>   0.0800 
 37 H        4.9020     9.5210     2.2670 H     1 <1>   0.0800 
 38 H        6.5230    10.1950     2.2930 H     1 <1>   0.0800 
@<TRIPOS>BOND
  1   1   2  1   
  2   2   3  ar  
  3   2   4  ar  
  4   3   5  ar  
  5   3  22  1   
  6   4   6  ar  
  7   4  23  1   
  8   5   7  1   
  9   5   8  ar  
 10   6   8  ar  
 11   6  24  1   
 12   7   9  1   
 13   8  25  1   
 14   9  10  1   
 15   9  11  1   
 16   9  26  1   
 17  10  12  1   
 18  10  27  1   
 19  10  28  1   
 20  11  12  1   
 21  11  29  1   
 22  11  30  1   
 23  12  13  1   
 24  13  14  ar  
 25  13  15  ar  
 26  14  16  ar  
 27  15  17  ar  
 28  15  18  1   
 29  16  19  ar  
 30  16  31  1   
 31  17  19  ar  
 32  18  20  1   
 33  18  21  1   
 34  19  32  1   
 35  20  33  1   
 36  20  34  1   
 37  20  35  1   
 38  21  36  1   
 39  21  37  1   
 40  21  38  1   
@<TRIPOS>SUBSTRUCTURE
  1 ****  11 GROUP 4 **** **** 0

# MOE 2024.06 (io_trps.svl 2023.06)
