@<TRIPOS>MOLECULE
NONAME
36 37 1 0 0 
SMALL
USER_CHARGES


@<TRIPOS>ATOM
  1 S       -0.4850     0.6280    -1.5180 S.o2  1 <1>   1.4470 
  2 O       -0.9400     1.8690    -2.1100 O.2   1 <1>  -0.6500 
  3 O       -0.2650    -0.4860    -2.4150 O.2   1 <1>  -0.6500 
  4 N       -1.6740     0.1400    -0.4110 N.am  1 <1>  -0.8490 
  5 C        0.9950     0.9010    -0.5150 C.ar  1 <1>  -0.0090 
  6 C       -1.3090    -1.0680     0.3700 C.3   1 <1>   0.1960 
  7 C       -2.9920     0.0760    -1.0600 C.3   1 <1>   0.1960 
  8 C        1.1520     2.0320     0.2680 C.ar  1 <1>   0.1900 
  9 C        2.0180    -0.0410    -0.4640 C.ar  1 <1>  -0.1500 
 10 C       -2.0050    -2.3250    -0.1400 C.3   1 <1>  -0.1860 
 11 C       -3.9980    -0.7140    -0.2220 C.3   1 <1>  -0.1600 
 12 F        0.2200     2.9450     0.2900 F     1 <1>  -0.1900 
 13 C        2.2670     2.2530     1.0560 C.ar  1 <1>  -0.1500 
 14 C        3.1450     0.1480     0.3220 C.ar  1 <1>  -0.1440 
 15 C       -1.4090    -3.5420     0.5390 C.2   1 <1>   0.9060 
 16 C       -3.5320    -2.1630    -0.0070 C.3   1 <1>   0.2000 
 17 C        3.2710     1.3020     1.0800 C.ar  1 <1>  -0.1500 
 18 C        4.2210    -0.9230     0.3490 C.3   1 <1>  -0.0970 
 19 O       -0.1820    -3.6700     0.5270 O.co2 1 <1>  -0.9000 
 20 O       -2.1460    -4.3680     1.0960 O.co2 1 <1>  -0.9000 
 21 O       -3.9380    -2.5290     1.2570 O.3   1 <1>  -0.6800 
 22 H       -0.2440    -1.2200     0.3690 H     1 <1>   0.0800 
 23 H       -1.6030    -0.9150     1.3960 H     1 <1>   0.0800 
 24 H       -3.3530     1.0780    -1.2190 H     1 <1>   0.0800 
 25 H       -2.8980    -0.3990    -2.0240 H     1 <1>   0.0800 
 26 H        1.9230    -0.9470    -1.0440 H     1 <1>   0.1500 
 27 H       -1.7600    -2.4340    -1.1790 H     1 <1>   0.0800 
 28 H       -4.9510    -0.7210    -0.7170 H     1 <1>   0.0800 
 29 H       -4.1120    -0.2090     0.7210 H     1 <1>   0.0800 
 30 H        2.3410     3.1520     1.6410 H     1 <1>   0.1500 
 31 H       -4.0150    -2.8300    -0.7010 H     1 <1>   0.0800 
 32 H        4.1420     1.4590     1.6920 H     1 <1>   0.1500 
 33 H        4.9030    -0.7620     1.1640 H     1 <1>   0.0800 
 34 H        4.7720    -0.9120    -0.5740 H     1 <1>   0.0800 
 35 H        3.7690    -1.8920     0.4720 H     1 <1>   0.0800 
 36 H       -3.4270    -3.3710     1.4640 H     1 <1>   0.4000 
@<TRIPOS>BOND
  1   1   2  2   
  2   1   3  2   
  3   1   4  am  
  4   1   5  1   
  5   4   6  1   
  6   4   7  1   
  7   5   8  ar  
  8   5   9  ar  
  9   6  10  1   
 10   6  22  1   
 11   6  23  1   
 12   7  11  1   
 13   7  24  1   
 14   7  25  1   
 15   8  12  1   
 16   8  13  ar  
 17   9  14  ar  
 18   9  26  1   
 19  10  15  1   
 20  10  16  1   
 21  10  27  1   
 22  11  16  1   
 23  11  28  1   
 24  11  29  1   
 25  13  17  ar  
 26  13  30  1   
 27  14  17  ar  
 28  14  18  1   
 29  15  19  ar  
 30  15  20  ar  
 31  16  21  1   
 32  16  31  1   
 33  17  32  1   
 34  18  33  1   
 35  18  34  1   
 36  18  35  1   
 37  21  36  1   
@<TRIPOS>SUBSTRUCTURE
  1 ****   6 GROUP 4 **** **** 0

# MOE 2024.06 (io_trps.svl 2023.06)
