@<TRIPOS>MOLECULE
NONAME
45 47 1 0 0 
SMALL
USER_CHARGES


@<TRIPOS>ATOM
  1 S        0.0910     0.2810     0.2690 S.o2  1 <1>   1.3330 
  2 O       -0.4550     1.6060     0.4600 O.2   1 <1>  -0.6500 
  3 O        0.1340    -0.6420     1.3810 O.2   1 <1>  -0.6500 
  4 N       -0.7910    -0.4710    -0.9730 N.am  1 <1>  -0.8490 
  5 C        1.7180     0.4630    -0.4650 C.3   1 <1>  -0.0550 
  6 C       -2.2220    -0.1620    -0.8990 C.3   1 <1>   0.1160 
  7 C       -0.5990    -1.9240    -1.0230 C.3   1 <1>   0.1160 
  8 C        2.7500     1.1360     0.4590 C.3   1 <1>  -0.0800 
  9 C        4.0230     1.5030    -0.3130 C.3   1 <1>   0.2200 
 10 C        3.2750     0.1650     1.5190 C.3   1 <1>   0.1200 
 11 N        4.3790     2.9430    -0.1890 N.am  1 <1>  -0.7300 
 12 C        5.0920     0.5710     0.2640 C.3   1 <1>   0.1200 
 13 O        4.3850    -0.4250     0.9300 O.3   1 <1>  -0.5600 
 14 C        4.5950     3.6780     0.9430 C.2   1 <1>   0.5440 
 15 O        4.4850     3.1190     2.0170 O.2   1 <1>  -0.5700 
 16 C        4.9160     5.0960     0.8980 C.ar  1 <1>   0.0860 
 17 C        5.5840     5.7110    -0.2010 C.ar  1 <1>   0.3100 
 18 C        4.5560     5.8860     1.9780 C.ar  1 <1>  -0.1500 
 19 N        5.9700     4.9810    -1.2950 N.ar  1 <1>  -0.6200 
 20 C        5.8540     7.1070    -0.1450 C.ar  1 <1>   0.3100 
 21 C        4.8200     7.2510     2.0250 C.ar  1 <1>  -0.1500 
 22 C        6.5810     5.6550    -2.2200 C.ar  1 <1>   0.1600 
 23 N        6.4910     7.7750    -1.1420 N.ar  1 <1>  -0.6200 
 24 C        5.4600     7.8470     0.9760 C.ar  1 <1>  -0.1500 
 25 C        6.8380     7.0350    -2.1440 C.ar  1 <1>   0.1600 
 26 H        2.0900    -0.4970    -0.7650 H     1 <1>   0.0800 
 27 H        1.6100     1.0620    -1.3480 H     1 <1>   0.0800 
 28 H       -2.7510    -0.6430    -1.7040 H     1 <1>   0.0800 
 29 H       -2.3750     0.9010    -0.9850 H     1 <1>   0.0800 
 30 H       -2.6280    -0.4940     0.0420 H     1 <1>   0.0800 
 31 H       -1.1040    -2.3350    -1.8800 H     1 <1>   0.0800 
 32 H       -0.9900    -2.3870    -0.1310 H     1 <1>   0.0800 
 33 H        0.4480    -2.1600    -1.1020 H     1 <1>   0.0800 
 34 H        2.3040     1.9960     0.9290 H     1 <1>   0.0800 
 35 H        3.9040     1.2770    -1.3580 H     1 <1>   0.0800 
 36 H        2.5770    -0.6010     1.8030 H     1 <1>   0.0800 
 37 H        3.6060     0.6960     2.3960 H     1 <1>   0.0800 
 38 H        4.7110     3.3860    -1.0560 H     1 <1>   0.3700 
 39 H        5.7130     1.0740     0.9850 H     1 <1>   0.0800 
 40 H        5.6960     0.1160    -0.5010 H     1 <1>   0.0800 
 41 H        4.0510     5.4380     2.8190 H     1 <1>   0.1500 
 42 H        4.5180     7.8220     2.8870 H     1 <1>   0.1500 
 43 H        6.9160     5.1360    -3.1010 H     1 <1>   0.1500 
 44 H        5.6770     8.9010     0.9850 H     1 <1>   0.1500 
 45 H        7.3510     7.4960    -2.9700 H     1 <1>   0.1500 
@<TRIPOS>BOND
  1   1   2  2   
  2   1   3  2   
  3   1   4  am  
  4   1   5  1   
  5   4   6  1   
  6   4   7  1   
  7   5   8  1   
  8   5  26  1   
  9   5  27  1   
 10   6  28  1   
 11   6  29  1   
 12   6  30  1   
 13   7  31  1   
 14   7  32  1   
 15   7  33  1   
 16   8   9  1   
 17   8  10  1   
 18   8  34  1   
 19   9  11  1   
 20   9  12  1   
 21   9  35  1   
 22  10  13  1   
 23  10  36  1   
 24  10  37  1   
 25  11  14  am  
 26  11  38  1   
 27  12  13  1   
 28  12  39  1   
 29  12  40  1   
 30  14  15  2   
 31  14  16  1   
 32  16  17  ar  
 33  16  18  ar  
 34  17  19  ar  
 35  17  20  ar  
 36  18  21  ar  
 37  18  41  1   
 38  19  22  ar  
 39  20  23  ar  
 40  20  24  ar  
 41  21  24  ar  
 42  21  42  1   
 43  22  25  ar  
 44  22  43  1   
 45  23  25  ar  
 46  24  44  1   
 47  25  45  1   
@<TRIPOS>SUBSTRUCTURE
  1 ****  11 GROUP 4 **** **** 0

# MOE 2024.06 (io_trps.svl 2023.06)
