@<TRIPOS>MOLECULE
NONAME
43 44 1 0 0 
SMALL
USER_CHARGES


@<TRIPOS>ATOM
  1 N       -0.4050     0.1190    -0.7940 N.ar  1 <1>  -0.6200 
  2 C       -1.3580     0.5120     0.0250 C.ar  1 <1>   0.4100 
  3 C        0.2540     1.0720    -1.4170 C.ar  1 <1>   0.4760 
  4 N       -2.0640    -0.4620     0.6830 N.pl3 1 <1>  -0.8690 
  5 C       -1.6510     1.8590     0.2060 C.ar  1 <1>  -0.1430 
  6 N        0.0660     2.3730    -1.3340 N.ar  1 <1>  -0.6200 
  7 C        1.3570     0.6280    -2.3470 C.3   1 <1>  -0.0970 
  8 C       -2.1220    -1.8690     0.2840 C.3   1 <1>   0.4690 
  9 C       -0.8920     2.7510    -0.5130 C.ar  1 <1>   0.1600 
 10 C       -2.7720     2.2810     1.1640 C.3   1 <1>  -0.0160 
 11 C       -3.5460    -2.0960    -0.1880 C.2   1 <1>  -0.3320 
 12 C       -1.7260    -2.7210     1.4960 C.3   1 <1>  -0.1600 
 13 C       -2.9840     3.7960     1.3030 C.3   1 <1>  -0.1600 
 14 N       -3.9940    -1.6520    -1.3840 N.pl3 1 <1>   0.3140 
 15 C       -4.5920    -2.7130     0.4100 C.2   1 <1>  -0.1500 
 16 C       -1.6110    -4.2200     1.1700 C.3   1 <1>  -0.2400 
 17 C       -4.1170     4.1110     2.2850 C.3   1 <1>  -0.2400 
 18 N       -5.2890    -1.9650    -1.5700 N.2   1 <1>  -0.7070 
 19 C       -3.2530    -0.9000    -2.4100 C.3   1 <1>   0.0160 
 20 C       -5.6380    -2.6000    -0.4950 C.2   1 <1>   0.1390 
 21 H       -2.9330    -0.1810     1.1330 H     1 <1>   0.4000 
 22 H        1.5420    -0.4250    -2.2390 H     1 <1>   0.0800 
 23 H        2.2580     1.1650    -2.1170 H     1 <1>   0.0800 
 24 H        1.0720     0.8350    -3.3610 H     1 <1>   0.0800 
 25 H       -1.4340    -2.0760    -0.5180 H     1 <1>   0.0800 
 26 H       -1.0550     3.8100    -0.4300 H     1 <1>   0.1500 
 27 H       -2.5520     1.8760     2.1370 H     1 <1>   0.0800 
 28 H       -3.6920     1.8370     0.8250 H     1 <1>   0.0800 
 29 H       -2.4400    -2.5770     2.2860 H     1 <1>   0.0800 
 30 H       -0.7690    -2.3780     1.8460 H     1 <1>   0.0800 
 31 H       -3.2290     4.2170     0.3430 H     1 <1>   0.0800 
 32 H       -2.0770     4.2570     1.6580 H     1 <1>   0.0800 
 33 H       -4.6450    -3.1950     1.3690 H     1 <1>   0.1500 
 34 H       -2.5500    -4.6130     0.8230 H     1 <1>   0.0800 
 35 H       -1.3170    -4.7650     2.0490 H     1 <1>   0.0800 
 36 H       -0.8700    -4.3790     0.4060 H     1 <1>   0.0800 
 37 H       -5.0430     3.6800     1.9450 H     1 <1>   0.0800 
 38 H       -4.2470     5.1760     2.3660 H     1 <1>   0.0800 
 39 H       -3.8900     3.7220     3.2620 H     1 <1>   0.0800 
 40 H       -2.2780    -1.3280    -2.5390 H     1 <1>   0.0800 
 41 H       -3.1630     0.1230    -2.0980 H     1 <1>   0.0800 
 42 H       -3.7920    -0.9460    -3.3380 H     1 <1>   0.0800 
 43 H       -6.6290    -2.9900    -0.3340 H     1 <1>   0.1500 
@<TRIPOS>BOND
  1   1   2  ar  
  2   1   3  ar  
  3   2   4  1   
  4   2   5  ar  
  5   3   6  ar  
  6   3   7  1   
  7   4   8  1   
  8   4  21  1   
  9   5   9  ar  
 10   5  10  1   
 11   6   9  ar  
 12   7  22  1   
 13   7  23  1   
 14   7  24  1   
 15   8  11  1   
 16   8  12  1   
 17   8  25  1   
 18   9  26  1   
 19  10  13  1   
 20  10  27  1   
 21  10  28  1   
 22  11  14  1   
 23  11  15  2   
 24  12  16  1   
 25  12  29  1   
 26  12  30  1   
 27  13  17  1   
 28  13  31  1   
 29  13  32  1   
 30  14  18  1   
 31  14  19  1   
 32  15  20  1   
 33  15  33  1   
 34  16  34  1   
 35  16  35  1   
 36  16  36  1   
 37  17  37  1   
 38  17  38  1   
 39  17  39  1   
 40  18  20  2   
 41  19  40  1   
 42  19  41  1   
 43  19  42  1   
 44  20  43  1   
@<TRIPOS>SUBSTRUCTURE
  1 ****   4 GROUP 4 **** **** 0

# MOE 2024.06 (io_trps.svl 2023.06)
