@<TRIPOS>MOLECULE
NONAME
55 57 1 0 0 
SMALL
USER_CHARGES


@<TRIPOS>ATOM
  1 CL      -1.2790     0.0430    -2.2480 Cl    1 <1>  -0.1770 
  2 C       -2.7240     0.3350    -1.3190 C.ar  1 <1>   0.1770 
  3 C       -3.8530     0.8200    -1.9500 C.ar  1 <1>  -0.1500 
  4 C       -2.7240     0.0800     0.0390 C.ar  1 <1>  -0.1500 
  5 C       -4.9990     1.0490    -1.2090 C.ar  1 <1>  -0.1500 
  6 C       -3.8760     0.3100     0.7700 C.ar  1 <1>  -0.1500 
  7 C       -5.0390     0.7930     0.1650 C.ar  1 <1>   0.0530 
  8 C       -6.2340     1.0110     0.9390 C.2   1 <1>   0.0870 
  9 O       -6.1660     1.3320     2.2070 O.3   1 <1>  -0.0190 
 10 C       -7.5530     0.9310     0.6260 C.2   1 <1>  -0.0860 
 11 N       -7.3430     1.4770     2.7600 N.2   1 <1>  -0.4100 
 12 C       -8.1900     1.2510     1.8250 C.2   1 <1>   0.3720 
 13 C       -8.2000     0.5690    -0.5920 C.2   1 <1>   0.7160 
 14 N       -9.5530     1.3160     2.0610 N.pl3 1 <1>  -0.8520 
 15 O       -8.4830     1.4380    -1.3970 O.2   1 <1>  -0.5700 
 16 N       -8.4850    -0.7450    -0.8970 N.am  1 <1>  -0.6600 
 17 C      -10.2990     2.3490     1.2840 C.3   1 <1>   0.2090 
 18 C       -7.8820    -1.8820    -0.1360 C.3   1 <1>   0.1400 
 19 C       -9.4520    -1.0640    -2.0010 C.3   1 <1>   0.1400 
 20 C      -11.4050     1.6950     0.4590 C.3   1 <1>   0.1200 
 21 C       -8.7760    -2.3310     1.0340 C.3   1 <1>   0.2000 
 22 C      -10.3250    -2.3080    -1.7580 C.3   1 <1>   0.1400 
 23 O      -12.1960     2.6900    -0.1120 O.3   1 <1>  -0.5600 
 24 O       -8.0230    -3.1500     1.8690 O.3   1 <1>  -0.6800 
 25 C      -10.0320    -3.1110     0.6120 C.3   1 <1>   0.1400 
 26 N      -10.8680    -2.3540    -0.3680 N.am  1 <1>  -0.6600 
 27 C      -13.1500     2.1850    -0.9900 C.3   1 <1>   0.0400 
 28 C      -12.0190    -1.6800    -0.0560 C.2   1 <1>   0.5690 
 29 O      -12.6380    -1.0590    -0.8860 O.2   1 <1>  -0.5700 
 30 C      -12.5530    -1.6770     1.3570 C.3   1 <1>  -0.1790 
 31 H       -3.8300     1.0190    -3.0070 H     1 <1>   0.1500 
 32 H       -1.8330    -0.2930     0.5120 H     1 <1>   0.1500 
 33 H       -5.8690     1.4410    -1.7070 H     1 <1>   0.1500 
 34 H       -3.8760     0.1110     1.8290 H     1 <1>   0.1500 
 35 H       -9.6830     1.4910     3.0630 H     1 <1>   0.4000 
 36 H       -9.6350     2.8840     0.6260 H     1 <1>   0.0800 
 37 H      -10.7410     3.0510     1.9690 H     1 <1>   0.0800 
 38 H       -6.9280    -1.5760     0.2560 H     1 <1>   0.0800 
 39 H       -7.7090    -2.7050    -0.8060 H     1 <1>   0.0800 
 40 H       -8.9060    -1.1900    -2.9190 H     1 <1>   0.0800 
 41 H      -10.1170    -0.2280    -2.1420 H     1 <1>   0.0800 
 42 H      -12.0310     1.0920     1.0900 H     1 <1>   0.0800 
 43 H      -10.9780     1.0970    -0.3260 H     1 <1>   0.0800 
 44 H       -9.0630    -1.4740     1.6200 H     1 <1>   0.0800 
 45 H       -9.7520    -3.1960    -1.9570 H     1 <1>   0.0800 
 46 H      -11.1410    -2.2980    -2.4600 H     1 <1>   0.0800 
 47 H       -7.7030    -3.9440     1.4010 H     1 <1>   0.4000 
 48 H      -10.6050    -3.3400     1.4920 H     1 <1>   0.0800 
 49 H       -9.7420    -4.0430     0.1620 H     1 <1>   0.0800 
 50 H      -13.7220     3.0080    -1.3780 H     1 <1>   0.0800 
 51 H      -13.7980     1.5050    -0.4630 H     1 <1>   0.0800 
 52 H      -12.6540     1.6730    -1.7980 H     1 <1>   0.0800 
 53 H      -11.8060    -1.2990     2.0300 H     1 <1>   0.0800 
 54 H      -12.8350    -2.6720     1.6430 H     1 <1>   0.0800 
 55 H      -13.4200    -1.0440     1.4160 H     1 <1>   0.0800 
@<TRIPOS>BOND
  1   1   2  1   
  2   2   3  ar  
  3   2   4  ar  
  4   3   5  ar  
  5   3  31  1   
  6   4   6  ar  
  7   4  32  1   
  8   5   7  ar  
  9   5  33  1   
 10   6   7  ar  
 11   6  34  1   
 12   7   8  1   
 13   8   9  1   
 14   8  10  2   
 15   9  11  1   
 16  10  12  1   
 17  10  13  1   
 18  11  12  2   
 19  12  14  1   
 20  13  15  2   
 21  13  16  am  
 22  14  17  1   
 23  14  35  1   
 24  16  18  1   
 25  16  19  1   
 26  17  20  1   
 27  17  36  1   
 28  17  37  1   
 29  18  21  1   
 30  18  38  1   
 31  18  39  1   
 32  19  22  1   
 33  19  40  1   
 34  19  41  1   
 35  20  23  1   
 36  20  42  1   
 37  20  43  1   
 38  21  24  1   
 39  21  25  1   
 40  21  44  1   
 41  22  26  1   
 42  22  45  1   
 43  22  46  1   
 44  23  27  1   
 45  24  47  1   
 46  25  26  1   
 47  25  48  1   
 48  25  49  1   
 49  26  28  am  
 50  27  50  1   
 51  27  51  1   
 52  27  52  1   
 53  28  29  2   
 54  28  30  1   
 55  30  53  1   
 56  30  54  1   
 57  30  55  1   
@<TRIPOS>SUBSTRUCTURE
  1 ****  13 GROUP 4 **** **** 0

# MOE 2024.06 (io_trps.svl 2023.06)
