@<TRIPOS>MOLECULE
NONAME
45 48 1 0 0 
SMALL
USER_CHARGES


@<TRIPOS>ATOM
  1 CL      -0.2210    -1.2480    -2.4300 Cl    1 <1>  -0.1770 
  2 C       -1.1300    -2.4330    -1.5300 C.ar  1 <1>   0.1770 
  3 C       -2.2340    -3.0300    -2.1080 C.ar  1 <1>  -0.1500 
  4 C       -0.7360    -2.7610    -0.2470 C.ar  1 <1>  -0.1500 
  5 C       -2.9520    -3.9680    -1.3880 C.ar  1 <1>  -0.1500 
  6 C       -1.4610    -3.7020     0.4620 C.ar  1 <1>  -0.1500 
  7 C       -2.5830    -4.3290    -0.0880 C.ar  1 <1>   0.0530 
  8 C       -3.3240    -5.3080     0.6700 C.2   1 <1>   0.0870 
  9 O       -3.3020    -5.2880     1.9830 O.3   1 <1>  -0.0190 
 10 C       -4.1300    -6.3380     0.3140 C.2   1 <1>  -0.2330 
 11 N       -4.0420    -6.2250     2.5180 N.2   1 <1>  -0.4100 
 12 C       -4.5380    -6.8830     1.5310 C.2   1 <1>   0.3720 
 13 C       -4.5610    -6.7830    -0.9630 C.2   1 <1>   1.0330 
 14 N       -5.4120    -7.9630     1.7230 N.pl3 1 <1>  -0.8210 
 15 O       -5.5770    -6.2890    -1.4890 O.co2 1 <1>  -0.9000 
 16 O       -4.0620    -7.7830    -1.5010 O.co2 1 <1>  -0.9000 
 17 C       -5.5240    -9.1620     0.8660 C.3   1 <1>   0.2890 
 18 C       -6.4720    -7.9580     2.7300 C.3   1 <1>   0.2890 
 19 C       -6.5470    -9.0000    -0.2980 C.3   1 <1>   0.3430 
 20 C       -6.0000   -10.2100     1.8680 C.3   1 <1>  -0.1600 
 21 C       -7.6260    -7.0980     2.1960 C.3   1 <1>  -0.1600 
 22 C       -6.8440    -9.4400     2.8920 C.3   1 <1>  -0.1600 
 23 N       -7.8680    -8.2970    -0.0250 N.4   1 <1>  -0.9590 
 24 C       -7.6960    -6.9800     0.6660 C.3   1 <1>   0.3430 
 25 C       -8.4560    -8.0090    -1.3640 C.3   1 <1>   0.2630 
 26 H       -2.5270    -2.7640    -3.1070 H     1 <1>   0.1500 
 27 H        0.1250    -2.2860     0.1850 H     1 <1>   0.1500 
 28 H       -3.8140    -4.4210    -1.8450 H     1 <1>   0.1500 
 29 H       -1.1540    -3.9620     1.4610 H     1 <1>   0.1500 
 30 H       -4.5610    -9.4310     0.4650 H     1 <1>   0.0800 
 31 H       -6.0990    -7.5630     3.6610 H     1 <1>   0.0800 
 32 H       -6.7540    -9.9850    -0.6760 H     1 <1>   0.0800 
 33 H       -6.0600    -8.4930    -1.1060 H     1 <1>   0.0800 
 34 H       -6.5380   -11.0170     1.4050 H     1 <1>   0.0800 
 35 H       -5.1320   -10.6170     2.3580 H     1 <1>   0.0800 
 36 H       -8.5680    -7.4220     2.5970 H     1 <1>   0.0800 
 37 H       -7.4660    -6.1040     2.5720 H     1 <1>   0.0800 
 38 H       -6.6100    -9.7680     3.8900 H     1 <1>   0.0800 
 39 H       -7.8920    -9.6040     2.7250 H     1 <1>   0.0800 
 40 H       -8.4700    -8.8990     0.5400 H     1 <1>   0.4500 
 41 H       -6.8030    -6.4970     0.3090 H     1 <1>   0.0800 
 42 H       -8.5210    -6.3340     0.4180 H     1 <1>   0.0800 
 43 H       -7.7850    -7.3710    -1.9230 H     1 <1>   0.0800 
 44 H       -9.4030    -7.5070    -1.2610 H     1 <1>   0.0800 
 45 H       -8.6000    -8.9220    -1.9170 H     1 <1>   0.0800 
@<TRIPOS>BOND
  1   1   2  1   
  2   2   3  ar  
  3   2   4  ar  
  4   3   5  ar  
  5   3  26  1   
  6   4   6  ar  
  7   4  27  1   
  8   5   7  ar  
  9   5  28  1   
 10   6   7  ar  
 11   6  29  1   
 12   7   8  1   
 13   8   9  1   
 14   8  10  2   
 15   9  11  1   
 16  10  12  1   
 17  10  13  1   
 18  11  12  2   
 19  12  14  1   
 20  13  15  ar  
 21  13  16  ar  
 22  14  17  1   
 23  14  18  1   
 24  17  19  1   
 25  17  20  1   
 26  17  30  1   
 27  18  21  1   
 28  18  22  1   
 29  18  31  1   
 30  19  23  1   
 31  19  32  1   
 32  19  33  1   
 33  20  22  1   
 34  20  34  1   
 35  20  35  1   
 36  21  24  1   
 37  21  36  1   
 38  21  37  1   
 39  22  38  1   
 40  22  39  1   
 41  23  24  1   
 42  23  25  1   
 43  23  40  1   
 44  24  41  1   
 45  24  42  1   
 46  25  43  1   
 47  25  44  1   
 48  25  45  1   
@<TRIPOS>SUBSTRUCTURE
  1 ****  10 GROUP 4 **** **** 0

# MOE 2024.06 (io_trps.svl 2023.06)
