@<TRIPOS>MOLECULE
NONAME
44 47 1 0 0 
SMALL
USER_CHARGES


@<TRIPOS>ATOM
  1 O        0.9780    -0.7020     1.4780 O.3   1 <1>  -0.0190 
  2 N        0.8880    -1.8710     2.0340 N.2   1 <1>  -0.4100 
  3 C        1.3110    -0.9620     0.2370 C.2   1 <1>   0.2980 
  4 C        1.1540    -2.7370     1.1380 C.2   1 <1>   0.3350 
  5 N        1.4410    -2.2000    -0.0450 N.2   1 <1>  -0.5650 
  6 C        1.4870     0.2030    -0.7360 C.3   1 <1>   0.3800 
  7 C        1.1880    -4.2520     1.3670 C.3   1 <1>   0.2910 
  8 O        2.3680     1.1660    -0.2180 O.3   1 <1>  -0.5600 
  9 C        0.1780     0.9420    -1.0390 C.3   1 <1>  -0.1600 
 10 N       -0.0890    -4.9650     1.0850 N.3   1 <1>  -0.8100 
 11 C        1.6900     2.3200     0.1500 C.3   1 <1>   0.1200 
 12 C        0.5130     2.4040    -0.8060 C.3   1 <1>  -0.1600 
 13 C        0.0140    -6.3900     1.4950 C.3   1 <1>   0.2900 
 14 C       -0.5050    -4.8100    -0.3190 C.3   1 <1>   0.0300 
 15 C       -1.3160    -7.1430     1.5520 C.2   1 <1>   0.2980 
 16 O       -1.8880    -7.5260     0.4450 O.3   1 <1>  -0.2800 
 17 N       -1.9290    -7.4830     2.6170 N.2   1 <1>  -0.3380 
 18 C       -2.9510    -8.1290     0.9250 C.2   1 <1>   0.4250 
 19 N       -3.0000    -8.1250     2.2130 N.2   1 <1>  -0.3380 
 20 C       -3.9190    -8.7170     0.0200 C.ar  1 <1>   0.0530 
 21 C       -3.7600    -8.6600    -1.3670 C.ar  1 <1>  -0.1500 
 22 C       -5.0560    -9.3680     0.5030 C.ar  1 <1>  -0.1500 
 23 C       -4.6860    -9.2230    -2.2260 C.ar  1 <1>  -0.1500 
 24 C       -5.9860    -9.9330    -0.3500 C.ar  1 <1>  -0.1500 
 25 C       -5.8020    -9.8620    -1.7180 C.ar  1 <1>  -0.1500 
 26 H        1.9260    -0.1630    -1.6470 H     1 <1>   0.0800 
 27 H        1.4490    -4.4060     2.3990 H     1 <1>   0.0800 
 28 H        1.9750    -4.6670     0.7620 H     1 <1>   0.0800 
 29 H       -0.5930     0.6220    -0.3590 H     1 <1>   0.0800 
 30 H       -0.1520     0.7560    -2.0450 H     1 <1>   0.0800 
 31 H        2.3540     3.1640     0.0720 H     1 <1>   0.0800 
 32 H        1.3580     2.2010     1.1690 H     1 <1>   0.0800 
 33 H       -0.3080     2.9600    -0.3880 H     1 <1>   0.0800 
 34 H        0.8340     2.8700    -1.7210 H     1 <1>   0.0800 
 35 H        0.4360    -6.4340     2.4840 H     1 <1>   0.0800 
 36 H        0.6790    -6.9120     0.8300 H     1 <1>   0.0800 
 37 H       -0.6190    -3.7670    -0.5600 H     1 <1>   0.0800 
 38 H       -1.4600    -5.2760    -0.4830 H     1 <1>   0.0800 
 39 H        0.2220    -5.2450    -0.9830 H     1 <1>   0.0800 
 40 H       -2.8990    -8.1670    -1.7840 H     1 <1>   0.1500 
 41 H       -5.2140    -9.4320     1.5670 H     1 <1>   0.1500 
 42 H       -4.5400    -9.1660    -3.2910 H     1 <1>   0.1500 
 43 H       -6.8530   -10.4290     0.0510 H     1 <1>   0.1500 
 44 H       -6.5250   -10.3020    -2.3850 H     1 <1>   0.1500 
@<TRIPOS>BOND
  1   1   2  1   
  2   1   3  1   
  3   2   4  2   
  4   3   5  2   
  5   3   6  1   
  6   4   5  1   
  7   4   7  1   
  8   6   8  1   
  9   6   9  1   
 10   6  26  1   
 11   7  10  1   
 12   7  27  1   
 13   7  28  1   
 14   8  11  1   
 15   9  12  1   
 16   9  29  1   
 17   9  30  1   
 18  10  13  1   
 19  10  14  1   
 20  11  12  1   
 21  11  31  1   
 22  11  32  1   
 23  12  33  1   
 24  12  34  1   
 25  13  15  1   
 26  13  35  1   
 27  13  36  1   
 28  14  37  1   
 29  14  38  1   
 30  14  39  1   
 31  15  16  1   
 32  15  17  2   
 33  16  18  1   
 34  17  19  1   
 35  18  19  2   
 36  18  20  1   
 37  20  21  ar  
 38  20  22  ar  
 39  21  23  ar  
 40  21  40  1   
 41  22  24  ar  
 42  22  41  1   
 43  23  25  ar  
 44  23  42  1   
 45  24  25  ar  
 46  24  43  1   
 47  25  44  1   
@<TRIPOS>SUBSTRUCTURE
  1 ****  14 GROUP 4 **** **** 0

# MOE 2024.06 (io_trps.svl 2023.06)
