@<TRIPOS>MOLECULE
NONAME
44 46 1 0 0 
SMALL
USER_CHARGES


@<TRIPOS>ATOM
  1 O       -0.2200    -2.8870    -1.7290 O.3   1 <1>  -0.6800 
  2 C        0.1300    -1.7320    -1.0460 C.3   1 <1>   0.1200 
  3 C        1.1630    -2.0000     0.0880 C.3   1 <1>   0.0000 
  4 C        2.5530    -2.4990    -0.4140 C.3   1 <1>   0.4230 
  5 C        1.4110    -0.6430     0.8010 C.3   1 <1>  -0.1600 
  6 C        0.5750    -2.9900     1.1390 C.3   1 <1>  -0.1600 
  7 N        2.6170    -3.9400    -0.9030 N.4   1 <1>  -0.9590 
  8 C        3.2200    -1.4650    -1.3480 C.3   1 <1>   0.2090 
  9 C        2.1260     0.4080    -0.0650 C.3   1 <1>   0.2090 
 10 C        1.2720    -4.3620     1.1530 C.3   1 <1>  -0.1600 
 11 C        1.5960    -4.8280    -0.2650 C.3   1 <1>   0.3430 
 12 C        2.5480    -4.1010    -2.3900 C.3   1 <1>   0.2630 
 13 N        3.3790    -0.1650    -0.6310 N.pl3 1 <1>  -0.8380 
 14 C        4.5700     0.0770     0.0370 C.ar  1 <1>   0.4100 
 15 N        5.0580    -0.9690     0.7040 N.ar  1 <1>  -0.6200 
 16 C        5.1910     1.3360     0.0030 C.ar  1 <1>   0.0730 
 17 C        6.1850    -0.7680     1.3650 C.ar  1 <1>   0.1600 
 18 C        4.6220     2.4150    -0.7440 C.1   1 <1>   0.4840 
 19 C        6.3700     1.5120     0.7040 C.ar  1 <1>  -0.1500 
 20 C        6.8710     0.4320     1.3990 C.ar  1 <1>  -0.1500 
 21 N        4.1610     3.2900    -1.3130 N.1   1 <1>  -0.5570 
 22 H       -1.0170    -2.7260    -2.2800 H     1 <1>   0.4000 
 23 H        0.5020    -1.0280    -1.7700 H     1 <1>   0.0800 
 24 H       -0.7730    -1.3260    -0.6210 H     1 <1>   0.0800 
 25 H        3.1680    -2.4830     0.4700 H     1 <1>   0.0800 
 26 H        2.0240    -0.7990     1.6730 H     1 <1>   0.0800 
 27 H        0.4790    -0.2280     1.1440 H     1 <1>   0.0800 
 28 H        0.6350    -2.5840     2.1350 H     1 <1>   0.0800 
 29 H       -0.4740    -3.1430     0.9430 H     1 <1>   0.0800 
 30 H        3.5370    -4.2800    -0.5950 H     1 <1>   0.4500 
 31 H        2.6320    -1.3070    -2.2340 H     1 <1>   0.0800 
 32 H        4.1920    -1.8190    -1.6420 H     1 <1>   0.0800 
 33 H        2.3560     1.2680     0.5420 H     1 <1>   0.0800 
 34 H        1.4930     0.7430    -0.8700 H     1 <1>   0.0800 
 35 H        0.6220    -5.0800     1.6200 H     1 <1>   0.0800 
 36 H        2.1770    -4.3210     1.7350 H     1 <1>   0.0800 
 37 H        0.6870    -4.8140    -0.8430 H     1 <1>   0.0800 
 38 H        1.9580    -5.8440    -0.2430 H     1 <1>   0.0800 
 39 H        1.6200    -3.7090    -2.7700 H     1 <1>   0.0800 
 40 H        2.6100    -5.1440    -2.6540 H     1 <1>   0.0800 
 41 H        3.3630    -3.5810    -2.8660 H     1 <1>   0.0800 
 42 H        6.5890    -1.6030     1.9130 H     1 <1>   0.1500 
 43 H        6.8820     2.4600     0.7080 H     1 <1>   0.1500 
 44 H        7.7840     0.5180     1.9610 H     1 <1>   0.1500 
@<TRIPOS>BOND
  1   1   2  1   
  2   1  22  1   
  3   2   3  1   
  4   2  23  1   
  5   2  24  1   
  6   3   4  1   
  7   3   5  1   
  8   3   6  1   
  9   4   7  1   
 10   4   8  1   
 11   4  25  1   
 12   5   9  1   
 13   5  26  1   
 14   5  27  1   
 15   6  10  1   
 16   6  28  1   
 17   6  29  1   
 18   7  11  1   
 19   7  12  1   
 20   7  30  1   
 21   8  13  1   
 22   8  31  1   
 23   8  32  1   
 24   9  13  1   
 25   9  33  1   
 26   9  34  1   
 27  10  11  1   
 28  10  35  1   
 29  10  36  1   
 30  11  37  1   
 31  11  38  1   
 32  12  39  1   
 33  12  40  1   
 34  12  41  1   
 35  13  14  1   
 36  14  15  ar  
 37  14  16  ar  
 38  15  17  ar  
 39  16  18  1   
 40  16  19  ar  
 41  17  20  ar  
 42  17  42  1   
 43  18  21  3   
 44  19  20  ar  
 45  19  43  1   
 46  20  44  1   
@<TRIPOS>SUBSTRUCTURE
  1 ****  13 GROUP 4 **** **** 0

# MOE 2024.06 (io_trps.svl 2023.06)
