@<TRIPOS>MOLECULE
NONAME
50 53 1 0 0 
SMALL
USER_CHARGES


@<TRIPOS>ATOM
  1 O        1.0540    -0.4460     2.2450 O.2   1 <1>  -0.5700 
  2 C        1.5140    -0.8200     1.1930 C.2   1 <1>   0.5690 
  3 N        2.2780    -0.0250     0.3630 N.am  1 <1>  -0.4770 
  4 C        1.1410    -2.2500     0.7750 C.3   1 <1>   0.4040 
  5 C        2.5340     1.3500     0.4850 C.ar  1 <1>   0.1170 
  6 C        3.0240    -0.5360    -0.8280 C.3   1 <1>   0.1400 
  7 N       -0.2080    -2.4190     0.0820 N.4   1 <1>  -0.9590 
  8 C        3.3790     1.7980    -0.5070 C.ar  1 <1>  -0.1440 
  9 C        2.0540     2.2570     1.4240 C.ar  1 <1>  -0.1500 
 10 C        3.7840     0.6660    -1.4120 C.3   1 <1>  -0.0170 
 11 C       -1.3000    -1.7470     0.8730 C.3   1 <1>   0.4230 
 12 C       -0.4190    -3.8740    -0.2110 C.3   1 <1>   0.2630 
 13 C        3.7610     3.1220    -0.5960 C.ar  1 <1>  -0.1500 
 14 C        2.4290     3.5880     1.3470 C.ar  1 <1>  -0.1500 
 15 C       -2.6880    -2.3760     0.7030 C.3   1 <1>  -0.1600 
 16 C       -1.5320    -0.3560     0.2780 C.3   1 <1>  -0.1600 
 17 C        3.2790     4.0210     0.3400 C.ar  1 <1>  -0.1500 
 18 C       -3.2140    -1.8770    -0.6510 C.3   1 <1>  -0.0800 
 19 C       -2.4730    -0.5600    -0.9210 C.3   1 <1>  -0.0800 
 20 C       -4.7140    -1.5470    -0.6550 C.3   1 <1>  -0.1600 
 21 C       -3.5460     0.5290    -1.0730 C.3   1 <1>  -0.1600 
 22 C       -4.8250    -0.0380    -0.4640 C.3   1 <1>   0.2000 
 23 O       -4.8210     0.2340     0.8860 O.3   1 <1>  -0.6800 
 24 H        1.1410    -2.8400     1.6750 H     1 <1>   0.0800 
 25 H        1.9210    -2.6340     0.1420 H     1 <1>   0.0800 
 26 H        3.7220    -1.2990    -0.5270 H     1 <1>   0.0800 
 27 H        2.3380    -0.9260    -1.5590 H     1 <1>   0.0800 
 28 H       -0.1840    -1.9080    -0.8100 H     1 <1>   0.4500 
 29 H        1.3970     1.9420     2.2120 H     1 <1>   0.1500 
 30 H        4.8470     0.5070    -1.3700 H     1 <1>   0.0800 
 31 H        3.4860     0.8590    -2.4270 H     1 <1>   0.0800 
 32 H       -1.0320    -1.6900     1.9180 H     1 <1>   0.0800 
 33 H       -0.5170    -4.4300     0.7080 H     1 <1>   0.0800 
 34 H        0.4120    -4.2710    -0.7700 H     1 <1>   0.0800 
 35 H       -1.3150    -4.0130    -0.7940 H     1 <1>   0.0800 
 36 H        4.4230     3.4540    -1.3770 H     1 <1>   0.1500 
 37 H        2.0590     4.2910     2.0740 H     1 <1>   0.1500 
 38 H       -2.7210    -3.4450     0.8030 H     1 <1>   0.0800 
 39 H       -3.3110    -1.9820     1.4870 H     1 <1>   0.0800 
 40 H       -2.0190     0.2450     1.0270 H     1 <1>   0.0800 
 41 H       -0.6340     0.1600    -0.0060 H     1 <1>   0.0800 
 42 H        3.5660     5.0580     0.2880 H     1 <1>   0.1500 
 43 H       -2.9920    -2.5950    -1.4230 H     1 <1>   0.0800 
 44 H       -1.8990    -0.6360    -1.8290 H     1 <1>   0.0800 
 45 H       -5.2820    -2.0940     0.0770 H     1 <1>   0.0800 
 46 H       -5.1110    -1.7830    -1.6270 H     1 <1>   0.0800 
 47 H       -3.7260     0.6840    -2.1220 H     1 <1>   0.0800 
 48 H       -3.2700     1.4770    -0.6420 H     1 <1>   0.0800 
 49 H       -5.7230     0.3780    -0.8910 H     1 <1>   0.0800 
 50 H       -3.9560     0.0090     1.2640 H     1 <1>   0.4000 
@<TRIPOS>BOND
  1   1   2  2   
  2   2   3  am  
  3   2   4  1   
  4   3   5  1   
  5   3   6  1   
  6   4   7  1   
  7   4  24  1   
  8   4  25  1   
  9   5   8  ar  
 10   5   9  ar  
 11   6  10  1   
 12   6  26  1   
 13   6  27  1   
 14   7  11  1   
 15   7  12  1   
 16   7  28  1   
 17   8  10  1   
 18   8  13  ar  
 19   9  14  ar  
 20   9  29  1   
 21  10  30  1   
 22  10  31  1   
 23  11  15  1   
 24  11  16  1   
 25  11  32  1   
 26  12  33  1   
 27  12  34  1   
 28  12  35  1   
 29  13  17  ar  
 30  13  36  1   
 31  14  17  ar  
 32  14  37  1   
 33  15  18  1   
 34  15  38  1   
 35  15  39  1   
 36  16  19  1   
 37  16  40  1   
 38  16  41  1   
 39  17  42  1   
 40  18  19  1   
 41  18  20  1   
 42  18  43  1   
 43  19  21  1   
 44  19  44  1   
 45  20  22  1   
 46  20  45  1   
 47  20  46  1   
 48  21  22  1   
 49  21  47  1   
 50  21  48  1   
 51  22  23  1   
 52  22  49  1   
 53  23  50  1   
@<TRIPOS>SUBSTRUCTURE
  1 ****  16 GROUP 4 **** **** 0

# MOE 2024.06 (io_trps.svl 2023.06)
