@<TRIPOS>MOLECULE
NONAME
29 28 1 0 0 
SMALL
USER_CHARGES


@<TRIPOS>ATOM
  1 O       -0.6490    -0.3220    -0.4390 O.co2 1 <1>  -0.9000 
  2 C       -1.4840    -0.7440     0.3790 C.2   1 <1>   0.9060 
  3 O       -1.3580    -1.7730     1.0380 O.co2 1 <1>  -0.9000 
  4 C       -2.7280     0.1510     0.5390 C.3   1 <1>   0.3170 
  5 N       -2.5500     1.3540    -0.3380 N.4   1 <1>  -0.8530 
  6 C       -4.0300    -0.5720     0.1580 C.3   1 <1>  -0.1600 
  7 C       -5.2960     0.2680     0.4040 C.3   1 <1>  -0.1600 
  8 C       -6.5580    -0.5280     0.0430 C.3   1 <1>  -0.1600 
  9 C       -7.8230     0.2930     0.2950 C.3   1 <1>   0.2090 
 10 N       -8.9980    -0.4740    -0.1620 N.pl3 1 <1>  -0.8190 
 11 C      -10.2370     0.1610    -0.1140 C.2   1 <1>   0.4400 
 12 N      -10.3800     1.4190    -0.0030 N.2   1 <1>  -0.5030 
 13 N      -11.6700     1.9250     0.0300 N.pl3 1 <1>  -0.5690 
 14 H       -2.7700     0.4470     1.5720 H     1 <1>   0.0800 
 15 H       -1.6130     1.1330    -0.7600 H     1 <1>   0.4500 
 16 H       -2.4620     2.2250     0.1830 H     1 <1>   0.4500 
 17 H       -3.2290     1.3820    -1.0960 H     1 <1>   0.4500 
 18 H       -3.9770    -0.8900    -0.8690 H     1 <1>   0.0800 
 19 H       -4.0890    -1.4670     0.7570 H     1 <1>   0.0800 
 20 H       -5.3410     0.5490     1.4440 H     1 <1>   0.0800 
 21 H       -5.2730     1.1680    -0.1860 H     1 <1>   0.0800 
 22 H       -6.5990    -1.4280     0.6330 H     1 <1>   0.0800 
 23 H       -6.5230    -0.8000    -0.9980 H     1 <1>   0.0800 
 24 H       -7.7720     1.2200    -0.2530 H     1 <1>   0.0800 
 25 H       -7.9260     0.5200     1.3430 H     1 <1>   0.0800 
 26 H       -9.0260    -1.4280     0.2010 H     1 <1>   0.4000 
 27 H      -11.0920    -0.4920    -0.1730 H     1 <1>   0.0600 
 28 H      -12.3020     1.5040    -0.6620 H     1 <1>   0.3110 
 29 H      -11.6970     2.9490    -0.0510 H     1 <1>   0.3110 
@<TRIPOS>BOND
  1   1   2  ar  
  2   2   3  ar  
  3   2   4  1   
  4   4   5  1   
  5   4   6  1   
  6   4  14  1   
  7   5  15  1   
  8   5  16  1   
  9   5  17  1   
 10   6   7  1   
 11   6  18  1   
 12   6  19  1   
 13   7   8  1   
 14   7  20  1   
 15   7  21  1   
 16   8   9  1   
 17   8  22  1   
 18   8  23  1   
 19   9  10  1   
 20   9  24  1   
 21   9  25  1   
 22  10  11  1   
 23  10  26  1   
 24  11  12  2   
 25  11  27  1   
 26  12  13  1   
 27  13  28  1   
 28  13  29  1   
@<TRIPOS>SUBSTRUCTURE
  1 ****   7 GROUP 4 **** **** 0

# MOE 2024.06 (io_trps.svl 2023.06)
