@<TRIPOS>MOLECULE
NONAME
55 58 1 0 0 
SMALL
USER_CHARGES


@<TRIPOS>ATOM
  1 O        2.0920    -1.3770     1.7900 O.2   1 <1>  -0.5700 
  2 C        2.1470    -0.3460     1.1600 C.2   1 <1>   0.5690 
  3 N        1.8460    -0.3000    -0.1780 N.am  1 <1>  -0.6600 
  4 C        2.5670     0.9120     1.9010 C.3   1 <1>  -0.0990 
  5 C        1.7390     0.9600    -0.9640 C.3   1 <1>   0.1400 
  6 C        1.4850    -1.5460    -0.9030 C.3   1 <1>   0.1400 
  7 C        2.1290     2.2060     1.2010 C.3   1 <1>  -0.1600 
  8 C        2.4740     2.1210    -0.2880 C.3   1 <1>  -0.1600 
  9 C        0.0010    -1.8460    -0.7100 C.3   1 <1>  -0.0990 
 10 C       -0.2830    -3.2650    -1.1260 C.2   1 <1>   0.5690 
 11 O       -0.7200    -3.4850    -2.2280 O.2   1 <1>  -0.5700 
 12 N       -0.0270    -4.2560    -0.2400 N.am  1 <1>  -0.7300 
 13 C       -0.2480    -5.6940    -0.5100 C.3   1 <1>   0.2200 
 14 C       -1.6220    -6.0900    -0.0010 C.3   1 <1>  -0.0800 
 15 C        0.6800    -6.5470     0.3550 C.3   1 <1>   0.1200 
 16 C       -1.3330    -6.3820     1.4700 C.3   1 <1>   0.1200 
 17 C       -2.1630    -7.3260    -0.7480 C.3   1 <1>  -0.0170 
 18 O       -0.0170    -6.8460     1.5310 O.3   1 <1>  -0.5600 
 19 C       -3.5790    -7.6760    -0.3020 C.ar  1 <1>  -0.1440 
 20 C       -4.7100    -6.9350    -0.7220 C.ar  1 <1>   0.0000 
 21 C       -3.7930    -8.7330     0.5330 C.ar  1 <1>  -0.1500 
 22 C       -5.9770    -7.3370    -0.2330 C.ar  1 <1>   0.3100 
 23 C       -4.6600    -5.8260    -1.5990 C.ar  1 <1>  -0.1500 
 24 C       -5.0900    -9.0490     0.9540 C.ar  1 <1>   0.1600 
 25 N       -6.1500    -8.3930     0.6020 N.ar  1 <1>  -0.6200 
 26 C       -7.1170    -6.6160    -0.6240 C.ar  1 <1>  -0.1500 
 27 C       -5.7910    -5.1460    -1.9620 C.ar  1 <1>  -0.1500 
 28 C       -7.0360    -5.5420    -1.4690 C.ar  1 <1>  -0.1500 
 29 H        2.1580     0.8830     2.8940 H     1 <1>   0.0800 
 30 H        3.6370     0.8940     1.9850 H     1 <1>   0.0800 
 31 H        2.1500     0.8080    -1.9480 H     1 <1>   0.0800 
 32 H        0.6970     1.2080    -1.0690 H     1 <1>   0.0800 
 33 H        1.7150    -1.4540    -1.9510 H     1 <1>   0.0800 
 34 H        2.0730    -2.3580    -0.5090 H     1 <1>   0.0800 
 35 H        1.0670     2.3350     1.3170 H     1 <1>   0.0800 
 36 H        2.6230     3.0490     1.6510 H     1 <1>   0.0800 
 37 H        3.5350     1.9860    -0.4110 H     1 <1>   0.0800 
 38 H        2.2050     3.0400    -0.7780 H     1 <1>   0.0800 
 39 H       -0.5920    -1.1750    -1.3020 H     1 <1>   0.0800 
 40 H       -0.2710    -1.7320     0.3240 H     1 <1>   0.0800 
 41 H        0.3180    -4.0300     0.6980 H     1 <1>   0.3700 
 42 H       -0.1140    -5.8910    -1.5600 H     1 <1>   0.0800 
 43 H       -2.3220    -5.2800    -0.0990 H     1 <1>   0.0800 
 44 H        1.5970    -6.0410     0.6000 H     1 <1>   0.0800 
 45 H        0.8990    -7.4790    -0.1330 H     1 <1>   0.0800 
 46 H       -1.9900    -7.1180     1.8980 H     1 <1>   0.0800 
 47 H       -1.3840    -5.4770     2.0510 H     1 <1>   0.0800 
 48 H       -1.5140    -8.1660    -0.5730 H     1 <1>   0.0800 
 49 H       -2.1630    -7.1460    -1.8080 H     1 <1>   0.0800 
 50 H       -2.9820    -9.3430     0.8890 H     1 <1>   0.1500 
 51 H       -3.7150    -5.5020    -1.9940 H     1 <1>   0.1500 
 52 H       -5.2130    -9.8920     1.6130 H     1 <1>   0.1500 
 53 H       -8.0630    -6.9400    -0.2340 H     1 <1>   0.1500 
 54 H       -5.7350    -4.3020    -2.6280 H     1 <1>   0.1500 
 55 H       -7.9180    -4.9990    -1.7610 H     1 <1>   0.1500 
@<TRIPOS>BOND
  1   1   2  2   
  2   2   3  am  
  3   2   4  1   
  4   3   5  1   
  5   3   6  1   
  6   4   7  1   
  7   4  29  1   
  8   4  30  1   
  9   5   8  1   
 10   5  31  1   
 11   5  32  1   
 12   6   9  1   
 13   6  33  1   
 14   6  34  1   
 15   7   8  1   
 16   7  35  1   
 17   7  36  1   
 18   8  37  1   
 19   8  38  1   
 20   9  10  1   
 21   9  39  1   
 22   9  40  1   
 23  10  11  2   
 24  10  12  am  
 25  12  13  1   
 26  12  41  1   
 27  13  14  1   
 28  13  15  1   
 29  13  42  1   
 30  14  16  1   
 31  14  17  1   
 32  14  43  1   
 33  15  18  1   
 34  15  44  1   
 35  15  45  1   
 36  16  18  1   
 37  16  46  1   
 38  16  47  1   
 39  17  19  1   
 40  17  48  1   
 41  17  49  1   
 42  19  20  ar  
 43  19  21  ar  
 44  20  22  ar  
 45  20  23  ar  
 46  21  24  ar  
 47  21  50  1   
 48  22  25  ar  
 49  22  26  ar  
 50  23  27  ar  
 51  23  51  1   
 52  24  25  ar  
 53  24  52  1   
 54  26  28  ar  
 55  26  53  1   
 56  27  28  ar  
 57  27  54  1   
 58  28  55  1   
@<TRIPOS>SUBSTRUCTURE
  1 ****  12 GROUP 4 **** **** 0

# MOE 2024.06 (io_trps.svl 2023.06)
