@<TRIPOS>MOLECULE
NONAME
46 48 1 0 0 
SMALL
USER_CHARGES


@<TRIPOS>ATOM
  1 CL      -1.7140    -1.5220     4.0010 Cl    1 <1>  -0.1770 
  2 C       -2.9840    -1.4770     2.8040 C.ar  1 <1>   0.1770 
  3 C       -4.2750    -1.7950     3.1750 C.ar  1 <1>  -0.1500 
  4 C       -2.6780    -1.1220     1.5010 C.ar  1 <1>  -0.1500 
  5 C       -5.2530    -1.7480     2.2010 C.ar  1 <1>   0.1900 
  6 C       -3.6800    -1.0830     0.5430 C.ar  1 <1>  -0.1500 
  7 F       -6.4800    -2.0490     2.5520 F     1 <1>  -0.1900 
  8 C       -4.9980    -1.3950     0.8740 C.ar  1 <1>   0.1170 
  9 N       -6.0480    -1.3720    -0.0630 N.am  1 <1>  -0.5470 
 10 C       -6.1710    -0.8710    -1.3270 C.2   1 <1>   0.5690 
 11 O       -5.2820    -0.3140    -1.9270 O.2   1 <1>  -0.5700 
 12 C       -7.5380    -1.0390    -1.9940 C.3   1 <1>   0.1710 
 13 N       -8.6440    -1.3130    -1.0270 N.3   1 <1>  -0.8100 
 14 C       -9.8050    -1.8920    -1.7210 C.3   1 <1>   0.1100 
 15 C       -9.0360    -0.0800    -0.3190 C.3   1 <1>   0.1100 
 16 C      -10.8710    -2.2870    -0.6970 C.3   1 <1>  -0.1600 
 17 C      -10.0660    -0.4190     0.7590 C.3   1 <1>  -0.1600 
 18 C      -11.3040    -1.0900     0.1520 C.3   1 <1>   0.4180 
 19 O      -11.9430    -0.1940    -0.7270 O.3   1 <1>  -0.5600 
 20 C      -12.2720    -1.5500     1.2400 C.2   1 <1>  -0.2880 
 21 C      -12.7920     0.7650    -0.1630 C.3   1 <1>   0.1200 
 22 C      -13.4920    -1.0400     1.4230 C.2   1 <1>  -0.2760 
 23 C      -13.9800     0.0920     0.5370 C.3   1 <1>  -0.0220 
 24 C      -14.4760    -1.5170     2.4750 C.3   1 <1>  -0.1020 
 25 H       -4.5090    -2.0710     4.1860 H     1 <1>   0.1500 
 26 H       -1.6630    -0.8790     1.2400 H     1 <1>   0.1500 
 27 H       -3.4270    -0.8100    -0.4660 H     1 <1>   0.1500 
 28 H       -6.9520    -1.7310     0.2720 H     1 <1>   0.3700 
 29 H       -7.4490    -1.8650    -2.6770 H     1 <1>   0.0800 
 30 H       -7.7600    -0.1580    -2.5700 H     1 <1>   0.0800 
 31 H       -9.5030    -2.7710    -2.2660 H     1 <1>   0.0800 
 32 H      -10.2130    -1.1800    -2.4200 H     1 <1>   0.0800 
 33 H       -9.4560     0.6290    -1.0150 H     1 <1>   0.0800 
 34 H       -8.1770     0.3730     0.1470 H     1 <1>   0.0800 
 35 H      -10.4680    -3.0540    -0.0620 H     1 <1>   0.0800 
 36 H      -11.7300    -2.6920    -1.1980 H     1 <1>   0.0800 
 37 H      -10.3480     0.4660     1.2960 H     1 <1>   0.0800 
 38 H       -9.6110    -1.0880     1.4660 H     1 <1>   0.0800 
 39 H      -11.8690    -2.3420     1.8450 H     1 <1>   0.1500 
 40 H      -13.1390     1.4040    -0.9560 H     1 <1>   0.0800 
 41 H      -12.2290     1.3560     0.5360 H     1 <1>   0.0800 
 42 H      -14.6660    -0.2910    -0.1980 H     1 <1>   0.0800 
 43 H      -14.4940     0.8300     1.1240 H     1 <1>   0.0800 
 44 H      -14.7170    -0.7160     3.1500 H     1 <1>   0.0800 
 45 H      -14.0550    -2.3270     3.0440 H     1 <1>   0.0800 
 46 H      -15.3790    -1.8640     2.0060 H     1 <1>   0.0800 
@<TRIPOS>BOND
  1   1   2  1   
  2   2   3  ar  
  3   2   4  ar  
  4   3   5  ar  
  5   3  25  1   
  6   4   6  ar  
  7   4  26  1   
  8   5   7  1   
  9   5   8  ar  
 10   6   8  ar  
 11   6  27  1   
 12   8   9  1   
 13   9  10  am  
 14   9  28  1   
 15  10  11  2   
 16  10  12  1   
 17  12  13  1   
 18  12  29  1   
 19  12  30  1   
 20  13  14  1   
 21  13  15  1   
 22  14  16  1   
 23  14  31  1   
 24  14  32  1   
 25  15  17  1   
 26  15  33  1   
 27  15  34  1   
 28  16  18  1   
 29  16  35  1   
 30  16  36  1   
 31  17  18  1   
 32  17  37  1   
 33  17  38  1   
 34  18  19  1   
 35  18  20  1   
 36  19  21  1   
 37  20  22  2   
 38  20  39  1   
 39  21  23  1   
 40  21  40  1   
 41  21  41  1   
 42  22  23  1   
 43  22  24  1   
 44  23  42  1   
 45  23  43  1   
 46  24  44  1   
 47  24  45  1   
 48  24  46  1   
@<TRIPOS>SUBSTRUCTURE
  1 ****  15 GROUP 4 **** **** 0

# MOE 2024.06 (io_trps.svl 2023.06)
