@<TRIPOS>MOLECULE
NONAME
48 50 1 0 0 
SMALL
USER_CHARGES


@<TRIPOS>ATOM
  1 O       -4.2250     3.0880    -0.8680 O.2   1 <1>  -0.5700 
  2 C       -3.0850     2.7110    -0.7400 C.2   1 <1>   0.5690 
  3 N       -2.7010     1.4630    -1.1080 N.am  1 <1>  -0.7300 
  4 C       -2.0540     3.6580    -0.1490 C.3   1 <1>   0.0440 
  5 C       -3.5740     0.4070    -1.6600 C.3   1 <1>   0.2200 
  6 C       -0.7520     2.9450     0.2080 C.ar  1 <1>  -0.1440 
  7 C       -3.6510    -0.7380    -0.6650 C.3   1 <1>  -0.0800 
  8 C       -2.8940    -0.2510    -2.8600 C.3   1 <1>   0.1200 
  9 C       -0.6000     2.3540     1.4520 C.ar  1 <1>  -0.1500 
 10 C        0.2730     2.8550    -0.7200 C.ar  1 <1>  -0.1500 
 11 C       -2.3800    -1.5180    -1.0030 C.3   1 <1>   0.1200 
 12 C       -4.9250    -1.5790    -0.8710 C.3   1 <1>  -0.0160 
 13 O       -2.1570    -1.3350    -2.3690 O.3   1 <1>  -0.5600 
 14 C        0.5620     1.6720     1.7690 C.ar  1 <1>  -0.1440 
 15 C        1.4400     2.1760    -0.4140 C.ar  1 <1>  -0.1440 
 16 C       -5.0100    -2.7200     0.1320 C.ar  1 <1>  -0.1440 
 17 C        1.5780     1.5860     0.8320 C.ar  1 <1>  -0.1500 
 18 C        0.7270     1.0250     3.1320 C.3   1 <1>  -0.0970 
 19 C        2.5570     2.0750    -1.4360 C.3   1 <1>  -0.0970 
 20 C       -5.3810    -2.5070     1.4440 C.ar  1 <1>  -0.1500 
 21 C       -4.7230    -4.0240    -0.2170 C.ar  1 <1>  -0.1500 
 22 C       -5.4410    -3.5780     2.3200 C.ar  1 <1>   0.1600 
 23 C       -4.8140    -5.0240     0.7370 C.ar  1 <1>   0.1600 
 24 N       -5.1650    -4.8320     1.9990 N.ar  1 <1>  -0.6200 
 25 H       -1.7230     1.1930    -0.9500 H     1 <1>   0.3700 
 26 H       -1.8630     4.4390    -0.8620 H     1 <1>   0.0800 
 27 H       -2.4720     4.1140     0.7280 H     1 <1>   0.0800 
 28 H       -4.5380     0.8170    -1.9130 H     1 <1>   0.0800 
 29 H       -3.6290    -0.3790     0.3490 H     1 <1>   0.0800 
 30 H       -2.2380     0.4230    -3.3810 H     1 <1>   0.0800 
 31 H       -3.6280    -0.6440    -3.5410 H     1 <1>   0.0800 
 32 H       -1.3920     2.4220     2.1780 H     1 <1>   0.1500 
 33 H        0.1630     3.3100    -1.6890 H     1 <1>   0.1500 
 34 H       -2.4530    -2.5710    -0.7920 H     1 <1>   0.0800 
 35 H       -1.5340    -1.1080    -0.4780 H     1 <1>   0.0800 
 36 H       -4.9510    -1.9770    -1.8710 H     1 <1>   0.0800 
 37 H       -5.7900    -0.9500    -0.7500 H     1 <1>   0.0800 
 38 H        2.4830     1.0570     1.0740 H     1 <1>   0.1500 
 39 H        1.3010     0.1190     3.0500 H     1 <1>   0.0800 
 40 H       -0.2310     0.7810     3.5540 H     1 <1>   0.0800 
 41 H        1.2370     1.7010     3.7950 H     1 <1>   0.0800 
 42 H        3.5110     2.0060    -0.9450 H     1 <1>   0.0800 
 43 H        2.5660     2.9420    -2.0720 H     1 <1>   0.0800 
 44 H        2.4150     1.1990    -2.0440 H     1 <1>   0.0800 
 45 H       -5.6230    -1.5200     1.7930 H     1 <1>   0.1500 
 46 H       -4.4270    -4.2730    -1.2200 H     1 <1>   0.1500 
 47 H       -5.7320    -3.3940     3.3400 H     1 <1>   0.1500 
 48 H       -4.5860    -6.0350     0.4470 H     1 <1>   0.1500 
@<TRIPOS>BOND
  1   1   2  2   
  2   2   3  am  
  3   2   4  1   
  4   3   5  1   
  5   3  25  1   
  6   4   6  1   
  7   4  26  1   
  8   4  27  1   
  9   5   7  1   
 10   5   8  1   
 11   5  28  1   
 12   6   9  ar  
 13   6  10  ar  
 14   7  11  1   
 15   7  12  1   
 16   7  29  1   
 17   8  13  1   
 18   8  30  1   
 19   8  31  1   
 20   9  14  ar  
 21   9  32  1   
 22  10  15  ar  
 23  10  33  1   
 24  11  13  1   
 25  11  34  1   
 26  11  35  1   
 27  12  16  1   
 28  12  36  1   
 29  12  37  1   
 30  14  17  ar  
 31  14  18  1   
 32  15  17  ar  
 33  15  19  1   
 34  16  20  ar  
 35  16  21  ar  
 36  17  38  1   
 37  18  39  1   
 38  18  40  1   
 39  18  41  1   
 40  19  42  1   
 41  19  43  1   
 42  19  44  1   
 43  20  22  ar  
 44  20  45  1   
 45  21  23  ar  
 46  21  46  1   
 47  22  24  ar  
 48  22  47  1   
 49  23  24  ar  
 50  23  48  1   
@<TRIPOS>SUBSTRUCTURE
  1 ****   7 GROUP 4 **** **** 0

# MOE 2024.06 (io_trps.svl 2023.06)
