@<TRIPOS>MOLECULE
NONAME
50 53 1 0 0 
SMALL
USER_CHARGES


@<TRIPOS>ATOM
  1 S       -3.6590     0.5920    -2.0570 S.3   1 <1>  -0.0800 
  2 C       -3.6270    -0.7480    -0.9300 C.ar  1 <1>   0.0400 
  3 C       -4.2800     1.6270    -0.7780 C.2   1 <1>   0.2280 
  4 C       -4.0670    -0.2840     0.2950 C.ar  1 <1>   0.2270 
  5 C       -3.2590    -2.0580    -1.1600 C.ar  1 <1>  -0.1500 
  6 N       -4.4530     1.0510     0.3430 N.2   1 <1>  -0.5650 
  7 C       -4.0920    -1.1750     1.3570 C.ar  1 <1>  -0.1500 
  8 C       -3.3450    -2.9750    -0.1140 C.ar  1 <1>   0.0860 
  9 C       -3.7270    -2.4950     1.1480 C.ar  1 <1>  -0.1500 
 10 C       -3.0240    -4.3730    -0.3270 C.2   1 <1>   0.5440 
 11 O       -1.8900    -4.6510    -0.6660 O.2   1 <1>  -0.5700 
 12 N       -3.9380    -5.4050    -0.1620 N.am  1 <1>  -0.6600 
 13 C       -5.4130    -5.3640    -0.4110 C.3   1 <1>   0.2200 
 14 C       -3.4260    -6.7890     0.0620 C.3   1 <1>   0.0600 
 15 C       -5.8500    -4.5030    -1.6010 C.3   1 <1>  -0.1600 
 16 C       -6.1970    -4.8990     0.8150 C.3   1 <1>  -0.1600 
 17 C       -7.1440    -3.7910    -1.1840 C.3   1 <1>  -0.0800 
 18 C       -7.3930    -4.0880     0.2970 C.3   1 <1>  -0.0800 
 19 C       -7.1000    -2.2610    -1.2930 C.3   1 <1>  -0.1600 
 20 C       -7.5830    -2.7230     0.9800 C.3   1 <1>  -0.1600 
 21 C       -7.9490    -1.7370    -0.1330 C.3   1 <1>   0.4230 
 22 N       -9.4110    -1.8210    -0.4520 N.4   1 <1>  -0.9590 
 23 C       -9.7900    -1.0110    -1.6540 C.3   1 <1>   0.2630 
 24 C      -10.2710    -1.3890     0.6970 C.3   1 <1>   0.2630 
 25 H       -4.4690     2.6540    -1.0390 H     1 <1>   0.1500 
 26 H       -2.9150    -2.3730    -2.1300 H     1 <1>   0.1500 
 27 H       -4.3870    -0.8210     2.3280 H     1 <1>   0.1500 
 28 H       -3.7240    -3.1810     1.9770 H     1 <1>   0.1500 
 29 H       -5.7460    -6.3660    -0.6320 H     1 <1>   0.0800 
 30 H       -4.0390    -7.2980     0.7850 H     1 <1>   0.0800 
 31 H       -2.4150    -6.7640     0.4340 H     1 <1>   0.0800 
 32 H       -3.4370    -7.3340    -0.8660 H     1 <1>   0.0800 
 33 H       -5.0990    -3.8040    -1.9030 H     1 <1>   0.0800 
 34 H       -6.0430    -5.1440    -2.4440 H     1 <1>   0.0800 
 35 H       -6.5380    -5.7520     1.3750 H     1 <1>   0.0800 
 36 H       -5.5750    -4.3150     1.4590 H     1 <1>   0.0800 
 37 H       -7.9680    -4.1740    -1.7640 H     1 <1>   0.0800 
 38 H       -8.2910    -4.6780     0.3880 H     1 <1>   0.0800 
 39 H       -7.3830    -1.9070    -2.2660 H     1 <1>   0.0800 
 40 H       -6.0960    -1.9270    -1.1150 H     1 <1>   0.0800 
 41 H       -6.6470    -2.3910     1.3910 H     1 <1>   0.0800 
 42 H       -8.2820    -2.7700     1.7930 H     1 <1>   0.0800 
 43 H       -7.6760    -0.7260     0.1290 H     1 <1>   0.0800 
 44 H       -9.6040    -2.8130    -0.6510 H     1 <1>   0.4500 
 45 H       -9.5040     0.0190    -1.5170 H     1 <1>   0.0800 
 46 H      -10.8560    -1.0540    -1.8120 H     1 <1>   0.0800 
 47 H       -9.3060    -1.3900    -2.5390 H     1 <1>   0.0800 
 48 H      -10.0300    -0.3780     0.9860 H     1 <1>   0.0800 
 49 H      -10.1290    -2.0340     1.5470 H     1 <1>   0.0800 
 50 H      -11.3120    -1.4270     0.4190 H     1 <1>   0.0800 
@<TRIPOS>BOND
  1   1   2  1   
  2   1   3  1   
  3   2   4  ar  
  4   2   5  ar  
  5   3   6  2   
  6   3  25  1   
  7   4   6  1   
  8   4   7  ar  
  9   5   8  ar  
 10   5  26  1   
 11   7   9  ar  
 12   7  27  1   
 13   8   9  ar  
 14   8  10  1   
 15   9  28  1   
 16  10  11  2   
 17  10  12  am  
 18  12  13  1   
 19  12  14  1   
 20  13  15  1   
 21  13  16  1   
 22  13  29  1   
 23  14  30  1   
 24  14  31  1   
 25  14  32  1   
 26  15  17  1   
 27  15  33  1   
 28  15  34  1   
 29  16  18  1   
 30  16  35  1   
 31  16  36  1   
 32  17  18  1   
 33  17  19  1   
 34  17  37  1   
 35  18  20  1   
 36  18  38  1   
 37  19  21  1   
 38  19  39  1   
 39  19  40  1   
 40  20  21  1   
 41  20  41  1   
 42  20  42  1   
 43  21  22  1   
 44  21  43  1   
 45  22  23  1   
 46  22  24  1   
 47  22  44  1   
 48  23  45  1   
 49  23  46  1   
 50  23  47  1   
 51  24  48  1   
 52  24  49  1   
 53  24  50  1   
@<TRIPOS>SUBSTRUCTURE
  1 ****  19 GROUP 4 **** **** 0

# MOE 2024.06 (io_trps.svl 2023.06)
