@<TRIPOS>MOLECULE
NONAME
54 56 1 0 0 
SMALL
USER_CHARGES


@<TRIPOS>ATOM
  1 CL       0.9130    -0.5970     0.2090 Cl    1 <1>  -0.1770 
  2 C        0.5630    -2.2900     0.4380 C.ar  1 <1>   0.1770 
  3 C        1.2870    -3.2340    -0.2620 C.ar  1 <1>  -0.1500 
  4 C       -0.4330    -2.6620     1.3170 C.ar  1 <1>  -0.1500 
  5 C        1.0180    -4.5840    -0.0930 C.ar  1 <1>  -0.1440 
  6 C       -0.7100    -4.0070     1.4900 C.ar  1 <1>  -0.1500 
  7 C        0.0010    -4.9710     0.7820 C.ar  1 <1>  -0.1430 
  8 C        1.8650    -5.5830    -0.8730 C.3   1 <1>  -0.0960 
  9 C       -0.3580    -6.4320     0.9870 C.3   1 <1>   0.4870 
 10 N       -1.2360    -6.8620    -0.1330 N.4   1 <1>  -0.9590 
 11 C       -1.3640    -8.3550    -0.1680 C.3   1 <1>   0.5660 
 12 C       -2.5740    -6.1850    -0.0910 C.3   1 <1>   0.3430 
 13 C        0.0040    -8.9150    -0.5380 C.ar  1 <1>  -0.1430 
 14 C       -2.4710    -8.8710    -1.1290 C.3   1 <1>   0.2000 
 15 C       -3.5330    -6.7530    -1.1490 C.3   1 <1>   0.1200 
 16 C        0.7090    -9.6420     0.4100 C.ar  1 <1>  -0.1500 
 17 C        0.5710    -8.7050    -1.7910 C.ar  1 <1>  -0.1500 
 18 O       -3.6600    -8.1330    -0.9810 O.3   1 <1>  -0.5600 
 19 C       -2.7770   -10.3520    -0.8460 C.3   1 <1>   0.1200 
 20 C        1.9700   -10.1390     0.1290 C.ar  1 <1>   0.0830 
 21 C        1.8350    -9.1920    -2.0750 C.ar  1 <1>  -0.1500 
 22 O       -2.9270   -10.5570     0.5240 O.3   1 <1>  -0.6800 
 23 O        2.5790   -10.8530     1.1040 O.3   1 <1>  -0.3630 
 24 C        2.5500    -9.8900    -1.1190 C.ar  1 <1>   0.0830 
 25 C        2.8230   -12.2180     0.8320 C.3   1 <1>   0.0400 
 26 O        3.7970   -10.3000    -1.4570 O.3   1 <1>  -0.3630 
 27 C        4.8740    -9.7660    -0.7160 C.3   1 <1>   0.0400 
 28 H        2.0600    -2.8980    -0.9310 H     1 <1>   0.1500 
 29 H       -0.9750    -1.9060     1.8580 H     1 <1>   0.1500 
 30 H       -1.4830    -4.2860     2.1860 H     1 <1>   0.1500 
 31 H        2.7920    -5.1280    -1.1800 H     1 <1>   0.0800 
 32 H        1.3480    -5.9020    -1.7580 H     1 <1>   0.0800 
 33 H        2.1170    -6.4410    -0.2760 H     1 <1>   0.0800 
 34 H       -0.8630    -6.5620     1.9310 H     1 <1>   0.0800 
 35 H        0.5460    -7.0190     1.0060 H     1 <1>   0.0800 
 36 H       -0.7530    -6.5800    -0.9900 H     1 <1>   0.4500 
 37 H       -1.6180    -8.7000     0.8200 H     1 <1>   0.0800 
 38 H       -3.0240    -6.3230     0.8790 H     1 <1>   0.0800 
 39 H       -2.4540    -5.1250    -0.2520 H     1 <1>   0.0800 
 40 H       -2.1630    -8.7750    -2.1540 H     1 <1>   0.0800 
 41 H       -3.1860    -6.5500    -2.1480 H     1 <1>   0.0800 
 42 H       -4.5120    -6.3200    -1.0310 H     1 <1>   0.0800 
 43 H        0.2930    -9.8460     1.3820 H     1 <1>   0.1500 
 44 H        0.0500    -8.1640    -2.5630 H     1 <1>   0.1500 
 45 H       -1.9700   -10.9780    -1.1860 H     1 <1>   0.0800 
 46 H       -3.6860   -10.6450    -1.3440 H     1 <1>   0.0800 
 47 H        2.2810    -9.0320    -3.0420 H     1 <1>   0.1500 
 48 H       -3.3510   -11.4240     0.6980 H     1 <1>   0.4000 
 49 H        3.2220   -12.6710     1.7220 H     1 <1>   0.0800 
 50 H        3.5330   -12.3040     0.0300 H     1 <1>   0.0800 
 51 H        1.8960   -12.6910     0.5620 H     1 <1>   0.0800 
 52 H        5.7900   -10.0920    -1.1750 H     1 <1>   0.0800 
 53 H        4.8270   -10.1250     0.2960 H     1 <1>   0.0800 
 54 H        4.8130    -8.6930    -0.7360 H     1 <1>   0.0800 
@<TRIPOS>BOND
  1   1   2  1   
  2   2   3  ar  
  3   2   4  ar  
  4   3   5  ar  
  5   3  28  1   
  6   4   6  ar  
  7   4  29  1   
  8   5   7  ar  
  9   5   8  1   
 10   6   7  ar  
 11   6  30  1   
 12   7   9  1   
 13   8  31  1   
 14   8  32  1   
 15   8  33  1   
 16   9  10  1   
 17   9  34  1   
 18   9  35  1   
 19  10  11  1   
 20  10  12  1   
 21  10  36  1   
 22  11  13  1   
 23  11  14  1   
 24  11  37  1   
 25  12  15  1   
 26  12  38  1   
 27  12  39  1   
 28  13  16  ar  
 29  13  17  ar  
 30  14  18  1   
 31  14  19  1   
 32  14  40  1   
 33  15  18  1   
 34  15  41  1   
 35  15  42  1   
 36  16  20  ar  
 37  16  43  1   
 38  17  21  ar  
 39  17  44  1   
 40  19  22  1   
 41  19  45  1   
 42  19  46  1   
 43  20  23  1   
 44  20  24  ar  
 45  21  24  ar  
 46  21  47  1   
 47  22  48  1   
 48  23  25  1   
 49  24  26  1   
 50  25  49  1   
 51  25  50  1   
 52  25  51  1   
 53  26  27  1   
 54  27  52  1   
 55  27  53  1   
 56  27  54  1   
@<TRIPOS>SUBSTRUCTURE
  1 ****  10 GROUP 4 **** **** 0

# MOE 2024.06 (io_trps.svl 2023.06)
