@<TRIPOS>MOLECULE
NONAME
50 53 1 0 0 
SMALL
USER_CHARGES


@<TRIPOS>ATOM
  1 O        0.0500     1.1170     0.4480 O.2   1 <1>  -0.5700 
  2 C       -0.0230     2.3080     0.2840 C.2   1 <1>   0.5690 
  3 N       -1.0790     3.0070     0.7490 N.am  1 <1>  -0.7300 
  4 C        1.0700     3.0470    -0.4870 C.3   1 <1>   0.1810 
  5 C       -1.2800     4.4590     0.5130 C.3   1 <1>   0.3640 
  6 O        1.0950     4.4240    -0.1850 O.3   1 <1>  -0.5600 
  7 C       -2.6520     4.6480    -0.1320 C.ar  1 <1>  -0.1440 
  8 C       -0.1540     5.0920    -0.3510 C.3   1 <1>   0.2610 
  9 C       -3.4940     5.6560     0.3190 C.ar  1 <1>  -0.1500 
 10 C       -3.0810     3.8320    -1.1730 C.ar  1 <1>  -0.1500 
 11 C       -0.0070     6.5740     0.0110 C.2   1 <1>   0.5690 
 12 C       -4.7390     5.8430    -0.2530 C.ar  1 <1>  -0.1500 
 13 C       -4.3270     4.0180    -1.7450 C.ar  1 <1>  -0.1500 
 14 O       -0.9000     7.3480    -0.2410 O.2   1 <1>  -0.5700 
 15 N        1.1360     6.9960     0.6150 N.am  1 <1>  -0.7300 
 16 C       -5.1580     5.0240    -1.2860 C.ar  1 <1>  -0.1500 
 17 C        1.4240     8.3890     1.0440 C.3   1 <1>   0.1400 
 18 C        1.7390     9.2800    -0.1590 C.3   1 <1>   0.2090 
 19 N        2.1120    10.6400     0.3210 N.pl3 1 <1>  -0.8380 
 20 C        3.4160    11.0830     0.1560 C.ar  1 <1>   0.1000 
 21 C        1.1930    11.7530    -0.0640 C.3   1 <1>   0.2090 
 22 C        3.4810    12.4080    -0.2120 C.ar  1 <1>  -0.1430 
 23 C        4.5890    10.3580     0.3220 C.ar  1 <1>  -0.1500 
 24 C        2.0900    12.9760    -0.3170 C.3   1 <1>  -0.0170 
 25 C        4.6910    13.0380    -0.4310 C.ar  1 <1>  -0.1500 
 26 C        5.8090    10.9760     0.1050 C.ar  1 <1>  -0.1500 
 27 C        5.8620    12.3110    -0.2720 C.ar  1 <1>  -0.1500 
 28 H       -1.8370     2.5030     1.2110 H     1 <1>   0.3700 
 29 H        0.9110     2.9290    -1.5430 H     1 <1>   0.0800 
 30 H        2.0290     2.6360    -0.2290 H     1 <1>   0.0800 
 31 H       -1.2810     4.9460     1.4740 H     1 <1>   0.0800 
 32 H       -0.4210     5.0290    -1.3910 H     1 <1>   0.0800 
 33 H       -3.1830     6.3110     1.1150 H     1 <1>   0.1500 
 34 H       -2.4520     3.0430    -1.5450 H     1 <1>   0.1500 
 35 H       -5.3810     6.6300     0.1030 H     1 <1>   0.1500 
 36 H       -4.6510     3.3800    -2.5490 H     1 <1>   0.1500 
 37 H        1.8830     6.3030     0.7380 H     1 <1>   0.3700 
 38 H       -6.1270     5.1700    -1.7310 H     1 <1>   0.1500 
 39 H        0.5660     8.7870     1.5570 H     1 <1>   0.0800 
 40 H        2.2620     8.3900     1.7190 H     1 <1>   0.0800 
 41 H        0.8750     9.3340    -0.7970 H     1 <1>   0.0800 
 42 H        2.5530     8.8580    -0.7210 H     1 <1>   0.0800 
 43 H        0.6530    11.5020    -0.9610 H     1 <1>   0.0800 
 44 H        0.4980    11.9460     0.7340 H     1 <1>   0.0800 
 45 H        4.5400     9.3300     0.6220 H     1 <1>   0.1500 
 46 H        1.9090    13.3920    -1.2910 H     1 <1>   0.0800 
 47 H        1.9300    13.7230     0.4380 H     1 <1>   0.0800 
 48 H        4.7250    14.0730    -0.7190 H     1 <1>   0.1500 
 49 H        6.7210    10.4190     0.2300 H     1 <1>   0.1500 
 50 H        6.8130    12.7850    -0.4380 H     1 <1>   0.1500 
@<TRIPOS>BOND
  1   1   2  2   
  2   2   3  am  
  3   2   4  1   
  4   3   5  1   
  5   3  28  1   
  6   4   6  1   
  7   4  29  1   
  8   4  30  1   
  9   5   7  1   
 10   5   8  1   
 11   5  31  1   
 12   6   8  1   
 13   7   9  ar  
 14   7  10  ar  
 15   8  11  1   
 16   8  32  1   
 17   9  12  ar  
 18   9  33  1   
 19  10  13  ar  
 20  10  34  1   
 21  11  14  2   
 22  11  15  am  
 23  12  16  ar  
 24  12  35  1   
 25  13  16  ar  
 26  13  36  1   
 27  15  17  1   
 28  15  37  1   
 29  16  38  1   
 30  17  18  1   
 31  17  39  1   
 32  17  40  1   
 33  18  19  1   
 34  18  41  1   
 35  18  42  1   
 36  19  20  1   
 37  19  21  1   
 38  20  22  ar  
 39  20  23  ar  
 40  21  24  1   
 41  21  43  1   
 42  21  44  1   
 43  22  24  1   
 44  22  25  ar  
 45  23  26  ar  
 46  23  45  1   
 47  24  46  1   
 48  24  47  1   
 49  25  27  ar  
 50  25  48  1   
 51  26  27  ar  
 52  26  49  1   
 53  27  50  1   
@<TRIPOS>SUBSTRUCTURE
  1 ****  11 GROUP 4 **** **** 0

# MOE 2024.06 (io_trps.svl 2023.06)
