@<TRIPOS>MOLECULE
NONAME
53 55 1 0 0 
SMALL
USER_CHARGES


@<TRIPOS>ATOM
  1 CL       4.8040    -5.7450     1.0210 Cl    1 <1>  -0.1770 
  2 C        3.1350    -5.6250     0.5360 C.ar  1 <1>   0.1770 
  3 C        2.1390    -5.7630     1.4810 C.ar  1 <1>  -0.1500 
  4 C        2.8360    -5.3890    -0.7920 C.ar  1 <1>  -0.1500 
  5 C        0.8040    -5.6790     1.0910 C.ar  1 <1>   0.0830 
  6 C        1.5130    -5.3130    -1.1770 C.ar  1 <1>  -0.1500 
  7 O       -0.2120    -5.8000     1.9810 O.3   1 <1>  -0.3630 
  8 C        0.4730    -5.4730    -0.2570 C.ar  1 <1>   0.0860 
  9 C        0.0050    -6.0460     3.3530 C.3   1 <1>   0.0400 
 10 C       -0.8930    -5.4270    -0.7360 C.2   1 <1>   0.5440 
 11 O       -1.2930    -4.3750    -1.2040 O.2   1 <1>  -0.5700 
 12 N       -1.7540    -6.5150    -0.7450 N.am  1 <1>  -0.6600 
 13 C       -1.3860    -7.8740    -0.1910 C.3   1 <1>   0.3640 
 14 C       -3.2000    -6.2760    -1.0340 C.3   1 <1>   0.1400 
 15 C       -0.0430    -8.3230    -0.7790 C.ar  1 <1>  -0.1430 
 16 C       -2.4360    -9.0060    -0.4350 C.3   1 <1>   0.2000 
 17 C       -3.9060    -7.5390    -1.5220 C.3   1 <1>   0.1200 
 18 C        0.9840    -8.7170     0.0670 C.ar  1 <1>  -0.1500 
 19 C        0.1770    -8.3270    -2.1510 C.ar  1 <1>  -0.1500 
 20 O       -3.7500    -8.5390    -0.5710 O.3   1 <1>  -0.5600 
 21 C       -2.4860   -10.0380     0.7060 C.3   1 <1>   0.1200 
 22 C        2.2160    -9.0950    -0.4360 C.ar  1 <1>   0.0830 
 23 C        1.4080    -8.6970    -2.6650 C.ar  1 <1>  -0.1500 
 24 O       -1.2410   -10.5970     0.9700 O.3   1 <1>  -0.6800 
 25 O        3.1590    -9.4800     0.4570 O.3   1 <1>  -0.3630 
 26 C        2.4390    -9.0620    -1.8160 C.ar  1 <1>   0.0830 
 27 C        3.5410   -10.8370     0.4150 C.3   1 <1>   0.0400 
 28 O        3.6350    -9.3690    -2.3760 O.3   1 <1>  -0.3630 
 29 C        4.7090    -8.5030    -2.0740 C.3   1 <1>   0.0400 
 30 H        2.4300    -5.9370     2.4980 H     1 <1>   0.1500 
 31 H        3.6290    -5.2720    -1.5070 H     1 <1>   0.1500 
 32 H        1.2630    -5.1340    -2.2080 H     1 <1>   0.1500 
 33 H       -0.9540    -6.1100     3.8360 H     1 <1>   0.0800 
 34 H        0.5690    -5.2310     3.7710 H     1 <1>   0.0800 
 35 H        0.5310    -6.9780     3.4640 H     1 <1>   0.0800 
 36 H       -1.2790    -7.7660     0.8740 H     1 <1>   0.0800 
 37 H       -3.6830    -5.9220    -0.1400 H     1 <1>   0.0800 
 38 H       -3.3050    -5.5160    -1.7890 H     1 <1>   0.0800 
 39 H       -2.1980    -9.5200    -1.3490 H     1 <1>   0.0800 
 40 H       -3.5040    -7.8710    -2.4640 H     1 <1>   0.0800 
 41 H       -4.9590    -7.3520    -1.6350 H     1 <1>   0.0800 
 42 H        0.8370    -8.7340     1.1320 H     1 <1>   0.1500 
 43 H       -0.6090    -8.0250    -2.8230 H     1 <1>   0.1500 
 44 H       -3.1600   -10.8370     0.4500 H     1 <1>   0.0800 
 45 H       -2.8260    -9.5650     1.6110 H     1 <1>   0.0800 
 46 H        1.5800    -8.6930    -3.7260 H     1 <1>   0.1500 
 47 H       -0.8710   -11.0300     0.1740 H     1 <1>   0.4000 
 48 H        4.2320   -11.0160     1.2190 H     1 <1>   0.0800 
 49 H        4.0130   -11.0450    -0.5280 H     1 <1>   0.0800 
 50 H        2.6640   -11.4470     0.5380 H     1 <1>   0.0800 
 51 H        5.5680    -8.8260    -2.6330 H     1 <1>   0.0800 
 52 H        4.9210    -8.5450    -1.0210 H     1 <1>   0.0800 
 53 H        4.4370    -7.5030    -2.3600 H     1 <1>   0.0800 
@<TRIPOS>BOND
  1   1   2  1   
  2   2   3  ar  
  3   2   4  ar  
  4   3   5  ar  
  5   3  30  1   
  6   4   6  ar  
  7   4  31  1   
  8   5   7  1   
  9   5   8  ar  
 10   6   8  ar  
 11   6  32  1   
 12   7   9  1   
 13   8  10  1   
 14   9  33  1   
 15   9  34  1   
 16   9  35  1   
 17  10  11  2   
 18  10  12  am  
 19  12  13  1   
 20  12  14  1   
 21  13  15  1   
 22  13  16  1   
 23  13  36  1   
 24  14  17  1   
 25  14  37  1   
 26  14  38  1   
 27  15  18  ar  
 28  15  19  ar  
 29  16  20  1   
 30  16  21  1   
 31  16  39  1   
 32  17  20  1   
 33  17  40  1   
 34  17  41  1   
 35  18  22  ar  
 36  18  42  1   
 37  19  23  ar  
 38  19  43  1   
 39  21  24  1   
 40  21  44  1   
 41  21  45  1   
 42  22  25  1   
 43  22  26  ar  
 44  23  26  ar  
 45  23  46  1   
 46  24  47  1   
 47  25  27  1   
 48  26  28  1   
 49  27  48  1   
 50  27  49  1   
 51  27  50  1   
 52  28  29  1   
 53  29  51  1   
 54  29  52  1   
 55  29  53  1   
@<TRIPOS>SUBSTRUCTURE
  1 ****  15 GROUP 4 **** **** 0

# MOE 2024.06 (io_trps.svl 2023.06)
