@<TRIPOS>MOLECULE
NONAME
45 47 1 0 0 
SMALL
USER_CHARGES


@<TRIPOS>ATOM
  1 F       -1.2840    -0.3650    -0.9320 F     1 <1>  -0.1900 
  2 C       -1.8900     0.4500    -0.1060 C.ar  1 <1>   0.1900 
  3 C       -2.7240    -0.0820     0.8670 C.ar  1 <1>  -0.1440 
  4 C       -1.6600     1.8150    -0.2420 C.ar  1 <1>  -0.1440 
  5 C       -3.3230     0.8270     1.7240 C.ar  1 <1>   0.1900 
  6 C       -2.9580    -1.5820     0.9880 C.3   1 <1>   0.2540 
  7 C       -2.2880     2.6870     0.6370 C.ar  1 <1>  -0.1500 
  8 C       -0.7400     2.3510    -1.3300 C.3   1 <1>  -0.0960 
  9 F       -4.1180     0.3960     2.6680 F     1 <1>  -0.1900 
 10 C       -3.1230     2.1930     1.6270 C.ar  1 <1>  -0.1500 
 11 N       -3.9130    -2.0610    -0.0330 N.3   1 <1>  -0.8100 
 12 C       -4.0380    -3.5420    -0.0250 C.3   1 <1>   0.3330 
 13 C       -5.2460    -1.4430     0.1330 C.3   1 <1>   0.1100 
 14 C       -2.6850    -4.2060    -0.2870 C.ar  1 <1>  -0.1440 
 15 C       -5.0940    -4.0140    -1.0640 C.3   1 <1>   0.2000 
 16 C       -6.2550    -1.9910    -0.8900 C.3   1 <1>   0.1200 
 17 C       -2.2300    -5.2170     0.5480 C.ar  1 <1>  -0.1500 
 18 C       -1.9050    -3.8210    -1.3690 C.ar  1 <1>  -0.1500 
 19 O       -6.3230    -3.3850    -0.8090 O.3   1 <1>  -0.5600 
 20 C       -5.3460    -5.5310    -1.0440 C.3   1 <1>   0.1200 
 21 C       -1.0190    -5.8400     0.2990 C.ar  1 <1>  -0.1500 
 22 C       -0.6950    -4.4430    -1.6180 C.ar  1 <1>  -0.1500 
 23 O       -4.3020    -6.2270    -1.6500 O.3   1 <1>  -0.6800 
 24 C       -0.2520    -5.4550    -0.7850 C.ar  1 <1>  -0.1500 
 25 H       -3.3200    -1.8310     1.9710 H     1 <1>   0.0800 
 26 H       -2.0080    -2.0730     0.8620 H     1 <1>   0.0800 
 27 H       -2.1300     3.7490     0.5580 H     1 <1>   0.1500 
 28 H       -0.6930     3.4250    -1.3050 H     1 <1>   0.0800 
 29 H       -1.0990     2.0460    -2.2960 H     1 <1>   0.0800 
 30 H        0.2540     1.9620    -1.1920 H     1 <1>   0.0800 
 31 H       -3.6140     2.8560     2.3160 H     1 <1>   0.1500 
 32 H       -4.3840    -3.8490     0.9470 H     1 <1>   0.0800 
 33 H       -5.6190    -1.6260     1.1270 H     1 <1>   0.0800 
 34 H       -5.1730    -0.3790    -0.0060 H     1 <1>   0.0800 
 35 H       -4.7840    -3.7310    -2.0550 H     1 <1>   0.0800 
 36 H       -5.9660    -1.7140    -1.8890 H     1 <1>   0.0800 
 37 H       -7.2370    -1.6000    -0.6910 H     1 <1>   0.0800 
 38 H       -2.8150    -5.5290     1.3960 H     1 <1>   0.1500 
 39 H       -2.2420    -3.0280    -2.0150 H     1 <1>   0.1500 
 40 H       -6.2410    -5.7600    -1.5960 H     1 <1>   0.0800 
 41 H       -5.4480    -5.8860    -0.0340 H     1 <1>   0.0800 
 42 H       -0.6730    -6.6260     0.9480 H     1 <1>   0.1500 
 43 H       -0.0980    -4.1350    -2.4590 H     1 <1>   0.1500 
 44 H       -3.4320    -5.9250    -1.3020 H     1 <1>   0.4000 
 45 H        0.6890    -5.9390    -0.9810 H     1 <1>   0.1500 
@<TRIPOS>BOND
  1   1   2  1   
  2   2   3  ar  
  3   2   4  ar  
  4   3   5  ar  
  5   3   6  1   
  6   4   7  ar  
  7   4   8  1   
  8   5   9  1   
  9   5  10  ar  
 10   6  11  1   
 11   6  25  1   
 12   6  26  1   
 13   7  10  ar  
 14   7  27  1   
 15   8  28  1   
 16   8  29  1   
 17   8  30  1   
 18  10  31  1   
 19  11  12  1   
 20  11  13  1   
 21  12  14  1   
 22  12  15  1   
 23  12  32  1   
 24  13  16  1   
 25  13  33  1   
 26  13  34  1   
 27  14  17  ar  
 28  14  18  ar  
 29  15  19  1   
 30  15  20  1   
 31  15  35  1   
 32  16  19  1   
 33  16  36  1   
 34  16  37  1   
 35  17  21  ar  
 36  17  38  1   
 37  18  22  ar  
 38  18  39  1   
 39  20  23  1   
 40  20  40  1   
 41  20  41  1   
 42  21  24  ar  
 43  21  42  1   
 44  22  24  ar  
 45  22  43  1   
 46  23  44  1   
 47  24  45  1   
@<TRIPOS>SUBSTRUCTURE
  1 ****  11 GROUP 4 **** **** 0

# MOE 2024.06 (io_trps.svl 2023.06)
