@<TRIPOS>MOLECULE
NONAME
49 52 1 0 0 
SMALL
USER_CHARGES


@<TRIPOS>ATOM
  1 O       -1.1070     0.9280     2.0100 O.2   1 <1>  -0.5700 
  2 C       -1.5230     1.4090     0.9670 C.2   1 <1>   0.7150 
  3 N       -2.4210     0.6490     0.2290 N.am  1 <1>  -0.6600 
  4 C       -1.0460     2.7260     0.5530 C.2   1 <1>   0.1010 
  5 C       -3.0880    -0.5580     0.8140 C.3   1 <1>   0.1400 
  6 C       -2.7490     0.9500    -1.1950 C.3   1 <1>   0.1400 
  7 N       -1.7260     3.6320    -0.1240 N.2   1 <1>  -0.5650 
  8 N        0.2110     3.1790     0.8550 N.pl3 1 <1>   0.0480 
  9 C       -4.6210    -0.4830     0.7390 C.3   1 <1>   0.1400 
 10 C       -4.1090     1.6510    -1.2790 C.3   1 <1>  -0.1600 
 11 C       -0.8910     4.6670    -0.2530 C.2   1 <1>   0.0770 
 12 C        0.2950     4.4110     0.3350 C.2   1 <1>  -0.3020 
 13 C        1.2970     2.4970     1.5890 C.3   1 <1>   0.0160 
 14 N       -5.1120    -0.5950    -0.6720 N.am  1 <1>  -0.6600 
 15 C       -5.3150     0.7060    -1.3790 C.3   1 <1>   0.1400 
 16 C       -5.3980    -1.7860    -1.3030 C.2   1 <1>   0.5690 
 17 O       -5.7820    -1.8170    -2.4500 O.2   1 <1>  -0.5700 
 18 C       -5.2060    -3.1300    -0.6300 C.3   1 <1>   0.1570 
 19 N       -6.2650    -3.3870     0.3540 N.pl3 1 <1>   0.3140 
 20 N       -5.9640    -3.6170     1.6550 N.2   1 <1>  -0.7070 
 21 C       -7.6060    -3.5200     0.1160 C.ar  1 <1>  -0.1520 
 22 C       -7.0950    -3.8770     2.2220 C.2   1 <1>   0.1390 
 23 C       -8.1780    -3.8370     1.3310 C.ar  1 <1>   0.0000 
 24 C       -8.3940    -3.3990    -1.0360 C.ar  1 <1>  -0.1500 
 25 C       -9.5610    -4.0390     1.4240 C.ar  1 <1>  -0.1500 
 26 C       -9.7500    -3.5990    -0.9380 C.ar  1 <1>  -0.1500 
 27 C      -10.3360    -3.9200     0.2950 C.ar  1 <1>  -0.1500 
 28 H       -2.8200    -0.6620     1.8510 H     1 <1>   0.0800 
 29 H       -2.7380    -1.4370     0.3050 H     1 <1>   0.0800 
 30 H       -2.7560     0.0410    -1.7730 H     1 <1>   0.0800 
 31 H       -1.9910     1.5870    -1.6170 H     1 <1>   0.0800 
 32 H       -4.9530     0.4450     1.1710 H     1 <1>   0.0800 
 33 H       -5.0370    -1.2680     1.3390 H     1 <1>   0.0800 
 34 H       -4.1150     2.2760    -2.1540 H     1 <1>   0.0800 
 35 H       -4.2280     2.3100    -0.4370 H     1 <1>   0.0800 
 36 H       -1.1830     5.5660    -0.7710 H     1 <1>   0.1500 
 37 H        1.1680     5.0320     0.4070 H     1 <1>   0.1500 
 38 H        1.4330     1.5080     1.1910 H     1 <1>   0.0800 
 39 H        1.0330     2.4290     2.6290 H     1 <1>   0.0800 
 40 H        2.2100     3.0530     1.4870 H     1 <1>   0.0800 
 41 H       -5.5080     0.5240    -2.4220 H     1 <1>   0.0800 
 42 H       -6.1870     1.1930    -0.9760 H     1 <1>   0.0800 
 43 H       -4.2550    -3.1650    -0.1390 H     1 <1>   0.0800 
 44 H       -5.2380    -3.9070    -1.3690 H     1 <1>   0.0800 
 45 H       -7.2030    -4.1050     3.2690 H     1 <1>   0.1500 
 46 H       -7.9430    -3.1520    -1.9820 H     1 <1>   0.1500 
 47 H       -9.9950    -4.2860     2.3770 H     1 <1>   0.1500 
 48 H      -10.3770    -3.5110    -1.8080 H     1 <1>   0.1500 
 49 H      -11.4000    -4.0710     0.3440 H     1 <1>   0.1500 
@<TRIPOS>BOND
  1   1   2  2   
  2   2   3  am  
  3   2   4  1   
  4   3   5  1   
  5   3   6  1   
  6   4   7  2   
  7   4   8  1   
  8   5   9  1   
  9   5  28  1   
 10   5  29  1   
 11   6  10  1   
 12   6  30  1   
 13   6  31  1   
 14   7  11  1   
 15   8  12  1   
 16   8  13  1   
 17   9  14  1   
 18   9  32  1   
 19   9  33  1   
 20  10  15  1   
 21  10  34  1   
 22  10  35  1   
 23  11  12  2   
 24  11  36  1   
 25  12  37  1   
 26  13  38  1   
 27  13  39  1   
 28  13  40  1   
 29  14  15  1   
 30  14  16  am  
 31  15  41  1   
 32  15  42  1   
 33  16  17  2   
 34  16  18  1   
 35  18  19  1   
 36  18  43  1   
 37  18  44  1   
 38  19  20  1   
 39  19  21  1   
 40  20  22  2   
 41  21  23  ar  
 42  21  24  ar  
 43  22  23  1   
 44  22  45  1   
 45  23  25  ar  
 46  24  26  ar  
 47  24  46  1   
 48  25  27  ar  
 49  25  47  1   
 50  26  27  ar  
 51  26  48  1   
 52  27  49  1   
@<TRIPOS>SUBSTRUCTURE
  1 ****   9 GROUP 4 **** **** 0

# MOE 2024.06 (io_trps.svl 2023.06)
