@<TRIPOS>MOLECULE
NONAME
37 38 1 0 0 
SMALL
USER_CHARGES


@<TRIPOS>ATOM
  1 O       -0.7250     0.1590    -0.4910 O.co2 1 <1>  -0.9000 
  2 C       -1.1220     1.0250     0.2910 C.2   1 <1>   0.9060 
  3 O       -1.4930     0.7570     1.4420 O.co2 1 <1>  -0.9000 
  4 C       -1.1780     2.4570    -0.1810 C.3   1 <1>  -0.1860 
  5 C       -2.5530     3.1130     0.0160 C.3   1 <1>   0.2000 
  6 C       -0.0790     3.2780     0.4820 C.3   1 <1>   0.2090 
  7 O       -3.0410     2.8220     1.2760 O.3   1 <1>  -0.6800 
  8 C       -2.5120     4.6450    -0.1040 C.3   1 <1>  -0.1600 
  9 N       -0.0240     4.6570    -0.1160 N.pl3 1 <1>  -0.8380 
 10 C       -1.2510     5.1540    -0.8070 C.3   1 <1>   0.2090 
 11 C        1.1490     5.3810    -0.1220 C.ar  1 <1>   0.7200 
 12 N        1.2320     6.4020    -0.9770 N.ar  1 <1>  -0.6200 
 13 N        2.1030     5.0020     0.7270 N.ar  1 <1>  -0.6200 
 14 C        2.3560     7.0740    -0.9730 C.ar  1 <1>   0.1600 
 15 C        3.2130     5.6960     0.7060 C.ar  1 <1>   0.1600 
 16 C        3.4060     6.7650    -0.1390 C.ar  1 <1>  -0.1430 
 17 C        4.7010     7.5700    -0.1620 C.3   1 <1>   0.0630 
 18 C        5.8860     6.6830    -0.5580 C.3   1 <1>  -0.2400 
 19 C        4.9530     8.2370     1.1940 C.3   1 <1>  -0.2400 
 20 H       -0.9630     2.4300    -1.2320 H     1 <1>   0.0800 
 21 H       -3.2430     2.6920    -0.6960 H     1 <1>   0.0800 
 22 H        0.8660     2.7790     0.3420 H     1 <1>   0.0800 
 23 H       -0.2690     3.3540     1.5390 H     1 <1>   0.0800 
 24 H       -2.5940     1.9680     1.5680 H     1 <1>   0.4000 
 25 H       -3.3770     4.9780    -0.6440 H     1 <1>   0.0800 
 26 H       -2.5360     5.0940     0.8730 H     1 <1>   0.0800 
 27 H       -1.2630     6.2300    -0.8070 H     1 <1>   0.0800 
 28 H       -1.2340     4.8160    -1.8280 H     1 <1>   0.0800 
 29 H        2.4390     7.8980    -1.6590 H     1 <1>   0.1500 
 30 H        3.9920     5.3990     1.3850 H     1 <1>   0.1500 
 31 H        4.6120     8.3490    -0.9010 H     1 <1>   0.0800 
 32 H        6.0510     5.9110     0.1730 H     1 <1>   0.0800 
 33 H        6.7810     7.2720    -0.6410 H     1 <1>   0.0800 
 34 H        5.6950     6.2170    -1.5090 H     1 <1>   0.0800 
 35 H        5.0980     7.5010     1.9640 H     1 <1>   0.0800 
 36 H        4.1120     8.8520     1.4620 H     1 <1>   0.0800 
 37 H        5.8280     8.8600     1.1460 H     1 <1>   0.0800 
@<TRIPOS>BOND
  1   1   2  ar  
  2   2   3  ar  
  3   2   4  1   
  4   4   5  1   
  5   4   6  1   
  6   4  20  1   
  7   5   7  1   
  8   5   8  1   
  9   5  21  1   
 10   6   9  1   
 11   6  22  1   
 12   6  23  1   
 13   7  24  1   
 14   8  10  1   
 15   8  25  1   
 16   8  26  1   
 17   9  10  1   
 18   9  11  1   
 19  10  27  1   
 20  10  28  1   
 21  11  12  ar  
 22  11  13  ar  
 23  12  14  ar  
 24  13  15  ar  
 25  14  16  ar  
 26  14  29  1   
 27  15  16  ar  
 28  15  30  1   
 29  16  17  1   
 30  17  18  1   
 31  17  19  1   
 32  17  31  1   
 33  18  32  1   
 34  18  33  1   
 35  18  34  1   
 36  19  35  1   
 37  19  36  1   
 38  19  37  1   
@<TRIPOS>SUBSTRUCTURE
  1 ****   9 GROUP 4 **** **** 0

# MOE 2024.06 (io_trps.svl 2023.06)
