@<TRIPOS>MOLECULE
NONAME
50 52 1 0 0 
SMALL
USER_CHARGES


@<TRIPOS>ATOM
  1 O        0.8210    -0.1240     1.4600 O.2   1 <1>  -0.5700 
  2 C        1.5060    -0.9920     0.9520 C.2   1 <1>   0.5440 
  3 N        2.6040    -0.6240     0.2020 N.am  1 <1>  -0.6600 
  4 C        1.1390    -2.3800     1.1470 C.ar  1 <1>   0.0860 
  5 C        3.0630     0.7980     0.2100 C.3   1 <1>   0.1400 
  6 C        3.2510    -1.5430    -0.7840 C.3   1 <1>   0.1400 
  7 C       -0.1510    -2.8320     0.9430 C.ar  1 <1>  -0.1500 
  8 C        2.0420    -3.3510     1.5610 C.ar  1 <1>  -0.1500 
  9 C        4.5220     0.9000    -0.2470 C.3   1 <1>  -0.1600 
 10 C        3.7190    -0.7650    -2.0180 C.3   1 <1>  -0.1600 
 11 C       -0.4800    -4.1670     1.1280 C.ar  1 <1>   0.4100 
 12 C        1.6280    -4.6580     1.7180 C.ar  1 <1>   0.1600 
 13 C        4.7310     0.3390    -1.6640 C.3   1 <1>  -0.1600 
 14 N        0.3970    -5.0860     1.5050 N.ar  1 <1>  -0.6200 
 15 N       -1.7760    -4.5720     0.9090 N.pl3 1 <1>  -0.8690 
 16 C       -2.2980    -5.8770     1.4110 C.3   1 <1>   0.2090 
 17 C       -1.9800    -7.0120     0.4300 C.3   1 <1>   0.2090 
 18 N       -2.6980    -8.2540     0.8240 N.pl3 1 <1>  -0.8690 
 19 C       -3.3010    -8.9900    -0.1560 C.ar  1 <1>   0.4100 
 20 N       -2.6700   -10.1270    -0.3940 N.ar  1 <1>  -0.6200 
 21 C       -4.4630    -8.5770    -0.8220 C.ar  1 <1>  -0.1440 
 22 C       -3.1900   -10.8820    -1.3450 C.ar  1 <1>   0.1600 
 23 C       -4.9810    -9.3830    -1.8120 C.ar  1 <1>  -0.1500 
 24 C       -5.1750    -7.2770    -0.4700 C.3   1 <1>  -0.0970 
 25 C       -4.3200   -10.5650    -2.0760 C.ar  1 <1>  -0.1500 
 26 H        2.9660     1.2010     1.2050 H     1 <1>   0.0800 
 27 H        2.4300     1.3720    -0.4460 H     1 <1>   0.0800 
 28 H        2.5540    -2.3040    -1.0910 H     1 <1>   0.0800 
 29 H        4.0960    -2.0190    -0.3180 H     1 <1>   0.0800 
 30 H       -0.9080    -2.1370     0.6360 H     1 <1>   0.1500 
 31 H        3.0610    -3.0770     1.7640 H     1 <1>   0.1500 
 32 H        5.1300     0.3530     0.4530 H     1 <1>   0.0800 
 33 H        4.8390     1.9270    -0.2140 H     1 <1>   0.0800 
 34 H        2.8540    -0.3250    -2.4840 H     1 <1>   0.0800 
 35 H        4.1580    -1.4420    -2.7300 H     1 <1>   0.0800 
 36 H        2.3460    -5.3940     2.0370 H     1 <1>   0.1500 
 37 H        5.7330    -0.0490    -1.7370 H     1 <1>   0.0800 
 38 H        4.6380     1.1330    -2.3850 H     1 <1>   0.0800 
 39 H       -2.4700    -3.8220     0.9260 H     1 <1>   0.4000 
 40 H       -3.3640    -5.8040     1.5290 H     1 <1>   0.0800 
 41 H       -1.8620    -6.1010     2.3700 H     1 <1>   0.0800 
 42 H       -0.9210    -7.1990     0.4280 H     1 <1>   0.0800 
 43 H       -2.2750    -6.7190    -0.5620 H     1 <1>   0.0800 
 44 H       -2.0590    -8.8810     1.3210 H     1 <1>   0.4000 
 45 H       -2.6860   -11.8090    -1.5550 H     1 <1>   0.1500 
 46 H       -5.8670    -9.1130    -2.3600 H     1 <1>   0.1500 
 47 H       -5.2430    -7.1760     0.5980 H     1 <1>   0.0800 
 48 H       -6.1710    -7.2640    -0.8730 H     1 <1>   0.0800 
 49 H       -4.6320    -6.4400    -0.8680 H     1 <1>   0.0800 
 50 H       -4.6790   -11.2330    -2.8370 H     1 <1>   0.1500 
@<TRIPOS>BOND
  1   1   2  2   
  2   2   3  am  
  3   2   4  1   
  4   3   5  1   
  5   3   6  1   
  6   4   7  ar  
  7   4   8  ar  
  8   5   9  1   
  9   5  26  1   
 10   5  27  1   
 11   6  10  1   
 12   6  28  1   
 13   6  29  1   
 14   7  11  ar  
 15   7  30  1   
 16   8  12  ar  
 17   8  31  1   
 18   9  13  1   
 19   9  32  1   
 20   9  33  1   
 21  10  13  1   
 22  10  34  1   
 23  10  35  1   
 24  11  14  ar  
 25  11  15  1   
 26  12  14  ar  
 27  12  36  1   
 28  13  37  1   
 29  13  38  1   
 30  15  16  1   
 31  15  39  1   
 32  16  17  1   
 33  16  40  1   
 34  16  41  1   
 35  17  18  1   
 36  17  42  1   
 37  17  43  1   
 38  18  19  1   
 39  18  44  1   
 40  19  20  ar  
 41  19  21  ar  
 42  20  22  ar  
 43  21  23  ar  
 44  21  24  1   
 45  22  25  ar  
 46  22  45  1   
 47  23  25  ar  
 48  23  46  1   
 49  24  47  1   
 50  24  48  1   
 51  24  49  1   
 52  25  50  1   
@<TRIPOS>SUBSTRUCTURE
  1 ****  11 GROUP 4 **** **** 0

# MOE 2024.06 (io_trps.svl 2023.06)
