@<TRIPOS>MOLECULE
NONAME
46 49 1 0 0 
SMALL
USER_CHARGES


@<TRIPOS>ATOM
  1 O        1.9810    -0.4250     2.5440 O.2   1 <1>  -0.5700 
  2 C        2.0990    -0.8270     1.4020 C.2   1 <1>   0.5440 
  3 N        2.5570     0.0500     0.4310 N.am  1 <1>  -0.6600 
  4 C        1.7920    -2.2090     1.1030 C.ar  1 <1>   0.0860 
  5 C        2.9050     1.4520     0.8310 C.3   1 <1>   0.1400 
  6 C        3.0380    -0.4370    -0.9010 C.3   1 <1>   0.1400 
  7 C        0.6270    -2.5610     0.4320 C.ar  1 <1>  -0.1500 
  8 C        2.6930    -3.2240     1.4730 C.ar  1 <1>  -0.1500 
  9 C        4.4200     1.6720     1.0850 C.3   1 <1>   0.4230 
 10 C        4.5220    -0.1290    -1.2010 C.3   1 <1>  -0.0800 
 11 C        0.3730    -3.8950     0.1230 C.ar  1 <1>   0.0000 
 12 C        2.4520    -4.5490     1.1740 C.ar  1 <1>  -0.1500 
 13 N        5.1790     2.0830    -0.1540 N.4   1 <1>  -0.9590 
 14 C        5.1450     0.4880     1.7840 C.3   1 <1>   0.1200 
 15 C        5.5490    -0.7940    -0.2570 C.3   1 <1>   0.1200 
 16 C        4.7580     1.3710    -1.3970 C.3   1 <1>   0.3430 
 17 C        1.2850    -4.8660     0.4940 C.ar  1 <1>   0.1400 
 18 C       -0.6580    -4.6030    -0.5280 C.2   1 <1>  -0.1500 
 19 C        5.1370     3.5640    -0.3570 C.3   1 <1>   0.2630 
 20 O        5.1720    -0.7310     1.0820 O.3   1 <1>  -0.5600 
 21 O        0.8680    -6.0690     0.1050 O.3   1 <1>  -0.2800 
 22 C       -0.3000    -5.9010    -0.5060 C.2   1 <1>  -0.0400 
 23 C       -0.9990    -7.1290    -1.0450 C.3   1 <1>  -0.0600 
 24 H        2.5440     2.1370     0.0860 H     1 <1>   0.0800 
 25 H        2.3830     1.7020     1.7380 H     1 <1>   0.0800 
 26 H        2.9050    -1.5020    -0.9770 H     1 <1>   0.0800 
 27 H        2.4180     0.0040    -1.6630 H     1 <1>   0.0800 
 28 H       -0.0850    -1.8070     0.1480 H     1 <1>   0.1500 
 29 H        3.5890    -2.9420     2.0020 H     1 <1>   0.1500 
 30 H        4.4830     2.4960     1.7770 H     1 <1>   0.0800 
 31 H        4.7020    -0.5600    -2.1700 H     1 <1>   0.0800 
 32 H        3.1340    -5.3310     1.4530 H     1 <1>   0.1500 
 33 H        6.1550     1.8110     0.0270 H     1 <1>   0.4500 
 34 H        4.6460     0.2860     2.7160 H     1 <1>   0.0800 
 35 H        6.1600     0.7580     2.0140 H     1 <1>   0.0800 
 36 H        6.5350    -0.3760    -0.3640 H     1 <1>   0.0800 
 37 H        5.6110    -1.8430    -0.4960 H     1 <1>   0.0800 
 38 H        3.8530     1.8120    -1.7820 H     1 <1>   0.0800 
 39 H        5.5240     1.5030    -2.1450 H     1 <1>   0.0800 
 40 H       -1.5390    -4.1510    -0.9430 H     1 <1>   0.1500 
 41 H        4.1260     3.8900    -0.5410 H     1 <1>   0.0800 
 42 H        5.7470     3.8440    -1.2010 H     1 <1>   0.0800 
 43 H        5.5090     4.0740     0.5170 H     1 <1>   0.0800 
 44 H       -1.9280    -6.8550    -1.5110 H     1 <1>   0.0800 
 45 H       -1.1980    -7.8150    -0.2410 H     1 <1>   0.0800 
 46 H       -0.3710    -7.6140    -1.7700 H     1 <1>   0.0800 
@<TRIPOS>BOND
  1   1   2  2   
  2   2   3  am  
  3   2   4  1   
  4   3   5  1   
  5   3   6  1   
  6   4   7  ar  
  7   4   8  ar  
  8   5   9  1   
  9   5  24  1   
 10   5  25  1   
 11   6  10  1   
 12   6  26  1   
 13   6  27  1   
 14   7  11  ar  
 15   7  28  1   
 16   8  12  ar  
 17   8  29  1   
 18   9  13  1   
 19   9  14  1   
 20   9  30  1   
 21  10  15  1   
 22  10  16  1   
 23  10  31  1   
 24  11  17  ar  
 25  11  18  1   
 26  12  17  ar  
 27  12  32  1   
 28  13  16  1   
 29  13  19  1   
 30  13  33  1   
 31  14  20  1   
 32  14  34  1   
 33  14  35  1   
 34  15  20  1   
 35  15  36  1   
 36  15  37  1   
 37  16  38  1   
 38  16  39  1   
 39  17  21  1   
 40  18  22  2   
 41  18  40  1   
 42  19  41  1   
 43  19  42  1   
 44  19  43  1   
 45  21  22  1   
 46  22  23  1   
 47  23  44  1   
 48  23  45  1   
 49  23  46  1   
@<TRIPOS>SUBSTRUCTURE
  1 ****   4 GROUP 4 **** **** 0

# MOE 2024.06 (io_trps.svl 2023.06)
