@<TRIPOS>MOLECULE
NONAME
47 48 1 0 0 
SMALL
USER_CHARGES


@<TRIPOS>ATOM
  1 O       -0.3410     0.0730    -0.7280 O.2   1 <1>  -0.5700 
  2 C        0.7100    -0.5130    -0.6430 C.2   1 <1>   0.5690 
  3 N        1.9160     0.1010    -0.4560 N.am  1 <1>  -0.4940 
  4 C        0.6960    -2.0210    -0.7410 C.3   1 <1>  -0.0990 
  5 C        2.2620     1.4680    -0.3120 C.2   1 <1>  -0.0880 
  6 C        0.1460    -2.6440     0.5440 C.3   1 <1>   0.0210 
  7 N        1.5290     2.4620     0.2670 N.pl3 1 <1>   0.3140 
  8 C        3.4270     2.0390    -0.7060 C.2   1 <1>  -0.1810 
  9 C        0.2230    -4.1570     0.4550 C.2   1 <1>  -0.1810 
 10 N        2.1970     3.6340     0.2580 N.2   1 <1>  -0.7070 
 11 C        0.2220     2.3840     0.9340 C.3   1 <1>   0.0160 
 12 C        3.3220     3.3760    -0.3270 C.2   1 <1>   0.1080 
 13 C        4.6090     1.4000    -1.4130 C.3   1 <1>  -0.0590 
 14 C        1.2490    -4.9700     0.9320 C.2   1 <1>   0.1080 
 15 C       -0.6630    -5.0130    -0.0990 C.2   1 <1>  -0.3320 
 16 C        4.3750     4.4480    -0.5440 C.3   1 <1>   0.0210 
 17 N        1.0290    -6.2220     0.6960 N.2   1 <1>  -0.7070 
 18 C        2.4940    -4.5030     1.6510 C.3   1 <1>  -0.0590 
 19 N       -0.1530    -6.2550     0.0620 N.pl3 1 <1>   0.3140 
 20 C       -1.9880    -4.7220    -0.7880 C.3   1 <1>  -0.0600 
 21 C        5.3660     4.4970     0.6230 C.3   1 <1>  -0.2400 
 22 C       -0.7460    -7.5260    -0.3680 C.3   1 <1>   0.0160 
 23 H        2.7230    -0.5170    -0.5100 H     1 <1>   0.3700 
 24 H        1.6860    -2.3920    -0.9290 H     1 <1>   0.0800 
 25 H        0.0740    -2.3070    -1.5700 H     1 <1>   0.0800 
 26 H       -0.8770    -2.3420     0.6850 H     1 <1>   0.0800 
 27 H        0.7060    -2.3010     1.3950 H     1 <1>   0.0800 
 28 H        0.1440     1.4530     1.4610 H     1 <1>   0.0800 
 29 H       -0.5510     2.4530     0.1930 H     1 <1>   0.0800 
 30 H        0.1310     3.2000     1.6260 H     1 <1>   0.0800 
 31 H        4.4160     0.3650    -1.6260 H     1 <1>   0.0800 
 32 H        5.4860     1.4690    -0.7950 H     1 <1>   0.0800 
 33 H        4.7950     1.9080    -2.3420 H     1 <1>   0.0800 
 34 H        3.8810     5.4000    -0.6330 H     1 <1>   0.0800 
 35 H        4.8970     4.2630    -1.4640 H     1 <1>   0.0800 
 36 H        2.9650    -3.7130     1.0980 H     1 <1>   0.0800 
 37 H        3.1850    -5.3210     1.7460 H     1 <1>   0.0800 
 38 H        2.2330    -4.1520     2.6320 H     1 <1>   0.0800 
 39 H       -2.1760    -3.6650    -0.8240 H     1 <1>   0.0800 
 40 H       -2.7940    -5.1920    -0.2530 H     1 <1>   0.0800 
 41 H       -1.9710    -5.0960    -1.7960 H     1 <1>   0.0800 
 42 H        4.8370     4.6980     1.5380 H     1 <1>   0.0800 
 43 H        6.0920     5.2730     0.4620 H     1 <1>   0.0800 
 44 H        5.8750     3.5550     0.7200 H     1 <1>   0.0800 
 45 H       -1.7020    -7.6450     0.1030 H     1 <1>   0.0800 
 46 H       -0.0970    -8.3310    -0.0770 H     1 <1>   0.0800 
 47 H       -0.8560    -7.5190    -1.4350 H     1 <1>   0.0800 
@<TRIPOS>BOND
  1   1   2  2   
  2   2   3  am  
  3   2   4  1   
  4   3   5  1   
  5   3  23  1   
  6   4   6  1   
  7   4  24  1   
  8   4  25  1   
  9   5   7  1   
 10   5   8  2   
 11   6   9  1   
 12   6  26  1   
 13   6  27  1   
 14   7  10  1   
 15   7  11  1   
 16   8  12  1   
 17   8  13  1   
 18   9  14  1   
 19   9  15  2   
 20  10  12  2   
 21  11  28  1   
 22  11  29  1   
 23  11  30  1   
 24  12  16  1   
 25  13  31  1   
 26  13  32  1   
 27  13  33  1   
 28  14  17  2   
 29  14  18  1   
 30  15  19  1   
 31  15  20  1   
 32  16  21  1   
 33  16  34  1   
 34  16  35  1   
 35  17  19  1   
 36  18  36  1   
 37  18  37  1   
 38  18  38  1   
 39  19  22  1   
 40  20  39  1   
 41  20  40  1   
 42  20  41  1   
 43  21  42  1   
 44  21  43  1   
 45  21  44  1   
 46  22  45  1   
 47  22  46  1   
 48  22  47  1   
@<TRIPOS>SUBSTRUCTURE
  1 ****   2 GROUP 4 **** **** 0

# MOE 2024.06 (io_trps.svl 2023.06)
