@<TRIPOS>MOLECULE
NONAME
50 51 1 0 0 
SMALL
USER_CHARGES


@<TRIPOS>ATOM
  1 O        0.2380     0.7080    -1.1400 O.2   1 <1>  -0.5700 
  2 C        0.1080     1.8730    -0.8450 C.2   1 <1>   0.5690 
  3 N       -1.0560     2.3720    -0.3230 N.am  1 <1>  -0.6600 
  4 C        1.2900     2.8110    -1.1010 C.3   1 <1>   0.1810 
  5 C       -1.1930     3.8220     0.0400 C.3   1 <1>   0.3640 
  6 C       -2.2080     1.4920     0.0320 C.3   1 <1>   0.0600 
  7 O        1.2290     4.0020    -0.3550 O.3   1 <1>  -0.5600 
  8 C       -2.5090     4.3650    -0.5400 C.ar  1 <1>  -0.1440 
  9 C       -0.0040     4.6860    -0.4580 C.3   1 <1>   0.2610 
 10 C       -3.5100     4.9320     0.2510 C.ar  1 <1>  -0.1440 
 11 C       -2.7090     4.2820    -1.9150 C.ar  1 <1>  -0.1500 
 12 C        0.0680     6.0250     0.2850 C.2   1 <1>   0.5690 
 13 C       -4.6620     5.4200    -0.3490 C.ar  1 <1>  -0.1500 
 14 C       -3.4040     5.0370     1.7680 C.3   1 <1>  -0.0960 
 15 C       -3.8610     4.7690    -2.5030 C.ar  1 <1>  -0.1500 
 16 O       -0.2290     6.0880     1.4570 O.2   1 <1>  -0.5700 
 17 N        0.4870     7.1300    -0.3930 N.am  1 <1>  -0.7300 
 18 C       -4.8390     5.3430    -1.7170 C.ar  1 <1>  -0.1500 
 19 C        0.6560     8.4800     0.2030 C.3   1 <1>   0.1400 
 20 C        2.1380     8.9190     0.2620 C.3   1 <1>   0.0000 
 21 C        2.1600    10.3220     0.9130 C.3   1 <1>   0.1200 
 22 C        2.7330     8.9800    -1.1610 C.3   1 <1>  -0.2400 
 23 C        2.9570     7.9230     1.1120 C.3   1 <1>  -0.2400 
 24 O        3.4520    10.8190     1.0090 O.3   1 <1>  -0.6800 
 25 H        1.3260     3.0630    -2.1440 H     1 <1>   0.0800 
 26 H        2.2020     2.3080    -0.8350 H     1 <1>   0.0800 
 27 H       -1.2080     3.8740     1.1120 H     1 <1>   0.0800 
 28 H       -2.5010     1.6660     1.0520 H     1 <1>   0.0800 
 29 H       -1.9440     0.4540    -0.0770 H     1 <1>   0.0800 
 30 H       -3.0420     1.7030    -0.6150 H     1 <1>   0.0800 
 31 H       -0.1490     4.9060    -1.4990 H     1 <1>   0.0800 
 32 H       -1.9650     3.8240    -2.5440 H     1 <1>   0.1500 
 33 H       -5.4370     5.8660     0.2500 H     1 <1>   0.1500 
 34 H       -4.3440     5.3300     2.1990 H     1 <1>   0.0800 
 35 H       -2.6730     5.7740     2.0400 H     1 <1>   0.0800 
 36 H       -3.1310     4.0900     2.1960 H     1 <1>   0.0800 
 37 H       -3.9980     4.6970    -3.5680 H     1 <1>   0.1500 
 38 H        0.8490     7.0330    -1.3420 H     1 <1>   0.3700 
 39 H       -5.7380     5.7260    -2.1670 H     1 <1>   0.1500 
 40 H        0.0910     9.1850    -0.3830 H     1 <1>   0.0800 
 41 H        0.2440     8.4840     1.1990 H     1 <1>   0.0800 
 42 H        1.7480    10.2850     1.9080 H     1 <1>   0.0800 
 43 H        1.5880    11.0220     0.3280 H     1 <1>   0.0800 
 44 H        2.7410     8.0090    -1.6200 H     1 <1>   0.0800 
 45 H        3.7480     9.3360    -1.1320 H     1 <1>   0.0800 
 46 H        2.1630     9.6510    -1.7790 H     1 <1>   0.0800 
 47 H        2.9250     6.9370     0.6830 H     1 <1>   0.0800 
 48 H        2.5560     7.8630     2.1090 H     1 <1>   0.0800 
 49 H        3.9880     8.2180     1.1710 H     1 <1>   0.0800 
 50 H        4.0190    10.1860     1.4890 H     1 <1>   0.4000 
@<TRIPOS>BOND
  1   1   2  2   
  2   2   3  am  
  3   2   4  1   
  4   3   5  1   
  5   3   6  1   
  6   4   7  1   
  7   4  25  1   
  8   4  26  1   
  9   5   8  1   
 10   5   9  1   
 11   5  27  1   
 12   6  28  1   
 13   6  29  1   
 14   6  30  1   
 15   7   9  1   
 16   8  10  ar  
 17   8  11  ar  
 18   9  12  1   
 19   9  31  1   
 20  10  13  ar  
 21  10  14  1   
 22  11  15  ar  
 23  11  32  1   
 24  12  16  2   
 25  12  17  am  
 26  13  18  ar  
 27  13  33  1   
 28  14  34  1   
 29  14  35  1   
 30  14  36  1   
 31  15  18  ar  
 32  15  37  1   
 33  17  19  1   
 34  17  38  1   
 35  18  39  1   
 36  19  20  1   
 37  19  40  1   
 38  19  41  1   
 39  20  21  1   
 40  20  22  1   
 41  20  23  1   
 42  21  24  1   
 43  21  42  1   
 44  21  43  1   
 45  22  44  1   
 46  22  45  1   
 47  22  46  1   
 48  23  47  1   
 49  23  48  1   
 50  23  49  1   
 51  24  50  1   
@<TRIPOS>SUBSTRUCTURE
  1 ****   9 GROUP 4 **** **** 0

# MOE 2024.06 (io_trps.svl 2023.06)
