@<TRIPOS>MOLECULE
NONAME
50 52 1 0 0 
SMALL
USER_CHARGES


@<TRIPOS>ATOM
  1 O       -1.9830     1.9410     1.9410 O.2   1 <1>  -0.5700 
  2 C       -1.7600     1.8570     0.7590 C.2   1 <1>   0.5690 
  3 N       -1.6720     0.6710     0.1120 N.am  1 <1>  -0.7300 
  4 C       -1.5520     3.1300    -0.0300 C.3   1 <1>  -0.0990 
  5 C       -1.8340    -0.6520     0.7370 C.3   1 <1>   0.2200 
  6 C       -0.1220     3.6600     0.1500 C.3   1 <1>  -0.0990 
  7 C       -0.5710    -1.4670     0.4890 C.3   1 <1>  -0.1600 
  8 C       -2.9050    -1.4250    -0.0210 C.3   1 <1>  -0.1600 
  9 C        0.0790     4.9520    -0.6090 C.2   1 <1>   0.5690 
 10 C       -0.7080    -2.0300    -0.9300 C.3   1 <1>  -0.1600 
 11 C       -2.2080    -2.0100    -1.2550 C.3   1 <1>  -0.1600 
 12 O        0.3990     4.9030    -1.7720 O.2   1 <1>  -0.5700 
 13 N       -0.0930     6.1240     0.0440 N.am  1 <1>  -0.7300 
 14 C        0.0960     7.4510    -0.5630 C.3   1 <1>   0.3200 
 15 C        1.5730     7.7750    -0.5290 C.2   1 <1>  -0.3320 
 16 N        2.4640     7.0120    -1.2300 N.pl3 1 <1>   0.0330 
 17 C        2.2390     8.7650     0.1150 C.2   1 <1>  -0.1500 
 18 C        3.7210     7.5220    -1.0260 C.ar  1 <1>  -0.1520 
 19 C        3.6120     8.6240    -0.1850 C.ar  1 <1>   0.0000 
 20 C        4.9640     7.1070    -1.5090 C.ar  1 <1>  -0.1500 
 21 C        4.7590     9.3320     0.1860 C.ar  1 <1>  -0.1500 
 22 C        6.0850     7.8110    -1.1370 C.ar  1 <1>  -0.1500 
 23 C        5.9920     8.9240    -0.2900 C.ar  1 <1>   0.0820 
 24 O        7.1680     9.5420     0.0100 O.3   1 <1>  -0.3620 
 25 C        7.1860    10.6710     0.8540 C.3   1 <1>   0.0400 
 26 H       -1.4730     0.6380    -0.8870 H     1 <1>   0.3700 
 27 H       -2.2580     3.8630     0.3180 H     1 <1>   0.0800 
 28 H       -1.7480     2.9490    -1.0710 H     1 <1>   0.0800 
 29 H       -2.0610    -0.5550     1.7860 H     1 <1>   0.0800 
 30 H        0.5810     2.9330    -0.2130 H     1 <1>   0.0800 
 31 H        0.0780     3.8200     1.1940 H     1 <1>   0.0800 
 32 H       -0.5550    -2.2850     1.1880 H     1 <1>   0.0800 
 33 H        0.3230    -0.8840     0.6240 H     1 <1>   0.0800 
 34 H       -3.7520    -0.8090    -0.2710 H     1 <1>   0.0800 
 35 H       -3.2440    -2.2340     0.6030 H     1 <1>   0.0800 
 36 H       -0.3070    -3.0280    -0.9870 H     1 <1>   0.0800 
 37 H       -0.1780    -1.4040    -1.6260 H     1 <1>   0.0800 
 38 H       -2.3860    -1.3800    -2.1100 H     1 <1>   0.0800 
 39 H       -2.5770    -2.9980    -1.4710 H     1 <1>   0.0800 
 40 H       -0.2070     6.1290     1.0580 H     1 <1>   0.3700 
 41 H       -0.4640     8.1870    -0.0130 H     1 <1>   0.0800 
 42 H       -0.2540     7.4420    -1.5820 H     1 <1>   0.0800 
 43 H        2.2160     6.1760    -1.7780 H     1 <1>   0.2700 
 44 H        1.8430     9.5380     0.7490 H     1 <1>   0.1500 
 45 H        5.0320     6.2530    -2.1580 H     1 <1>   0.1500 
 46 H        4.6390    10.1760     0.8350 H     1 <1>   0.1500 
 47 H        7.0580     7.5200    -1.4890 H     1 <1>   0.1500 
 48 H        8.2060    10.9960     0.9550 H     1 <1>   0.0800 
 49 H        6.7940    10.3940     1.8160 H     1 <1>   0.0800 
 50 H        6.5970    11.4510     0.4060 H     1 <1>   0.0800 
@<TRIPOS>BOND
  1   1   2  2   
  2   2   3  am  
  3   2   4  1   
  4   3   5  1   
  5   3  26  1   
  6   4   6  1   
  7   4  27  1   
  8   4  28  1   
  9   5   7  1   
 10   5   8  1   
 11   5  29  1   
 12   6   9  1   
 13   6  30  1   
 14   6  31  1   
 15   7  10  1   
 16   7  32  1   
 17   7  33  1   
 18   8  11  1   
 19   8  34  1   
 20   8  35  1   
 21   9  12  2   
 22   9  13  am  
 23  10  11  1   
 24  10  36  1   
 25  10  37  1   
 26  11  38  1   
 27  11  39  1   
 28  13  14  1   
 29  13  40  1   
 30  14  15  1   
 31  14  41  1   
 32  14  42  1   
 33  15  16  1   
 34  15  17  2   
 35  16  18  1   
 36  16  43  1   
 37  17  19  1   
 38  17  44  1   
 39  18  19  ar  
 40  18  20  ar  
 41  19  21  ar  
 42  20  22  ar  
 43  20  45  1   
 44  21  23  ar  
 45  21  46  1   
 46  22  23  ar  
 47  22  47  1   
 48  23  24  1   
 49  24  25  1   
 50  25  48  1   
 51  25  49  1   
 52  25  50  1   
@<TRIPOS>SUBSTRUCTURE
  1 ****   9 GROUP 4 **** **** 0

# MOE 2024.06 (io_trps.svl 2023.06)
