@<TRIPOS>MOLECULE
NONAME
51 54 1 0 0 
SMALL
USER_CHARGES


@<TRIPOS>ATOM
  1 O       -0.1850     0.0640     0.0630 O.3   1 <1>  -0.0190 
  2 N       -0.3620     1.1090    -0.6870 N.2   1 <1>  -0.4100 
  3 C        0.8370     0.3780     0.8220 C.2   1 <1>   0.2980 
  4 C        0.5230     1.9640    -0.3580 C.2   1 <1>   0.3350 
  5 N        1.3200     1.5450     0.6160 N.2   1 <1>  -0.5650 
  6 C        1.3220    -0.6430     1.8690 C.3   1 <1>   0.4690 
  7 C        0.7050     3.3540    -0.9710 C.3   1 <1>   0.1010 
  8 N        1.3870    -2.0510     1.3750 N.pl3 1 <1>  -0.8380 
  9 C        2.7470    -0.3630     2.3660 C.3   1 <1>  -0.1600 
 10 C        0.0010     4.4170    -0.1170 C.3   1 <1>  -0.2400 
 11 C        0.2030     3.4270    -2.4220 C.3   1 <1>  -0.2400 
 12 C        0.2720    -2.8400     1.2660 C.ar  1 <1>   0.7200 
 13 C        2.7190    -2.6440     1.6180 C.3   1 <1>   0.2090 
 14 C        3.3540    -1.7320     2.6570 C.3   1 <1>  -0.1600 
 15 N        0.4380    -4.0100     0.6640 N.ar  1 <1>  -0.6200 
 16 N       -0.8620    -2.3640     1.7720 N.ar  1 <1>  -0.6200 
 17 C       -0.6340    -4.7630     0.5230 C.ar  1 <1>   0.3100 
 18 C       -1.9200    -3.1190     1.6190 C.ar  1 <1>   0.1600 
 19 C       -0.5100    -6.0400    -0.1380 C.ar  1 <1>   0.0000 
 20 C       -1.8590    -4.3360     0.9940 C.ar  1 <1>  -0.1500 
 21 C       -0.5700    -7.2580     0.5470 C.ar  1 <1>   0.1670 
 22 C       -0.3380    -6.0870    -1.5130 C.ar  1 <1>  -0.1500 
 23 N       -0.5120    -8.4480    -0.0270 N.ar  1 <1>  -0.6200 
 24 C       -0.7110    -7.2950     2.0600 C.3   1 <1>  -0.0970 
 25 C       -0.2640    -7.3220    -2.1160 C.ar  1 <1>  -0.1500 
 26 C       -0.3590    -8.4640    -1.3390 C.ar  1 <1>   0.1670 
 27 C       -0.2870    -9.8330    -1.9790 C.3   1 <1>  -0.0970 
 28 H        0.6550    -0.6030     2.7130 H     1 <1>   0.0800 
 29 H        1.7600     3.5660    -0.9750 H     1 <1>   0.0800 
 30 H        3.3150     0.1100     1.5840 H     1 <1>   0.0800 
 31 H        2.7440     0.2810     3.2270 H     1 <1>   0.0800 
 32 H       -1.0570     4.2250    -0.0840 H     1 <1>   0.0800 
 33 H        0.1670     5.3990    -0.5240 H     1 <1>   0.0800 
 34 H        0.3840     4.3910     0.8880 H     1 <1>   0.0800 
 35 H       -0.8560     3.2420    -2.4630 H     1 <1>   0.0800 
 36 H        0.7020     2.6840    -3.0190 H     1 <1>   0.0800 
 37 H        0.4040     4.3960    -2.8410 H     1 <1>   0.0800 
 38 H        2.6470    -3.6580     1.9770 H     1 <1>   0.0800 
 39 H        3.2810    -2.6270     0.6990 H     1 <1>   0.0800 
 40 H        3.0640    -2.0660     3.6380 H     1 <1>   0.0800 
 41 H        4.4270    -1.7320     2.5850 H     1 <1>   0.0800 
 42 H       -2.8590    -2.7540     2.0010 H     1 <1>   0.1500 
 43 H       -2.7340    -4.9440     0.8690 H     1 <1>   0.1500 
 44 H       -0.2650    -5.1780    -2.0840 H     1 <1>   0.1500 
 45 H       -0.2260    -6.4530     2.5180 H     1 <1>   0.0800 
 46 H       -0.2550    -8.1890     2.4460 H     1 <1>   0.0800 
 47 H       -1.7510    -7.3000     2.3260 H     1 <1>   0.0800 
 48 H       -0.1320    -7.3940    -3.1800 H     1 <1>   0.1500 
 49 H       -0.1640    -9.7590    -3.0440 H     1 <1>   0.0800 
 50 H       -1.1900   -10.3750    -1.7680 H     1 <1>   0.0800 
 51 H        0.5450   -10.3750    -1.5690 H     1 <1>   0.0800 
@<TRIPOS>BOND
  1   1   2  1   
  2   1   3  1   
  3   2   4  2   
  4   3   5  2   
  5   3   6  1   
  6   4   5  1   
  7   4   7  1   
  8   6   8  1   
  9   6   9  1   
 10   6  28  1   
 11   7  10  1   
 12   7  11  1   
 13   7  29  1   
 14   8  12  1   
 15   8  13  1   
 16   9  14  1   
 17   9  30  1   
 18   9  31  1   
 19  10  32  1   
 20  10  33  1   
 21  10  34  1   
 22  11  35  1   
 23  11  36  1   
 24  11  37  1   
 25  12  15  ar  
 26  12  16  ar  
 27  13  14  1   
 28  13  38  1   
 29  13  39  1   
 30  14  40  1   
 31  14  41  1   
 32  15  17  ar  
 33  16  18  ar  
 34  17  19  1   
 35  17  20  ar  
 36  18  20  ar  
 37  18  42  1   
 38  19  21  ar  
 39  19  22  ar  
 40  20  43  1   
 41  21  23  ar  
 42  21  24  1   
 43  22  25  ar  
 44  22  44  1   
 45  23  26  ar  
 46  24  45  1   
 47  24  46  1   
 48  24  47  1   
 49  25  26  ar  
 50  25  48  1   
 51  26  27  1   
 52  27  49  1   
 53  27  50  1   
 54  27  51  1   
@<TRIPOS>SUBSTRUCTURE
  1 ****  12 GROUP 4 **** **** 0

# MOE 2024.06 (io_trps.svl 2023.06)
