@<TRIPOS>MOLECULE
NONAME
49 51 1 0 0 
SMALL
USER_CHARGES


@<TRIPOS>ATOM
  1 CL       4.5180     1.8870    -2.3740 Cl    1 <1>  -0.1770 
  2 C        4.4180     0.2610    -1.7330 C.ar  1 <1>   0.1770 
  3 C        4.6420    -0.0050    -0.3780 C.ar  1 <1>   0.0860 
  4 C        4.0940    -0.7390    -2.6320 C.ar  1 <1>  -0.1500 
  5 C        4.9980     1.0070     0.5970 C.2   1 <1>   0.5440 
  6 C        4.5060    -1.3310     0.0300 C.ar  1 <1>  -0.1500 
  7 C        3.9770    -2.0430    -2.1920 C.ar  1 <1>  -0.1500 
  8 O        4.5490     0.9570     1.7250 O.2   1 <1>  -0.5700 
  9 N        5.8680     2.0130     0.3030 N.am  1 <1>  -0.7300 
 10 C        4.1800    -2.3500    -0.8560 C.ar  1 <1>   0.1000 
 11 C        6.2000     3.1300     1.2060 C.3   1 <1>   0.3200 
 12 N        4.0490    -3.6630    -0.4320 N.pl3 1 <1>  -0.8380 
 13 C        6.4200     4.3770     0.3760 C.2   1 <1>  -0.0400 
 14 C        2.9000    -3.9560     0.4640 C.3   1 <1>   0.2090 
 15 C        5.3000    -4.3600    -0.0350 C.3   1 <1>   0.2090 
 16 O        7.4390     4.4440    -0.4380 O.3   1 <1>  -0.0190 
 17 C        5.7380     5.5280     0.2800 C.2   1 <1>  -0.1500 
 18 C        2.6280    -5.4640     0.4660 C.3   1 <1>  -0.1600 
 19 C        5.0630    -5.8730    -0.0400 C.3   1 <1>  -0.1600 
 20 N        7.4750     5.5780    -1.0750 N.2   1 <1>  -0.4100 
 21 C        6.4610     6.2540    -0.6630 C.2   1 <1>   0.1080 
 22 C        3.8790    -6.2650     0.8570 C.3   1 <1>  -0.1600 
 23 C        6.1100     7.6480    -1.1460 C.3   1 <1>   0.0210 
 24 C        6.5330     8.7100    -0.1230 C.3   1 <1>  -0.1600 
 25 C        6.1870    10.1250    -0.6000 C.3   1 <1>  -0.2400 
 26 H        3.9320    -0.4970    -3.6670 H     1 <1>   0.1500 
 27 H        4.6570    -1.5760     1.0650 H     1 <1>   0.1500 
 28 H        3.7260    -2.8380    -2.8710 H     1 <1>   0.1500 
 29 H        6.1800     2.1510    -0.6620 H     1 <1>   0.3700 
 30 H        7.0940     2.8950     1.7560 H     1 <1>   0.0800 
 31 H        5.3960     3.2920     1.9030 H     1 <1>   0.0800 
 32 H        2.0290    -3.4280     0.1140 H     1 <1>   0.0800 
 33 H        3.1260    -3.6210     1.4610 H     1 <1>   0.0800 
 34 H        5.5950    -4.0360     0.9490 H     1 <1>   0.0800 
 35 H        6.0850    -4.1100    -0.7280 H     1 <1>   0.0800 
 36 H        4.8460     5.8470     0.7860 H     1 <1>   0.1500 
 37 H        2.3050    -5.7530    -0.5180 H     1 <1>   0.0800 
 38 H        1.8290    -5.6790     1.1520 H     1 <1>   0.0800 
 39 H        5.9540    -6.3730     0.2950 H     1 <1>   0.0800 
 40 H        4.8700    -6.1850    -1.0510 H     1 <1>   0.0800 
 41 H        3.6820    -7.3190     0.7630 H     1 <1>   0.0800 
 42 H        4.1270    -6.0600     1.8850 H     1 <1>   0.0800 
 43 H        5.0500     7.7020    -1.3180 H     1 <1>   0.0800 
 44 H        6.6090     7.8270    -2.0820 H     1 <1>   0.0800 
 45 H        7.5950     8.6370     0.0390 H     1 <1>   0.0800 
 46 H        6.0420     8.5200     0.8160 H     1 <1>   0.0800 
 47 H        6.6900    10.3430    -1.5260 H     1 <1>   0.0800 
 48 H        6.4990    10.8460     0.1350 H     1 <1>   0.0800 
 49 H        5.1260    10.2250    -0.7480 H     1 <1>   0.0800 
@<TRIPOS>BOND
  1   1   2  1   
  2   2   3  ar  
  3   2   4  ar  
  4   3   5  1   
  5   3   6  ar  
  6   4   7  ar  
  7   4  26  1   
  8   5   8  2   
  9   5   9  am  
 10   6  10  ar  
 11   6  27  1   
 12   7  10  ar  
 13   7  28  1   
 14   9  11  1   
 15   9  29  1   
 16  10  12  1   
 17  11  13  1   
 18  11  30  1   
 19  11  31  1   
 20  12  14  1   
 21  12  15  1   
 22  13  16  1   
 23  13  17  2   
 24  14  18  1   
 25  14  32  1   
 26  14  33  1   
 27  15  19  1   
 28  15  34  1   
 29  15  35  1   
 30  16  20  1   
 31  17  21  1   
 32  17  36  1   
 33  18  22  1   
 34  18  37  1   
 35  18  38  1   
 36  19  22  1   
 37  19  39  1   
 38  19  40  1   
 39  20  21  2   
 40  21  23  1   
 41  22  41  1   
 42  22  42  1   
 43  23  24  1   
 44  23  43  1   
 45  23  44  1   
 46  24  25  1   
 47  24  45  1   
 48  24  46  1   
 49  25  47  1   
 50  25  48  1   
 51  25  49  1   
@<TRIPOS>SUBSTRUCTURE
  1 ****   5 GROUP 4 **** **** 0

# MOE 2024.06 (io_trps.svl 2023.06)
