@<TRIPOS>MOLECULE
NONAME
51 53 1 0 0 
SMALL
USER_CHARGES


@<TRIPOS>ATOM
  1 CL       1.8160     1.5520     1.9440 Cl    1 <1>  -0.1770 
  2 C        2.8580     0.2680     1.3660 C.ar  1 <1>   0.1770 
  3 C        3.4800     0.3330     0.1150 C.ar  1 <1>   0.0860 
  4 C        3.0210    -0.8160     2.2110 C.ar  1 <1>  -0.1500 
  5 C        3.3540     1.4520    -0.8010 C.2   1 <1>   0.5440 
  6 C        4.2650    -0.7610    -0.2490 C.ar  1 <1>  -0.1500 
  7 C        3.8140    -1.8760     1.8190 C.ar  1 <1>  -0.1500 
  8 O        3.3560     1.2640    -2.0010 O.2   1 <1>  -0.5700 
  9 N        3.2780     2.7410    -0.3590 N.am  1 <1>  -0.7300 
 10 C        4.4410    -1.8580     0.5830 C.ar  1 <1>   0.1000 
 11 C        3.1140     3.9420    -1.2120 C.3   1 <1>   0.2200 
 12 N        5.2270    -2.9360     0.2040 N.pl3 1 <1>  -0.8380 
 13 C        4.3330     4.8590    -1.0300 C.3   1 <1>   0.1400 
 14 C        1.9270     4.7530    -0.6850 C.3   1 <1>  -0.0990 
 15 C        4.6620    -3.8190    -0.8500 C.3   1 <1>   0.2090 
 16 C        6.6810    -2.6770     0.0400 C.3   1 <1>   0.2090 
 17 N        3.9160     5.7870     0.0440 N.am  1 <1>  -0.6600 
 18 C        2.5790     5.7380     0.2440 C.2   1 <1>   0.5690 
 19 C        5.3930    -5.1650    -0.8330 C.3   1 <1>  -0.1600 
 20 C        7.4410    -4.0070     0.0720 C.3   1 <1>  -0.1600 
 21 C        4.8530     6.6610     0.7790 C.3   1 <1>   0.2200 
 22 O        1.9580     6.3840     1.0510 O.2   1 <1>  -0.5700 
 23 C        6.9110    -4.9880    -0.9850 C.3   1 <1>  -0.1600 
 24 C        5.6330     7.5310    -0.2050 C.3   1 <1>  -0.2400 
 25 C        5.7840     5.8050     1.6340 C.3   1 <1>  -0.2400 
 26 H        2.5280    -0.8300     3.1660 H     1 <1>   0.1500 
 27 H        4.7500    -0.7600    -1.2070 H     1 <1>   0.1500 
 28 H        3.9560    -2.7300     2.4570 H     1 <1>   0.1500 
 29 H        3.2420     2.9230     0.6480 H     1 <1>   0.3700 
 30 H        2.9840     3.6570    -2.2430 H     1 <1>   0.0800 
 31 H        4.5160     5.4200    -1.9300 H     1 <1>   0.0800 
 32 H        5.2110     4.2990    -0.7620 H     1 <1>   0.0800 
 33 H        1.1980     4.1480    -0.1790 H     1 <1>   0.0800 
 34 H        1.4590     5.2980    -1.4830 H     1 <1>   0.0800 
 35 H        4.7770    -3.3480    -1.8120 H     1 <1>   0.0800 
 36 H        3.6120    -3.9700    -0.6670 H     1 <1>   0.0800 
 37 H        7.0240    -2.0410     0.8380 H     1 <1>   0.0800 
 38 H        6.8540    -2.1760    -0.8970 H     1 <1>   0.0800 
 39 H        5.0170    -5.7830    -1.6280 H     1 <1>   0.0800 
 40 H        5.1770    -5.6580     0.0990 H     1 <1>   0.0800 
 41 H        7.3340    -4.4370     1.0520 H     1 <1>   0.0800 
 42 H        8.4870    -3.8220    -0.0950 H     1 <1>   0.0800 
 43 H        4.2820     7.3040     1.4300 H     1 <1>   0.0800 
 44 H        7.1290    -4.6050    -1.9680 H     1 <1>   0.0800 
 45 H        7.4030    -5.9390    -0.8790 H     1 <1>   0.0800 
 46 H        6.2600     6.9320    -0.8400 H     1 <1>   0.0800 
 47 H        6.2580     8.2170     0.3380 H     1 <1>   0.0800 
 48 H        4.9500     8.1030    -0.8070 H     1 <1>   0.0800 
 49 H        6.4100     5.1820     1.0220 H     1 <1>   0.0800 
 50 H        5.2050     5.1900     2.2990 H     1 <1>   0.0800 
 51 H        6.4150     6.4400     2.2280 H     1 <1>   0.0800 
@<TRIPOS>BOND
  1   1   2  1   
  2   2   3  ar  
  3   2   4  ar  
  4   3   5  1   
  5   3   6  ar  
  6   4   7  ar  
  7   4  26  1   
  8   5   8  2   
  9   5   9  am  
 10   6  10  ar  
 11   6  27  1   
 12   7  10  ar  
 13   7  28  1   
 14   9  11  1   
 15   9  29  1   
 16  10  12  1   
 17  11  13  1   
 18  11  14  1   
 19  11  30  1   
 20  12  15  1   
 21  12  16  1   
 22  13  17  1   
 23  13  31  1   
 24  13  32  1   
 25  14  18  1   
 26  14  33  1   
 27  14  34  1   
 28  15  19  1   
 29  15  35  1   
 30  15  36  1   
 31  16  20  1   
 32  16  37  1   
 33  16  38  1   
 34  17  18  am  
 35  17  21  1   
 36  18  22  2   
 37  19  23  1   
 38  19  39  1   
 39  19  40  1   
 40  20  23  1   
 41  20  41  1   
 42  20  42  1   
 43  21  24  1   
 44  21  25  1   
 45  21  43  1   
 46  23  44  1   
 47  23  45  1   
 48  24  46  1   
 49  24  47  1   
 50  24  48  1   
 51  25  49  1   
 52  25  50  1   
 53  25  51  1   
@<TRIPOS>SUBSTRUCTURE
  1 ****   3 GROUP 4 **** **** 0

# MOE 2024.06 (io_trps.svl 2023.06)
