@<TRIPOS>MOLECULE
NONAME
41 44 1 0 0 
SMALL
USER_CHARGES


@<TRIPOS>ATOM
  1 CL      -1.6450     0.4790     3.6020 Cl    1 <1>  -0.1240 
  2 C       -2.7720     0.0250     2.3560 C.2   1 <1>   0.1640 
  3 S       -3.3190    -1.6330     2.3510 S.3   1 <1>  -0.0800 
  4 C       -3.3240     0.7370     1.3600 C.2   1 <1>  -0.1500 
  5 C       -4.3460    -1.3410     0.9380 C.2   1 <1>  -0.0450 
  6 C       -4.2100    -0.0400     0.5570 C.2   1 <1>  -0.1500 
  7 C       -5.1160    -2.4480     0.4290 C.2   1 <1>   0.7150 
  8 O       -4.5600    -3.5110     0.2180 O.2   1 <1>  -0.5700 
  9 N       -6.4700    -2.3530     0.1680 N.am  1 <1>  -0.6600 
 10 C       -7.3340    -1.2310     0.6530 C.3   1 <1>   0.1400 
 11 C       -7.2030    -3.5510    -0.3490 C.3   1 <1>   0.1400 
 12 C       -8.3260    -0.7580    -0.4350 C.3   1 <1>   0.1440 
 13 C       -8.7080    -3.2920    -0.5250 C.3   1 <1>  -0.1600 
 14 C       -9.3630     0.1070     0.2630 C.ar  1 <1>   0.1670 
 15 C       -8.9560    -1.9430    -1.2160 C.3   1 <1>  -0.1600 
 16 C       -7.6690     0.2590    -1.4050 C.3   1 <1>  -0.1600 
 17 N      -10.3480    -0.3360     1.0130 N.ar  1 <1>  -0.6200 
 18 C       -9.1430     1.4340     0.0400 C.ar  1 <1>  -0.1430 
 19 C       -7.9390     1.6630    -0.8360 C.3   1 <1>  -0.0170 
 20 C      -11.1190     0.6130     1.5240 C.ar  1 <1>   0.4770 
 21 C      -10.0030     2.3320     0.6210 C.ar  1 <1>   0.1600 
 22 N      -11.0060     1.9270     1.3730 N.ar  1 <1>  -0.6200 
 23 C      -12.2690     0.1450     2.3820 C.3   1 <1>  -0.0970 
 24 H       -3.1330     1.7770     1.1640 H     1 <1>   0.1500 
 25 H       -4.7080     0.4020    -0.2860 H     1 <1>   0.1500 
 26 H       -6.7500    -0.4000     1.0000 H     1 <1>   0.0800 
 27 H       -7.8950    -1.5910     1.4990 H     1 <1>   0.0800 
 28 H       -7.0550    -4.3780     0.3250 H     1 <1>   0.0800 
 29 H       -6.7760    -3.8220    -1.3000 H     1 <1>   0.0800 
 30 H       -9.1930    -3.3050     0.4360 H     1 <1>   0.0800 
 31 H       -9.1370    -4.0870    -1.1100 H     1 <1>   0.0800 
 32 H       -8.5250    -2.0050    -2.1990 H     1 <1>   0.0800 
 33 H      -10.0140    -1.7850    -1.3390 H     1 <1>   0.0800 
 34 H       -8.1590     0.2060    -2.3630 H     1 <1>   0.0800 
 35 H       -6.6230     0.0660    -1.5550 H     1 <1>   0.0800 
 36 H       -8.1410     2.3760    -1.6170 H     1 <1>   0.0800 
 37 H       -7.1120     2.0000    -0.2360 H     1 <1>   0.0800 
 38 H       -9.8730     3.3910     0.4720 H     1 <1>   0.1500 
 39 H      -12.0560    -0.8230     2.7950 H     1 <1>   0.0800 
 40 H      -13.1560     0.0860     1.7810 H     1 <1>   0.0800 
 41 H      -12.4330     0.8390     3.1860 H     1 <1>   0.0800 
@<TRIPOS>BOND
  1   1   2  1   
  2   2   3  1   
  3   2   4  2   
  4   3   5  1   
  5   4   6  1   
  6   4  24  1   
  7   5   6  2   
  8   5   7  1   
  9   6  25  1   
 10   7   8  2   
 11   7   9  am  
 12   9  10  1   
 13   9  11  1   
 14  10  12  1   
 15  10  26  1   
 16  10  27  1   
 17  11  13  1   
 18  11  28  1   
 19  11  29  1   
 20  12  14  1   
 21  12  15  1   
 22  12  16  1   
 23  13  15  1   
 24  13  30  1   
 25  13  31  1   
 26  14  17  ar  
 27  14  18  ar  
 28  15  32  1   
 29  15  33  1   
 30  16  19  1   
 31  16  34  1   
 32  16  35  1   
 33  17  20  ar  
 34  18  19  1   
 35  18  21  ar  
 36  19  36  1   
 37  19  37  1   
 38  20  22  ar  
 39  20  23  1   
 40  21  22  ar  
 41  21  38  1   
 42  23  39  1   
 43  23  40  1   
 44  23  41  1   
@<TRIPOS>SUBSTRUCTURE
  1 ****  10 GROUP 4 **** **** 0

# MOE 2024.06 (io_trps.svl 2023.06)
