@<TRIPOS>MOLECULE
NONAME
47 49 1 0 0 
SMALL
USER_CHARGES


@<TRIPOS>ATOM
  1 S       -0.4290     0.0680     0.5800 S.3   1 <1>  -0.0800 
  2 C       -1.1390    -1.0290    -0.5570 C.2   1 <1>   0.4420 
  3 C       -0.2050     1.1790    -0.7310 C.2   1 <1>   0.1980 
  4 N       -1.1550    -0.5500    -1.7470 N.2   1 <1>  -0.3380 
  5 N       -1.5830    -2.2320    -0.0510 N.am  1 <1>  -0.4940 
  6 N       -0.6220     0.7070    -1.8390 N.2   1 <1>  -0.3380 
  7 C        0.4580     2.5230    -0.4270 C.3   1 <1>   0.3800 
  8 C       -2.1150    -3.3060    -0.7070 C.2   1 <1>   0.5690 
  9 O       -0.1110     3.0670     0.7320 O.3   1 <1>  -0.5600 
 10 C        0.2800     3.5340    -1.5660 C.3   1 <1>  -0.2400 
 11 O       -2.2280    -3.3590    -1.9040 O.2   1 <1>  -0.5700 
 12 C       -2.5670    -4.4910     0.1500 C.3   1 <1>  -0.0190 
 13 C        0.7090     3.9180     1.4720 C.3   1 <1>   0.0400 
 14 C       -1.3940    -5.4490     0.4270 C.3   1 <1>  -0.1600 
 15 C       -3.7340    -5.2750    -0.4840 C.3   1 <1>  -0.1600 
 16 C       -1.8300    -6.6290     1.3000 C.3   1 <1>   0.1400 
 17 C       -4.1600    -6.4670     0.3760 C.3   1 <1>   0.1400 
 18 N       -2.9820    -7.3310     0.6670 N.am  1 <1>  -0.6600 
 19 C       -2.9390    -8.6920     0.3900 C.2   1 <1>   0.5440 
 20 O       -1.8480    -9.2400     0.4130 O.2   1 <1>  -0.5700 
 21 C       -4.1190    -9.4960     0.0490 C.ar  1 <1>   0.3960 
 22 N       -5.2750    -9.3420     0.7250 N.ar  1 <1>  -0.6200 
 23 C       -4.0090   -10.4320    -0.9820 C.ar  1 <1>  -0.1500 
 24 C       -6.2880   -10.1090     0.3690 C.ar  1 <1>   0.1600 
 25 C       -5.0750   -11.2240    -1.3470 C.ar  1 <1>  -0.1500 
 26 C       -6.2450   -11.0500    -0.6440 C.ar  1 <1>  -0.1500 
 27 H       -1.4970    -2.3220     0.9560 H     1 <1>   0.3700 
 28 H        1.5040     2.3450    -0.2480 H     1 <1>   0.0800 
 29 H       -0.7670     3.7320    -1.7170 H     1 <1>   0.0800 
 30 H        0.6810     3.1260    -2.4770 H     1 <1>   0.0800 
 31 H        0.7940     4.4520    -1.3550 H     1 <1>   0.0800 
 32 H       -2.9150    -4.1030     1.0900 H     1 <1>   0.0800 
 33 H        0.1570     4.2420     2.3370 H     1 <1>   0.0800 
 34 H        0.9760     4.7740     0.8780 H     1 <1>   0.0800 
 35 H        1.5880     3.3830     1.7870 H     1 <1>   0.0800 
 36 H       -0.5960    -4.9260     0.9210 H     1 <1>   0.0800 
 37 H       -1.0090    -5.8320    -0.5030 H     1 <1>   0.0800 
 38 H       -3.4430    -5.6410    -1.4540 H     1 <1>   0.0800 
 39 H       -4.5750    -4.6200    -0.6260 H     1 <1>   0.0800 
 40 H       -2.1320    -6.2790     2.2720 H     1 <1>   0.0800 
 41 H       -0.9980    -7.2990     1.4370 H     1 <1>   0.0800 
 42 H       -4.9180    -7.0140    -0.1550 H     1 <1>   0.0800 
 43 H       -4.5820    -6.1270     1.3060 H     1 <1>   0.0800 
 44 H       -3.0680   -10.5300    -1.4920 H     1 <1>   0.1500 
 45 H       -7.2080    -9.9850     0.9150 H     1 <1>   0.1500 
 46 H       -4.9950   -11.9460    -2.1420 H     1 <1>   0.1500 
 47 H       -7.1160   -11.6370    -0.8750 H     1 <1>   0.1500 
@<TRIPOS>BOND
  1   1   2  1   
  2   1   3  1   
  3   2   4  2   
  4   2   5  1   
  5   3   6  2   
  6   3   7  1   
  7   4   6  1   
  8   5   8  am  
  9   5  27  1   
 10   7   9  1   
 11   7  10  1   
 12   7  28  1   
 13   8  11  2   
 14   8  12  1   
 15   9  13  1   
 16  10  29  1   
 17  10  30  1   
 18  10  31  1   
 19  12  14  1   
 20  12  15  1   
 21  12  32  1   
 22  13  33  1   
 23  13  34  1   
 24  13  35  1   
 25  14  16  1   
 26  14  36  1   
 27  14  37  1   
 28  15  17  1   
 29  15  38  1   
 30  15  39  1   
 31  16  18  1   
 32  16  40  1   
 33  16  41  1   
 34  17  18  1   
 35  17  42  1   
 36  17  43  1   
 37  18  19  am  
 38  19  20  2   
 39  19  21  1   
 40  21  22  ar  
 41  21  23  ar  
 42  22  24  ar  
 43  23  25  ar  
 44  23  44  1   
 45  24  26  ar  
 46  24  45  1   
 47  25  26  ar  
 48  25  46  1   
 49  26  47  1   
@<TRIPOS>SUBSTRUCTURE
  1 ****  12 GROUP 4 **** **** 0

# MOE 2024.06 (io_trps.svl 2023.06)
