@<TRIPOS>MOLECULE
NONAME
29 30 1 0 0 
SMALL
USER_CHARGES


@<TRIPOS>ATOM
  1 O        4.2110    -0.3910    -1.5860 O.2   1 <1>  -0.5700 
  2 C        5.2260    -0.1030    -1.0110 C.2   1 <1>   0.5690 
  3 N        5.7890    -0.9690    -0.1380 N.am  1 <1>  -0.7300 
  4 C        5.8880     1.2350    -1.2870 C.3   1 <1>  -0.0990 
  5 C        6.9600    -0.6990     0.7250 C.3   1 <1>   0.1400 
  6 C        6.9720     1.6100    -0.2530 C.3   1 <1>  -0.1600 
  7 C        7.8680     0.4050     0.1230 C.3   1 <1>   0.0000 
  8 C        8.6060    -0.1150    -1.1440 C.3   1 <1>  -0.1600 
  9 C        8.8960     0.8360     1.2010 C.3   1 <1>  -0.1600 
 10 C        9.9670    -0.7260    -0.8190 C.3   1 <1>   0.3430 
 11 C       10.1860     1.3760     0.5820 C.3   1 <1>   0.3430 
 12 N       10.8660     0.3090    -0.2170 N.4   1 <1>  -0.9060 
 13 H        5.2510    -1.8230     0.0400 H     1 <1>   0.3700 
 14 H        5.1270     1.9940    -1.3040 H     1 <1>   0.0800 
 15 H        6.3160     1.1870    -2.2710 H     1 <1>   0.0800 
 16 H        7.5160    -1.6110     0.8580 H     1 <1>   0.0800 
 17 H        6.5960    -0.3870     1.6900 H     1 <1>   0.0800 
 18 H        6.4680     1.9630     0.6320 H     1 <1>   0.0800 
 19 H        7.5580     2.4270    -0.6370 H     1 <1>   0.0800 
 20 H        8.7600     0.6840    -1.8490 H     1 <1>   0.0800 
 21 H        8.0070    -0.8540    -1.6490 H     1 <1>   0.0800 
 22 H        9.1520     0.0060     1.8380 H     1 <1>   0.0800 
 23 H        8.4680     1.5900     1.8390 H     1 <1>   0.0800 
 24 H       10.4150    -1.1310    -1.7140 H     1 <1>   0.0800 
 25 H        9.8250    -1.5340    -0.1200 H     1 <1>   0.0800 
 26 H       10.8460     1.7390     1.3550 H     1 <1>   0.0800 
 27 H        9.9360     2.2060    -0.0610 H     1 <1>   0.0800 
 28 H       11.4010     0.7620    -0.9700 H     1 <1>   0.4500 
 29 H       11.5600    -0.1660     0.3750 H     1 <1>   0.4500 
@<TRIPOS>BOND
  1   1   2  2   
  2   2   3  am  
  3   2   4  1   
  4   3   5  1   
  5   3  13  1   
  6   4   6  1   
  7   4  14  1   
  8   4  15  1   
  9   5   7  1   
 10   5  16  1   
 11   5  17  1   
 12   6   7  1   
 13   6  18  1   
 14   6  19  1   
 15   7   8  1   
 16   7   9  1   
 17   8  10  1   
 18   8  20  1   
 19   8  21  1   
 20   9  11  1   
 21   9  22  1   
 22   9  23  1   
 23  10  12  1   
 24  10  24  1   
 25  10  25  1   
 26  11  12  1   
 27  11  26  1   
 28  11  27  1   
 29  12  28  1   
 30  12  29  1   
@<TRIPOS>SUBSTRUCTURE
  1 ****   7 GROUP 4 **** **** 0

# MOE 2024.06 (io_trps.svl 2023.06)
