@<TRIPOS>MOLECULE
NONAME
43 46 1 0 0 
SMALL
USER_CHARGES


@<TRIPOS>ATOM
  1 S        0.3790    -0.0580     1.0000 S.3   1 <1>  -0.0800 
  2 C        1.1740     1.4820     0.6670 C.ar  1 <1>   0.0400 
  3 C        0.9930    -0.7950    -0.4970 C.2   1 <1>  -0.0450 
  4 C        1.8680     1.4020    -0.5300 C.ar  1 <1>   0.0000 
  5 C        1.1390     2.6200     1.4510 C.ar  1 <1>  -0.1500 
  6 C        0.6590    -2.1630    -0.8120 C.2   1 <1>   0.7150 
  7 C        1.7500     0.1190    -1.1530 C.2   1 <1>  -0.1500 
  8 C        2.5640     2.5310    -0.9550 C.ar  1 <1>  -0.1500 
  9 C        1.8350     3.7310     1.0100 C.ar  1 <1>  -0.1500 
 10 O        1.2430    -2.7370    -1.7140 O.2   1 <1>  -0.5700 
 11 N       -0.2960    -2.8650    -0.1150 N.am  1 <1>  -0.6600 
 12 C        2.5440     3.6830    -0.1880 C.ar  1 <1>  -0.1500 
 13 C       -1.7490    -2.7340    -0.4130 C.3   1 <1>   0.2200 
 14 C        0.0860    -4.1860     0.4510 C.3   1 <1>   0.0600 
 15 C       -2.5510    -2.4570     0.8540 C.3   1 <1>  -0.1600 
 16 C       -2.1350    -1.5860    -1.3450 C.3   1 <1>  -0.1600 
 17 C       -3.8850    -1.8790     0.3620 C.3   1 <1>  -0.0800 
 18 C       -3.6260    -1.3580    -1.0730 C.3   1 <1>  -0.0800 
 19 C       -4.4830    -0.8480     1.3390 C.3   1 <1>   0.1400 
 20 C       -4.0700     0.1000    -1.3170 C.3   1 <1>  -0.0990 
 21 N       -5.5250    -0.0660     0.6440 N.am  1 <1>  -0.7300 
 22 C       -5.3810     0.3900    -0.6170 C.2   1 <1>   0.5690 
 23 O       -6.2540     1.0100    -1.1680 O.2   1 <1>  -0.5700 
 24 H        0.5850     2.6320     2.3730 H     1 <1>   0.1500 
 25 H        2.2470    -0.0770    -2.0870 H     1 <1>   0.1500 
 26 H        3.1140     2.4980    -1.8790 H     1 <1>   0.1500 
 27 H        1.8320     4.6360     1.5940 H     1 <1>   0.1500 
 28 H        3.0830     4.5550    -0.5180 H     1 <1>   0.1500 
 29 H       -2.1010    -3.6530    -0.8540 H     1 <1>   0.0800 
 30 H       -0.3610    -4.3150     1.4210 H     1 <1>   0.0800 
 31 H        1.1570    -4.2490     0.5530 H     1 <1>   0.0800 
 32 H       -0.2420    -4.9750    -0.2040 H     1 <1>   0.0800 
 33 H       -2.6990    -3.3510     1.4330 H     1 <1>   0.0800 
 34 H       -2.0280    -1.7280     1.4480 H     1 <1>   0.0800 
 35 H       -1.5970    -0.6940    -1.0850 H     1 <1>   0.0800 
 36 H       -1.9510    -1.8320    -2.3770 H     1 <1>   0.0800 
 37 H       -4.5890    -2.6920     0.2860 H     1 <1>   0.0800 
 38 H       -4.1900    -1.9860    -1.7430 H     1 <1>   0.0800 
 39 H       -3.7190    -0.1700     1.6810 H     1 <1>   0.0800 
 40 H       -4.9070    -1.3490     2.1930 H     1 <1>   0.0800 
 41 H       -4.1740     0.2850    -2.3700 H     1 <1>   0.0800 
 42 H       -3.3430     0.7870    -0.9260 H     1 <1>   0.0800 
 43 H       -6.3940     0.1570     1.1350 H     1 <1>   0.3700 
@<TRIPOS>BOND
  1   1   2  1   
  2   1   3  1   
  3   2   4  ar  
  4   2   5  ar  
  5   3   6  1   
  6   3   7  2   
  7   4   7  1   
  8   4   8  ar  
  9   5   9  ar  
 10   5  24  1   
 11   6  10  2   
 12   6  11  am  
 13   7  25  1   
 14   8  12  ar  
 15   8  26  1   
 16   9  12  ar  
 17   9  27  1   
 18  11  13  1   
 19  11  14  1   
 20  12  28  1   
 21  13  15  1   
 22  13  16  1   
 23  13  29  1   
 24  14  30  1   
 25  14  31  1   
 26  14  32  1   
 27  15  17  1   
 28  15  33  1   
 29  15  34  1   
 30  16  18  1   
 31  16  35  1   
 32  16  36  1   
 33  17  18  1   
 34  17  19  1   
 35  17  37  1   
 36  18  20  1   
 37  18  38  1   
 38  19  21  1   
 39  19  39  1   
 40  19  40  1   
 41  20  22  1   
 42  20  41  1   
 43  20  42  1   
 44  21  22  am  
 45  21  43  1   
 46  22  23  2   
@<TRIPOS>SUBSTRUCTURE
  1 ****   1 GROUP 4 **** **** 0

# MOE 2024.06 (io_trps.svl 2023.06)
