@<TRIPOS>MOLECULE
NONAME
44 46 1 0 0 
SMALL
USER_CHARGES


@<TRIPOS>ATOM
  1 O        1.0460     0.7460     1.6480 O.co2 1 <1>  -0.9000 
  2 C        1.5040     1.9040     1.6590 C.2   1 <1>   1.0330 
  3 O        2.3460     2.2140     2.5230 O.co2 1 <1>  -0.9000 
  4 C        1.0560     2.8610     0.6490 C.2   1 <1>  -0.0060 
  5 N        1.4100     4.1850     0.5480 N.2   1 <1>  -0.5650 
  6 C        0.2180     2.6020    -0.3760 C.2   1 <1>  -0.0100 
  7 C        0.7910     4.5910    -0.4960 C.2   1 <1>   0.2980 
  8 O        0.0570     3.6840    -1.0880 O.3   1 <1>  -0.2800 
  9 C        0.8720     6.0060    -1.0540 C.3   1 <1>   0.5230 
 10 N        1.9110     6.7910    -0.3060 N.4   1 <1>  -0.9590 
 11 C        1.8560     8.2700    -0.4710 C.3   1 <1>   0.3430 
 12 C        3.3010     6.3450    -0.5730 C.3   1 <1>   0.3430 
 13 C        3.3030     8.7450    -0.6480 C.3   1 <1>   0.0630 
 14 C        4.1390     7.5480    -0.1820 C.3   1 <1>  -0.1600 
 15 C        3.5410    10.0920     0.0440 C.ar  1 <1>  -0.1430 
 16 C        2.7340    11.1800    -0.2980 C.ar  1 <1>   0.0830 
 17 C        4.5400    10.2700     0.9930 C.ar  1 <1>  -0.1500 
 18 O        1.8110    10.9800    -1.2870 O.3   1 <1>  -0.3630 
 19 C        2.8810    12.4110     0.3600 C.ar  1 <1>   0.0830 
 20 C        4.7120    11.4900     1.6180 C.ar  1 <1>  -0.1500 
 21 C        1.6910    11.9350    -2.3240 C.3   1 <1>   0.0400 
 22 O        2.0230    13.4310     0.0690 O.3   1 <1>  -0.3630 
 23 C        3.8860    12.5530     1.3110 C.ar  1 <1>  -0.1500 
 24 C        2.0460    14.6550     0.7720 C.3   1 <1>   0.0400 
 25 H       -0.2770     1.6820    -0.6390 H     1 <1>   0.1500 
 26 H       -0.0930     6.4690    -0.9400 H     1 <1>   0.0800 
 27 H        1.1160     5.9640    -2.1010 H     1 <1>   0.0800 
 28 H        1.7490     6.5430     0.6870 H     1 <1>   0.4500 
 29 H        1.4290     8.7260     0.4080 H     1 <1>   0.0800 
 30 H        1.2720     8.5540    -1.3300 H     1 <1>   0.0800 
 31 H        3.4300     6.1330    -1.6220 H     1 <1>   0.0800 
 32 H        3.5550     5.4690     0.0060 H     1 <1>   0.0800 
 33 H        3.4720     8.8850    -1.7020 H     1 <1>   0.0800 
 34 H        5.1130     7.5250    -0.6400 H     1 <1>   0.0800 
 35 H        4.2470     7.5360     0.8880 H     1 <1>   0.0800 
 36 H        5.2100     9.4760     1.2680 H     1 <1>   0.1500 
 37 H        5.4920    11.6130     2.3510 H     1 <1>   0.1500 
 38 H        1.3300    11.4370    -3.2050 H     1 <1>   0.0800 
 39 H        2.6550    12.3750    -2.5170 H     1 <1>   0.0800 
 40 H        0.9870    12.6900    -2.0230 H     1 <1>   0.0800 
 41 H        4.0450    13.4810     1.8270 H     1 <1>   0.1500 
 42 H        1.2520    15.2720     0.3920 H     1 <1>   0.0800 
 43 H        2.9930    15.1360     0.6060 H     1 <1>   0.0800 
 44 H        1.8870    14.4610     1.8180 H     1 <1>   0.0800 
@<TRIPOS>BOND
  1   1   2  ar  
  2   2   3  ar  
  3   2   4  1   
  4   4   5  1   
  5   4   6  2   
  6   5   7  2   
  7   6   8  1   
  8   6  25  1   
  9   7   8  1   
 10   7   9  1   
 11   9  10  1   
 12   9  26  1   
 13   9  27  1   
 14  10  11  1   
 15  10  12  1   
 16  10  28  1   
 17  11  13  1   
 18  11  29  1   
 19  11  30  1   
 20  12  14  1   
 21  12  31  1   
 22  12  32  1   
 23  13  14  1   
 24  13  15  1   
 25  13  33  1   
 26  14  34  1   
 27  14  35  1   
 28  15  16  ar  
 29  15  17  ar  
 30  16  18  1   
 31  16  19  ar  
 32  17  20  ar  
 33  17  36  1   
 34  18  21  1   
 35  19  22  1   
 36  19  23  ar  
 37  20  23  ar  
 38  20  37  1   
 39  21  38  1   
 40  21  39  1   
 41  21  40  1   
 42  22  24  1   
 43  23  41  1   
 44  24  42  1   
 45  24  43  1   
 46  24  44  1   
@<TRIPOS>SUBSTRUCTURE
  1 ****  11 GROUP 4 **** **** 0

# MOE 2024.06 (io_trps.svl 2023.06)
