@<TRIPOS>MOLECULE
NONAME
40 42 1 0 0 
SMALL
USER_CHARGES


@<TRIPOS>ATOM
  1 CL       0.4640     0.3630    -1.2100 Cl    1 <1>  -0.1230 
  2 C        2.0120    -0.1060    -0.5260 C.2   1 <1>   0.1230 
  3 C        3.1860     0.6530    -0.5420 C.2   1 <1>   0.2030 
  4 C        2.2750    -1.2540     0.1240 C.2   1 <1>  -0.3320 
  5 N        4.1450    -0.0120     0.0980 N.2   1 <1>  -0.7070 
  6 C        3.3130     1.9540    -1.1810 C.2   1 <1>   0.7160 
  7 N        3.5720    -1.1740     0.4840 N.pl3 1 <1>   0.3000 
  8 C        1.3720    -2.4370     0.4310 C.3   1 <1>  -0.0600 
  9 O        2.7630     2.1750    -2.2440 O.2   1 <1>  -0.5700 
 10 N        4.1160     2.9630    -0.6630 N.am  1 <1>  -0.6600 
 11 C        4.6110     2.9260     0.7630 C.3   1 <1>   0.2200 
 12 C        4.5570     4.0820    -1.5550 C.3   1 <1>   0.1400 
 13 C        4.5360     4.2930     1.4640 C.3   1 <1>   0.1200 
 14 C        6.0470     2.3520     0.8290 C.3   1 <1>   0.3430 
 15 C        5.8960     4.7350    -1.1590 C.3   1 <1>  -0.0800 
 16 O        5.6940     5.0370     1.2260 O.3   1 <1>  -0.5600 
 17 N        6.7390     2.3920    -0.5070 N.4   1 <1>  -0.9590 
 18 C        5.7360     5.7120     0.0160 C.3   1 <1>   0.1200 
 19 C        7.0930     3.7760    -0.9620 C.3   1 <1>   0.3430 
 20 C        7.9130     1.4760    -0.5300 C.3   1 <1>   0.2630 
 21 H        4.0830    -1.9080     0.9950 H     1 <1>   0.2700 
 22 H        0.3840    -2.2650     0.0390 H     1 <1>   0.0800 
 23 H        1.2930    -2.5840     1.4940 H     1 <1>   0.0800 
 24 H        1.7620    -3.3330    -0.0190 H     1 <1>   0.0800 
 25 H        3.9670     2.2790     1.3330 H     1 <1>   0.0800 
 26 H        4.6510     3.7070    -2.5610 H     1 <1>   0.0800 
 27 H        3.7810     4.8300    -1.5740 H     1 <1>   0.0800 
 28 H        4.4890     4.1390     2.5290 H     1 <1>   0.0800 
 29 H        3.6630     4.8510     1.1680 H     1 <1>   0.0800 
 30 H        5.9720     1.3280     1.1550 H     1 <1>   0.0800 
 31 H        6.6210     2.8870     1.5670 H     1 <1>   0.0800 
 32 H        6.1610     5.3650    -1.9890 H     1 <1>   0.0800 
 33 H        6.0200     2.0380    -1.1600 H     1 <1>   0.4500 
 34 H        4.8490     6.3170    -0.0830 H     1 <1>   0.0800 
 35 H        6.5850     6.3740     0.0590 H     1 <1>   0.0800 
 36 H        7.7810     4.2200    -0.2600 H     1 <1>   0.0800 
 37 H        7.6060     3.6960    -1.9070 H     1 <1>   0.0800 
 38 H        8.6610     1.8090     0.1720 H     1 <1>   0.0800 
 39 H        8.3490     1.4510    -1.5160 H     1 <1>   0.0800 
 40 H        7.6080     0.4770    -0.2650 H     1 <1>   0.0800 
@<TRIPOS>BOND
  1   1   2  1   
  2   2   3  1   
  3   2   4  2   
  4   3   5  2   
  5   3   6  1   
  6   4   7  1   
  7   4   8  1   
  8   5   7  1   
  9   6   9  2   
 10   6  10  am  
 11   7  21  1   
 12   8  22  1   
 13   8  23  1   
 14   8  24  1   
 15  10  11  1   
 16  10  12  1   
 17  11  13  1   
 18  11  14  1   
 19  11  25  1   
 20  12  15  1   
 21  12  26  1   
 22  12  27  1   
 23  13  16  1   
 24  13  28  1   
 25  13  29  1   
 26  14  17  1   
 27  14  30  1   
 28  14  31  1   
 29  15  18  1   
 30  15  19  1   
 31  15  32  1   
 32  16  18  1   
 33  17  19  1   
 34  17  20  1   
 35  17  33  1   
 36  18  34  1   
 37  18  35  1   
 38  19  36  1   
 39  19  37  1   
 40  20  38  1   
 41  20  39  1   
 42  20  40  1   
@<TRIPOS>SUBSTRUCTURE
  1 ****  10 GROUP 4 **** **** 0

# MOE 2024.06 (io_trps.svl 2023.06)
