@<TRIPOS>MOLECULE
NONAME
48 49 1 0 0 
SMALL
USER_CHARGES


@<TRIPOS>ATOM
  1 S        0.4850    -0.0860    -0.9840 S.o2  1 <1>   1.3330 
  2 O       -0.4910     0.0500    -2.0410 O.2   1 <1>  -0.6500 
  3 O        1.7740    -0.6750    -1.2750 O.2   1 <1>  -0.6500 
  4 N       -0.2460    -1.0170     0.2370 N.am  1 <1>  -0.8490 
  5 C        0.7260     1.5140    -0.1960 C.3   1 <1>  -0.0550 
  6 C       -1.6970    -0.8160     0.3360 C.3   1 <1>   0.1160 
  7 C        0.0440    -2.4480     0.0920 C.3   1 <1>   0.1160 
  8 C        1.9510     1.6740     0.7320 C.3   1 <1>  -0.0800 
  9 C        3.2840     1.6500    -0.0190 C.3   1 <1>   0.2200 
 10 C        2.1330     0.6290     1.8380 C.3   1 <1>   0.1200 
 11 N        3.9270     2.9770     0.0870 N.am  1 <1>  -0.7300 
 12 C        4.0900     0.5880     0.7280 C.3   1 <1>   0.1200 
 13 O        3.5080     0.5020     1.9880 O.3   1 <1>  -0.5600 
 14 C        3.7010     4.0360    -0.7410 C.2   1 <1>   0.5440 
 15 O        2.8970     3.8840    -1.6420 O.2   1 <1>  -0.5700 
 16 C        4.3570     5.3150    -0.5340 C.ar  1 <1>   0.0860 
 17 C        5.6190     5.4590     0.0690 C.ar  1 <1>   0.0820 
 18 C        3.7080     6.4860    -0.9330 C.ar  1 <1>  -0.1500 
 19 O        6.3380     4.3760     0.4410 O.3   1 <1>  -0.3630 
 20 C        6.1700     6.7160     0.3070 C.ar  1 <1>  -0.1440 
 21 C        4.2590     7.7330    -0.7210 C.ar  1 <1>  -0.1500 
 22 C        7.0670     3.7220    -0.5760 C.3   1 <1>   0.0400 
 23 C        5.4860     7.8490    -0.0950 C.ar  1 <1>  -0.1500 
 24 C        7.5180     6.8650     1.0010 C.3   1 <1>  -0.0970 
 25 H        0.8180     2.2540    -0.9690 H     1 <1>   0.0800 
 26 H       -0.1570     1.7600     0.3600 H     1 <1>   0.0800 
 27 H       -2.0870    -1.3530     1.1840 H     1 <1>   0.0800 
 28 H       -2.1880    -1.1670    -0.5570 H     1 <1>   0.0800 
 29 H       -1.9210     0.2290     0.4640 H     1 <1>   0.0800 
 30 H       -0.4270    -3.0070     0.8830 H     1 <1>   0.0800 
 31 H        1.1060    -2.6170     0.1490 H     1 <1>   0.0800 
 32 H       -0.3130    -2.8070    -0.8590 H     1 <1>   0.0800 
 33 H        1.8470     2.6260     1.2230 H     1 <1>   0.0800 
 34 H        3.1830     1.3840    -1.0580 H     1 <1>   0.0800 
 35 H        1.7550    -0.3390     1.5690 H     1 <1>   0.0800 
 36 H        1.7040     0.9410     2.7750 H     1 <1>   0.0800 
 37 H        4.5830     3.1010     0.8660 H     1 <1>   0.3700 
 38 H        5.1310     0.8390     0.8240 H     1 <1>   0.0800 
 39 H        3.9820    -0.3710     0.2490 H     1 <1>   0.0800 
 40 H        2.7490     6.4090    -1.4160 H     1 <1>   0.1500 
 41 H        3.7320     8.6170    -1.0380 H     1 <1>   0.1500 
 42 H        7.6020     2.9010    -0.1330 H     1 <1>   0.0800 
 43 H        7.7580     4.4210    -1.0130 H     1 <1>   0.0800 
 44 H        6.3840     3.3560    -1.3230 H     1 <1>   0.0800 
 45 H        5.9010     8.8280     0.0750 H     1 <1>   0.1500 
 46 H        7.7090     7.8900     1.2620 H     1 <1>   0.0800 
 47 H        8.3040     6.5230     0.3520 H     1 <1>   0.0800 
 48 H        7.5340     6.2790     1.9020 H     1 <1>   0.0800 
@<TRIPOS>BOND
  1   1   2  2   
  2   1   3  2   
  3   1   4  am  
  4   1   5  1   
  5   4   6  1   
  6   4   7  1   
  7   5   8  1   
  8   5  25  1   
  9   5  26  1   
 10   6  27  1   
 11   6  28  1   
 12   6  29  1   
 13   7  30  1   
 14   7  31  1   
 15   7  32  1   
 16   8   9  1   
 17   8  10  1   
 18   8  33  1   
 19   9  11  1   
 20   9  12  1   
 21   9  34  1   
 22  10  13  1   
 23  10  35  1   
 24  10  36  1   
 25  11  14  am  
 26  11  37  1   
 27  12  13  1   
 28  12  38  1   
 29  12  39  1   
 30  14  15  2   
 31  14  16  1   
 32  16  17  ar  
 33  16  18  ar  
 34  17  19  1   
 35  17  20  ar  
 36  18  21  ar  
 37  18  40  1   
 38  19  22  1   
 39  20  23  ar  
 40  20  24  1   
 41  21  23  ar  
 42  21  41  1   
 43  22  42  1   
 44  22  43  1   
 45  22  44  1   
 46  23  45  1   
 47  24  46  1   
 48  24  47  1   
 49  24  48  1   
@<TRIPOS>SUBSTRUCTURE
  1 ****  11 GROUP 4 **** **** 0

# MOE 2024.06 (io_trps.svl 2023.06)
