@<TRIPOS>MOLECULE
NONAME
47 48 1 0 0 
SMALL
USER_CHARGES


@<TRIPOS>ATOM
  1 S        0.5850     0.4810    -1.5600 S.o2  1 <1>   1.3330 
  2 O       -0.1220     1.3690    -2.4550 O.2   1 <1>  -0.6500 
  3 O        0.7230    -0.9160    -1.9070 O.2   1 <1>  -0.6500 
  4 N       -0.2040     0.5600    -0.0580 N.am  1 <1>  -0.8490 
  5 C        2.2230     1.1380    -1.2360 C.3   1 <1>  -0.0550 
  6 C       -0.5910     1.9240     0.3240 C.3   1 <1>   0.1160 
  7 C       -1.3760    -0.3180    -0.0150 C.3   1 <1>   0.1160 
  8 C        3.1160     0.2310    -0.3590 C.3   1 <1>  -0.0800 
  9 C        4.5300     0.7460    -0.1320 C.3   1 <1>   0.2200 
 10 C        2.6170     0.0050     1.0720 C.3   1 <1>   0.1200 
 11 N        4.5110     2.1880     0.2070 N.am  1 <1>  -0.7300 
 12 C        4.9150    -0.0440     1.1110 C.3   1 <1>   0.1200 
 13 O        3.7530    -0.1180     1.8800 O.3   1 <1>  -0.5600 
 14 C        4.7200     3.2170    -0.6640 C.2   1 <1>   0.6160 
 15 O        5.0590     2.9350    -1.7990 O.2   1 <1>  -0.5700 
 16 C        4.5360     4.5870    -0.2620 C.2   1 <1>   0.0290 
 17 C        3.3340     4.9010     0.4560 C.2   1 <1>   0.6160 
 18 C        5.4250     5.6090    -0.5340 C.2   1 <1>  -0.1380 
 19 O        2.4770     4.0850     0.7730 O.2   1 <1>  -0.5700 
 20 N        3.1060     6.1970     0.8300 N.am  1 <1>  -0.5390 
 21 C        5.1250     6.9290    -0.1250 C.2   1 <1>  -0.1500 
 22 C        6.7460     5.4020    -1.2680 C.3   1 <1>  -0.1020 
 23 C        3.9760     7.2090     0.5490 C.2   1 <1>  -0.0290 
 24 C        3.5970     8.6000     1.0130 C.3   1 <1>  -0.1020 
 25 H        2.7210     1.2810    -2.1750 H     1 <1>   0.0800 
 26 H        2.1240     2.1020    -0.7840 H     1 <1>   0.0800 
 27 H       -1.0320     1.9210     1.3050 H     1 <1>   0.0800 
 28 H       -1.3020     2.3270    -0.3790 H     1 <1>   0.0800 
 29 H        0.2720     2.5670     0.3480 H     1 <1>   0.0800 
 30 H       -1.8440    -0.2680     0.9530 H     1 <1>   0.0800 
 31 H       -1.0790    -1.3380    -0.1920 H     1 <1>   0.0800 
 32 H       -2.0880    -0.0290    -0.7700 H     1 <1>   0.0800 
 33 H        3.1850    -0.7330    -0.8330 H     1 <1>   0.0800 
 34 H        5.1880     0.5550    -0.9630 H     1 <1>   0.0800 
 35 H        2.0220    -0.8890     1.1570 H     1 <1>   0.0800 
 36 H        2.0560     0.8500     1.4330 H     1 <1>   0.0800 
 37 H        4.0230     2.3910     1.0870 H     1 <1>   0.3700 
 38 H        5.6980     0.4270     1.6780 H     1 <1>   0.0800 
 39 H        5.2010    -1.0480     0.8500 H     1 <1>   0.0800 
 40 H        2.2320     6.3530     1.3330 H     1 <1>   0.3700 
 41 H        5.8260     7.7120    -0.3600 H     1 <1>   0.1500 
 42 H        7.4950     6.0800    -0.9000 H     1 <1>   0.0800 
 43 H        6.6070     5.5760    -2.3200 H     1 <1>   0.0800 
 44 H        7.1160     4.4010    -1.1340 H     1 <1>   0.0800 
 45 H        2.6670     8.8970     0.5630 H     1 <1>   0.0800 
 46 H        4.3540     9.3120     0.7370 H     1 <1>   0.0800 
 47 H        3.4890     8.6140     2.0830 H     1 <1>   0.0800 
@<TRIPOS>BOND
  1   1   2  2   
  2   1   3  2   
  3   1   4  am  
  4   1   5  1   
  5   4   6  1   
  6   4   7  1   
  7   5   8  1   
  8   5  25  1   
  9   5  26  1   
 10   6  27  1   
 11   6  28  1   
 12   6  29  1   
 13   7  30  1   
 14   7  31  1   
 15   7  32  1   
 16   8   9  1   
 17   8  10  1   
 18   8  33  1   
 19   9  11  1   
 20   9  12  1   
 21   9  34  1   
 22  10  13  1   
 23  10  35  1   
 24  10  36  1   
 25  11  14  am  
 26  11  37  1   
 27  12  13  1   
 28  12  38  1   
 29  12  39  1   
 30  14  15  2   
 31  14  16  1   
 32  16  17  1   
 33  16  18  2   
 34  17  19  2   
 35  17  20  am  
 36  18  21  1   
 37  18  22  1   
 38  20  23  1   
 39  20  40  1   
 40  21  23  2   
 41  21  41  1   
 42  22  42  1   
 43  22  43  1   
 44  22  44  1   
 45  23  24  1   
 46  24  45  1   
 47  24  46  1   
 48  24  47  1   
@<TRIPOS>SUBSTRUCTURE
  1 ****  11 GROUP 4 **** **** 0

# MOE 2024.06 (io_trps.svl 2023.06)
