@<TRIPOS>MOLECULE
NONAME
56 59 1 0 0 
SMALL
USER_CHARGES


@<TRIPOS>ATOM
  1 O       -1.2490     0.6730    -1.2270 O.2   1 <1>  -0.5700 
  2 C       -1.2740     0.6450    -0.0200 C.2   1 <1>   0.5690 
  3 N       -1.6570    -0.4700     0.6490 N.am  1 <1>  -0.7300 
  4 C       -0.8870     1.8790     0.7960 C.3   1 <1>  -0.0190 
  5 C       -2.0870    -1.7300     0.0050 C.3   1 <1>   0.2200 
  6 C       -2.1410     2.6080     1.3160 C.3   1 <1>  -0.1600 
  7 C        0.0090     2.8600     0.0110 C.3   1 <1>  -0.1600 
  8 C       -3.6060    -1.7810    -0.0210 C.3   1 <1>  -0.0800 
  9 C       -1.7550    -2.9040     0.9160 C.3   1 <1>   0.1200 
 10 C       -1.7790     3.8600     2.1210 C.3   1 <1>   0.1400 
 11 C        0.3450     4.1030     0.8380 C.3   1 <1>   0.1400 
 12 C       -3.9410    -2.3470     1.3660 C.3   1 <1>   0.1200 
 13 C       -4.1190    -2.6800    -1.1610 C.3   1 <1>  -0.0170 
 14 O       -2.7760    -2.9410     1.8650 O.3   1 <1>  -0.5600 
 15 N       -0.9190     4.7460     1.2900 N.am  1 <1>  -0.6600 
 16 C       -5.6390    -2.7140    -1.2040 C.ar  1 <1>  -0.1440 
 17 C       -1.3250     6.0180     0.9570 C.2   1 <1>   0.5770 
 18 C       -6.3630    -3.8080    -0.7720 C.ar  1 <1>  -0.1500 
 19 C       -6.3740    -1.6490    -1.6830 C.ar  1 <1>  -0.1500 
 20 O       -2.3310     6.4970     1.4290 O.2   1 <1>  -0.5700 
 21 C       -0.5090     6.8670    -0.0200 C.3   1 <1>   0.0530 
 22 C       -7.7460    -3.7800    -0.8330 C.ar  1 <1>   0.1600 
 23 C       -7.7570    -1.7230    -1.7010 C.ar  1 <1>   0.1600 
 24 C       -1.1610     8.1900    -0.5180 C.3   1 <1>   0.0000 
 25 C       -0.5740     6.3860    -1.4960 C.3   1 <1>   0.0000 
 26 N       -8.4610    -2.7630    -1.2860 N.ar  1 <1>  -0.6200 
 27 C       -0.5390     7.8810    -1.9030 C.3   1 <1>   0.0000 
 28 H       -1.7340    -0.4760     1.6680 H     1 <1>   0.3700 
 29 H       -0.3240     1.5350     1.6450 H     1 <1>   0.0800 
 30 H       -1.6380    -1.8240    -0.9710 H     1 <1>   0.0800 
 31 H       -2.7200     1.9480     1.9360 H     1 <1>   0.0800 
 32 H       -2.7600     2.9010     0.4840 H     1 <1>   0.0800 
 33 H       -0.4910     3.1710    -0.8910 H     1 <1>   0.0800 
 34 H        0.9190     2.3650    -0.2780 H     1 <1>   0.0800 
 35 H       -4.0240    -0.7980    -0.1460 H     1 <1>   0.0800 
 36 H       -0.8040    -2.7950     1.4070 H     1 <1>   0.0800 
 37 H       -1.7800    -3.8310     0.3700 H     1 <1>   0.0800 
 38 H       -1.2430     3.5870     3.0140 H     1 <1>   0.0800 
 39 H       -2.6800     4.3680     2.4190 H     1 <1>   0.0800 
 40 H        0.9450     4.7750     0.2530 H     1 <1>   0.0800 
 41 H        0.9200     3.8200     1.7040 H     1 <1>   0.0800 
 42 H       -4.7230    -3.0850     1.3410 H     1 <1>   0.0800 
 43 H       -4.2190    -1.5580     2.0430 H     1 <1>   0.0800 
 44 H       -3.7390    -3.6810    -1.0500 H     1 <1>   0.0800 
 45 H       -3.7590    -2.3000    -2.1020 H     1 <1>   0.0800 
 46 H       -5.8670    -4.6800    -0.3880 H     1 <1>   0.1500 
 47 H       -5.8840    -0.7620    -2.0420 H     1 <1>   0.1500 
 48 H        0.5030     7.0320     0.3090 H     1 <1>   0.0000 
 49 H       -8.2940    -4.6420    -0.4910 H     1 <1>   0.1500 
 50 H       -8.3130    -0.8820    -2.0790 H     1 <1>   0.1500 
 51 H       -2.2370     8.1670    -0.5470 H     1 <1>   0.0000 
 52 H       -0.7630     9.0740    -0.0510 H     1 <1>   0.0000 
 53 H        0.2900     5.8310    -1.8170 H     1 <1>   0.0000 
 54 H       -1.5080     5.9110    -1.7450 H     1 <1>   0.0000 
 55 H        0.4630     8.2620    -2.0050 H     1 <1>   0.0000 
 56 H       -1.1800     8.1220    -2.7330 H     1 <1>   0.0000 
@<TRIPOS>BOND
  1   1   2  2   
  2   2   3  am  
  3   2   4  1   
  4   3   5  1   
  5   3  28  1   
  6   4   6  1   
  7   4   7  1   
  8   4  29  1   
  9   5   8  1   
 10   5   9  1   
 11   5  30  1   
 12   6  10  1   
 13   6  31  1   
 14   6  32  1   
 15   7  11  1   
 16   7  33  1   
 17   7  34  1   
 18   8  12  1   
 19   8  13  1   
 20   8  35  1   
 21   9  14  1   
 22   9  36  1   
 23   9  37  1   
 24  10  15  1   
 25  10  38  1   
 26  10  39  1   
 27  11  15  1   
 28  11  40  1   
 29  11  41  1   
 30  12  14  1   
 31  12  42  1   
 32  12  43  1   
 33  13  16  1   
 34  13  44  1   
 35  13  45  1   
 36  15  17  am  
 37  16  18  ar  
 38  16  19  ar  
 39  17  20  2   
 40  17  21  1   
 41  18  22  ar  
 42  18  46  1   
 43  19  23  ar  
 44  19  47  1   
 45  21  24  1   
 46  21  25  1   
 47  21  48  1   
 48  22  26  ar  
 49  22  49  1   
 50  23  26  ar  
 51  23  50  1   
 52  24  27  1   
 53  24  51  1   
 54  24  52  1   
 55  25  27  1   
 56  25  53  1   
 57  25  54  1   
 58  27  55  1   
 59  27  56  1   
@<TRIPOS>SUBSTRUCTURE
  1 ****   2 GROUP 4 **** **** 0

# MOE 2024.06 (io_trps.svl 2023.06)
