@<TRIPOS>MOLECULE
NONAME
46 49 1 0 0 
SMALL
USER_CHARGES


@<TRIPOS>ATOM
  1 F        0.8870     0.1300    -1.3790 F     1 <1>  -0.1370 
  2 C        2.0690    -0.1830    -0.9110 C.2   1 <1>  -0.0150 
  3 N        2.3290    -1.4110    -0.4600 N.pl3 1 <1>   0.3340 
  4 C        3.1610     0.6210    -0.7970 C.2   1 <1>   0.1410 
  5 C        3.6430    -1.3130    -0.0550 C.2   1 <1>   0.1410 
  6 C        1.6130    -2.5950    -0.3360 C.2   1 <1>  -0.1810 
  7 N        4.1670    -0.1180    -0.2390 N.2   1 <1>  -0.5650 
  8 C        3.2850     2.0100    -1.2090 C.2   1 <1>   0.7160 
  9 C        4.2590    -2.4680     0.4970 C.2   1 <1>  -0.1050 
 10 C        2.2090    -3.6930     0.1950 C.2   1 <1>  -0.1500 
 11 O        2.6870     2.4130    -2.1880 O.2   1 <1>  -0.5700 
 12 N        4.1270     2.9050    -0.5650 N.am  1 <1>  -0.6600 
 13 C        3.5650    -3.6340     0.6230 C.2   1 <1>  -0.1380 
 14 C        4.5880     2.6840     0.8570 C.3   1 <1>   0.2200 
 15 C        4.6040     4.1160    -1.3020 C.3   1 <1>   0.1400 
 16 C        4.1870    -4.8900     1.2070 C.3   1 <1>  -0.1020 
 17 C        4.5160     3.9570     1.7170 C.3   1 <1>   0.1200 
 18 C        6.0170     2.0870     0.8870 C.3   1 <1>   0.3430 
 19 C        5.9450     4.6880    -0.8040 C.3   1 <1>  -0.0800 
 20 O        5.6900     4.7040     1.5970 O.3   1 <1>  -0.5600 
 21 N        6.7340     2.2680    -0.4230 N.4   1 <1>  -0.9590 
 22 C        5.7750     5.5180     0.4770 C.3   1 <1>   0.1200 
 23 C        7.1210     3.6890    -0.7060 C.3   1 <1>   0.3430 
 24 C        7.8900     1.3360    -0.5340 C.3   1 <1>   0.2630 
 25 H        0.5930    -2.5770    -0.6780 H     1 <1>   0.1500 
 26 H        5.2840    -2.3810     0.8060 H     1 <1>   0.1500 
 27 H        1.6770    -4.6240     0.3030 H     1 <1>   0.1500 
 28 H        3.9230     1.9810     1.3260 H     1 <1>   0.0800 
 29 H        4.7080     3.8640    -2.3450 H     1 <1>   0.0800 
 30 H        3.8400     4.8750    -1.2410 H     1 <1>   0.0800 
 31 H        3.6390    -5.2010     2.0790 H     1 <1>   0.0800 
 32 H        5.2100    -4.7180     1.4910 H     1 <1>   0.0800 
 33 H        4.1630    -5.6840     0.4810 H     1 <1>   0.0800 
 34 H        4.4400     3.6770     2.7530 H     1 <1>   0.0800 
 35 H        3.6590     4.5620     1.4700 H     1 <1>   0.0800 
 36 H        5.9260     1.0340     1.0960 H     1 <1>   0.0800 
 37 H        6.5820     2.5290     1.6910 H     1 <1>   0.0800 
 38 H        6.2380     5.4100    -1.5460 H     1 <1>   0.0800 
 39 H        6.0210     2.0060    -1.1250 H     1 <1>   0.4500 
 40 H        4.9030     6.1500     0.4340 H     1 <1>   0.0800 
 41 H        6.6350     6.1510     0.6200 H     1 <1>   0.0800 
 42 H        7.8050     4.0320     0.0540 H     1 <1>   0.0800 
 43 H        7.6480     3.7100    -1.6460 H     1 <1>   0.0800 
 44 H        8.6300     1.5660     0.2150 H     1 <1>   0.0800 
 45 H        8.3450     1.4180    -1.5080 H     1 <1>   0.0800 
 46 H        7.5610     0.3180    -0.3950 H     1 <1>   0.0800 
@<TRIPOS>BOND
  1   1   2  1   
  2   2   3  1   
  3   2   4  2   
  4   3   5  1   
  5   3   6  1   
  6   4   7  1   
  7   4   8  1   
  8   5   7  2   
  9   5   9  1   
 10   6  10  2   
 11   6  25  1   
 12   8  11  2   
 13   8  12  am  
 14   9  13  2   
 15   9  26  1   
 16  10  13  1   
 17  10  27  1   
 18  12  14  1   
 19  12  15  1   
 20  13  16  1   
 21  14  17  1   
 22  14  18  1   
 23  14  28  1   
 24  15  19  1   
 25  15  29  1   
 26  15  30  1   
 27  16  31  1   
 28  16  32  1   
 29  16  33  1   
 30  17  20  1   
 31  17  34  1   
 32  17  35  1   
 33  18  21  1   
 34  18  36  1   
 35  18  37  1   
 36  19  22  1   
 37  19  23  1   
 38  19  38  1   
 39  20  22  1   
 40  21  23  1   
 41  21  24  1   
 42  21  39  1   
 43  22  40  1   
 44  22  41  1   
 45  23  42  1   
 46  23  43  1   
 47  24  44  1   
 48  24  45  1   
 49  24  46  1   
@<TRIPOS>SUBSTRUCTURE
  1 ****   7 GROUP 4 **** **** 0

# MOE 2024.06 (io_trps.svl 2023.06)
