@<TRIPOS>MOLECULE
NONAME
54 56 1 0 0 
SMALL
USER_CHARGES


@<TRIPOS>ATOM
  1 O       -0.5290     0.5360     0.6290 O.2   1 <1>  -0.5700 
  2 C       -0.4830     1.7440     0.6530 C.2   1 <1>   0.5690 
  3 N       -1.5120     2.5070     1.1340 N.am  1 <1>  -0.6600 
  4 C        0.7660     2.4250     0.0910 C.3   1 <1>   0.1810 
  5 C       -1.4380     4.0060     1.1250 C.3   1 <1>   0.3640 
  6 C       -2.6990     1.9150     1.8150 C.3   1 <1>   0.0600 
  7 O        0.9450     3.7330     0.5740 O.3   1 <1>  -0.5600 
  8 C       -2.7120     4.6230     0.5200 C.ar  1 <1>  -0.1430 
  9 C       -0.1820     4.5760     0.4110 C.3   1 <1>   0.2610 
 10 C       -3.2830     4.2490    -0.7020 C.ar  1 <1>  -0.1430 
 11 C       -3.3190     5.6330     1.2580 C.ar  1 <1>  -0.1500 
 12 C        0.1570     6.0080     0.8710 C.2   1 <1>   0.5690 
 13 C       -4.4340     4.8890    -1.1410 C.ar  1 <1>  -0.1500 
 14 C       -2.7260     3.1490    -1.6020 C.3   1 <1>  -0.0960 
 15 C       -4.4620     6.2650     0.8090 C.ar  1 <1>  -0.1500 
 16 O       -0.3070     6.4110     1.9160 O.2   1 <1>  -0.5700 
 17 N        0.9860     6.8130     0.1180 N.am  1 <1>  -0.6600 
 18 C       -5.0230     5.8910    -0.3950 C.ar  1 <1>  -0.1500 
 19 C        1.7670     6.3600    -1.0640 C.3   1 <1>   0.1400 
 20 C        1.3840     8.1640     0.5920 C.3   1 <1>   0.1400 
 21 C        3.2470     6.2870    -0.6780 C.3   1 <1>  -0.1600 
 22 C        2.8560     8.1180     1.0170 C.3   1 <1>  -0.1600 
 23 C        3.8110     7.6080    -0.0970 C.3   1 <1>   0.0610 
 24 C        5.2360     7.3400     0.4440 C.2   1 <1>   0.5690 
 25 C        3.9130     8.6730    -1.2130 C.3   1 <1>  -0.2400 
 26 O        6.0390     6.7590    -0.2420 O.2   1 <1>  -0.5700 
 27 N        5.6160     7.7560     1.6690 N.am  1 <1>  -0.8000 
 28 H        0.7060     2.4600    -0.9810 H     1 <1>   0.0800 
 29 H        1.6330     1.8550     0.3710 H     1 <1>   0.0800 
 30 H       -1.3810     4.2970     2.1590 H     1 <1>   0.0800 
 31 H       -2.7790     2.3050     2.8140 H     1 <1>   0.0800 
 32 H       -2.6110     0.8430     1.8700 H     1 <1>   0.0800 
 33 H       -3.5950     2.1570     1.2700 H     1 <1>   0.0800 
 34 H       -0.3940     4.6290    -0.6380 H     1 <1>   0.0800 
 35 H       -2.8980     5.9480     2.1980 H     1 <1>   0.1500 
 36 H       -4.8880     4.6090    -2.0760 H     1 <1>   0.1500 
 37 H       -3.1560     3.2040    -2.5860 H     1 <1>   0.0800 
 38 H       -2.9630     2.1850    -1.1900 H     1 <1>   0.0800 
 39 H       -1.6630     3.2290    -1.7100 H     1 <1>   0.0800 
 40 H       -4.9130     7.0460     1.3960 H     1 <1>   0.1500 
 41 H       -5.9140     6.3780    -0.7510 H     1 <1>   0.1500 
 42 H        1.4460     5.3940    -1.4060 H     1 <1>   0.0800 
 43 H        1.6240     7.0560    -1.8720 H     1 <1>   0.0800 
 44 H        1.2340     8.8780    -0.1980 H     1 <1>   0.0800 
 45 H        0.7770     8.4700     1.4260 H     1 <1>   0.0800 
 46 H        3.3600     5.5040     0.0530 H     1 <1>   0.0800 
 47 H        3.8200     5.9950    -1.5400 H     1 <1>   0.0800 
 48 H        3.1540     9.1000     1.3370 H     1 <1>   0.0800 
 49 H        2.9180     7.4630     1.8690 H     1 <1>   0.0800 
 50 H        2.9590     8.8950    -1.6530 H     1 <1>   0.0800 
 51 H        4.5690     8.3260    -1.9930 H     1 <1>   0.0800 
 52 H        4.3250     9.5840    -0.8180 H     1 <1>   0.0800 
 53 H        6.5670     7.5590     1.9850 H     1 <1>   0.3700 
 54 H        5.0030     8.2360     2.3250 H     1 <1>   0.3700 
@<TRIPOS>BOND
  1   1   2  2   
  2   2   3  am  
  3   2   4  1   
  4   3   5  1   
  5   3   6  1   
  6   4   7  1   
  7   4  28  1   
  8   4  29  1   
  9   5   8  1   
 10   5   9  1   
 11   5  30  1   
 12   6  31  1   
 13   6  32  1   
 14   6  33  1   
 15   7   9  1   
 16   8  10  ar  
 17   8  11  ar  
 18   9  12  1   
 19   9  34  1   
 20  10  13  ar  
 21  10  14  1   
 22  11  15  ar  
 23  11  35  1   
 24  12  16  2   
 25  12  17  am  
 26  13  18  ar  
 27  13  36  1   
 28  14  37  1   
 29  14  38  1   
 30  14  39  1   
 31  15  18  ar  
 32  15  40  1   
 33  17  19  1   
 34  17  20  1   
 35  18  41  1   
 36  19  21  1   
 37  19  42  1   
 38  19  43  1   
 39  20  22  1   
 40  20  44  1   
 41  20  45  1   
 42  21  23  1   
 43  21  46  1   
 44  21  47  1   
 45  22  23  1   
 46  22  48  1   
 47  22  49  1   
 48  23  24  1   
 49  23  25  1   
 50  24  26  2   
 51  24  27  am  
 52  25  50  1   
 53  25  51  1   
 54  25  52  1   
 55  27  53  1   
 56  27  54  1   
@<TRIPOS>SUBSTRUCTURE
  1 ****   9 GROUP 4 **** **** 0

# MOE 2024.06 (io_trps.svl 2023.06)
