@<TRIPOS>MOLECULE
NONAME
38 40 1 0 0 
SMALL
USER_CHARGES


@<TRIPOS>ATOM
  1 CL       0.2720    -0.5650     2.4700 Cl    1 <1>  -0.1770 
  2 C        1.4480    -1.0940     1.2800 C.ar  1 <1>   0.1770 
  3 C        1.2230    -2.2310     0.4890 C.ar  1 <1>   0.4100 
  4 C        2.6020    -0.3610     1.1500 C.ar  1 <1>  -0.1500 
  5 N        2.1050    -2.6390    -0.4200 N.ar  1 <1>  -0.6200 
  6 N        0.0600    -2.9820     0.6050 N.pl3 1 <1>  -0.8380 
  7 C        3.5200    -0.7980     0.2040 C.ar  1 <1>  -0.1430 
  8 C        3.2140    -1.9280    -0.5360 C.ar  1 <1>   0.1600 
  9 C       -1.2110    -2.3750     0.1280 C.3   1 <1>   0.2090 
 10 C        0.0630    -4.4360     0.2770 C.3   1 <1>   0.2090 
 11 C        4.8470    -0.0970    -0.0580 C.3   1 <1>   1.1640 
 12 C       -2.0080    -3.5210    -0.5000 C.3   1 <1>   0.2000 
 13 C       -1.4050    -4.7990     0.0710 C.3   1 <1>  -0.0800 
 14 F        4.9780     0.2600    -1.3280 F     1 <1>  -0.3400 
 15 F        5.8830    -0.8740     0.2210 F     1 <1>  -0.3400 
 16 F        5.0030     1.0090     0.6590 F     1 <1>  -0.3400 
 17 O       -3.3570    -3.4530    -0.1780 O.3   1 <1>  -0.6800 
 18 C       -1.6280    -6.0210    -0.8360 C.3   1 <1>  -0.0170 
 19 C       -1.0320    -7.2840    -0.2350 C.ar  1 <1>   0.1670 
 20 N        0.2670    -7.4670    -0.4110 N.ar  1 <1>  -0.6200 
 21 C       -1.8460    -8.1760     0.4610 C.ar  1 <1>   0.1600 
 22 C        0.6930    -8.5860     0.1500 C.ar  1 <1>   0.1600 
 23 N       -1.4230    -9.2960     1.0240 N.ar  1 <1>  -0.6200 
 24 C       -0.1250    -9.4700     0.8440 C.ar  1 <1>   0.1600 
 25 H        2.7670     0.5070     1.7650 H     1 <1>   0.1500 
 26 H        3.9210    -2.2760    -1.2740 H     1 <1>   0.1500 
 27 H       -1.7380    -1.9570     0.9670 H     1 <1>   0.0800 
 28 H       -1.0130    -1.6090    -0.6020 H     1 <1>   0.0800 
 29 H        0.6170    -4.6150    -0.6300 H     1 <1>   0.0800 
 30 H        0.5040    -5.0060     1.0770 H     1 <1>   0.0800 
 31 H       -1.9100    -3.4850    -1.5720 H     1 <1>   0.0800 
 32 H       -1.8210    -4.9910     1.0440 H     1 <1>   0.0800 
 33 H       -3.4710    -3.4560     0.7920 H     1 <1>   0.4000 
 34 H       -1.1830    -5.8500    -1.8010 H     1 <1>   0.0800 
 35 H       -2.6840    -6.1580    -0.9880 H     1 <1>   0.0800 
 36 H       -2.8940    -7.9530     0.5590 H     1 <1>   0.1500 
 37 H        1.7390    -8.8150     0.0570 H     1 <1>   0.1500 
 38 H        0.3150   -10.3560     1.2670 H     1 <1>   0.1500 
@<TRIPOS>BOND
  1   1   2  1   
  2   2   3  ar  
  3   2   4  ar  
  4   3   5  ar  
  5   3   6  1   
  6   4   7  ar  
  7   4  25  1   
  8   5   8  ar  
  9   6   9  1   
 10   6  10  1   
 11   7   8  ar  
 12   7  11  1   
 13   8  26  1   
 14   9  12  1   
 15   9  27  1   
 16   9  28  1   
 17  10  13  1   
 18  10  29  1   
 19  10  30  1   
 20  11  14  1   
 21  11  15  1   
 22  11  16  1   
 23  12  13  1   
 24  12  17  1   
 25  12  31  1   
 26  13  18  1   
 27  13  32  1   
 28  17  33  1   
 29  18  19  1   
 30  18  34  1   
 31  18  35  1   
 32  19  20  ar  
 33  19  21  ar  
 34  20  22  ar  
 35  21  23  ar  
 36  21  36  1   
 37  22  24  ar  
 38  22  37  1   
 39  23  24  ar  
 40  24  38  1   
@<TRIPOS>SUBSTRUCTURE
  1 ****   6 GROUP 4 **** **** 0

# MOE 2024.06 (io_trps.svl 2023.06)
