@<TRIPOS>MOLECULE
NONAME
37 39 1 0 0 
SMALL
USER_CHARGES


@<TRIPOS>ATOM
  1 CL      -1.1420    -1.7110    -3.0950 Cl    1 <1>  -0.1770 
  2 C       -1.4080    -2.3400    -1.4890 C.ar  1 <1>   0.1770 
  3 C       -2.7000    -2.4450    -1.0100 C.ar  1 <1>  -0.1500 
  4 C       -0.3240    -2.7230    -0.7230 C.ar  1 <1>  -0.1500 
  5 C       -2.9200    -2.9460     0.2650 C.ar  1 <1>  -0.1440 
  6 C       -0.5410    -3.2220     0.5500 C.ar  1 <1>  -0.1500 
  7 C       -1.8330    -3.3330     1.0390 C.ar  1 <1>  -0.1500 
  8 C       -4.3380    -3.0810     0.8020 C.3   1 <1>   0.1640 
  9 C       -4.9390    -4.4200     0.4090 C.2   1 <1>  -0.0400 
 10 O       -6.1630    -4.7140     0.7540 O.3   1 <1>  -0.2800 
 11 C       -4.4490    -5.4640    -0.2780 C.2   1 <1>   0.0770 
 12 C       -6.3860    -5.9140     0.2710 C.2   1 <1>   0.2980 
 13 N       -5.3910    -6.4300    -0.3620 N.2   1 <1>  -0.5650 
 14 C       -7.7450    -6.5850     0.4870 C.3   1 <1>   0.6030 
 15 N       -7.7030    -7.9740    -0.0570 N.4   1 <1>  -0.9060 
 16 C       -8.8730    -5.8100    -0.2100 C.3   1 <1>  -0.1600 
 17 C       -8.9670    -8.7360     0.0840 C.3   1 <1>   0.3430 
 18 C      -10.2240    -6.5350    -0.1110 C.3   1 <1>  -0.1600 
 19 C      -10.0990    -7.9800    -0.6160 C.3   1 <1>  -0.1600 
 20 H       -3.5170    -2.1370    -1.6390 H     1 <1>   0.1500 
 21 H        0.6710    -2.6310    -1.1190 H     1 <1>   0.1500 
 22 H        0.2950    -3.5240     1.1590 H     1 <1>   0.1500 
 23 H       -1.9850    -3.7250     2.0300 H     1 <1>   0.1500 
 24 H       -4.9510    -2.2890     0.4100 H     1 <1>   0.0800 
 25 H       -4.3340    -2.9930     1.8730 H     1 <1>   0.0800 
 26 H       -3.4710    -5.5790    -0.7190 H     1 <1>   0.1500 
 27 H       -7.9420    -6.6210     1.5450 H     1 <1>   0.0800 
 28 H       -6.9050    -8.4500     0.3830 H     1 <1>   0.4500 
 29 H       -7.4350    -7.8800    -1.0440 H     1 <1>   0.4500 
 30 H       -8.6150    -5.6590    -1.2440 H     1 <1>   0.0800 
 31 H       -8.9590    -4.8360     0.2410 H     1 <1>   0.0800 
 32 H       -9.2080    -8.8570     1.1290 H     1 <1>   0.0800 
 33 H       -8.8610    -9.7170    -0.3540 H     1 <1>   0.0800 
 34 H      -10.9640    -6.0090    -0.6930 H     1 <1>   0.0800 
 35 H      -10.5600    -6.5390     0.9140 H     1 <1>   0.0800 
 36 H      -11.0270    -8.4980    -0.4430 H     1 <1>   0.0800 
 37 H       -9.9270    -7.9830    -1.6790 H     1 <1>   0.0800 
@<TRIPOS>BOND
  1   1   2  1   
  2   2   3  ar  
  3   2   4  ar  
  4   3   5  ar  
  5   3  20  1   
  6   4   6  ar  
  7   4  21  1   
  8   5   7  ar  
  9   5   8  1   
 10   6   7  ar  
 11   6  22  1   
 12   7  23  1   
 13   8   9  1   
 14   8  24  1   
 15   8  25  1   
 16   9  10  1   
 17   9  11  2   
 18  10  12  1   
 19  11  13  1   
 20  11  26  1   
 21  12  13  2   
 22  12  14  1   
 23  14  15  1   
 24  14  16  1   
 25  14  27  1   
 26  15  17  1   
 27  15  28  1   
 28  15  29  1   
 29  16  18  1   
 30  16  30  1   
 31  16  31  1   
 32  17  19  1   
 33  17  32  1   
 34  17  33  1   
 35  18  19  1   
 36  18  34  1   
 37  18  35  1   
 38  19  36  1   
 39  19  37  1   
@<TRIPOS>SUBSTRUCTURE
  1 ****   9 GROUP 4 **** **** 0

# MOE 2024.06 (io_trps.svl 2023.06)
