@<TRIPOS>MOLECULE
NONAME
27 27 1 0 0 
SMALL
USER_CHARGES


@<TRIPOS>ATOM
  1 F        0.6050    -0.5600     1.3190 F     1 <1>  -0.3400 
  2 C        1.0280    -1.5740     0.5740 C.3   1 <1>   0.7810 
  3 F        0.7500    -2.6580     1.2860 F     1 <1>  -0.3400 
  4 C        2.5310    -1.4730     0.3530 C.2   1 <1>  -0.1810 
  5 C        3.3260    -2.5090    -0.1220 C.2   1 <1>   0.1390 
  6 C        3.3930    -0.4480     0.5400 C.2   1 <1>  -0.3020 
  7 N        4.5670    -2.1650    -0.2320 N.2   1 <1>  -0.7070 
  8 N        4.6490    -0.8560     0.1890 N.pl3 1 <1>   0.5610 
  9 C        5.8360    -0.0560     0.2420 C.2   1 <1>   0.7290 
 10 O        5.8150     1.1080     0.5940 O.2   1 <1>  -0.5700 
 11 O        6.9900    -0.6370    -0.1160 O.3   1 <1>  -0.4300 
 12 C        8.2810    -0.0720    -0.1520 C.3   1 <1>   0.2800 
 13 C        8.3210     1.0840    -1.1580 C.3   1 <1>  -0.2400 
 14 C        8.7060     0.3620     1.2550 C.3   1 <1>  -0.2400 
 15 C        9.1960    -1.1970    -0.6350 C.3   1 <1>  -0.2400 
 16 H        0.4460    -1.6000    -0.3300 H     1 <1>   0.0800 
 17 H        2.9610    -3.4930    -0.3720 H     1 <1>   0.1500 
 18 H        3.2040     0.5480     0.9010 H     1 <1>   0.1500 
 19 H        7.7400     1.9200    -0.8160 H     1 <1>   0.0800 
 20 H        7.9510     0.7610    -2.1150 H     1 <1>   0.0800 
 21 H        9.3330     1.4240    -1.2830 H     1 <1>   0.0800 
 22 H        8.1240     1.1970     1.5980 H     1 <1>   0.0800 
 23 H        9.7370     0.6680     1.2470 H     1 <1>   0.0800 
 24 H        8.6000    -0.4540     1.9470 H     1 <1>   0.0800 
 25 H        8.8930    -1.5320    -1.6110 H     1 <1>   0.0800 
 26 H        9.1570    -2.0280     0.0470 H     1 <1>   0.0800 
 27 H       10.2130    -0.8540    -0.6940 H     1 <1>   0.0800 
@<TRIPOS>BOND
  1   1   2  1   
  2   2   3  1   
  3   2   4  1   
  4   2  16  1   
  5   4   5  1   
  6   4   6  2   
  7   5   7  2   
  8   5  17  1   
  9   6   8  1   
 10   6  18  1   
 11   7   8  1   
 12   8   9  1   
 13   9  10  2   
 14   9  11  1   
 15  11  12  1   
 16  12  13  1   
 17  12  14  1   
 18  12  15  1   
 19  13  19  1   
 20  13  20  1   
 21  13  21  1   
 22  14  22  1   
 23  14  23  1   
 24  14  24  1   
 25  15  25  1   
 26  15  26  1   
 27  15  27  1   
@<TRIPOS>SUBSTRUCTURE
  1 ****   8 GROUP 4 **** **** 0

# MOE 2024.06 (io_trps.svl 2023.06)
