@<TRIPOS>MOLECULE
NONAME
51 53 1 0 0 
SMALL
USER_CHARGES


@<TRIPOS>ATOM
  1 O        1.5870    -1.2020     1.7800 O.3   1 <1>  -0.0190 
  2 N        0.5030    -0.9100     1.1300 N.2   1 <1>  -0.4100 
  3 C        2.5390    -1.0470     0.8960 C.2   1 <1>   0.2980 
  4 C        0.8430    -0.6150    -0.0620 C.2   1 <1>   0.3350 
  5 N        2.1510    -0.6800    -0.2650 N.2   1 <1>  -0.5650 
  6 C        3.9840    -1.3040     1.3450 C.3   1 <1>   0.3700 
  7 C       -0.0920    -0.2180    -1.1890 C.3   1 <1>   0.0210 
  8 N        4.9650    -0.6370     0.4730 N.3   1 <1>  -0.9000 
  9 C        4.3000    -2.7950     1.2980 C.3   1 <1>  -0.2400 
 10 C       -1.5560    -0.2020    -0.7510 C.3   1 <1>   0.1200 
 11 C        5.3300     0.7200     0.8390 C.3   1 <1>   0.1900 
 12 O       -2.3310     0.1990    -1.8350 O.3   1 <1>  -0.5600 
 13 C        4.1990     1.7070     0.5360 C.3   1 <1>  -0.1600 
 14 C        6.5760     1.0690     0.0280 C.3   1 <1>  -0.1600 
 15 C       -3.6950     0.2390    -1.5680 C.3   1 <1>   0.0400 
 16 C        4.6500     3.1520     0.7230 C.3   1 <1>   0.3430 
 17 C        6.9910     2.5210     0.2370 C.3   1 <1>   0.3430 
 18 N        5.8570     3.4190    -0.1150 N.4   1 <1>  -0.9590 
 19 C        6.2580     4.8560    -0.0650 C.3   1 <1>   0.5230 
 20 C        5.2650     5.6980    -0.8470 C.2   1 <1>  -0.0400 
 21 O        4.0610     5.9040    -0.3480 O.3   1 <1>  -0.2800 
 22 C        5.3940     6.3230    -2.0380 C.2   1 <1>  -0.1500 
 23 C        3.3970     6.6580    -1.2020 C.2   1 <1>  -0.0100 
 24 C        4.1650     6.9530    -2.2710 C.2   1 <1>  -0.1500 
 25 H        4.1070    -0.9600     2.3580 H     1 <1>   0.0800 
 26 H        0.0270    -0.9170    -1.9960 H     1 <1>   0.0800 
 27 H        0.1840     0.7610    -1.5350 H     1 <1>   0.0800 
 28 H        4.5430    -0.6460    -0.4670 H     1 <1>   0.3600 
 29 H        4.1770    -3.1710     0.2970 H     1 <1>   0.0800 
 30 H        3.6330    -3.3320     1.9480 H     1 <1>   0.0800 
 31 H        5.3090    -2.9710     1.6230 H     1 <1>   0.0800 
 32 H       -1.7010     0.4970     0.0560 H     1 <1>   0.0800 
 33 H       -1.8680    -1.1860    -0.4440 H     1 <1>   0.0800 
 34 H        5.5780     0.7530     1.8890 H     1 <1>   0.0800 
 35 H        3.3730     1.5330     1.2010 H     1 <1>   0.0800 
 36 H        3.8490     1.5770    -0.4730 H     1 <1>   0.0800 
 37 H        6.3990     0.8990    -1.0200 H     1 <1>   0.0800 
 38 H        7.3840     0.4280     0.3340 H     1 <1>   0.0800 
 39 H       -4.2020     0.5600    -2.4610 H     1 <1>   0.0800 
 40 H       -3.8830     0.9410    -0.7730 H     1 <1>   0.0800 
 41 H       -4.0330    -0.7450    -1.2940 H     1 <1>   0.0800 
 42 H        4.8780     3.3290     1.7620 H     1 <1>   0.0800 
 43 H        3.8420     3.8070     0.4390 H     1 <1>   0.0800 
 44 H        7.8450     2.7400    -0.3830 H     1 <1>   0.0800 
 45 H        7.2710     2.6700     1.2680 H     1 <1>   0.0800 
 46 H        5.5820     3.2340    -1.0900 H     1 <1>   0.4500 
 47 H        7.2310     4.9760    -0.5110 H     1 <1>   0.0800 
 48 H        6.3050     5.2020     0.9540 H     1 <1>   0.0800 
 49 H        6.2370     6.3670    -2.7080 H     1 <1>   0.1500 
 50 H        2.3830     6.9430    -0.9740 H     1 <1>   0.1500 
 51 H        3.9160     7.5460    -3.1350 H     1 <1>   0.1500 
@<TRIPOS>BOND
  1   1   2  1   
  2   1   3  1   
  3   2   4  2   
  4   3   5  2   
  5   3   6  1   
  6   4   5  1   
  7   4   7  1   
  8   6   8  1   
  9   6   9  1   
 10   6  25  1   
 11   7  10  1   
 12   7  26  1   
 13   7  27  1   
 14   8  11  1   
 15   8  28  1   
 16   9  29  1   
 17   9  30  1   
 18   9  31  1   
 19  10  12  1   
 20  10  32  1   
 21  10  33  1   
 22  11  13  1   
 23  11  14  1   
 24  11  34  1   
 25  12  15  1   
 26  13  16  1   
 27  13  35  1   
 28  13  36  1   
 29  14  17  1   
 30  14  37  1   
 31  14  38  1   
 32  15  39  1   
 33  15  40  1   
 34  15  41  1   
 35  16  18  1   
 36  16  42  1   
 37  16  43  1   
 38  17  18  1   
 39  17  44  1   
 40  17  45  1   
 41  18  19  1   
 42  18  46  1   
 43  19  20  1   
 44  19  47  1   
 45  19  48  1   
 46  20  21  1   
 47  20  22  2   
 48  21  23  1   
 49  22  24  1   
 50  22  49  1   
 51  23  24  2   
 52  23  50  1   
 53  24  51  1   
@<TRIPOS>SUBSTRUCTURE
  1 ****  13 GROUP 4 **** **** 0

# MOE 2024.06 (io_trps.svl 2023.06)
