@<TRIPOS>MOLECULE
NONAME
44 45 1 0 0 
SMALL
USER_CHARGES


@<TRIPOS>ATOM
  1 S        0.5900     0.5170    -1.7650 S.o2  1 <1>   1.3330 
  2 O        0.9160    -0.7530    -2.3730 O.2   1 <1>  -0.6500 
  3 O       -0.1890     1.4860    -2.5020 O.2   1 <1>  -0.6500 
  4 N       -0.2400     0.2010    -0.3160 N.am  1 <1>  -0.8490 
  5 C        2.1240     1.2760    -1.2250 C.3   1 <1>  -0.0550 
  6 C       -1.1710    -0.9240    -0.4490 C.3   1 <1>   0.1160 
  7 C       -0.9530     1.3710     0.2110 C.3   1 <1>   0.1160 
  8 C        3.0760     0.3170    -0.4760 C.3   1 <1>  -0.0800 
  9 C        4.4570     0.8840    -0.1840 C.3   1 <1>   0.2200 
 10 C        2.5930    -0.1330     0.9100 C.3   1 <1>   0.1200 
 11 N        4.3590     2.2850     0.2900 N.am  1 <1>  -0.7300 
 12 C        4.8750     0.0050     0.9850 C.3   1 <1>   0.1200 
 13 O        3.7160    -0.1430     1.7440 O.3   1 <1>  -0.5600 
 14 C        4.6300     3.3960    -0.4540 C.2   1 <1>   0.6160 
 15 O        4.9330     3.2420    -1.6230 O.2   1 <1>  -0.5700 
 16 C        4.5390     4.7370     0.1130 C.2   1 <1>   0.1140 
 17 N        4.8390     5.8190    -0.7050 N.pl3 1 <1>  -0.6000 
 18 C        4.1700     5.0140     1.4010 C.2   1 <1>  -0.1360 
 19 C        4.7840     7.1220    -0.2820 C.2   1 <1>  -0.0380 
 20 C        4.0890     6.3390     1.8880 C.2   1 <1>   0.5410 
 21 C        4.4150     7.3900     0.9960 C.2   1 <1>  -0.1360 
 22 C        5.1480     8.1880    -1.2950 C.3   1 <1>  -0.1020 
 23 O        3.7450     6.5640     3.0440 O.2   1 <1>  -0.5700 
 24 H        2.6390     1.6400    -2.0940 H     1 <1>   0.0800 
 25 H        1.9010     2.1250    -0.6100 H     1 <1>   0.0800 
 26 H       -1.6740    -1.1070     0.4850 H     1 <1>   0.0800 
 27 H       -0.6340    -1.8180    -0.7210 H     1 <1>   0.0800 
 28 H       -1.9030    -0.7160    -1.2120 H     1 <1>   0.0800 
 29 H       -1.3850     1.1400     1.1700 H     1 <1>   0.0800 
 30 H       -1.7380     1.6700    -0.4640 H     1 <1>   0.0800 
 31 H       -0.2730     2.1960     0.3350 H     1 <1>   0.0800 
 32 H        3.2060    -0.5670    -1.0760 H     1 <1>   0.0800 
 33 H        5.1310     0.8050    -1.0220 H     1 <1>   0.0800 
 34 H        2.1660    -1.1210     0.8810 H     1 <1>   0.0800 
 35 H        1.8820     0.5560     1.3330 H     1 <1>   0.0800 
 36 H        4.0870     2.3610     1.2720 H     1 <1>   0.3700 
 37 H        5.6520     0.4450     1.5850 H     1 <1>   0.0800 
 38 H        5.1780    -0.9700     0.6450 H     1 <1>   0.0800 
 39 H        5.1140     5.5870    -1.6730 H     1 <1>   0.4000 
 40 H        3.9210     4.2470     2.1060 H     1 <1>   0.1500 
 41 H        4.3530     8.3880     1.3850 H     1 <1>   0.1500 
 42 H        6.1560     8.0400    -1.6380 H     1 <1>   0.0800 
 43 H        5.0760     9.1670    -0.8570 H     1 <1>   0.0800 
 44 H        4.4810     8.1400    -2.1370 H     1 <1>   0.0800 
@<TRIPOS>BOND
  1   1   2  2   
  2   1   3  2   
  3   1   4  am  
  4   1   5  1   
  5   4   6  1   
  6   4   7  1   
  7   5   8  1   
  8   5  24  1   
  9   5  25  1   
 10   6  26  1   
 11   6  27  1   
 12   6  28  1   
 13   7  29  1   
 14   7  30  1   
 15   7  31  1   
 16   8   9  1   
 17   8  10  1   
 18   8  32  1   
 19   9  11  1   
 20   9  12  1   
 21   9  33  1   
 22  10  13  1   
 23  10  34  1   
 24  10  35  1   
 25  11  14  am  
 26  11  36  1   
 27  12  13  1   
 28  12  37  1   
 29  12  38  1   
 30  14  15  2   
 31  14  16  1   
 32  16  17  1   
 33  16  18  2   
 34  17  19  1   
 35  17  39  1   
 36  18  20  1   
 37  18  40  1   
 38  19  21  2   
 39  19  22  1   
 40  20  21  1   
 41  20  23  2   
 42  21  41  1   
 43  22  42  1   
 44  22  43  1   
 45  22  44  1   
@<TRIPOS>SUBSTRUCTURE
  1 ****  11 GROUP 4 **** **** 0

# MOE 2024.06 (io_trps.svl 2023.06)
