@<TRIPOS>MOLECULE
NONAME
46 47 1 0 0 
SMALL
USER_CHARGES


@<TRIPOS>ATOM
  1 S       -1.2030     0.3460    -1.5330 S.3   1 <1>  -0.3320 
  2 C       -0.7340     1.7730    -0.5380 C.ar  1 <1>   0.1020 
  3 C       -1.8650    -0.9260    -0.3760 C.3   1 <1>   0.1500 
  4 C       -0.7260     3.0040    -1.1700 C.ar  1 <1>  -0.1500 
  5 C       -0.3900     1.6570     0.7990 C.ar  1 <1>  -0.1500 
  6 C       -2.0940    -2.1990    -1.1920 C.3   1 <1>  -0.1600 
  7 C       -3.1760    -0.3940     0.2100 C.3   1 <1>  -0.1600 
  8 C       -0.3880     4.1430    -0.4570 C.ar  1 <1>  -0.1430 
  9 C       -0.0530     2.7960     1.5100 C.ar  1 <1>  -0.1500 
 10 C       -2.8270    -3.2540    -0.3700 C.3   1 <1>   0.3430 
 11 C       -3.8990    -1.4740     1.0100 C.3   1 <1>   0.3430 
 12 C       -0.0540     4.0320     0.8840 C.ar  1 <1>  -0.1500 
 13 C       -0.3780     5.5000    -1.1380 C.3   1 <1>  -0.0960 
 14 N       -4.1010    -2.6800     0.1590 N.4   1 <1>  -0.9590 
 15 C       -4.9510    -3.7370     0.8330 C.3   1 <1>   0.4040 
 16 C       -5.5240    -4.7730    -0.1530 C.2   1 <1>   0.5690 
 17 O       -5.5510    -4.4710    -1.3230 O.2   1 <1>  -0.5700 
 18 N       -5.9680    -5.9800     0.2860 N.am  1 <1>  -0.7300 
 19 C       -6.5780    -7.0050    -0.5770 C.3   1 <1>   0.2780 
 20 C       -7.6900    -7.6390     0.2270 C.2   1 <1>  -0.2880 
 21 C       -7.6970    -8.8970     0.6790 C.2   1 <1>  -0.3000 
 22 H       -1.1240    -1.0960     0.3850 H     1 <1>   0.0800 
 23 H       -0.9830     3.0630    -2.2120 H     1 <1>   0.1500 
 24 H       -0.3670     0.7070     1.2920 H     1 <1>   0.1500 
 25 H       -1.1450    -2.5930    -1.5120 H     1 <1>   0.0800 
 26 H       -2.6690    -1.9750    -2.0740 H     1 <1>   0.0800 
 27 H       -3.8180    -0.0490    -0.5820 H     1 <1>   0.0800 
 28 H       -2.9740     0.4440     0.8520 H     1 <1>   0.0800 
 29 H        0.2180     2.7260     2.5500 H     1 <1>   0.1500 
 30 H       -2.2020    -3.5770     0.4470 H     1 <1>   0.0800 
 31 H       -3.0390    -4.1060    -0.9970 H     1 <1>   0.0800 
 32 H       -4.8510    -1.0920     1.3450 H     1 <1>   0.0800 
 33 H       -3.3130    -1.7330     1.8780 H     1 <1>   0.0800 
 34 H        0.2110     4.9110     1.4460 H     1 <1>   0.1500 
 35 H       -1.0280     5.5000    -1.9940 H     1 <1>   0.0800 
 36 H        0.6200     5.7370    -1.4600 H     1 <1>   0.0800 
 37 H       -0.7140     6.2620    -0.4580 H     1 <1>   0.0800 
 38 H       -4.6430    -2.4070    -0.6810 H     1 <1>   0.4500 
 39 H       -5.7850    -3.2650     1.3210 H     1 <1>   0.0800 
 40 H       -4.3710    -4.2500     1.5800 H     1 <1>   0.0800 
 41 H       -5.9730    -6.2540     1.2710 H     1 <1>   0.3700 
 42 H       -5.8370    -7.7410    -0.8400 H     1 <1>   0.0800 
 43 H       -6.9690    -6.5660    -1.4810 H     1 <1>   0.0800 
 44 H       -8.5060    -6.9590     0.4030 H     1 <1>   0.1500 
 45 H       -8.5060    -9.3250     1.2480 H     1 <1>   0.1500 
 46 H       -6.9040    -9.6090     0.5210 H     1 <1>   0.1500 
@<TRIPOS>BOND
  1   1   2  1   
  2   1   3  1   
  3   2   4  ar  
  4   2   5  ar  
  5   3   6  1   
  6   3   7  1   
  7   3  22  1   
  8   4   8  ar  
  9   4  23  1   
 10   5   9  ar  
 11   5  24  1   
 12   6  10  1   
 13   6  25  1   
 14   6  26  1   
 15   7  11  1   
 16   7  27  1   
 17   7  28  1   
 18   8  12  ar  
 19   8  13  1   
 20   9  12  ar  
 21   9  29  1   
 22  10  14  1   
 23  10  30  1   
 24  10  31  1   
 25  11  14  1   
 26  11  32  1   
 27  11  33  1   
 28  12  34  1   
 29  13  35  1   
 30  13  36  1   
 31  13  37  1   
 32  14  15  1   
 33  14  38  1   
 34  15  16  1   
 35  15  39  1   
 36  15  40  1   
 37  16  17  2   
 38  16  18  am  
 39  18  19  1   
 40  18  41  1   
 41  19  20  1   
 42  19  42  1   
 43  19  43  1   
 44  20  21  2   
 45  20  44  1   
 46  21  45  1   
 47  21  46  1   
@<TRIPOS>SUBSTRUCTURE
  1 ****   7 GROUP 4 **** **** 0

# MOE 2024.06 (io_trps.svl 2023.06)
