@<TRIPOS>MOLECULE
NONAME
53 56 1 0 0 
SMALL
USER_CHARGES


@<TRIPOS>ATOM
  1 CL       3.7840    -1.7290     1.0980 Cl    1 <1>  -0.1770 
  2 C        2.6770    -3.0190     0.7010 C.ar  1 <1>   0.1770 
  3 C        3.0890    -4.0260    -0.1520 C.ar  1 <1>  -0.1500 
  4 C        1.4060    -3.0130     1.2490 C.ar  1 <1>  -0.1500 
  5 C        2.2080    -5.0480    -0.4680 C.ar  1 <1>  -0.1500 
  6 C        0.5280    -4.0360     0.9330 C.ar  1 <1>  -0.1500 
  7 C        0.9270    -5.0510     0.0670 C.ar  1 <1>   0.0830 
  8 O        0.1000    -6.0740    -0.2650 O.3   1 <1>  -0.1650 
  9 C       -1.2200    -5.8800    -0.5130 C.ar  1 <1>   0.0830 
 10 C       -2.1000    -6.8860    -0.1500 C.ar  1 <1>  -0.1500 
 11 C       -1.6990    -4.7310    -1.1300 C.ar  1 <1>  -0.1500 
 12 C       -3.4590    -6.7520    -0.3930 C.ar  1 <1>  -0.1430 
 13 C       -3.0540    -4.5890    -1.3630 C.ar  1 <1>  -0.1500 
 14 C       -3.9330    -5.5930    -0.9940 C.ar  1 <1>  -0.1500 
 15 C       -4.4170    -7.8630    -0.0130 C.3   1 <1>   0.4860 
 16 N       -4.7940    -8.6010    -1.2570 N.4   1 <1>  -0.9590 
 17 C       -5.9940    -9.4790    -1.1530 C.3   1 <1>   0.4230 
 18 C       -3.6220    -9.3570    -1.8040 C.3   1 <1>   0.2630 
 19 C       -5.9420   -10.4990    -0.0160 C.3   1 <1>  -0.1600 
 20 C       -7.2820    -8.7010    -0.9060 C.3   1 <1>  -0.1600 
 21 C       -7.4040   -10.9310     0.1620 C.3   1 <1>  -0.0800 
 22 C       -8.2610    -9.7450    -0.3480 C.3   1 <1>  -0.0800 
 23 C       -7.7230   -11.4330     1.5880 C.3   1 <1>   0.1400 
 24 C       -9.2330    -9.1660     0.7000 C.3   1 <1>  -0.0990 
 25 N       -9.1730   -11.3310     1.8380 N.am  1 <1>  -0.7300 
 26 C       -9.9270   -10.2820     1.4490 C.2   1 <1>   0.5690 
 27 O      -11.1030   -10.2230     1.6900 O.2   1 <1>  -0.5700 
 28 H        4.0830    -4.0080    -0.5610 H     1 <1>   0.1500 
 29 H        1.1160    -2.2190     1.9140 H     1 <1>   0.1500 
 30 H        2.5110    -5.8420    -1.1280 H     1 <1>   0.1500 
 31 H       -0.4590    -4.0460     1.3610 H     1 <1>   0.1500 
 32 H       -1.6980    -7.7650     0.3250 H     1 <1>   0.1500 
 33 H       -1.0190    -3.9530    -1.4310 H     1 <1>   0.1500 
 34 H       -3.4230    -3.6910    -1.8330 H     1 <1>   0.1500 
 35 H       -4.9840    -5.4520    -1.1810 H     1 <1>   0.1500 
 36 H       -5.2870    -7.4290     0.4510 H     1 <1>   0.0800 
 37 H       -3.9510    -8.5300     0.6930 H     1 <1>   0.0800 
 38 H       -5.0140    -7.8680    -1.9430 H     1 <1>   0.4500 
 39 H       -6.1180   -10.0210    -2.0780 H     1 <1>   0.0800 
 40 H       -3.3010   -10.1130    -1.1050 H     1 <1>   0.0800 
 41 H       -2.7970    -8.6870    -1.9890 H     1 <1>   0.0800 
 42 H       -3.8840    -9.8340    -2.7340 H     1 <1>   0.0800 
 43 H       -5.3190   -11.3410    -0.2610 H     1 <1>   0.0800 
 44 H       -5.5980   -10.0440     0.8950 H     1 <1>   0.0800 
 45 H       -7.1360    -7.9250    -0.1770 H     1 <1>   0.0800 
 46 H       -7.6620    -8.2690    -1.8150 H     1 <1>   0.0800 
 47 H       -7.5850   -11.7590    -0.5050 H     1 <1>   0.0800 
 48 H       -8.8630   -10.1190    -1.1630 H     1 <1>   0.0800 
 49 H       -7.2150   -10.8350     2.3250 H     1 <1>   0.0800 
 50 H       -7.4060   -12.4560     1.7010 H     1 <1>   0.0800 
 51 H       -9.9710    -8.5460     0.2240 H     1 <1>   0.0800 
 52 H       -8.7090    -8.5710     1.4250 H     1 <1>   0.0800 
 53 H       -9.6380   -12.0660     2.3780 H     1 <1>   0.3700 
@<TRIPOS>BOND
  1   1   2  1   
  2   2   3  ar  
  3   2   4  ar  
  4   3   5  ar  
  5   3  28  1   
  6   4   6  ar  
  7   4  29  1   
  8   5   7  ar  
  9   5  30  1   
 10   6   7  ar  
 11   6  31  1   
 12   7   8  1   
 13   8   9  1   
 14   9  10  ar  
 15   9  11  ar  
 16  10  12  ar  
 17  10  32  1   
 18  11  13  ar  
 19  11  33  1   
 20  12  14  ar  
 21  12  15  1   
 22  13  14  ar  
 23  13  34  1   
 24  14  35  1   
 25  15  16  1   
 26  15  36  1   
 27  15  37  1   
 28  16  17  1   
 29  16  18  1   
 30  16  38  1   
 31  17  19  1   
 32  17  20  1   
 33  17  39  1   
 34  18  40  1   
 35  18  41  1   
 36  18  42  1   
 37  19  21  1   
 38  19  43  1   
 39  19  44  1   
 40  20  22  1   
 41  20  45  1   
 42  20  46  1   
 43  21  22  1   
 44  21  23  1   
 45  21  47  1   
 46  22  24  1   
 47  22  48  1   
 48  23  25  1   
 49  23  49  1   
 50  23  50  1   
 51  24  26  1   
 52  24  51  1   
 53  24  52  1   
 54  25  26  am  
 55  25  53  1   
 56  26  27  2   
@<TRIPOS>SUBSTRUCTURE
  1 ****  12 GROUP 4 **** **** 0

# MOE 2024.06 (io_trps.svl 2023.06)
