@<TRIPOS>MOLECULE
NONAME
40 42 1 0 0 
SMALL
USER_CHARGES


@<TRIPOS>ATOM
  1 S       -0.5790     1.0720    -0.9990 S.3   1 <1>  -0.0800 
  2 C       -0.1330     2.7440    -0.6620 C.ar  1 <1>   0.2970 
  3 C        1.0370     0.5040    -0.5800 C.2   1 <1>  -0.1100 
  4 N       -0.9780     3.7450    -0.7660 N.ar  1 <1>  -0.5670 
  5 C        1.1840     2.8260    -0.2810 C.ar  1 <1>   0.0000 
  6 C        1.8250     1.5350    -0.2260 C.2   1 <1>  -0.1500 
  7 C       -0.4370     4.9020    -0.4440 C.ar  1 <1>   0.4770 
  8 C        1.6350     4.1200    -0.0050 C.ar  1 <1>   0.4100 
  9 N        0.8060     5.1470    -0.0550 N.ar  1 <1>  -0.6200 
 10 C       -1.3370     6.1110    -0.5310 C.3   1 <1>  -0.0960 
 11 N        2.9440     4.4080     0.3210 N.pl3 1 <1>  -0.8380 
 12 C        3.2660     5.3490     1.4380 C.3   1 <1>   0.3890 
 13 C        4.1080     3.8290    -0.4100 C.3   1 <1>   0.1290 
 14 C        4.2600     6.4260     1.0220 C.2   1 <1>   0.0070 
 15 N        5.4440     6.5310     1.5270 N.2   1 <1>  -0.3380 
 16 N        4.0370     7.3730     0.1010 N.pl3 1 <1>   0.0480 
 17 N        6.0350     7.5690     0.9360 N.2   1 <1>  -0.3380 
 18 C        5.1860     8.0500     0.0970 C.2   1 <1>   0.0370 
 19 C        2.8500     7.6660    -0.7280 C.3   1 <1>   0.0960 
 20 C        1.8010     8.4030     0.1030 C.3   1 <1>   0.1200 
 21 O        0.8320     8.9070    -0.7590 O.3   1 <1>  -0.5600 
 22 C       -0.1420     9.6720    -0.1270 C.3   1 <1>   0.0400 
 23 H        1.2150    -0.5560    -0.6420 H     1 <1>   0.1500 
 24 H        2.8490     1.4490     0.0870 H     1 <1>   0.1500 
 25 H       -2.3300     5.8250    -0.8270 H     1 <1>   0.0800 
 26 H       -0.9410     6.7980    -1.2540 H     1 <1>   0.0800 
 27 H       -1.3830     6.5930     0.4270 H     1 <1>   0.0800 
 28 H        3.6940     4.7830     2.2470 H     1 <1>   0.0800 
 29 H        2.3720     5.8140     1.8110 H     1 <1>   0.0800 
 30 H        3.7720     3.2340    -1.2420 H     1 <1>   0.0800 
 31 H        4.6900     3.2150     0.2550 H     1 <1>   0.0800 
 32 H        4.7360     4.6140    -0.7960 H     1 <1>   0.0800 
 33 H        5.3680     8.8980    -0.5380 H     1 <1>   0.1500 
 34 H        2.4520     6.7490    -1.1180 H     1 <1>   0.0800 
 35 H        3.1520     8.2870    -1.5500 H     1 <1>   0.0800 
 36 H        2.2520     9.2300     0.6260 H     1 <1>   0.0800 
 37 H        1.3270     7.7320     0.7990 H     1 <1>   0.0800 
 38 H       -0.8520     9.9910    -0.8700 H     1 <1>   0.0800 
 39 H        0.3190    10.5330     0.3250 H     1 <1>   0.0800 
 40 H       -0.6390     9.0740     0.6170 H     1 <1>   0.0800 
@<TRIPOS>BOND
  1   1   2  1   
  2   1   3  1   
  3   2   4  ar  
  4   2   5  ar  
  5   3   6  2   
  6   3  23  1   
  7   4   7  ar  
  8   5   6  1   
  9   5   8  ar  
 10   6  24  1   
 11   7   9  ar  
 12   7  10  1   
 13   8   9  ar  
 14   8  11  1   
 15  10  25  1   
 16  10  26  1   
 17  10  27  1   
 18  11  12  1   
 19  11  13  1   
 20  12  14  1   
 21  12  28  1   
 22  12  29  1   
 23  13  30  1   
 24  13  31  1   
 25  13  32  1   
 26  14  15  2   
 27  14  16  1   
 28  15  17  1   
 29  16  18  1   
 30  16  19  1   
 31  17  18  2   
 32  18  33  1   
 33  19  20  1   
 34  19  34  1   
 35  19  35  1   
 36  20  21  1   
 37  20  36  1   
 38  20  37  1   
 39  21  22  1   
 40  22  38  1   
 41  22  39  1   
 42  22  40  1   
@<TRIPOS>SUBSTRUCTURE
  1 ****   9 GROUP 4 **** **** 0

# MOE 2024.06 (io_trps.svl 2023.06)
