@<TRIPOS>MOLECULE
NONAME
46 48 1 0 0 
SMALL
USER_CHARGES


@<TRIPOS>ATOM
  1 S       -1.1540     1.2710    -0.6560 S.o2  1 <1>   1.4470 
  2 O       -1.5020     1.4010    -2.0550 O.2   1 <1>  -0.6500 
  3 O       -1.6300     2.2840     0.2630 O.2   1 <1>  -0.6500 
  4 N       -1.7840    -0.2080    -0.1160 N.am  1 <1>  -0.8490 
  5 C        0.6490     1.1330    -0.4810 C.ar  1 <1>  -0.0090 
  6 C       -1.4540    -1.3340    -1.0160 C.3   1 <1>   0.1960 
  7 C       -3.2430    -0.1030     0.0400 C.3   1 <1>   0.1960 
  8 C        1.4420     0.6780    -1.5280 C.ar  1 <1>  -0.1500 
  9 C        1.2820     1.4740     0.7080 C.ar  1 <1>  -0.1500 
 10 C       -1.8750    -2.7160    -0.4470 C.3   1 <1>  -0.1060 
 11 C       -3.9160    -1.4430     0.3700 C.3   1 <1>  -0.1600 
 12 C        2.8160     0.5710    -1.3950 C.ar  1 <1>  -0.1500 
 13 C        2.6560     1.3740     0.8470 C.ar  1 <1>  -0.1500 
 14 C       -2.4810    -3.4810    -1.6320 C.2   1 <1>   0.9060 
 15 C       -2.8840    -2.5100     0.7150 C.3   1 <1>   0.2000 
 16 C       -0.6540    -3.5460     0.0380 C.3   1 <1>  -0.0650 
 17 C        3.4310     0.9200    -0.2050 C.ar  1 <1>  -0.1440 
 18 O       -3.5520    -4.0950    -1.5140 O.co2 1 <1>  -0.9000 
 19 O       -1.8630    -3.4820    -2.7040 O.co2 1 <1>  -0.9000 
 20 O       -3.5510    -3.6790     1.0160 O.3   1 <1>  -0.6800 
 21 C        0.2380    -2.8950     1.1080 C.3   1 <1>  -0.1950 
 22 C        4.9360     0.8000    -0.0530 C.3   1 <1>  -0.0970 
 23 C        1.4760    -2.1390     0.7440 C.3   1 <1>  -0.2000 
 24 C        1.5830    -3.4890     1.3880 C.3   1 <1>  -0.2000 
 25 H       -1.9490    -1.1610    -1.9600 H     1 <1>   0.0800 
 26 H       -0.4000    -1.3520    -1.2230 H     1 <1>   0.0800 
 27 H       -3.4520     0.5940     0.8350 H     1 <1>   0.0800 
 28 H       -3.6790     0.2910    -0.8640 H     1 <1>   0.0800 
 29 H        0.9780     0.4040    -2.4610 H     1 <1>   0.1500 
 30 H        0.6880     1.8250     1.5360 H     1 <1>   0.1500 
 31 H       -4.4910    -1.7610    -0.4810 H     1 <1>   0.0800 
 32 H       -4.5900    -1.3080     1.1960 H     1 <1>   0.0800 
 33 H        3.4010     0.2110    -2.2240 H     1 <1>   0.1500 
 34 H        3.1160     1.6470     1.7810 H     1 <1>   0.1500 
 35 H       -2.3740    -2.1990     1.6090 H     1 <1>   0.0800 
 36 H       -1.0210    -4.4790     0.4300 H     1 <1>   0.0800 
 37 H       -0.0430    -3.7920    -0.8140 H     1 <1>   0.0800 
 38 H       -3.7830    -4.0810     0.1230 H     1 <1>   0.4000 
 39 H       -0.3090    -2.5660     1.9740 H     1 <1>   0.1000 
 40 H        5.4210     0.8970    -1.0070 H     1 <1>   0.0800 
 41 H        5.1840    -0.1580     0.3670 H     1 <1>   0.0800 
 42 H        5.3100     1.5710     0.5970 H     1 <1>   0.0800 
 43 H        1.7480    -2.0410    -0.2920 H     1 <1>   0.1000 
 44 H        1.7340    -1.2710     1.3230 H     1 <1>   0.1000 
 45 H        1.9130    -3.5540     2.4100 H     1 <1>   0.1000 
 46 H        1.9190    -4.3190     0.7910 H     1 <1>   0.1000 
@<TRIPOS>BOND
  1   1   2  2   
  2   1   3  2   
  3   1   4  am  
  4   1   5  1   
  5   4   6  1   
  6   4   7  1   
  7   5   8  ar  
  8   5   9  ar  
  9   6  10  1   
 10   6  25  1   
 11   6  26  1   
 12   7  11  1   
 13   7  27  1   
 14   7  28  1   
 15   8  12  ar  
 16   8  29  1   
 17   9  13  ar  
 18   9  30  1   
 19  10  14  1   
 20  10  15  1   
 21  10  16  1   
 22  11  15  1   
 23  11  31  1   
 24  11  32  1   
 25  12  17  ar  
 26  12  33  1   
 27  13  17  ar  
 28  13  34  1   
 29  14  18  ar  
 30  14  19  ar  
 31  15  20  1   
 32  15  35  1   
 33  16  21  1   
 34  16  36  1   
 35  16  37  1   
 36  17  22  1   
 37  20  38  1   
 38  21  23  1   
 39  21  24  1   
 40  21  39  1   
 41  22  40  1   
 42  22  41  1   
 43  22  42  1   
 44  23  24  1   
 45  23  43  1   
 46  23  44  1   
 47  24  45  1   
 48  24  46  1   
@<TRIPOS>SUBSTRUCTURE
  1 ****   6 GROUP 4 **** **** 0

# MOE 2024.06 (io_trps.svl 2023.06)
