@<TRIPOS>MOLECULE
NONAME
50 51 1 0 0 
SMALL
USER_CHARGES


@<TRIPOS>ATOM
  1 CL       1.5290    -0.3930    -2.7430 Cl    1 <1>  -0.1770 
  2 C        0.9630    -1.3440    -1.3850 C.ar  1 <1>   0.1770 
  3 C        1.7980    -1.7270    -0.3310 C.ar  1 <1>   0.0820 
  4 C       -0.3680    -1.7210    -1.4060 C.ar  1 <1>  -0.1500 
  5 O        3.1110    -1.3960    -0.2070 O.3   1 <1>  -0.3630 
  6 C        1.2710    -2.5150     0.6810 C.ar  1 <1>  -0.1500 
  7 C       -0.8820    -2.4960    -0.3800 C.ar  1 <1>  -0.1500 
  8 C        3.5670    -0.0590    -0.3340 C.3   1 <1>   0.1200 
  9 C       -0.0610    -2.8950     0.6610 C.ar  1 <1>  -0.1500 
 10 C        2.7520     0.9000     0.5440 C.3   1 <1>   0.1400 
 11 N        3.1310     2.3160     0.2430 N.am  1 <1>  -0.6600 
 12 C        4.2650     2.8440     0.8250 C.2   1 <1>   0.5690 
 13 C        2.2530     2.9790    -0.7620 C.3   1 <1>   0.1400 
 14 O        4.9070     2.1890     1.6140 O.2   1 <1>  -0.5700 
 15 C        4.8160     4.2460     0.5250 C.3   1 <1>  -0.0190 
 16 C        0.9420     3.4130    -0.1070 C.3   1 <1>  -0.2400 
 17 C        3.8670     5.4020     0.9070 C.3   1 <1>  -0.1600 
 18 C        5.3930     4.3800    -0.9060 C.3   1 <1>  -0.1600 
 19 C        4.5580     6.7770     0.8010 C.3   1 <1>   0.2000 
 20 C        5.3910     5.8290    -1.4300 C.3   1 <1>  -0.1600 
 21 O        3.5690     7.7340     0.5070 O.3   1 <1>  -0.5600 
 22 C        5.6580     6.8210    -0.2960 C.3   1 <1>   0.2000 
 23 C        2.8430     8.1920     1.6060 C.3   1 <1>   0.0400 
 24 O        5.7070     8.0870    -0.8420 O.3   1 <1>  -0.6800 
 25 H       -0.9950    -1.4140    -2.2240 H     1 <1>   0.1500 
 26 H        1.9100    -2.8260     1.4880 H     1 <1>   0.1500 
 27 H       -1.9180    -2.7920    -0.3940 H     1 <1>   0.1500 
 28 H        4.5940    -0.0460    -0.0150 H     1 <1>   0.0800 
 29 H        3.5310     0.2250    -1.3670 H     1 <1>   0.0800 
 30 H       -0.4570    -3.5030     1.4560 H     1 <1>   0.1500 
 31 H        2.9480     0.6850     1.5810 H     1 <1>   0.0800 
 32 H        1.7020     0.7670     0.3660 H     1 <1>   0.0800 
 33 H        2.7370     3.8360    -1.1910 H     1 <1>   0.0800 
 34 H        2.0480     2.2930    -1.5670 H     1 <1>   0.0800 
 35 H        5.6600     4.3580     1.1860 H     1 <1>   0.0800 
 36 H        1.1320     4.0390     0.7450 H     1 <1>   0.0800 
 37 H        0.3680     2.5600     0.2050 H     1 <1>   0.0800 
 38 H        0.3540     3.9690    -0.8150 H     1 <1>   0.0800 
 39 H        3.5180     5.2550     1.9130 H     1 <1>   0.0800 
 40 H        3.0180     5.4030     0.2530 H     1 <1>   0.0800 
 41 H        6.4060     4.0150    -0.8900 H     1 <1>   0.0800 
 42 H        4.8590     3.7590    -1.6020 H     1 <1>   0.0800 
 43 H        5.0220     7.0310     1.7390 H     1 <1>   0.0800 
 44 H        4.4300     6.0490    -1.8620 H     1 <1>   0.0800 
 45 H        6.1400     5.9360    -2.1950 H     1 <1>   0.0800 
 46 H        6.6220     6.6110     0.1370 H     1 <1>   0.0800 
 47 H        2.1320     8.9200     1.2570 H     1 <1>   0.0800 
 48 H        3.5150     8.6530     2.3090 H     1 <1>   0.0800 
 49 H        2.3210     7.3690     2.0630 H     1 <1>   0.0800 
 50 H        4.8070     8.4650    -0.7140 H     1 <1>   0.4000 
@<TRIPOS>BOND
  1   1   2  1   
  2   2   3  ar  
  3   2   4  ar  
  4   3   5  1   
  5   3   6  ar  
  6   4   7  ar  
  7   4  25  1   
  8   5   8  1   
  9   6   9  ar  
 10   6  26  1   
 11   7   9  ar  
 12   7  27  1   
 13   8  10  1   
 14   8  28  1   
 15   8  29  1   
 16   9  30  1   
 17  10  11  1   
 18  10  31  1   
 19  10  32  1   
 20  11  12  am  
 21  11  13  1   
 22  12  14  2   
 23  12  15  1   
 24  13  16  1   
 25  13  33  1   
 26  13  34  1   
 27  15  17  1   
 28  15  18  1   
 29  15  35  1   
 30  16  36  1   
 31  16  37  1   
 32  16  38  1   
 33  17  19  1   
 34  17  39  1   
 35  17  40  1   
 36  18  20  1   
 37  18  41  1   
 38  18  42  1   
 39  19  21  1   
 40  19  22  1   
 41  19  43  1   
 42  20  22  1   
 43  20  44  1   
 44  20  45  1   
 45  21  23  1   
 46  22  24  1   
 47  22  46  1   
 48  23  47  1   
 49  23  48  1   
 50  23  49  1   
 51  24  50  1   
@<TRIPOS>SUBSTRUCTURE
  1 ****  11 GROUP 4 **** **** 0

# MOE 2024.06 (io_trps.svl 2023.06)
