@<TRIPOS>MOLECULE
NONAME
47 50 1 0 0 
SMALL
USER_CHARGES


@<TRIPOS>ATOM
  1 O       -0.4290     0.3450     0.2530 O.2   1 <1>  -0.5700 
  2 C       -1.4560     0.9550    -0.0060 C.2   1 <1>   0.7160 
  3 N       -2.6130     0.1940    -0.0560 N.am  1 <1>  -0.6600 
  4 C       -1.4190     2.4060    -0.2370 C.2   1 <1>   0.2030 
  5 C       -4.0020     0.6970    -0.2160 C.3   1 <1>   0.1400 
  6 C       -2.6100    -1.2910    -0.0130 C.3   1 <1>   0.1400 
  7 N       -2.4470     3.1800    -0.5690 N.2   1 <1>  -0.7070 
  8 C       -0.2620     3.2050    -0.1340 C.2   1 <1>  -0.1810 
  9 C       -4.8840    -0.4830     0.1850 C.3   1 <1>   0.2000 
 10 C       -4.0670    -1.7040    -0.2440 C.3   1 <1>  -0.0800 
 11 N       -1.9600     4.4250    -0.6620 N.pl3 1 <1>   0.3000 
 12 C       -0.6450     4.4650    -0.3960 C.2   1 <1>  -0.3320 
 13 C        1.1740     2.8340     0.2050 C.3   1 <1>   0.0210 
 14 O       -5.0100    -0.4730     1.5680 O.3   1 <1>  -0.6800 
 15 C       -4.4520    -3.0310     0.4330 C.3   1 <1>   0.0210 
 16 C        0.2490     5.6900    -0.3950 C.3   1 <1>   0.0200 
 17 C        2.1340     3.9910    -0.1340 C.3   1 <1>  -0.1600 
 18 C       -3.5840    -4.1680    -0.0720 C.2   1 <1>   0.1080 
 19 C        1.5750     5.3570     0.3100 C.3   1 <1>  -0.1600 
 20 N       -3.6370    -4.6060    -1.2910 N.2   1 <1>  -0.7070 
 21 C       -2.6450    -4.8510     0.6930 C.2   1 <1>  -0.1500 
 22 N       -2.7240    -5.5940    -1.3370 N.pl3 1 <1>   0.3000 
 23 C       -2.1080    -5.7610    -0.1470 C.2   1 <1>  -0.3320 
 24 C       -1.0290    -6.7940     0.1180 C.3   1 <1>  -0.0600 
 25 H       -4.1930     1.5580     0.4010 H     1 <1>   0.0800 
 26 H       -4.1640     0.9510    -1.2490 H     1 <1>   0.0800 
 27 H       -1.9630    -1.6970    -0.7730 H     1 <1>   0.0800 
 28 H       -2.2650    -1.6130     0.9550 H     1 <1>   0.0800 
 29 H       -5.8680    -0.4480    -0.2510 H     1 <1>   0.0800 
 30 H       -4.1960    -1.8260    -1.3060 H     1 <1>   0.0800 
 31 H       -2.5460     5.2320    -0.9070 H     1 <1>   0.2700 
 32 H        1.2310     2.6060     1.2550 H     1 <1>   0.0800 
 33 H        1.4700     1.9580    -0.3450 H     1 <1>   0.0800 
 34 H       -4.1290    -0.2910     1.9530 H     1 <1>   0.4000 
 35 H       -5.4800    -3.2610     0.2160 H     1 <1>   0.0800 
 36 H       -4.3470    -2.9580     1.5000 H     1 <1>   0.0800 
 37 H        0.4420     5.9840    -1.4120 H     1 <1>   0.0800 
 38 H       -0.2330     6.5070     0.1130 H     1 <1>   0.0800 
 39 H        3.0850     3.8130     0.3360 H     1 <1>   0.0800 
 40 H        2.2900     4.0090    -1.1990 H     1 <1>   0.0800 
 41 H        2.2940     6.1310     0.1050 H     1 <1>   0.0800 
 42 H        1.4080     5.3330     1.3730 H     1 <1>   0.0800 
 43 H       -2.4170    -4.6710     1.7280 H     1 <1>   0.1500 
 44 H       -2.5460    -6.1350    -2.1910 H     1 <1>   0.2700 
 45 H       -0.6970    -6.7290     1.1390 H     1 <1>   0.0800 
 46 H       -0.1850    -6.6260    -0.5280 H     1 <1>   0.0800 
 47 H       -1.4120    -7.7850    -0.0540 H     1 <1>   0.0800 
@<TRIPOS>BOND
  1   1   2  2   
  2   2   3  am  
  3   2   4  1   
  4   3   5  1   
  5   3   6  1   
  6   4   7  2   
  7   4   8  1   
  8   5   9  1   
  9   5  25  1   
 10   5  26  1   
 11   6  10  1   
 12   6  27  1   
 13   6  28  1   
 14   7  11  1   
 15   8  12  2   
 16   8  13  1   
 17   9  10  1   
 18   9  14  1   
 19   9  29  1   
 20  10  15  1   
 21  10  30  1   
 22  11  12  1   
 23  11  31  1   
 24  12  16  1   
 25  13  17  1   
 26  13  32  1   
 27  13  33  1   
 28  14  34  1   
 29  15  18  1   
 30  15  35  1   
 31  15  36  1   
 32  16  19  1   
 33  16  37  1   
 34  16  38  1   
 35  17  19  1   
 36  17  39  1   
 37  17  40  1   
 38  18  20  2   
 39  18  21  1   
 40  19  41  1   
 41  19  42  1   
 42  20  22  1   
 43  21  23  2   
 44  21  43  1   
 45  22  23  1   
 46  22  44  1   
 47  23  24  1   
 48  24  45  1   
 49  24  46  1   
 50  24  47  1   
@<TRIPOS>SUBSTRUCTURE
  1 ****   3 GROUP 4 **** **** 0

# MOE 2024.06 (io_trps.svl 2023.06)
