@<TRIPOS>MOLECULE
NONAME
56 58 1 0 0 
SMALL
USER_CHARGES


@<TRIPOS>ATOM
  1 S        0.4360     0.0790     0.6660 S.o2  1 <1>   1.3330 
  2 O        1.8670     0.1450     0.8530 O.2   1 <1>  -0.6500 
  3 O       -0.4380     0.0810     1.8170 O.2   1 <1>  -0.6500 
  4 N        0.0950    -1.3000    -0.2640 N.am  1 <1>  -0.8490 
  5 C       -0.0790     1.4190    -0.4060 C.3   1 <1>  -0.0550 
  6 C        1.1600    -1.6400    -1.2140 C.3   1 <1>   0.1160 
  7 C       -0.2220    -2.4650     0.5670 C.3   1 <1>   0.1160 
  8 C        0.0460     2.8020     0.2550 C.3   1 <1>  -0.0800 
  9 C       -0.5270     3.9160    -0.6150 C.3   1 <1>   0.2000 
 10 C        1.4880     3.2450     0.5180 C.3   1 <1>   0.1400 
 11 O       -1.9020     3.9810    -0.4600 O.3   1 <1>  -0.6800 
 12 C        0.1640     5.1910    -0.1370 C.3   1 <1>   0.1400 
 13 N        1.4640     4.7260     0.4100 N.am  1 <1>  -0.6600 
 14 C        2.6200     5.4750     0.3870 C.2   1 <1>   0.5440 
 15 O        3.6870     4.8900     0.3930 O.2   1 <1>  -0.5700 
 16 C        2.5880     6.9220     0.3360 C.ar  1 <1>   0.0860 
 17 C        3.4120     7.6280    -0.5420 C.ar  1 <1>  -0.1500 
 18 C        1.7410     7.6720     1.1550 C.ar  1 <1>  -0.1500 
 19 C        3.3740     9.0070    -0.6140 C.ar  1 <1>  -0.1500 
 20 C        1.7030     9.0510     1.0850 C.ar  1 <1>  -0.1500 
 21 C        2.5180     9.7440     0.1950 C.ar  1 <1>   0.1000 
 22 N        2.4920    11.1280     0.1100 N.pl3 1 <1>  -0.8380 
 23 C        3.7230    11.9150     0.3770 C.3   1 <1>   0.2090 
 24 C        1.2210    11.8930     0.1830 C.3   1 <1>   0.2090 
 25 C        3.7980    13.0860    -0.6080 C.3   1 <1>  -0.1600 
 26 C        1.2820    13.0680    -0.7990 C.3   1 <1>  -0.1600 
 27 C        2.5230    13.9430    -0.5690 C.3   1 <1>  -0.1600 
 28 H        0.4980     1.4000    -1.3090 H     1 <1>   0.0800 
 29 H       -1.1070     1.2620    -0.6720 H     1 <1>   0.0800 
 30 H        0.8520    -2.4630    -1.8350 H     1 <1>   0.0800 
 31 H        2.0600    -1.9140    -0.6880 H     1 <1>   0.0800 
 32 H        1.3750    -0.7980    -1.8490 H     1 <1>   0.0800 
 33 H       -0.4470    -3.3160    -0.0520 H     1 <1>   0.0800 
 34 H       -1.0840    -2.2580     1.1800 H     1 <1>   0.0800 
 35 H        0.6100    -2.7030     1.2100 H     1 <1>   0.0800 
 36 H       -0.4640     2.7930     1.2030 H     1 <1>   0.0800 
 37 H       -0.3090     3.7540    -1.6570 H     1 <1>   0.0800 
 38 H        2.1600     2.8500    -0.2260 H     1 <1>   0.0800 
 39 H        1.8270     2.9430     1.4950 H     1 <1>   0.0800 
 40 H       -2.1380     4.0640     0.4850 H     1 <1>   0.4000 
 41 H       -0.4020     5.6600     0.6480 H     1 <1>   0.0800 
 42 H        0.3140     5.8760    -0.9530 H     1 <1>   0.0800 
 43 H        4.0870     7.0770    -1.1730 H     1 <1>   0.1500 
 44 H        1.1130     7.1590     1.8610 H     1 <1>   0.1500 
 45 H        4.0070     9.5310    -1.3060 H     1 <1>   0.1500 
 46 H        1.0490     9.6040     1.7310 H     1 <1>   0.1500 
 47 H        3.6890    12.2870     1.3870 H     1 <1>   0.0800 
 48 H        4.5930    11.2900     0.2770 H     1 <1>   0.0800 
 49 H        0.3950    11.2510    -0.0690 H     1 <1>   0.0800 
 50 H        1.0840    12.2570     1.1870 H     1 <1>   0.0800 
 51 H        4.6530    13.6940    -0.3730 H     1 <1>   0.0800 
 52 H        3.9370    12.6890    -1.5980 H     1 <1>   0.0800 
 53 H        1.3000    12.6730    -1.7990 H     1 <1>   0.0800 
 54 H        0.3930    13.6630    -0.6960 H     1 <1>   0.0800 
 55 H        2.5750    14.7080    -1.3250 H     1 <1>   0.0800 
 56 H        2.4470    14.4260     0.3910 H     1 <1>   0.0800 
@<TRIPOS>BOND
  1   1   2  2   
  2   1   3  2   
  3   1   4  am  
  4   1   5  1   
  5   4   6  1   
  6   4   7  1   
  7   5   8  1   
  8   5  28  1   
  9   5  29  1   
 10   6  30  1   
 11   6  31  1   
 12   6  32  1   
 13   7  33  1   
 14   7  34  1   
 15   7  35  1   
 16   8   9  1   
 17   8  10  1   
 18   8  36  1   
 19   9  11  1   
 20   9  12  1   
 21   9  37  1   
 22  10  13  1   
 23  10  38  1   
 24  10  39  1   
 25  11  40  1   
 26  12  13  1   
 27  12  41  1   
 28  12  42  1   
 29  13  14  am  
 30  14  15  2   
 31  14  16  1   
 32  16  17  ar  
 33  16  18  ar  
 34  17  19  ar  
 35  17  43  1   
 36  18  20  ar  
 37  18  44  1   
 38  19  21  ar  
 39  19  45  1   
 40  20  21  ar  
 41  20  46  1   
 42  21  22  1   
 43  22  23  1   
 44  22  24  1   
 45  23  25  1   
 46  23  47  1   
 47  23  48  1   
 48  24  26  1   
 49  24  49  1   
 50  24  50  1   
 51  25  27  1   
 52  25  51  1   
 53  25  52  1   
 54  26  27  1   
 55  26  53  1   
 56  26  54  1   
 57  27  55  1   
 58  27  56  1   
@<TRIPOS>SUBSTRUCTURE
  1 ****  13 GROUP 4 **** **** 0

# MOE 2024.06 (io_trps.svl 2023.06)
