@<TRIPOS>MOLECULE
NONAME
52 56 1 0 0 
SMALL
USER_CHARGES


@<TRIPOS>ATOM
  1 F        0.1530    -2.9280     1.7350 F     1 <1>  -0.1900 
  2 C        1.0340    -2.0260     1.3810 C.ar  1 <1>   0.1900 
  3 C        1.6400    -2.1090     0.1310 C.ar  1 <1>  -0.0230 
  4 C        1.3140    -1.0170     2.2830 C.ar  1 <1>  -0.1500 
  5 N        1.3410    -3.1590    -0.7750 N.pl3 1 <1>   0.5930 
  6 C        2.5540    -1.1120    -0.2020 C.ar  1 <1>  -0.1500 
  7 C        2.2320    -0.0430     1.9310 C.ar  1 <1>  -0.1500 
  8 N        1.1150    -2.9600    -2.0980 N.2   1 <1>  -0.7070 
  9 C        1.2140    -4.4820    -0.4970 C.2   1 <1>  -0.3020 
 10 C        2.8480    -0.0920     0.6900 C.ar  1 <1>  -0.1500 
 11 C        0.8530    -4.1200    -2.6020 C.2   1 <1>   0.1390 
 12 C        0.8850    -5.1230    -1.6420 C.2   1 <1>  -0.1810 
 13 C        0.5820    -6.5850    -1.8820 C.3   1 <1>   0.5240 
 14 N       -0.4620    -6.9950    -0.9090 N.4   1 <1>  -0.9590 
 15 C       -1.7320    -6.1960    -1.0800 C.3   1 <1>   0.3430 
 16 C       -0.7450    -8.4690    -0.9690 C.3   1 <1>   0.3430 
 17 C       -2.8310    -6.6370    -0.0920 C.3   1 <1>   0.1900 
 18 C       -1.8680    -8.8810     0.0060 C.3   1 <1>   0.1100 
 19 N       -3.0980    -8.0930    -0.2220 N.3   1 <1>  -0.8100 
 20 C       -4.1150    -5.8220    -0.3330 C.3   1 <1>   0.1200 
 21 C       -4.2200    -8.4870     0.6730 C.3   1 <1>   0.2850 
 22 O       -5.0970    -6.2180     0.5720 O.3   1 <1>  -0.5600 
 23 C       -4.6310    -9.9430     0.4080 C.3   1 <1>  -0.1950 
 24 C       -5.4460    -7.5700     0.4560 C.3   1 <1>   0.1200 
 25 C       -5.4800   -10.6830     1.3960 C.3   1 <1>  -0.2000 
 26 C       -4.0550   -11.0950     1.1760 C.3   1 <1>  -0.2000 
 27 H        0.8220    -0.9930     3.2390 H     1 <1>   0.1500 
 28 H        3.0350    -1.1320    -1.1670 H     1 <1>   0.1500 
 29 H        2.4670     0.7530     2.6170 H     1 <1>   0.1500 
 30 H        1.3660    -4.8570     0.4980 H     1 <1>   0.1500 
 31 H        3.5580     0.6700     0.4150 H     1 <1>   0.1500 
 32 H        0.6340    -4.2620    -3.6500 H     1 <1>   0.1500 
 33 H        1.4780    -7.1670    -1.7400 H     1 <1>   0.0800 
 34 H        0.2290    -6.7290    -2.8910 H     1 <1>   0.0800 
 35 H       -0.0990    -6.7730     0.0250 H     1 <1>   0.4500 
 36 H       -1.5300    -5.1480    -0.9300 H     1 <1>   0.0800 
 37 H       -2.1090    -6.3220    -2.0820 H     1 <1>   0.0800 
 38 H       -1.0540    -8.7400    -1.9650 H     1 <1>   0.0800 
 39 H        0.1470    -9.0270    -0.7340 H     1 <1>   0.0800 
 40 H       -2.4960    -6.4200     0.9080 H     1 <1>   0.0800 
 41 H       -1.5360    -8.7640     1.0230 H     1 <1>   0.0800 
 42 H       -2.0720    -9.9250    -0.1570 H     1 <1>   0.0800 
 43 H       -4.4890    -5.9660    -1.3320 H     1 <1>   0.0800 
 44 H       -3.9360    -4.7720    -0.1740 H     1 <1>   0.0800 
 45 H       -3.9150    -8.3900     1.7020 H     1 <1>   0.0800 
 46 H       -4.8730   -10.1050    -0.6290 H     1 <1>   0.1000 
 47 H       -6.1980    -7.7790     1.1950 H     1 <1>   0.0800 
 48 H       -5.8710    -7.7340    -0.5190 H     1 <1>   0.0800 
 49 H       -5.7360   -10.2200     2.3340 H     1 <1>   0.1000 
 50 H       -6.2640   -11.3240     1.0290 H     1 <1>   0.1000 
 51 H       -3.8660   -12.0220     0.6620 H     1 <1>   0.1000 
 52 H       -3.3520   -10.9150     1.9710 H     1 <1>   0.1000 
@<TRIPOS>BOND
  1   1   2  1   
  2   2   3  ar  
  3   2   4  ar  
  4   3   5  1   
  5   3   6  ar  
  6   4   7  ar  
  7   4  27  1   
  8   5   8  1   
  9   5   9  1   
 10   6  10  ar  
 11   6  28  1   
 12   7  10  ar  
 13   7  29  1   
 14   8  11  2   
 15   9  12  2   
 16   9  30  1   
 17  10  31  1   
 18  11  12  1   
 19  11  32  1   
 20  12  13  1   
 21  13  14  1   
 22  13  33  1   
 23  13  34  1   
 24  14  15  1   
 25  14  16  1   
 26  14  35  1   
 27  15  17  1   
 28  15  36  1   
 29  15  37  1   
 30  16  18  1   
 31  16  38  1   
 32  16  39  1   
 33  17  19  1   
 34  17  20  1   
 35  17  40  1   
 36  18  19  1   
 37  18  41  1   
 38  18  42  1   
 39  19  21  1   
 40  20  22  1   
 41  20  43  1   
 42  20  44  1   
 43  21  23  1   
 44  21  24  1   
 45  21  45  1   
 46  22  24  1   
 47  23  25  1   
 48  23  26  1   
 49  23  46  1   
 50  24  47  1   
 51  24  48  1   
 52  25  26  1   
 53  25  49  1   
 54  25  50  1   
 55  26  51  1   
 56  26  52  1   
@<TRIPOS>SUBSTRUCTURE
  1 ****  15 GROUP 4 **** **** 0

# MOE 2024.06 (io_trps.svl 2023.06)
