@<TRIPOS>MOLECULE
NONAME
59 61 1 0 0 
SMALL
USER_CHARGES


@<TRIPOS>ATOM
  1 O       -0.1340    -0.0570     1.6850 O.2   1 <1>  -0.5700 
  2 C       -0.9580     0.8090     1.4740 C.2   1 <1>   0.5690 
  3 N       -2.0980     0.4930     0.7680 N.am  1 <1>  -0.6600 
  4 C       -0.6810     2.2330     2.0590 C.3   1 <1>   0.3410 
  5 C       -3.1860     1.4050     0.3440 C.3   1 <1>   0.1400 
  6 C       -2.3530    -0.8700     0.2560 C.3   1 <1>   0.1400 
  7 O       -1.0780     3.2890     1.1890 O.3   1 <1>  -0.3630 
  8 C       -1.5190     2.4290     3.3330 C.3   1 <1>  -0.2400 
  9 C        0.7920     2.4880     2.4440 C.3   1 <1>  -0.2400 
 10 C       -4.3760     0.4830     0.0590 C.3   1 <1>  -0.0800 
 11 C       -3.7210    -0.8200    -0.4350 C.3   1 <1>  -0.0800 
 12 C       -0.7230     3.4640    -0.1180 C.ar  1 <1>   0.0820 
 13 C       -5.4880     1.0610    -0.8700 C.3   1 <1>   0.2800 
 14 C       -3.6040    -0.8270    -1.9680 C.3   1 <1>  -0.1600 
 15 C       -1.2970     4.5430    -0.7930 C.ar  1 <1>  -0.1430 
 16 C        0.1470     2.6120    -0.7940 C.ar  1 <1>  -0.1500 
 17 O       -4.9610     2.0190    -1.7140 O.3   1 <1>  -0.6800 
 18 C       -6.0550    -0.0510    -1.7710 C.3   1 <1>  -0.1600 
 19 C       -6.6310     1.7390    -0.0820 C.3   1 <1>  -0.1600 
 20 C       -4.9860    -0.7450    -2.6430 C.3   1 <1>  -0.1600 
 21 C       -0.9990     4.7540    -2.1380 C.ar  1 <1>  -0.1430 
 22 C       -2.2620     5.4610    -0.0410 C.3   1 <1>  -0.0970 
 23 C        0.4470     2.8340    -2.1230 C.ar  1 <1>  -0.1500 
 24 C       -6.2160     2.9300     0.8000 C.3   1 <1>  -0.2400 
 25 C       -0.1240     3.8990    -2.7900 C.ar  1 <1>  -0.1500 
 26 C       -1.6120     5.8950    -2.9390 C.3   1 <1>  -0.0970 
 27 H       -3.4190     2.1340     1.0960 H     1 <1>   0.0800 
 28 H       -2.8670     1.9090    -0.5510 H     1 <1>   0.0800 
 29 H       -1.5700    -1.1630    -0.4230 H     1 <1>   0.0800 
 30 H       -2.3740    -1.5560     1.0860 H     1 <1>   0.0800 
 31 H       -1.2380     1.6970     4.0690 H     1 <1>   0.0800 
 32 H       -2.5640     2.3030     3.1240 H     1 <1>   0.0800 
 33 H       -1.3580     3.4090     3.7440 H     1 <1>   0.0800 
 34 H        1.0920     1.7980     3.2120 H     1 <1>   0.0800 
 35 H        0.9150     3.4890     2.8150 H     1 <1>   0.0800 
 36 H        1.4480     2.3430     1.6090 H     1 <1>   0.0800 
 37 H       -4.8260     0.2480     1.0070 H     1 <1>   0.0800 
 38 H       -4.3020    -1.6740    -0.1330 H     1 <1>   0.0800 
 39 H       -3.0170     0.0240    -2.2720 H     1 <1>   0.0800 
 40 H       -3.0900    -1.7120    -2.3020 H     1 <1>   0.0800 
 41 H        0.6000     1.7660    -0.3180 H     1 <1>   0.1500 
 42 H       -5.6390     2.2950    -2.3540 H     1 <1>   0.4000 
 43 H       -6.5020    -0.7950    -1.1350 H     1 <1>   0.0800 
 44 H       -6.8400     0.3320    -2.3980 H     1 <1>   0.0800 
 45 H       -7.3810     2.0740    -0.7770 H     1 <1>   0.0800 
 46 H       -7.1000     1.0020     0.5460 H     1 <1>   0.0800 
 47 H       -5.3280    -1.7360    -2.8850 H     1 <1>   0.0800 
 48 H       -4.8760    -0.2070    -3.5700 H     1 <1>   0.0800 
 49 H       -2.3350     6.4320    -0.4910 H     1 <1>   0.0800 
 50 H       -1.9330     5.6090     0.9720 H     1 <1>   0.0800 
 51 H       -3.2380     5.0110    -0.0220 H     1 <1>   0.0800 
 52 H        1.1200     2.1730    -2.6390 H     1 <1>   0.1500 
 53 H       -5.6890     3.6680     0.2210 H     1 <1>   0.0800 
 54 H       -5.5860     2.6070     1.6080 H     1 <1>   0.0800 
 55 H       -7.0900     3.3920     1.2230 H     1 <1>   0.0800 
 56 H        0.1170     4.0540    -3.8270 H     1 <1>   0.1500 
 57 H       -1.3700     5.8100    -3.9830 H     1 <1>   0.0800 
 58 H       -1.2390     6.8370    -2.5810 H     1 <1>   0.0800 
 59 H       -2.6830     5.8780    -2.8440 H     1 <1>   0.0800 
@<TRIPOS>BOND
  1   1   2  2   
  2   2   3  am  
  3   2   4  1   
  4   3   5  1   
  5   3   6  1   
  6   4   7  1   
  7   4   8  1   
  8   4   9  1   
  9   5  10  1   
 10   5  27  1   
 11   5  28  1   
 12   6  11  1   
 13   6  29  1   
 14   6  30  1   
 15   7  12  1   
 16   8  31  1   
 17   8  32  1   
 18   8  33  1   
 19   9  34  1   
 20   9  35  1   
 21   9  36  1   
 22  10  11  1   
 23  10  13  1   
 24  10  37  1   
 25  11  14  1   
 26  11  38  1   
 27  12  15  ar  
 28  12  16  ar  
 29  13  17  1   
 30  13  18  1   
 31  13  19  1   
 32  14  20  1   
 33  14  39  1   
 34  14  40  1   
 35  15  21  ar  
 36  15  22  1   
 37  16  23  ar  
 38  16  41  1   
 39  17  42  1   
 40  18  20  1   
 41  18  43  1   
 42  18  44  1   
 43  19  24  1   
 44  19  45  1   
 45  19  46  1   
 46  20  47  1   
 47  20  48  1   
 48  21  25  ar  
 49  21  26  1   
 50  22  49  1   
 51  22  50  1   
 52  22  51  1   
 53  23  25  ar  
 54  23  52  1   
 55  24  53  1   
 56  24  54  1   
 57  24  55  1   
 58  25  56  1   
 59  26  57  1   
 60  26  58  1   
 61  26  59  1   
@<TRIPOS>SUBSTRUCTURE
  1 ****   5 GROUP 4 **** **** 0

# MOE 2024.06 (io_trps.svl 2023.06)
