@<TRIPOS>MOLECULE
NONAME
27 27 1 0 0 
SMALL
USER_CHARGES


@<TRIPOS>ATOM
  1 N        0.4300    -0.8740     1.1340 N.2   1 <1>  -0.2500 
  2 N       -0.2530    -1.9610     1.2410 N.2   1 <1>  -0.6190 
  3 N        0.6590    -0.6510    -0.1300 N.2   1 <1>  -0.2500 
  4 C       -0.4200    -2.3710     0.0320 C.2   1 <1>   0.5700 
  5 N        0.1240    -1.5930    -0.8430 N.2   1 <1>  -0.6190 
  6 C       -1.1830    -3.6400    -0.3460 C.3   1 <1>   0.0880 
  7 C       -2.6580    -3.5150     0.0990 C.3   1 <1>  -0.1600 
  8 C       -0.5050    -4.9100     0.2210 C.3   1 <1>  -0.1600 
  9 C       -3.5790    -4.6220    -0.4420 C.3   1 <1>  -0.1600 
 10 C        0.9550    -5.0550    -0.2390 C.3   1 <1>  -0.1600 
 11 C       -5.0390    -4.3470    -0.0720 C.3   1 <1>  -0.2400 
 12 C        1.5700    -6.3600     0.2760 C.3   1 <1>  -0.2400 
 13 H       -1.1640    -3.6980    -1.4190 H     1 <1>   0.0800 
 14 H       -3.0210    -2.5620    -0.2460 H     1 <1>   0.0800 
 15 H       -2.6970    -3.4970     1.1750 H     1 <1>   0.0800 
 16 H       -1.0490    -5.7800    -0.0920 H     1 <1>   0.0800 
 17 H       -0.5310    -4.8630     1.2960 H     1 <1>   0.0800 
 18 H       -3.2940    -5.5750    -0.0310 H     1 <1>   0.0800 
 19 H       -3.4890    -4.6750    -1.5130 H     1 <1>   0.0800 
 20 H        1.5340    -4.2240     0.1310 H     1 <1>   0.0800 
 21 H        1.0020    -5.0340    -1.3140 H     1 <1>   0.0800 
 22 H       -5.1510    -4.3010     0.9970 H     1 <1>   0.0800 
 23 H       -5.6700    -5.1300    -0.4510 H     1 <1>   0.0800 
 24 H       -5.3620    -3.4110    -0.4930 H     1 <1>   0.0800 
 25 H        1.5510    -6.3790     1.3510 H     1 <1>   0.0800 
 26 H        2.5920    -6.4340    -0.0500 H     1 <1>   0.0800 
 27 H        1.0250    -7.2080    -0.1000 H     1 <1>   0.0800 
@<TRIPOS>BOND
  1   1   2  1   
  2   1   3  2   
  3   2   4  1   
  4   3   5  1   
  5   4   5  2   
  6   4   6  1   
  7   6   7  1   
  8   6   8  1   
  9   6  13  1   
 10   7   9  1   
 11   7  14  1   
 12   7  15  1   
 13   8  10  1   
 14   8  16  1   
 15   8  17  1   
 16   9  11  1   
 17   9  18  1   
 18   9  19  1   
 19  10  12  1   
 20  10  20  1   
 21  10  21  1   
 22  11  22  1   
 23  11  23  1   
 24  11  24  1   
 25  12  25  1   
 26  12  26  1   
 27  12  27  1   
@<TRIPOS>SUBSTRUCTURE
  1 ****   6 GROUP 4 **** **** 0

# MOE 2024.06 (io_trps.svl 2023.06)
