@<TRIPOS>MOLECULE
NONAME
37 37 1 0 0 
SMALL
USER_CHARGES


@<TRIPOS>ATOM
  1 O        7.4960     2.5840    -1.6750 O.2   1 <1>  -0.5700 
  2 C        6.8440     1.7520    -1.0980 C.2   1 <1>   0.6590 
  3 O        5.9370     2.0390    -0.1670 O.3   1 <1>  -0.4300 
  4 C        6.9940     0.2730    -1.4350 C.3   1 <1>   0.1810 
  5 C        5.5900     3.3120     0.3320 C.3   1 <1>   0.2800 
  6 O        7.5450    -0.4600    -0.3630 O.3   1 <1>  -0.5600 
  7 C        5.0050     4.1730    -0.7930 C.3   1 <1>  -0.2400 
  8 C        4.5150     3.0550     1.3880 C.3   1 <1>  -0.2400 
  9 C        6.8080     3.9670     0.9920 C.3   1 <1>  -0.2400 
 10 C        7.7010    -1.8190    -0.5660 C.3   1 <1>   0.2000 
 11 C        6.4090    -2.5200    -0.1310 C.3   1 <1>  -0.1600 
 12 C        8.8850    -2.2440     0.3020 C.3   1 <1>  -0.1600 
 13 C        6.5940    -4.0340    -0.0570 C.3   1 <1>   0.3430 
 14 C        9.0240    -3.7620     0.3570 C.3   1 <1>   0.3430 
 15 N        7.7450    -4.3570     0.8290 N.4   1 <1>  -0.9060 
 16 H        7.6460     0.1770    -2.2850 H     1 <1>   0.0800 
 17 H        6.0260    -0.1270    -1.6730 H     1 <1>   0.0800 
 18 H        4.1950     3.6590    -1.2780 H     1 <1>   0.0800 
 19 H        5.7560     4.4210    -1.5220 H     1 <1>   0.0800 
 20 H        4.6290     5.0960    -0.3900 H     1 <1>   0.0800 
 21 H        3.6620     2.5730     0.9440 H     1 <1>   0.0800 
 22 H        4.1910     3.9830     1.8240 H     1 <1>   0.0800 
 23 H        4.9040     2.4310     2.1720 H     1 <1>   0.0800 
 24 H        7.5570     4.2160     0.2630 H     1 <1>   0.0800 
 25 H        7.2340     3.3100     1.7270 H     1 <1>   0.0800 
 26 H        6.5150     4.8790     1.4790 H     1 <1>   0.0800 
 27 H        7.9200    -2.0060    -1.6060 H     1 <1>   0.0800 
 28 H        5.6250    -2.3030    -0.8340 H     1 <1>   0.0800 
 29 H        6.1030    -2.1530     0.8330 H     1 <1>   0.0800 
 30 H        8.7640    -1.8610     1.3000 H     1 <1>   0.0800 
 31 H        9.7880    -1.8230    -0.1060 H     1 <1>   0.0800 
 32 H        6.7750    -4.4240    -1.0470 H     1 <1>   0.0800 
 33 H        5.6930    -4.4890     0.3250 H     1 <1>   0.0800 
 34 H        9.8270    -4.0260     1.0270 H     1 <1>   0.0800 
 35 H        9.2640    -4.1390    -0.6250 H     1 <1>   0.0800 
 36 H        7.8450    -5.3770     0.9160 H     1 <1>   0.4500 
 37 H        7.5450    -3.9970     1.7720 H     1 <1>   0.4500 
@<TRIPOS>BOND
  1   1   2  2   
  2   2   3  1   
  3   2   4  1   
  4   3   5  1   
  5   4   6  1   
  6   4  16  1   
  7   4  17  1   
  8   5   7  1   
  9   5   8  1   
 10   5   9  1   
 11   6  10  1   
 12   7  18  1   
 13   7  19  1   
 14   7  20  1   
 15   8  21  1   
 16   8  22  1   
 17   8  23  1   
 18   9  24  1   
 19   9  25  1   
 20   9  26  1   
 21  10  11  1   
 22  10  12  1   
 23  10  27  1   
 24  11  13  1   
 25  11  28  1   
 26  11  29  1   
 27  12  14  1   
 28  12  30  1   
 29  12  31  1   
 30  13  15  1   
 31  13  32  1   
 32  13  33  1   
 33  14  15  1   
 34  14  34  1   
 35  14  35  1   
 36  15  36  1   
 37  15  37  1   
@<TRIPOS>SUBSTRUCTURE
  1 ****   6 GROUP 4 **** **** 0

# MOE 2024.06 (io_trps.svl 2023.06)
