@<TRIPOS>MOLECULE
NONAME
42 44 1 0 0 
SMALL
USER_CHARGES


@<TRIPOS>ATOM
  1 O        4.5200    -1.3910     0.9920 O.2   1 <1>  -0.5700 
  2 C        3.3840    -1.1750     0.6340 C.2   1 <1>   0.5690 
  3 N        2.8830     0.0880     0.5180 N.am  1 <1>  -0.4930 
  4 C        2.4970    -2.3770     0.3030 C.3   1 <1>   0.2370 
  5 C        3.5010     1.3390     0.7760 C.2   1 <1>   0.0630 
  6 N        1.3090    -1.9470    -0.4860 N.pl3 1 <1>   0.0480 
  7 C        2.0960    -3.1610     1.5730 C.3   1 <1>  -0.1600 
  8 C        2.9750     2.5480     0.4610 C.2   1 <1>  -0.0680 
  9 C        4.7190     1.6250     1.3980 C.2   1 <1>   0.1390 
 10 C        0.1780    -1.3390    -0.0230 C.2   1 <1>  -0.3020 
 11 C        1.2070    -1.9800    -1.8430 C.2   1 <1>  -0.3020 
 12 C        1.2790    -4.4290     1.2700 C.3   1 <1>  -0.1600 
 13 N        3.8640     3.4700     0.9130 N.pl3 1 <1>   0.3140 
 14 N        1.7680     2.8800    -0.2000 N.pl3 1 <1>  -0.8530 
 15 N        4.9530     2.9030     1.4850 N.2   1 <1>  -0.7070 
 16 C       -0.6220    -1.0020    -1.0680 C.2   1 <1>  -0.1500 
 17 C        0.0360    -1.4120    -2.2300 C.2   1 <1>  -0.1500 
 18 C        0.9700    -5.2010     2.5560 C.3   1 <1>  -0.2400 
 19 C        3.6890     4.9200     0.7320 C.3   1 <1>   0.0960 
 20 C        1.6370     4.2910    -0.6520 C.3   1 <1>   0.2090 
 21 C        2.2180     5.2440     0.4050 C.3   1 <1>  -0.1600 
 22 H        1.9170     0.1730     0.1860 H     1 <1>   0.3700 
 23 H        3.0780    -3.0310    -0.3210 H     1 <1>   0.0800 
 24 H        1.5460    -2.5170     2.2370 H     1 <1>   0.0800 
 25 H        2.9980    -3.4490     2.0850 H     1 <1>   0.0800 
 26 H        5.3940     0.8710     1.7660 H     1 <1>   0.1500 
 27 H       -0.0080    -1.1760     1.0240 H     1 <1>   0.1500 
 28 H        1.9730    -2.4030    -2.4700 H     1 <1>   0.1500 
 29 H        1.8300    -5.0660     0.5990 H     1 <1>   0.0800 
 30 H        0.3500    -4.1670     0.7910 H     1 <1>   0.0800 
 31 H        1.5180     2.2190    -0.9470 H     1 <1>   0.4000 
 32 H       -1.5820    -0.5160    -1.0370 H     1 <1>   0.1500 
 33 H       -0.3400    -1.2880    -3.2320 H     1 <1>   0.1500 
 34 H        1.8810    -5.5030     3.0440 H     1 <1>   0.0800 
 35 H        0.3980    -6.0830     2.3260 H     1 <1>   0.0800 
 36 H        0.3990    -4.5920     3.2340 H     1 <1>   0.0800 
 37 H        4.3270     5.2260    -0.0760 H     1 <1>   0.0800 
 38 H        3.9990     5.4190     1.6310 H     1 <1>   0.0800 
 39 H        0.5950     4.5160    -0.8090 H     1 <1>   0.0800 
 40 H        2.1590     4.4140    -1.5860 H     1 <1>   0.0800 
 41 H        2.1430     6.2580     0.0590 H     1 <1>   0.0800 
 42 H        1.6300     5.1620     1.3030 H     1 <1>   0.0800 
@<TRIPOS>BOND
  1   1   2  2   
  2   2   3  am  
  3   2   4  1   
  4   3   5  1   
  5   3  22  1   
  6   4   6  1   
  7   4   7  1   
  8   4  23  1   
  9   5   8  2   
 10   5   9  1   
 11   6  10  1   
 12   6  11  1   
 13   7  12  1   
 14   7  24  1   
 15   7  25  1   
 16   8  13  1   
 17   8  14  1   
 18   9  15  2   
 19   9  26  1   
 20  10  16  2   
 21  10  27  1   
 22  11  17  2   
 23  11  28  1   
 24  12  18  1   
 25  12  29  1   
 26  12  30  1   
 27  13  15  1   
 28  13  19  1   
 29  14  20  1   
 30  14  31  1   
 31  16  17  1   
 32  16  32  1   
 33  17  33  1   
 34  18  34  1   
 35  18  35  1   
 36  18  36  1   
 37  19  21  1   
 38  19  37  1   
 39  19  38  1   
 40  20  21  1   
 41  20  39  1   
 42  20  40  1   
 43  21  41  1   
 44  21  42  1   
@<TRIPOS>SUBSTRUCTURE
  1 ****   3 GROUP 4 **** **** 0

# MOE 2024.06 (io_trps.svl 2023.06)
