@<TRIPOS>MOLECULE
NONAME
51 54 1 0 0 
SMALL
USER_CHARGES


@<TRIPOS>ATOM
  1 O        0.1500     2.0170    -0.6870 O.2   1 <1>  -0.5700 
  2 C       -0.8340     1.8520     0.0180 C.2   1 <1>   0.5440 
  3 N       -0.8210     2.2830     1.3270 N.am  1 <1>  -0.4200 
  4 C       -2.0290     1.2230    -0.4740 C.ar  1 <1>   0.0860 
  5 C       -1.9410     2.1170     2.1060 C.2   1 <1>   0.4500 
  6 C        0.3900     2.9200     1.8990 C.3   1 <1>   0.1400 
  7 C       -3.1050     1.1040     0.4140 C.ar  1 <1>   0.1790 
  8 C       -2.1680     0.7330    -1.7750 C.ar  1 <1>  -0.1500 
  9 N       -3.0260     1.5690     1.7120 N.2   1 <1>  -0.6290 
 10 C        0.4240     4.4050     1.5270 C.3   1 <1>  -0.1600 
 11 C       -4.2830     0.5040    -0.0180 C.ar  1 <1>  -0.1500 
 12 C       -3.3430     0.1400    -2.1890 C.ar  1 <1>  -0.1500 
 13 C        1.7720     5.0430     1.9030 C.3   1 <1>  -0.0990 
 14 C       -4.4070     0.0250    -1.3060 C.ar  1 <1>  -0.1500 
 15 C        1.8600     6.4940     1.4610 C.2   1 <1>   0.5690 
 16 O        1.6780     7.3320     2.3110 O.2   1 <1>  -0.5700 
 17 N        2.1350     6.8380     0.1580 N.am  1 <1>  -0.6600 
 18 C        2.1540     8.2820    -0.2500 C.3   1 <1>   0.1400 
 19 C        2.2730     5.8800    -0.9800 C.3   1 <1>   0.0600 
 20 C        3.3000     9.0790     0.3950 C.3   1 <1>   0.2000 
 21 O        3.3560    10.3600    -0.2270 O.3   1 <1>  -0.3630 
 22 C        4.7030     8.4550     0.2310 C.3   1 <1>  -0.0170 
 23 C        4.6110    10.6180    -0.6300 C.ar  1 <1>   0.0830 
 24 C        5.4700     9.5760    -0.4020 C.ar  1 <1>  -0.1430 
 25 C        5.0390    11.7940    -1.2160 C.ar  1 <1>  -0.1500 
 26 C        6.8030     9.6740    -0.7530 C.ar  1 <1>  -0.1500 
 27 C        6.3750    11.9030    -1.5730 C.ar  1 <1>  -0.1500 
 28 C        7.2510    10.8490    -1.3420 C.ar  1 <1>  -0.1500 
 29 H       -1.8750     2.4810     3.1170 H     1 <1>   0.0600 
 30 H        1.2620     2.4220     1.5090 H     1 <1>   0.0800 
 31 H        0.3940     2.8060     2.9700 H     1 <1>   0.0800 
 32 H       -1.3400     0.8240    -2.4580 H     1 <1>   0.1500 
 33 H       -0.3690     4.9260     2.0340 H     1 <1>   0.0800 
 34 H        0.2700     4.5080     0.4670 H     1 <1>   0.0800 
 35 H       -5.1010     0.4200     0.6760 H     1 <1>   0.1500 
 36 H       -3.4390    -0.2340    -3.1940 H     1 <1>   0.1500 
 37 H        2.5890     4.4920     1.4760 H     1 <1>   0.0800 
 38 H        1.8910     5.0100     2.9720 H     1 <1>   0.0800 
 39 H       -5.3240    -0.4370    -1.6270 H     1 <1>   0.1500 
 40 H        1.2190     8.7320     0.0360 H     1 <1>   0.0800 
 41 H        2.2480     8.3510    -1.3200 H     1 <1>   0.0800 
 42 H        2.3530     4.8620    -0.6450 H     1 <1>   0.0800 
 43 H        3.1540     6.1160    -1.5510 H     1 <1>   0.0800 
 44 H        1.4120     5.9590    -1.6220 H     1 <1>   0.0800 
 45 H        3.0920     9.2500     1.4370 H     1 <1>   0.0800 
 46 H        4.6920     7.5970    -0.4140 H     1 <1>   0.0800 
 47 H        5.1110     8.1840     1.1870 H     1 <1>   0.0800 
 48 H        4.3430    12.5950    -1.3830 H     1 <1>   0.1500 
 49 H        7.4800     8.8580    -0.5740 H     1 <1>   0.1500 
 50 H        6.7330    12.8090    -2.0310 H     1 <1>   0.1500 
 51 H        8.2860    10.9450    -1.6220 H     1 <1>   0.1500 
@<TRIPOS>BOND
  1   1   2  2   
  2   2   3  am  
  3   2   4  1   
  4   3   5  1   
  5   3   6  1   
  6   4   7  ar  
  7   4   8  ar  
  8   5   9  2   
  9   5  29  1   
 10   6  10  1   
 11   6  30  1   
 12   6  31  1   
 13   7   9  1   
 14   7  11  ar  
 15   8  12  ar  
 16   8  32  1   
 17  10  13  1   
 18  10  33  1   
 19  10  34  1   
 20  11  14  ar  
 21  11  35  1   
 22  12  14  ar  
 23  12  36  1   
 24  13  15  1   
 25  13  37  1   
 26  13  38  1   
 27  14  39  1   
 28  15  16  2   
 29  15  17  am  
 30  17  18  1   
 31  17  19  1   
 32  18  20  1   
 33  18  40  1   
 34  18  41  1   
 35  19  42  1   
 36  19  43  1   
 37  19  44  1   
 38  20  21  1   
 39  20  22  1   
 40  20  45  1   
 41  21  23  1   
 42  22  24  1   
 43  22  46  1   
 44  22  47  1   
 45  23  24  ar  
 46  23  25  ar  
 47  24  26  ar  
 48  25  27  ar  
 49  25  48  1   
 50  26  28  ar  
 51  26  49  1   
 52  27  28  ar  
 53  27  50  1   
 54  28  51  1   
@<TRIPOS>SUBSTRUCTURE
  1 ****  19 GROUP 4 **** **** 0

# MOE 2024.06 (io_trps.svl 2023.06)
