@<TRIPOS>MOLECULE
NONAME
48 51 1 0 0 
SMALL
USER_CHARGES


@<TRIPOS>ATOM
  1 S       -0.5160     0.5600     1.6420 S.3   1 <1>  -0.0800 
  2 C       -2.0250     0.6540     0.7580 C.ar  1 <1>   0.0400 
  3 C        0.2960     1.3650     0.3040 C.2   1 <1>   0.1980 
  4 C       -1.7710     1.2760    -0.4500 C.ar  1 <1>   0.2270 
  5 C       -3.2740     0.2090     1.1390 C.ar  1 <1>  -0.1500 
  6 N       -0.4550     1.6660    -0.6740 N.2   1 <1>  -0.5650 
  7 C        1.7790     1.6120     0.4550 C.3   1 <1>  -0.0600 
  8 C       -2.8320     1.4530    -1.3240 C.ar  1 <1>  -0.1500 
  9 C       -4.3490     0.3950     0.2710 C.ar  1 <1>   0.0860 
 10 C       -4.0960     1.0150    -0.9650 C.ar  1 <1>  -0.1500 
 11 C       -5.6800    -0.0490     0.6380 C.2   1 <1>   0.5440 
 12 O       -5.8350    -1.1890     1.0350 O.2   1 <1>  -0.5700 
 13 N       -6.7760     0.7840     0.5620 N.am  1 <1>  -0.6600 
 14 C       -8.1550     0.2210     0.7370 C.3   1 <1>   0.1400 
 15 C       -6.6570     2.2690     0.4730 C.3   1 <1>   0.1400 
 16 C       -9.2480     1.1040     0.0880 C.3   1 <1>   0.0000 
 17 C       -7.8050     2.9460     1.2240 C.3   1 <1>  -0.1600 
 18 C      -10.6230     0.4290     0.2800 C.3   1 <1>   0.2000 
 19 C       -9.1920     2.5340     0.6960 C.3   1 <1>  -0.1600 
 20 C       -9.0980     1.0970    -1.4480 C.3   1 <1>  -0.1600 
 21 O      -11.6390     1.3620     0.0410 O.3   1 <1>  -0.5600 
 22 C      -10.6950    -0.6520    -0.8060 C.3   1 <1>  -0.1600 
 23 C       -9.7610    -0.1970    -1.9340 C.3   1 <1>  -0.1600 
 24 C      -12.8570     1.0790     0.6530 C.3   1 <1>   0.0400 
 25 H       -3.4210    -0.2770     2.0880 H     1 <1>   0.1500 
 26 H        2.1550     2.1070    -0.4220 H     1 <1>   0.0800 
 27 H        2.2940     0.6770     0.5770 H     1 <1>   0.0800 
 28 H        1.9600     2.2330     1.3120 H     1 <1>   0.0800 
 29 H       -2.6490     1.9270    -2.2720 H     1 <1>   0.1500 
 30 H       -4.9150     1.1440    -1.6510 H     1 <1>   0.1500 
 31 H       -8.1820    -0.7690     0.3160 H     1 <1>   0.0800 
 32 H       -8.3490     0.1300     1.7920 H     1 <1>   0.0800 
 33 H       -5.7210     2.5880     0.8990 H     1 <1>   0.0800 
 34 H       -6.6790     2.5680    -0.5600 H     1 <1>   0.0800 
 35 H       -7.7250     2.6790     2.2640 H     1 <1>   0.0800 
 36 H       -7.7000     4.0140     1.1590 H     1 <1>   0.0800 
 37 H      -10.7340     0.0300     1.2750 H     1 <1>   0.0800 
 38 H       -9.5260     3.2470    -0.0370 H     1 <1>   0.0800 
 39 H       -9.8820     2.5980     1.5190 H     1 <1>   0.0800 
 40 H       -9.6440     1.9260    -1.8640 H     1 <1>   0.0800 
 41 H       -8.0770     1.1620    -1.7770 H     1 <1>   0.0800 
 42 H      -10.3340    -1.5810    -0.4040 H     1 <1>   0.0800 
 43 H      -11.6990    -0.8010    -1.1610 H     1 <1>   0.0800 
 44 H       -9.0140    -0.9510    -2.1180 H     1 <1>   0.0800 
 45 H      -10.3090    -0.0190    -2.8430 H     1 <1>   0.0800 
 46 H      -13.5580     1.8440     0.3700 H     1 <1>   0.0800 
 47 H      -12.7260     1.0850     1.7210 H     1 <1>   0.0800 
 48 H      -13.2150     0.1200     0.3200 H     1 <1>   0.0800 
@<TRIPOS>BOND
  1   1   2  1   
  2   1   3  1   
  3   2   4  ar  
  4   2   5  ar  
  5   3   6  2   
  6   3   7  1   
  7   4   6  1   
  8   4   8  ar  
  9   5   9  ar  
 10   5  25  1   
 11   7  26  1   
 12   7  27  1   
 13   7  28  1   
 14   8  10  ar  
 15   8  29  1   
 16   9  10  ar  
 17   9  11  1   
 18  10  30  1   
 19  11  12  2   
 20  11  13  am  
 21  13  14  1   
 22  13  15  1   
 23  14  16  1   
 24  14  31  1   
 25  14  32  1   
 26  15  17  1   
 27  15  33  1   
 28  15  34  1   
 29  16  18  1   
 30  16  19  1   
 31  16  20  1   
 32  17  19  1   
 33  17  35  1   
 34  17  36  1   
 35  18  21  1   
 36  18  22  1   
 37  18  37  1   
 38  19  38  1   
 39  19  39  1   
 40  20  23  1   
 41  20  40  1   
 42  20  41  1   
 43  21  24  1   
 44  22  23  1   
 45  22  42  1   
 46  22  43  1   
 47  23  44  1   
 48  23  45  1   
 49  24  46  1   
 50  24  47  1   
 51  24  48  1   
@<TRIPOS>SUBSTRUCTURE
  1 ****  13 GROUP 4 **** **** 0

# MOE 2024.06 (io_trps.svl 2023.06)
