@<TRIPOS>MOLECULE
NONAME
63 65 1 0 0 
SMALL
USER_CHARGES


@<TRIPOS>ATOM
  1 O       -1.2410    -1.6700     1.8050 O.3   1 <1>  -0.5600 
  2 C       -0.4510    -1.7790     0.6610 C.3   1 <1>   0.2800 
  3 C       -2.1150    -0.5830     1.9560 C.3   1 <1>   0.1200 
  4 C       -1.3650    -1.8620    -0.6140 C.3   1 <1>   0.2000 
  5 C        0.3040    -3.1010     0.8550 C.3   1 <1>  -0.1600 
  6 C        0.5760    -0.6200     0.6980 C.3   1 <1>  -0.1600 
  7 C       -2.6910    -0.0680     0.6260 C.3   1 <1>  -0.1600 
  8 O       -0.6640    -1.4200    -1.7480 O.3   1 <1>  -0.6800 
  9 C       -2.7440    -1.1440    -0.4600 C.3   1 <1>   0.2800 
 10 C        1.4270    -3.2530    -0.1600 C.3   1 <1>   0.3430 
 11 C        1.7710    -0.8360    -0.2300 C.3   1 <1>   0.3430 
 12 O       -3.6600    -2.0930    -0.0550 O.3   1 <1>  -0.6800 
 13 C       -3.3210    -0.5750    -1.7640 C.3   1 <1>  -0.2400 
 14 N        2.4180    -2.1540     0.0440 N.4   1 <1>  -0.9590 
 15 C        3.6430    -2.3350    -0.7970 C.3   1 <1>   0.3430 
 16 C        4.8580    -2.9030    -0.0080 C.3   1 <1>   0.0000 
 17 C        6.0230    -3.0560    -1.0250 C.3   1 <1>   0.3430 
 18 C        4.5200    -4.2780     0.6120 C.3   1 <1>  -0.2400 
 19 C        5.2430    -1.9290     1.1290 C.3   1 <1>  -0.2400 
 20 N        7.2870    -3.5770    -0.4120 N.4   1 <1>  -0.9590 
 21 C        8.3000    -2.4830    -0.1600 C.3   1 <1>   0.3430 
 22 C        7.9130    -4.6540    -1.2640 C.3   1 <1>   0.3430 
 23 C        9.6310    -3.0500     0.3680 C.3   1 <1>   0.1200 
 24 C        9.2630    -5.1250    -0.6890 C.3   1 <1>   0.1200 
 25 O       10.1120    -4.0320    -0.5020 O.3   1 <1>  -0.5600 
 26 H       -2.9160    -0.9250     2.5880 H     1 <1>   0.0800 
 27 H       -1.5930     0.2040     2.4730 H     1 <1>   0.0800 
 28 H       -1.5860    -2.8970    -0.8100 H     1 <1>   0.0800 
 29 H        0.7140    -3.1480     1.8480 H     1 <1>   0.0800 
 30 H       -0.3810    -3.9250     0.7520 H     1 <1>   0.0800 
 31 H        0.1070     0.3010     0.4110 H     1 <1>   0.0800 
 32 H        0.9420    -0.5010     1.7020 H     1 <1>   0.0800 
 33 H       -2.0830     0.7460     0.2790 H     1 <1>   0.0800 
 34 H       -3.6690     0.3440     0.7980 H     1 <1>   0.0800 
 35 H       -1.2720    -1.4320    -2.5180 H     1 <1>   0.4000 
 36 H        1.0220    -3.2060    -1.1590 H     1 <1>   0.0800 
 37 H        1.8990    -4.2120    -0.0260 H     1 <1>   0.0800 
 38 H        2.4800    -0.0380    -0.0780 H     1 <1>   0.0800 
 39 H        1.4450    -0.7970    -1.2570 H     1 <1>   0.0800 
 40 H       -4.5290    -1.6780     0.1010 H     1 <1>   0.4000 
 41 H       -2.6920     0.2110    -2.1430 H     1 <1>   0.0800 
 42 H       -4.2970    -0.1570    -1.5960 H     1 <1>   0.0800 
 43 H       -3.3990    -1.3460    -2.5100 H     1 <1>   0.0800 
 44 H        2.6820    -2.1580     1.0390 H     1 <1>   0.4500 
 45 H        3.4100    -2.9850    -1.6250 H     1 <1>   0.0800 
 46 H        3.9260    -1.3800    -1.2090 H     1 <1>   0.0800 
 47 H        6.2220    -2.1060    -1.4960 H     1 <1>   0.0800 
 48 H        5.7060    -3.7360    -1.8000 H     1 <1>   0.0800 
 49 H        3.7220    -4.1970     1.3300 H     1 <1>   0.0800 
 50 H        5.3620    -4.6960     1.1350 H     1 <1>   0.0800 
 51 H        4.2180    -4.9790    -0.1480 H     1 <1>   0.0800 
 52 H        4.4300    -1.7870     1.8200 H     1 <1>   0.0800 
 53 H        5.5150    -0.9640     0.7350 H     1 <1>   0.0800 
 54 H        6.0710    -2.3050     1.7040 H     1 <1>   0.0800 
 55 H        7.0640    -4.0050     0.4960 H     1 <1>   0.4500 
 56 H        8.5030    -1.9560    -1.0780 H     1 <1>   0.0800 
 57 H        7.9140    -1.7730     0.5510 H     1 <1>   0.0800 
 58 H        7.2490    -5.4990    -1.3410 H     1 <1>   0.0800 
 59 H        8.0870    -4.2780    -2.2590 H     1 <1>   0.0800 
 60 H        9.5170    -3.4790     1.3480 H     1 <1>   0.0800 
 61 H       10.3730    -2.2710     0.4200 H     1 <1>   0.0800 
 62 H        9.7450    -5.7980    -1.3770 H     1 <1>   0.0800 
 63 H        9.1350    -5.6320     0.2520 H     1 <1>   0.0800 
@<TRIPOS>BOND
  1   1   2  1   
  2   1   3  1   
  3   2   4  1   
  4   2   5  1   
  5   2   6  1   
  6   3   7  1   
  7   3  26  1   
  8   3  27  1   
  9   4   8  1   
 10   4   9  1   
 11   4  28  1   
 12   5  10  1   
 13   5  29  1   
 14   5  30  1   
 15   6  11  1   
 16   6  31  1   
 17   6  32  1   
 18   7   9  1   
 19   7  33  1   
 20   7  34  1   
 21   8  35  1   
 22   9  12  1   
 23   9  13  1   
 24  10  14  1   
 25  10  36  1   
 26  10  37  1   
 27  11  14  1   
 28  11  38  1   
 29  11  39  1   
 30  12  40  1   
 31  13  41  1   
 32  13  42  1   
 33  13  43  1   
 34  14  15  1   
 35  14  44  1   
 36  15  16  1   
 37  15  45  1   
 38  15  46  1   
 39  16  17  1   
 40  16  18  1   
 41  16  19  1   
 42  17  20  1   
 43  17  47  1   
 44  17  48  1   
 45  18  49  1   
 46  18  50  1   
 47  18  51  1   
 48  19  52  1   
 49  19  53  1   
 50  19  54  1   
 51  20  21  1   
 52  20  22  1   
 53  20  55  1   
 54  21  23  1   
 55  21  56  1   
 56  21  57  1   
 57  22  24  1   
 58  22  58  1   
 59  22  59  1   
 60  23  25  1   
 61  23  60  1   
 62  23  61  1   
 63  24  25  1   
 64  24  62  1   
 65  24  63  1   
@<TRIPOS>SUBSTRUCTURE
  1 ****  14 GROUP 4 **** **** 0

# MOE 2024.06 (io_trps.svl 2023.06)
