@<TRIPOS>MOLECULE
NONAME
53 55 1 0 0 
SMALL
USER_CHARGES


@<TRIPOS>ATOM
  1 O        4.1710    -1.2830     0.9850 O.2   1 <1>  -0.5700 
  2 C        3.0570    -1.1490     0.5120 C.2   1 <1>   0.7030 
  3 N        2.8660    -0.0470    -0.2930 N.am  1 <1>  -0.6600 
  4 C        2.0000    -2.0960     0.8560 C.2   1 <1>   0.2770 
  5 C        3.8000     0.2440    -1.4360 C.3   1 <1>   0.1400 
  6 C        2.1290     1.1350     0.2260 C.3   1 <1>   0.1400 
  7 N        0.7570    -2.3190     0.2450 N.pl3 1 <1>  -0.7640 
  8 C        2.0620    -2.9820     1.8840 C.2   1 <1>   0.2000 
  9 C        5.1830     0.7990    -1.0200 C.3   1 <1>   0.3430 
 10 C        2.9890     1.9320     1.2170 C.3   1 <1>  -0.1600 
 11 C        0.1430    -3.2920     0.9110 C.cat 1 <1>   0.6500 
 12 C        0.2290    -1.6450    -0.9760 C.3   1 <1>   0.2740 
 13 N        0.9050    -3.7070     1.9090 N.pl3 1 <1>  -0.7000 
 14 N        5.2430     1.2670     0.4040 N.4   1 <1>  -0.9590 
 15 C        4.3360     2.4200     0.6750 C.3   1 <1>   0.3430 
 16 C        6.6670     1.5700     0.8130 C.3   1 <1>   0.5240 
 17 C        7.3240     2.7550     0.0870 C.2   1 <1>   0.3350 
 18 N        6.8090     3.4500    -0.8520 N.2   1 <1>  -0.4100 
 19 N        8.5430     3.1480     0.4200 N.2   1 <1>  -0.5650 
 20 O        7.6830     4.3510    -1.1850 O.3   1 <1>  -0.0190 
 21 C        8.6970     4.1220    -0.3860 C.2   1 <1>   0.2980 
 22 C        9.9310     5.0000    -0.4880 C.3   1 <1>   0.0200 
 23 C        9.8410     6.2700     0.3820 C.3   1 <1>  -0.0800 
 24 C        8.6950     7.1960    -0.0530 C.3   1 <1>  -0.2400 
 25 C       11.1670     7.0400     0.3320 C.3   1 <1>  -0.2400 
 26 H        3.3350     0.9490    -2.1040 H     1 <1>   0.0800 
 27 H        3.9560    -0.6570    -2.0040 H     1 <1>   0.0800 
 28 H        1.2300     0.8100     0.7250 H     1 <1>   0.0800 
 29 H        1.8320     1.7680    -0.5950 H     1 <1>   0.0800 
 30 H        2.8710    -3.1260     2.5860 H     1 <1>   0.1500 
 31 H        5.4560     1.5990    -1.6900 H     1 <1>   0.0800 
 32 H        5.9070     0.0120    -1.1580 H     1 <1>   0.0800 
 33 H        3.1450     1.3610     2.1140 H     1 <1>   0.0800 
 34 H        2.4240     2.8020     1.5060 H     1 <1>   0.0800 
 35 H       -0.8340    -3.6940     0.6730 H     1 <1>   0.1500 
 36 H        0.9680    -1.6680    -1.7590 H     1 <1>   0.0800 
 37 H       -0.0200    -0.6210    -0.7570 H     1 <1>   0.0800 
 38 H       -0.6580    -2.1440    -1.3290 H     1 <1>   0.0800 
 39 H        0.6750    -4.4520     2.5770 H     1 <1>   0.4500 
 40 H        4.9190     0.4560     0.9640 H     1 <1>   0.4500 
 41 H        4.7850     3.0640     1.4140 H     1 <1>   0.0800 
 42 H        4.1960     3.0030    -0.2220 H     1 <1>   0.0800 
 43 H        7.2800     0.7010     0.6450 H     1 <1>   0.0800 
 44 H        6.6950     1.7810     1.8680 H     1 <1>   0.0800 
 45 H       10.0900     5.2680    -1.5180 H     1 <1>   0.0800 
 46 H       10.7780     4.4190    -0.1690 H     1 <1>   0.0800 
 47 H        9.6670     5.9700     1.4020 H     1 <1>   0.0800 
 48 H        8.8050     7.4810    -1.0850 H     1 <1>   0.0800 
 49 H        8.6930     8.0900     0.5460 H     1 <1>   0.0800 
 50 H        7.7420     6.7160     0.0740 H     1 <1>   0.0800 
 51 H       11.3810     7.3670    -0.6710 H     1 <1>   0.0800 
 52 H       11.9770     6.4190     0.6720 H     1 <1>   0.0800 
 53 H       11.1200     7.9050     0.9700 H     1 <1>   0.0800 
@<TRIPOS>BOND
  1   1   2  2   
  2   2   3  am  
  3   2   4  1   
  4   3   5  1   
  5   3   6  1   
  6   4   7  1   
  7   4   8  2   
  8   5   9  1   
  9   5  26  1   
 10   5  27  1   
 11   6  10  1   
 12   6  28  1   
 13   6  29  1   
 14   7  11  ar  
 15   7  12  1   
 16   8  13  1   
 17   8  30  1   
 18   9  14  1   
 19   9  31  1   
 20   9  32  1   
 21  10  15  1   
 22  10  33  1   
 23  10  34  1   
 24  11  13  ar  
 25  11  35  1   
 26  12  36  1   
 27  12  37  1   
 28  12  38  1   
 29  13  39  1   
 30  14  15  1   
 31  14  16  1   
 32  14  40  1   
 33  15  41  1   
 34  15  42  1   
 35  16  17  1   
 36  16  43  1   
 37  16  44  1   
 38  17  18  2   
 39  17  19  1   
 40  18  20  1   
 41  19  21  2   
 42  20  21  1   
 43  21  22  1   
 44  22  23  1   
 45  22  45  1   
 46  22  46  1   
 47  23  24  1   
 48  23  25  1   
 49  23  47  1   
 50  24  48  1   
 51  24  49  1   
 52  24  50  1   
 53  25  51  1   
 54  25  52  1   
 55  25  53  1   
@<TRIPOS>SUBSTRUCTURE
  1 ****  14 GROUP 4 **** **** 0

# MOE 2024.06 (io_trps.svl 2023.06)
