@<TRIPOS>MOLECULE
NONAME
54 56 1 0 0 
SMALL
USER_CHARGES


@<TRIPOS>ATOM
  1 F       -1.0580    -0.6110     0.5360 F     1 <1>  -0.1900 
  2 C       -2.2290    -0.0330     0.4490 C.ar  1 <1>   0.1900 
  3 C       -2.3720     1.3590     0.4470 C.ar  1 <1>   0.0830 
  4 C       -3.3240    -0.8710     0.3630 C.ar  1 <1>  -0.1500 
  5 O       -1.3760     2.2870     0.5270 O.3   1 <1>  -0.3630 
  6 C       -3.6550     1.8730     0.3540 C.ar  1 <1>  -0.1500 
  7 C       -4.5900    -0.3250     0.2730 C.ar  1 <1>  -0.1500 
  8 C       -0.0080     1.9450     0.5850 C.3   1 <1>   0.0400 
  9 C       -4.7880     1.0590     0.2640 C.ar  1 <1>   0.0530 
 10 C       -6.1060     1.6420     0.1710 C.2   1 <1>   0.0870 
 11 O       -6.3250     2.8580     0.6060 O.3   1 <1>  -0.0190 
 12 C       -7.2950     1.1790    -0.2970 C.2   1 <1>  -0.0860 
 13 N       -7.5670     3.2380     0.4630 N.2   1 <1>  -0.4100 
 14 C       -8.1730     2.2460    -0.0900 C.2   1 <1>   0.3720 
 15 C       -7.6280    -0.0840    -0.8690 C.2   1 <1>   0.7160 
 16 N       -9.5340     2.2540    -0.4380 N.pl3 1 <1>  -0.8210 
 17 O       -7.1870    -0.3920    -1.9620 O.2   1 <1>  -0.5700 
 18 N       -8.3990    -0.9950    -0.1880 N.am  1 <1>  -0.6600 
 19 C      -10.3700     3.2670     0.2670 C.3   1 <1>   0.1290 
 20 C       -9.7820     2.2570    -1.9060 C.3   1 <1>   0.1290 
 21 C       -8.7280    -2.3430    -0.7040 C.3   1 <1>   0.1400 
 22 C       -9.0690    -0.7370     1.1050 C.3   1 <1>   0.1400 
 23 C       -9.9010    -2.8020     0.1560 C.3   1 <1>  -0.0190 
 24 C       -9.6930    -2.0750     1.4880 C.3   1 <1>  -0.1600 
 25 C       -9.9790    -4.3160     0.2870 C.2   1 <1>   0.5690 
 26 O       -8.9900    -4.9380     0.5890 O.2   1 <1>  -0.5700 
 27 N      -11.1730    -4.9250     0.0650 N.am  1 <1>  -0.7300 
 28 C      -11.4160    -6.3760     0.1770 C.3   1 <1>   0.1400 
 29 C      -12.6590    -6.5960     1.0300 C.3   1 <1>  -0.2400 
 30 H       -3.1840    -1.9370     0.3670 H     1 <1>   0.1500 
 31 H       -3.7720     2.9420     0.3490 H     1 <1>   0.1500 
 32 H       -5.4310    -0.9910     0.2120 H     1 <1>   0.1500 
 33 H        0.5620     2.8560     0.6190 H     1 <1>   0.0800 
 34 H        0.2510     1.3860    -0.2970 H     1 <1>   0.0800 
 35 H        0.1720     1.3690     1.4750 H     1 <1>   0.0800 
 36 H      -10.1780     3.2250     1.3260 H     1 <1>   0.0800 
 37 H      -11.4130     3.0660     0.0980 H     1 <1>   0.0800 
 38 H      -10.1330     4.2550    -0.0890 H     1 <1>   0.0800 
 39 H       -9.2050     1.4870    -2.3880 H     1 <1>   0.0800 
 40 H       -9.5030     3.2090    -2.3230 H     1 <1>   0.0800 
 41 H      -10.8240     2.0750    -2.1020 H     1 <1>   0.0800 
 42 H       -7.8720    -2.9840    -0.5680 H     1 <1>   0.0800 
 43 H       -8.9870    -2.3080    -1.7480 H     1 <1>   0.0800 
 44 H       -9.8350     0.0070     0.9650 H     1 <1>   0.0800 
 45 H       -8.3650    -0.4000     1.8470 H     1 <1>   0.0800 
 46 H      -10.8020    -2.4380    -0.3020 H     1 <1>   0.0800 
 47 H      -10.6100    -1.9480     2.0350 H     1 <1>   0.0800 
 48 H       -8.9950    -2.6210     2.1000 H     1 <1>   0.0800 
 49 H      -11.9900    -4.3680    -0.1870 H     1 <1>   0.3700 
 50 H      -10.5660    -6.8600     0.6320 H     1 <1>   0.0800 
 51 H      -11.5590    -6.7920    -0.8060 H     1 <1>   0.0800 
 52 H      -12.5120    -6.1810     2.0120 H     1 <1>   0.0800 
 53 H      -12.8420    -7.6500     1.1320 H     1 <1>   0.0800 
 54 H      -13.5190    -6.1440     0.5710 H     1 <1>   0.0800 
@<TRIPOS>BOND
  1   1   2  1   
  2   2   3  ar  
  3   2   4  ar  
  4   3   5  1   
  5   3   6  ar  
  6   4   7  ar  
  7   4  30  1   
  8   5   8  1   
  9   6   9  ar  
 10   6  31  1   
 11   7   9  ar  
 12   7  32  1   
 13   8  33  1   
 14   8  34  1   
 15   8  35  1   
 16   9  10  1   
 17  10  11  1   
 18  10  12  2   
 19  11  13  1   
 20  12  14  1   
 21  12  15  1   
 22  13  14  2   
 23  14  16  1   
 24  15  17  2   
 25  15  18  am  
 26  16  19  1   
 27  16  20  1   
 28  18  21  1   
 29  18  22  1   
 30  19  36  1   
 31  19  37  1   
 32  19  38  1   
 33  20  39  1   
 34  20  40  1   
 35  20  41  1   
 36  21  23  1   
 37  21  42  1   
 38  21  43  1   
 39  22  24  1   
 40  22  44  1   
 41  22  45  1   
 42  23  24  1   
 43  23  25  1   
 44  23  46  1   
 45  24  47  1   
 46  24  48  1   
 47  25  26  2   
 48  25  27  am  
 49  27  28  1   
 50  27  49  1   
 51  28  29  1   
 52  28  50  1   
 53  28  51  1   
 54  29  52  1   
 55  29  53  1   
 56  29  54  1   
@<TRIPOS>SUBSTRUCTURE
  1 ****  15 GROUP 4 **** **** 0

# MOE 2024.06 (io_trps.svl 2023.06)
