@<TRIPOS>MOLECULE
NONAME
42 44 1 0 0 
SMALL
USER_CHARGES


@<TRIPOS>ATOM
  1 F       -0.1760    -1.1120    -0.1340 F     1 <1>  -0.1900 
  2 C        0.9680    -1.7100    -0.3340 C.ar  1 <1>   0.1900 
  3 C        1.4050    -2.6780     0.5650 C.ar  1 <1>  -0.1440 
  4 C        1.6930    -1.3470    -1.4530 C.ar  1 <1>  -0.1500 
  5 C        2.6230    -3.3030     0.3190 C.ar  1 <1>  -0.1500 
  6 C        0.5990    -3.0760     1.8010 C.3   1 <1>   0.0450 
  7 C        2.8960    -1.9920    -1.6590 C.ar  1 <1>   0.1900 
  8 C        3.3740    -2.9620    -0.7960 C.ar  1 <1>  -0.1500 
  9 C        0.1810    -4.5380     1.7610 C.2   1 <1>   0.5690 
 10 F        3.6070    -1.6750    -2.7070 F     1 <1>  -0.1900 
 11 O        0.7240    -5.3030     2.5230 O.2   1 <1>  -0.5700 
 12 N       -0.7770    -4.9720     0.8860 N.am  1 <1>  -0.6600 
 13 C       -1.5390    -4.1510    -0.0910 C.3   1 <1>   0.1400 
 14 C       -1.1450    -6.4030     0.7520 C.3   1 <1>   0.1400 
 15 C       -2.7140    -5.0400    -0.4920 C.3   1 <1>   0.2000 
 16 C       -2.1330    -6.4570    -0.4190 C.3   1 <1>  -0.0800 
 17 O       -3.7080    -4.8970     0.4650 O.3   1 <1>  -0.6800 
 18 C       -3.1690    -7.5910    -0.3080 C.3   1 <1>  -0.0170 
 19 C       -2.4870    -8.9510    -0.3270 C.ar  1 <1>  -0.1430 
 20 C       -2.1180    -9.5610    -1.5080 C.ar  1 <1>  -0.1500 
 21 C       -2.1980    -9.6430     0.8320 C.ar  1 <1>  -0.1500 
 22 C       -1.4930   -10.7960    -1.4750 C.ar  1 <1>   0.1600 
 23 C       -1.5690   -10.8740     0.7550 C.ar  1 <1>   0.1600 
 24 N       -1.2080   -11.4670    -0.3710 N.ar  1 <1>  -0.6200 
 25 H        1.3390    -0.5960    -2.1330 H     1 <1>   0.1500 
 26 H        2.9890    -4.0600     0.9950 H     1 <1>   0.1500 
 27 H       -0.2770    -2.4680     1.9190 H     1 <1>   0.0800 
 28 H        1.2080    -2.9200     2.6730 H     1 <1>   0.0800 
 29 H        4.3170    -3.4400    -0.9950 H     1 <1>   0.1500 
 30 H       -1.8740    -3.2190     0.3300 H     1 <1>   0.0800 
 31 H       -0.9160    -3.9600    -0.9470 H     1 <1>   0.0800 
 32 H       -0.2720    -7.0050     0.5600 H     1 <1>   0.0800 
 33 H       -1.6070    -6.7310     1.6670 H     1 <1>   0.0800 
 34 H       -3.1260    -4.7920    -1.4550 H     1 <1>   0.0800 
 35 H       -1.5570    -6.6160    -1.3130 H     1 <1>   0.0800 
 36 H       -3.3020    -4.9830     1.3520 H     1 <1>   0.4000 
 37 H       -3.8590    -7.5270    -1.1310 H     1 <1>   0.0800 
 38 H       -3.7420    -7.4910     0.5980 H     1 <1>   0.0800 
 39 H       -2.3100    -9.0890    -2.4540 H     1 <1>   0.1500 
 40 H       -2.4550    -9.2390     1.7940 H     1 <1>   0.1500 
 41 H       -1.2120   -11.2570    -2.4070 H     1 <1>   0.1500 
 42 H       -1.3500   -11.3990     1.6700 H     1 <1>   0.1500 
@<TRIPOS>BOND
  1   1   2  1   
  2   2   3  ar  
  3   2   4  ar  
  4   3   5  ar  
  5   3   6  1   
  6   4   7  ar  
  7   4  25  1   
  8   5   8  ar  
  9   5  26  1   
 10   6   9  1   
 11   6  27  1   
 12   6  28  1   
 13   7   8  ar  
 14   7  10  1   
 15   8  29  1   
 16   9  11  2   
 17   9  12  am  
 18  12  13  1   
 19  12  14  1   
 20  13  15  1   
 21  13  30  1   
 22  13  31  1   
 23  14  16  1   
 24  14  32  1   
 25  14  33  1   
 26  15  16  1   
 27  15  17  1   
 28  15  34  1   
 29  16  18  1   
 30  16  35  1   
 31  17  36  1   
 32  18  19  1   
 33  18  37  1   
 34  18  38  1   
 35  19  20  ar  
 36  19  21  ar  
 37  20  22  ar  
 38  20  39  1   
 39  21  23  ar  
 40  21  40  1   
 41  22  24  ar  
 42  22  41  1   
 43  23  24  ar  
 44  23  42  1   
@<TRIPOS>SUBSTRUCTURE
  1 ****  12 GROUP 4 **** **** 0

# MOE 2024.06 (io_trps.svl 2023.06)
