@<TRIPOS>MOLECULE
NONAME
45 47 1 0 0 
SMALL
USER_CHARGES


@<TRIPOS>ATOM
  1 CL      -3.2660    -1.8520     2.4800 Cl    1 <1>  -0.1770 
  2 C       -3.1560    -0.4420     1.4500 C.ar  1 <1>   0.1770 
  3 C       -3.1500    -0.5760     0.0670 C.ar  1 <1>  -0.1440 
  4 C       -3.0840     0.7990     2.0560 C.ar  1 <1>  -0.1500 
  5 C       -3.0720     0.5730    -0.7070 C.ar  1 <1>  -0.1500 
  6 C       -3.2290    -1.9390    -0.6060 C.3   1 <1>  -0.0160 
  7 C       -3.0050     1.9370     1.2710 C.ar  1 <1>  -0.1500 
  8 C       -3.0000     1.8200    -0.1090 C.ar  1 <1>  -0.1500 
  9 C       -4.6830    -2.4180    -0.6820 C.3   1 <1>  -0.0990 
 10 C       -4.7600    -3.8260    -1.2220 C.2   1 <1>   0.5690 
 11 O       -4.9780    -4.0000    -2.3950 O.2   1 <1>  -0.5700 
 12 N       -4.5810    -4.8560    -0.3640 N.am  1 <1>  -0.7300 
 13 C       -4.5930    -6.2880    -0.7410 C.3   1 <1>   0.2200 
 14 C       -5.8650    -6.9750    -0.2630 C.3   1 <1>  -0.0800 
 15 C       -3.5500    -7.0230     0.0900 C.3   1 <1>   0.1200 
 16 C       -5.5360    -7.3420     1.1890 C.3   1 <1>   0.1200 
 17 C       -7.1680    -6.1720    -0.4340 C.3   1 <1>  -0.0170 
 18 O       -4.1500    -7.2180     1.3340 O.3   1 <1>  -0.5600 
 19 C       -8.3720    -6.9950    -0.0040 C.ar  1 <1>  -0.1430 
 20 C       -8.9470    -7.9310    -0.8400 C.ar  1 <1>  -0.1500 
 21 C       -8.9520    -6.8520     1.2400 C.ar  1 <1>  -0.1500 
 22 C      -10.0390    -8.6620    -0.4010 C.ar  1 <1>   0.1600 
 23 C      -10.0430    -7.6340     1.5810 C.ar  1 <1>   0.1600 
 24 N      -10.5990    -8.5380     0.7910 N.ar  1 <1>  -0.6200 
 25 H       -3.0900     0.8710     3.1280 H     1 <1>   0.1500 
 26 H       -3.0690     0.5030    -1.7820 H     1 <1>   0.1500 
 27 H       -2.8220    -1.8850    -1.6010 H     1 <1>   0.0800 
 28 H       -2.6340    -2.6490    -0.0590 H     1 <1>   0.0800 
 29 H       -2.9480     2.9080     1.7310 H     1 <1>   0.1500 
 30 H       -2.9400     2.7040    -0.7210 H     1 <1>   0.1500 
 31 H       -5.2450    -1.7650    -1.3250 H     1 <1>   0.0800 
 32 H       -5.1350    -2.3920     0.2920 H     1 <1>   0.0800 
 33 H       -4.4010    -4.6890     0.6300 H     1 <1>   0.3700 
 34 H       -4.4290    -6.4050    -1.7990 H     1 <1>   0.0800 
 35 H       -5.9650    -7.8960    -0.8100 H     1 <1>   0.0800 
 36 H       -2.6380    -6.4640     0.2080 H     1 <1>   0.0800 
 37 H       -3.3380    -7.9910    -0.3310 H     1 <1>   0.0800 
 38 H       -5.8240    -8.3530     1.4200 H     1 <1>   0.0800 
 39 H       -5.9960    -6.6640     1.8870 H     1 <1>   0.0800 
 40 H       -7.2790    -5.8890    -1.4670 H     1 <1>   0.0800 
 41 H       -7.1330    -5.2660     0.1440 H     1 <1>   0.0800 
 42 H       -8.5570    -8.0980    -1.8270 H     1 <1>   0.1500 
 43 H       -8.5680    -6.1410     1.9490 H     1 <1>   0.1500 
 44 H      -10.4740    -9.3880    -1.0670 H     1 <1>   0.1500 
 45 H      -10.4820    -7.5090     2.5560 H     1 <1>   0.1500 
@<TRIPOS>BOND
  1   1   2  1   
  2   2   3  ar  
  3   2   4  ar  
  4   3   5  ar  
  5   3   6  1   
  6   4   7  ar  
  7   4  25  1   
  8   5   8  ar  
  9   5  26  1   
 10   6   9  1   
 11   6  27  1   
 12   6  28  1   
 13   7   8  ar  
 14   7  29  1   
 15   8  30  1   
 16   9  10  1   
 17   9  31  1   
 18   9  32  1   
 19  10  11  2   
 20  10  12  am  
 21  12  13  1   
 22  12  33  1   
 23  13  14  1   
 24  13  15  1   
 25  13  34  1   
 26  14  16  1   
 27  14  17  1   
 28  14  35  1   
 29  15  18  1   
 30  15  36  1   
 31  15  37  1   
 32  16  18  1   
 33  16  38  1   
 34  16  39  1   
 35  17  19  1   
 36  17  40  1   
 37  17  41  1   
 38  19  20  ar  
 39  19  21  ar  
 40  20  22  ar  
 41  20  42  1   
 42  21  23  ar  
 43  21  43  1   
 44  22  24  ar  
 45  22  44  1   
 46  23  24  ar  
 47  23  45  1   
@<TRIPOS>SUBSTRUCTURE
  1 ****  12 GROUP 4 **** **** 0

# MOE 2024.06 (io_trps.svl 2023.06)
