@<TRIPOS>MOLECULE
NONAME
52 55 1 0 0 
SMALL
USER_CHARGES


@<TRIPOS>ATOM
  1 O       -0.3500     0.4320    -0.2310 O.2   1 <1>  -0.5700 
  2 C       -1.4060     1.0420    -0.1660 C.2   1 <1>   0.7160 
  3 N       -2.5640     0.2820    -0.1500 N.am  1 <1>  -0.6600 
  4 C       -1.3890     2.5070    -0.1150 C.2   1 <1>   0.2030 
  5 C       -3.9510     0.8070    -0.1880 C.3   1 <1>   0.1400 
  6 C       -2.5590    -1.1990    -0.1440 C.3   1 <1>   0.1400 
  7 N       -2.4170     3.3330     0.0210 N.2   1 <1>  -0.7070 
  8 C       -0.2060     3.2490    -0.2040 C.2   1 <1>  -0.1500 
  9 C       -4.8330    -0.4280    -0.3720 C.3   1 <1>   0.2000 
 10 C       -4.0060    -1.6030     0.1450 C.3   1 <1>  -0.0800 
 11 N       -1.8850     4.5620     0.0160 N.pl3 1 <1>   0.3000 
 12 C       -0.5410     4.5590    -0.1230 C.2   1 <1>  -0.2050 
 13 O       -6.0160    -0.3280     0.3410 O.3   1 <1>  -0.6800 
 14 C       -4.4110    -2.9430    -0.4860 C.3   1 <1>   0.0200 
 15 C        0.2790     5.7430    -0.1540 C.ar  1 <1>   0.0530 
 16 C       -3.5130    -4.0670    -0.0070 C.2   1 <1>  -0.0400 
 17 C        1.5350     5.7490     0.4450 C.ar  1 <1>  -0.1500 
 18 C       -0.1480     6.9140    -0.7760 C.ar  1 <1>  -0.1500 
 19 O       -3.4890    -4.3910     1.2580 O.3   1 <1>  -0.0190 
 20 C       -2.6580    -4.8720    -0.6560 C.2   1 <1>  -0.1500 
 21 C        2.3310     6.8800     0.4330 C.ar  1 <1>  -0.1500 
 22 C        0.6450     8.0470    -0.7900 C.ar  1 <1>  -0.1500 
 23 N       -2.6600    -5.3680     1.4910 N.2   1 <1>  -0.4100 
 24 C       -2.1460    -5.6790     0.3560 C.2   1 <1>   0.1080 
 25 C        1.8910     8.0390    -0.1850 C.ar  1 <1>  -0.1430 
 26 C       -1.1220    -6.7740     0.1580 C.3   1 <1>  -0.0590 
 27 C        2.7640     9.2830    -0.2000 C.3   1 <1>  -0.0170 
 28 C        2.4800    10.1560     1.0250 C.3   1 <1>  -0.2400 
 29 H       -4.1660     1.3040     0.7420 H     1 <1>   0.0800 
 30 H       -4.0730     1.4900    -1.0100 H     1 <1>   0.0800 
 31 H       -2.2430    -1.5500    -1.1120 H     1 <1>   0.0800 
 32 H       -1.8870    -1.5790     0.6080 H     1 <1>   0.0800 
 33 H        0.7760     2.8250    -0.3200 H     1 <1>   0.1500 
 34 H       -5.0750    -0.5460    -1.4150 H     1 <1>   0.0800 
 35 H       -4.1070    -1.6680     1.2150 H     1 <1>   0.0800 
 36 H       -2.4510     5.4120     0.1240 H     1 <1>   0.2700 
 37 H       -5.8300    -0.2260     1.2950 H     1 <1>   0.4000 
 38 H       -4.3510    -2.8760    -1.5580 H     1 <1>   0.0800 
 39 H       -5.4290    -3.1710    -0.2220 H     1 <1>   0.0800 
 40 H        1.8890     4.8580     0.9310 H     1 <1>   0.1500 
 41 H       -1.1040     6.9410    -1.2640 H     1 <1>   0.1500 
 42 H       -2.4030    -4.9130    -1.6980 H     1 <1>   0.1500 
 43 H        3.2960     6.8550     0.9080 H     1 <1>   0.1500 
 44 H        0.2900     8.9400    -1.2750 H     1 <1>   0.1500 
 45 H       -1.5030    -7.5100    -0.5250 H     1 <1>   0.0800 
 46 H       -0.9070    -7.2500     1.0980 H     1 <1>   0.0800 
 47 H       -0.2140    -6.3580    -0.2370 H     1 <1>   0.0800 
 48 H        3.8020     8.9980    -0.2060 H     1 <1>   0.0800 
 49 H        2.5770     9.8480    -1.0970 H     1 <1>   0.0800 
 50 H        2.6800     9.6050     1.9260 H     1 <1>   0.0800 
 51 H        1.4490    10.4620     1.0300 H     1 <1>   0.0800 
 52 H        3.1020    11.0320     1.0080 H     1 <1>   0.0800 
@<TRIPOS>BOND
  1   1   2  2   
  2   2   3  am  
  3   2   4  1   
  4   3   5  1   
  5   3   6  1   
  6   4   7  2   
  7   4   8  1   
  8   5   9  1   
  9   5  29  1   
 10   5  30  1   
 11   6  10  1   
 12   6  31  1   
 13   6  32  1   
 14   7  11  1   
 15   8  12  2   
 16   8  33  1   
 17   9  10  1   
 18   9  13  1   
 19   9  34  1   
 20  10  14  1   
 21  10  35  1   
 22  11  12  1   
 23  11  36  1   
 24  12  15  1   
 25  13  37  1   
 26  14  16  1   
 27  14  38  1   
 28  14  39  1   
 29  15  17  ar  
 30  15  18  ar  
 31  16  19  1   
 32  16  20  2   
 33  17  21  ar  
 34  17  40  1   
 35  18  22  ar  
 36  18  41  1   
 37  19  23  1   
 38  20  24  1   
 39  20  42  1   
 40  21  25  ar  
 41  21  43  1   
 42  22  25  ar  
 43  22  44  1   
 44  23  24  2   
 45  24  26  1   
 46  25  27  1   
 47  26  45  1   
 48  26  46  1   
 49  26  47  1   
 50  27  28  1   
 51  27  48  1   
 52  27  49  1   
 53  28  50  1   
 54  28  51  1   
 55  28  52  1   
@<TRIPOS>SUBSTRUCTURE
  1 ****   2 GROUP 4 **** **** 0

# MOE 2024.06 (io_trps.svl 2023.06)
