@<TRIPOS>MOLECULE
NONAME
39 40 1 0 0 
SMALL
USER_CHARGES


@<TRIPOS>ATOM
  1 F       -0.5910     0.0840     1.0720 F     1 <1>  -0.3400 
  2 C       -1.0220     0.7200    -0.0080 C.3   1 <1>   1.1640 
  3 F       -0.0880     0.5510    -0.9370 F     1 <1>  -0.3400 
  4 F       -2.0960     0.0670    -0.4330 F     1 <1>  -0.3400 
  5 C       -1.2770     2.2120     0.2710 C.ar  1 <1>  -0.1440 
  6 C       -0.2030     3.0840     0.4270 C.ar  1 <1>  -0.1500 
  7 C       -2.5670     2.7210     0.3800 C.ar  1 <1>  -0.1500 
  8 C       -0.4060     4.4340     0.6760 C.ar  1 <1>  -0.1440 
  9 C       -2.7760     4.0630     0.6390 C.ar  1 <1>  -0.1500 
 10 C       -1.7000     4.9180     0.7880 C.ar  1 <1>  -0.1500 
 11 C        0.7720     5.3780     0.8260 C.3   1 <1>   0.4870 
 12 N        1.3390     5.6460    -0.5300 N.4   1 <1>  -0.9590 
 13 C        2.6870     6.3010    -0.4470 C.3   1 <1>   0.5230 
 14 C        0.3800     6.4480    -1.3570 C.3   1 <1>   0.2630 
 15 C        2.5910     7.7180     0.0870 C.2   1 <1>  -0.0400 
 16 O        2.1910     7.9170     1.3120 O.3   1 <1>  -0.0190 
 17 C        2.8440     8.9170    -0.4630 C.2   1 <1>  -0.1500 
 18 N        2.1450     9.1780     1.6090 N.2   1 <1>  -0.4100 
 19 C        2.5420     9.8110     0.5620 C.2   1 <1>   0.1080 
 20 C        2.6590    11.3220     0.4720 C.3   1 <1>   0.0210 
 21 C        4.1240    11.7710     0.5110 C.3   1 <1>  -0.2400 
 22 H        0.7990     2.6920     0.3570 H     1 <1>   0.1500 
 23 H       -3.4240     2.0750     0.2700 H     1 <1>   0.1500 
 24 H       -3.7820     4.4400     0.7270 H     1 <1>   0.1500 
 25 H       -1.8890     5.9590     0.9960 H     1 <1>   0.1500 
 26 H        1.5150     4.9210     1.4600 H     1 <1>   0.0800 
 27 H        0.4500     6.2970     1.2880 H     1 <1>   0.0800 
 28 H        1.4470     4.7270    -0.9770 H     1 <1>   0.4500 
 29 H        3.1310     6.3320    -1.4280 H     1 <1>   0.0800 
 30 H        3.3370     5.7270     0.1940 H     1 <1>   0.0800 
 31 H        0.1900     7.4030    -0.8930 H     1 <1>   0.0800 
 32 H       -0.5580     5.9240    -1.4570 H     1 <1>   0.0800 
 33 H        0.7810     6.6170    -2.3430 H     1 <1>   0.0800 
 34 H        3.1960     9.1850    -1.4440 H     1 <1>   0.1500 
 35 H        2.1290    11.7660     1.2980 H     1 <1>   0.0800 
 36 H        2.1980    11.6620    -0.4380 H     1 <1>   0.0800 
 37 H        4.5860    11.4380     1.4240 H     1 <1>   0.0800 
 38 H        4.1820    12.8440     0.4680 H     1 <1>   0.0800 
 39 H        4.6670    11.3620    -0.3220 H     1 <1>   0.0800 
@<TRIPOS>BOND
  1   1   2  1   
  2   2   3  1   
  3   2   4  1   
  4   2   5  1   
  5   5   6  ar  
  6   5   7  ar  
  7   6   8  ar  
  8   6  22  1   
  9   7   9  ar  
 10   7  23  1   
 11   8  10  ar  
 12   8  11  1   
 13   9  10  ar  
 14   9  24  1   
 15  10  25  1   
 16  11  12  1   
 17  11  26  1   
 18  11  27  1   
 19  12  13  1   
 20  12  14  1   
 21  12  28  1   
 22  13  15  1   
 23  13  29  1   
 24  13  30  1   
 25  14  31  1   
 26  14  32  1   
 27  14  33  1   
 28  15  16  1   
 29  15  17  2   
 30  16  18  1   
 31  17  19  1   
 32  17  34  1   
 33  18  19  2   
 34  19  20  1   
 35  20  21  1   
 36  20  35  1   
 37  20  36  1   
 38  21  37  1   
 39  21  38  1   
 40  21  39  1   
@<TRIPOS>SUBSTRUCTURE
  1 ****  11 GROUP 4 **** **** 0

# MOE 2024.06 (io_trps.svl 2023.06)
