@<TRIPOS>MOLECULE
F1913-1121
28 29 1 0 0 
SMALL
USER_CHARGES


@<TRIPOS>ATOM
  1 O       -0.3650     0.6820    -1.1280 O.co2 1 <1>  -0.9000 
  2 C       -0.4780     1.8190    -0.6600 C.2   1 <1>   0.9470 
  3 O        0.3610     2.7070    -0.8470 O.co2 1 <1>  -0.9000 
  4 C       -1.6930     2.1150     0.2070 C.3   1 <1>  -0.2470 
  5 C       -3.0560     2.2110    -0.4170 C.3   1 <1>  -0.1950 
  6 C       -2.4380     3.4280     0.1960 C.3   1 <1>  -0.2000 
  7 C       -4.2040     1.4350     0.2190 C.3   1 <1>   0.2150 
  8 O       -5.3960     2.1080    -0.0350 O.3   1 <1>  -0.5600 
  9 C       -6.5150     1.4930     0.5190 C.3   1 <1>   0.2640 
 10 C       -7.7640     2.3080     0.2080 C.ar  1 <1>  -0.1440 
 11 C       -8.9590     1.6650    -0.0810 C.ar  1 <1>  -0.1500 
 12 C       -7.7310     3.6950     0.2230 C.ar  1 <1>  -0.1500 
 13 C      -10.1030     2.3970    -0.3500 C.ar  1 <1>  -0.1500 
 14 C       -8.8730     4.4290    -0.0450 C.ar  1 <1>  -0.1500 
 15 C      -10.0610     3.7800    -0.3310 C.ar  1 <1>  -0.1500 
 16 H       -1.5940     1.6230     1.1540 H     1 <1>   0.1000 
 17 H       -3.0870     2.1620    -1.4920 H     1 <1>   0.1000 
 18 H       -2.8370     3.8080     1.1180 H     1 <1>   0.1000 
 19 H       -2.0550     4.2040    -0.4450 H     1 <1>   0.1000 
 20 H       -4.0630     1.3710     1.2840 H     1 <1>   0.0800 
 21 H       -4.2570     0.4470    -0.2060 H     1 <1>   0.0800 
 22 H       -6.5990     0.5050     0.1010 H     1 <1>   0.0800 
 23 H       -6.3790     1.4290     1.5840 H     1 <1>   0.0800 
 24 H       -9.0060     0.5910    -0.1000 H     1 <1>   0.1500 
 25 H       -6.8070     4.2040     0.4400 H     1 <1>   0.1500 
 26 H      -11.0250     1.8910    -0.5740 H     1 <1>   0.1500 
 27 H       -8.8350     5.5040    -0.0320 H     1 <1>   0.1500 
 28 H      -10.9490     4.3500    -0.5400 H     1 <1>   0.1500 
@<TRIPOS>BOND
  1   1   2  ar  
  2   2   3  ar  
  3   2   4  1   
  4   4   5  1   
  5   4   6  1   
  6   4  16  1   
  7   5   6  1   
  8   5   7  1   
  9   5  17  1   
 10   6  18  1   
 11   6  19  1   
 12   7   8  1   
 13   7  20  1   
 14   7  21  1   
 15   8   9  1   
 16   9  10  1   
 17   9  22  1   
 18   9  23  1   
 19  10  11  ar  
 20  10  12  ar  
 21  11  13  ar  
 22  11  24  1   
 23  12  14  ar  
 24  12  25  1   
 25  13  15  ar  
 26  13  26  1   
 27  14  15  ar  
 28  14  27  1   
 29  15  28  1   
@<TRIPOS>SUBSTRUCTURE
  1 ****   8 GROUP 4 **** **** 0

# MOE 2024.06 (io_trps.svl 2023.06)
