@<TRIPOS>MOLECULE
NONAME
44 46 1 0 0 
SMALL
USER_CHARGES


@<TRIPOS>ATOM
  1 S        0.1590    -0.5140     1.3930 S.o2  1 <1>   1.5760 
  2 O        0.0560    -1.9160     1.7230 O.2   1 <1>  -0.6500 
  3 O        0.1500     0.4880     2.4290 O.2   1 <1>  -0.6500 
  4 N        1.4930    -0.2540     0.3910 N.am  1 <1>  -0.8490 
  5 N       -1.0770    -0.0950     0.3480 N.am  1 <1>  -0.9140 
  6 C        1.7160     1.1650     0.1000 C.3   1 <1>   0.1160 
  7 C        2.7080    -0.8530     0.9440 C.3   1 <1>   0.1160 
  8 C       -1.6430    -1.1080    -0.5480 C.3   1 <1>   0.2760 
  9 C       -2.5090    -2.1560     0.1620 C.3   1 <1>  -0.0800 
 10 C       -0.6510    -1.9320    -1.3780 C.3   1 <1>   0.1200 
 11 C       -1.9250    -3.4780    -0.3510 C.3   1 <1>   0.1200 
 12 C       -3.9980    -2.0060    -0.2080 C.3   1 <1>  -0.0160 
 13 O       -1.2760    -3.1640    -1.5380 O.3   1 <1>  -0.5600 
 14 C       -4.9710    -2.9620     0.4960 C.ar  1 <1>  -0.1430 
 15 C       -6.3260    -3.0170     0.0840 C.ar  1 <1>   0.0000 
 16 C       -4.6070    -3.7790     1.5310 C.ar  1 <1>  -0.1500 
 17 C       -7.1900    -3.9200     0.7530 C.ar  1 <1>   0.3100 
 18 C       -6.8780    -2.2270    -0.9530 C.ar  1 <1>  -0.1500 
 19 C       -5.5430    -4.6320     2.1280 C.ar  1 <1>   0.1600 
 20 N       -6.7830    -4.7180     1.7710 N.ar  1 <1>  -0.6200 
 21 C       -8.5350    -4.0000     0.3570 C.ar  1 <1>  -0.1500 
 22 C       -8.1950    -2.3270    -1.3130 C.ar  1 <1>  -0.1500 
 23 C       -9.0360    -3.2260    -0.6540 C.ar  1 <1>  -0.1500 
 24 H       -1.8050     0.2360     0.9720 H     1 <1>   0.4200 
 25 H        2.5360     1.2770    -0.5890 H     1 <1>   0.0800 
 26 H        1.9400     1.7070     1.0050 H     1 <1>   0.0800 
 27 H        0.8370     1.5930    -0.3500 H     1 <1>   0.0800 
 28 H        3.5340    -0.7060     0.2700 H     1 <1>   0.0800 
 29 H        2.5670    -1.9130     1.0780 H     1 <1>   0.0800 
 30 H        2.9450    -0.4100     1.8980 H     1 <1>   0.0800 
 31 H       -2.2570    -0.5830    -1.2590 H     1 <1>   0.0800 
 32 H       -2.4000    -2.0940     1.2280 H     1 <1>   0.0800 
 33 H        0.2790    -2.1120    -0.8730 H     1 <1>   0.0800 
 34 H       -0.4740    -1.5010    -2.3460 H     1 <1>   0.0800 
 35 H       -2.6720    -4.2290    -0.5480 H     1 <1>   0.0800 
 36 H       -1.1900    -3.8650     0.3350 H     1 <1>   0.0800 
 37 H       -4.0870    -2.1520    -1.2710 H     1 <1>   0.0800 
 38 H       -4.3090    -1.0000     0.0140 H     1 <1>   0.0800 
 39 H       -3.6110    -3.8100     1.9290 H     1 <1>   0.1500 
 40 H       -6.2560    -1.5260    -1.4750 H     1 <1>   0.1500 
 41 H       -5.2060    -5.2570     2.9370 H     1 <1>   0.1500 
 42 H       -9.1630    -4.6970     0.8800 H     1 <1>   0.1500 
 43 H       -8.5990    -1.7200    -2.1050 H     1 <1>   0.1500 
 44 H      -10.0690    -3.2980    -0.9470 H     1 <1>   0.1500 
@<TRIPOS>BOND
  1   1   2  2   
  2   1   3  2   
  3   1   4  am  
  4   1   5  am  
  5   4   6  1   
  6   4   7  1   
  7   5   8  1   
  8   5  24  1   
  9   6  25  1   
 10   6  26  1   
 11   6  27  1   
 12   7  28  1   
 13   7  29  1   
 14   7  30  1   
 15   8   9  1   
 16   8  10  1   
 17   8  31  1   
 18   9  11  1   
 19   9  12  1   
 20   9  32  1   
 21  10  13  1   
 22  10  33  1   
 23  10  34  1   
 24  11  13  1   
 25  11  35  1   
 26  11  36  1   
 27  12  14  1   
 28  12  37  1   
 29  12  38  1   
 30  14  15  ar  
 31  14  16  ar  
 32  15  17  ar  
 33  15  18  ar  
 34  16  19  ar  
 35  16  39  1   
 36  17  20  ar  
 37  17  21  ar  
 38  18  22  ar  
 39  18  40  1   
 40  19  20  ar  
 41  19  41  1   
 42  21  23  ar  
 43  21  42  1   
 44  22  23  ar  
 45  22  43  1   
 46  23  44  1   
@<TRIPOS>SUBSTRUCTURE
  1 ****   9 GROUP 4 **** **** 0

# MOE 2024.06 (io_trps.svl 2023.06)
