@<TRIPOS>MOLECULE
NONAME
52 55 1 0 0 
SMALL
USER_CHARGES


@<TRIPOS>ATOM
  1 O        1.1060    -2.5210     0.9310 O.3   1 <1>  -0.5600 
  2 C        0.4350    -3.0310    -0.1970 C.3   1 <1>   0.2800 
  3 C        1.0290    -1.1390     1.1640 C.3   1 <1>   0.1200 
  4 C       -1.0540    -2.6210    -0.1500 C.3   1 <1>  -0.1600 
  5 C        0.5490    -4.5650    -0.0850 C.3   1 <1>  -0.1600 
  6 C        1.1850    -2.6130    -1.4810 C.3   1 <1>  -0.1600 
  7 C       -0.4280    -0.7310     1.3730 C.3   1 <1>  -0.1600 
  8 C       -1.2960    -1.1440     0.1810 C.3   1 <1>   0.2800 
  9 C        1.9500    -5.1210    -0.3840 C.3   1 <1>   0.3430 
 10 C        2.6600    -3.0340    -1.4860 C.3   1 <1>   0.3430 
 11 O       -0.9120    -0.3860    -0.9020 O.3   1 <1>  -0.6800 
 12 C       -2.7910    -0.8380     0.4270 C.3   1 <1>   0.1200 
 13 N        2.9290    -4.0080    -0.3850 N.4   1 <1>  -0.9590 
 14 O       -3.0150     0.5420     0.4350 O.3   1 <1>  -0.6800 
 15 C        4.3480    -4.4270    -0.2590 C.3   1 <1>   0.4860 
 16 C        5.2090    -3.2020    -0.0440 C.ar  1 <1>  -0.1440 
 17 C        6.1240    -2.7920    -0.9840 C.ar  1 <1>   0.1600 
 18 C        5.1040    -2.4390     1.0940 C.ar  1 <1>   0.1600 
 19 N        6.8530    -1.7180    -0.8220 N.ar  1 <1>  -0.6200 
 20 N        5.8210    -1.3620     1.2760 N.ar  1 <1>  -0.6200 
 21 C        6.6860    -1.0230     0.3110 C.ar  1 <1>   0.6730 
 22 C        7.4970     0.1660     0.4860 C.2   1 <1>   0.0870 
 23 O        7.3760     0.9470     1.5590 O.3   1 <1>  -0.2800 
 24 C        8.4610     0.7010    -0.3180 C.2   1 <1>  -0.1500 
 25 C        8.2250     1.9460     1.4590 C.2   1 <1>  -0.0100 
 26 C        8.9310     1.8530     0.3140 C.2   1 <1>  -0.1500 
 27 H        1.4640    -0.6070     0.3360 H     1 <1>   0.0800 
 28 H        1.6030    -0.9200     2.0490 H     1 <1>   0.0800 
 29 H       -1.5340    -3.2060     0.6140 H     1 <1>   0.0800 
 30 H       -1.5360    -2.8650    -1.0800 H     1 <1>   0.0800 
 31 H       -0.1360    -5.0270    -0.7740 H     1 <1>   0.0800 
 32 H        0.2470    -4.8730     0.9000 H     1 <1>   0.0800 
 33 H        1.1340    -1.5550    -1.6490 H     1 <1>   0.0800 
 34 H        0.6990    -3.0650    -2.3270 H     1 <1>   0.0800 
 35 H       -0.4920     0.3330     1.5250 H     1 <1>   0.0800 
 36 H       -0.7900    -1.2050     2.2680 H     1 <1>   0.0800 
 37 H        1.9530    -5.6080    -1.3460 H     1 <1>   0.0800 
 38 H        2.2090    -5.8490     0.3680 H     1 <1>   0.0800 
 39 H        3.2680    -2.1550    -1.3400 H     1 <1>   0.0800 
 40 H        2.9130    -3.4640    -2.4420 H     1 <1>   0.0800 
 41 H       -1.4030     0.4640    -0.8160 H     1 <1>   0.4000 
 42 H       -3.1080    -1.2420     1.3730 H     1 <1>   0.0800 
 43 H       -3.3910    -1.2700    -0.3550 H     1 <1>   0.0800 
 44 H        2.6690    -3.4630     0.4630 H     1 <1>   0.4500 
 45 H       -3.9600     0.7390     0.5970 H     1 <1>   0.4000 
 46 H        4.6600    -4.9460    -1.1510 H     1 <1>   0.0800 
 47 H        4.4620    -5.0940     0.5800 H     1 <1>   0.0800 
 48 H        6.2680    -3.3500    -1.8950 H     1 <1>   0.1500 
 49 H        4.4150    -2.7060     1.8800 H     1 <1>   0.1500 
 50 H        8.8060     0.3190    -1.2630 H     1 <1>   0.1500 
 51 H        8.2620     2.6790     2.2470 H     1 <1>   0.1500 
 52 H        9.6970     2.5090    -0.0590 H     1 <1>   0.1500 
@<TRIPOS>BOND
  1   1   2  1   
  2   1   3  1   
  3   2   4  1   
  4   2   5  1   
  5   2   6  1   
  6   3   7  1   
  7   3  27  1   
  8   3  28  1   
  9   4   8  1   
 10   4  29  1   
 11   4  30  1   
 12   5   9  1   
 13   5  31  1   
 14   5  32  1   
 15   6  10  1   
 16   6  33  1   
 17   6  34  1   
 18   7   8  1   
 19   7  35  1   
 20   7  36  1   
 21   8  11  1   
 22   8  12  1   
 23   9  13  1   
 24   9  37  1   
 25   9  38  1   
 26  10  13  1   
 27  10  39  1   
 28  10  40  1   
 29  11  41  1   
 30  12  14  1   
 31  12  42  1   
 32  12  43  1   
 33  13  15  1   
 34  13  44  1   
 35  14  45  1   
 36  15  16  1   
 37  15  46  1   
 38  15  47  1   
 39  16  17  ar  
 40  16  18  ar  
 41  17  19  ar  
 42  17  48  1   
 43  18  20  ar  
 44  18  49  1   
 45  19  21  ar  
 46  20  21  ar  
 47  21  22  1   
 48  22  23  1   
 49  22  24  2   
 50  23  25  1   
 51  24  26  1   
 52  24  50  1   
 53  25  26  2   
 54  25  51  1   
 55  26  52  1   
@<TRIPOS>SUBSTRUCTURE
  1 ****  10 GROUP 4 **** **** 0

# MOE 2024.06 (io_trps.svl 2023.06)
