@<TRIPOS>MOLECULE
NONAME
19 19 1 0 0 
SMALL
USER_CHARGES


@<TRIPOS>ATOM
  1 F       -0.0870     0.9600     0.7020 F     1 <1>  -0.3400 
  2 C       -0.0330     1.4030    -0.5480 C.3   1 <1>   1.0200 
  3 F       -1.0670     0.8630    -1.1780 F     1 <1>  -0.3400 
  4 F        1.0570     0.8710    -1.0840 F     1 <1>  -0.3400 
  5 C       -0.0340     2.9370    -0.6530 C.3   1 <1>   0.0000 
  6 C        1.0010     3.6860     0.2330 C.3   1 <1>   0.0000 
  7 C       -1.1520     3.6760     0.1350 C.3   1 <1>   0.0000 
  8 C       -0.0940     4.7550     0.5060 C.3   1 <1>   0.0000 
  9 C       -0.0270     5.9650    -0.4380 C.3   1 <1>   0.1200 
 10 O       -1.1730     6.7290    -0.2880 O.3   1 <1>  -0.6800 
 11 H        0.0100     3.2730    -1.6760 H     1 <1>   0.0000 
 12 H        1.8520     4.0530    -0.3130 H     1 <1>   0.0000 
 13 H        1.2710     3.1480     1.1250 H     1 <1>   0.0000 
 14 H       -1.4970     3.1360     1.0000 H     1 <1>   0.0000 
 15 H       -1.9540     4.0320    -0.4880 H     1 <1>   0.0000 
 16 H       -0.1240     5.0390     1.5440 H     1 <1>   0.0000 
 17 H        0.0420     5.6650    -1.4700 H     1 <1>   0.0800 
 18 H        0.8170     6.5870    -0.1940 H     1 <1>   0.0800 
 19 H       -1.9740     6.1940    -0.4520 H     1 <1>   0.4000 
@<TRIPOS>BOND
  1   1   2  1   
  2   2   3  1   
  3   2   4  1   
  4   2   5  1   
  5   5   6  1   
  6   5   7  1   
  7   5  11  1   
  8   6   8  1   
  9   6  12  1   
 10   6  13  1   
 11   7   8  1   
 12   7  14  1   
 13   7  15  1   
 14   8   9  1   
 15   8  16  1   
 16   9  10  1   
 17   9  17  1   
 18   9  18  1   
 19  10  19  1   
@<TRIPOS>SUBSTRUCTURE
  1 ****   5 GROUP 4 **** **** 0

# MOE 2024.06 (io_trps.svl 2023.06)
