@<TRIPOS>MOLECULE
NONAME
54 56 1 0 0 
SMALL
USER_CHARGES


@<TRIPOS>ATOM
  1 O       -1.2490    -1.1720     0.2600 O.co2 1 <1>  -0.9000 
  2 C       -2.1500    -1.9640     0.5450 C.2   1 <1>   0.9060 
  3 O       -2.3580    -2.3970     1.6820 O.co2 1 <1>  -0.9000 
  4 C       -3.1770    -2.2950    -0.5390 C.3   1 <1>   0.2370 
  5 N       -4.3590    -1.3390    -0.5910 N.4   1 <1>  -0.9590 
  6 C       -5.0250    -1.3150     0.7590 C.3   1 <1>   0.3430 
  7 C       -3.8770     0.0250    -0.9640 C.3   1 <1>   0.3430 
  8 C       -6.4320    -0.6710     0.6970 C.3   1 <1>   0.2200 
  9 C       -5.0140     1.0410    -1.2120 C.3   1 <1>  -0.0800 
 10 N       -6.9330    -0.6170    -0.7320 N.am  1 <1>  -0.6600 
 11 C       -6.4570     0.7030     1.3870 C.3   1 <1>   0.1200 
 12 C       -5.1550     2.0480    -0.0610 C.3   1 <1>   0.1200 
 13 C       -6.3770     0.4510    -1.6330 C.3   1 <1>   0.1400 
 14 C       -7.7850    -1.5520    -1.2700 C.2   1 <1>   0.5690 
 15 O       -5.2750     1.4090     1.1630 O.3   1 <1>  -0.5600 
 16 O       -8.1410    -1.4750    -2.4200 O.2   1 <1>  -0.5700 
 17 C       -8.2650    -2.7380    -0.4450 C.3   1 <1>  -0.0990 
 18 C       -8.8620    -3.8770    -1.2800 C.3   1 <1>   0.0210 
 19 C       -9.1160    -5.0670    -0.3730 C.2   1 <1>  -0.1810 
 20 C       -8.2000    -6.0610    -0.0360 C.2   1 <1>   0.1080 
 21 C      -10.2420    -5.3980     0.2960 C.2   1 <1>  -0.3320 
 22 N       -8.7000    -6.9310     0.7790 N.2   1 <1>  -0.7070 
 23 C       -6.7740    -6.1680    -0.5280 C.3   1 <1>  -0.0590 
 24 N       -9.9650    -6.5310     0.9810 N.pl3 1 <1>   0.3140 
 25 C      -11.5920    -4.6970     0.3320 C.3   1 <1>  -0.0600 
 26 C      -10.8690    -7.2930     1.8500 C.3   1 <1>   0.0160 
 27 H       -3.5230    -3.2930    -0.3470 H     1 <1>   0.0800 
 28 H       -2.6580    -2.2890    -1.4800 H     1 <1>   0.0800 
 29 H       -5.0650    -1.6350    -1.2770 H     1 <1>   0.4500 
 30 H       -5.1250    -2.3250     1.1220 H     1 <1>   0.0800 
 31 H       -4.4050    -0.7900     1.4700 H     1 <1>   0.0800 
 32 H       -3.2200     0.3990    -0.1920 H     1 <1>   0.0800 
 33 H       -3.2900    -0.0570    -1.8630 H     1 <1>   0.0800 
 34 H       -7.0940    -1.2830     1.2800 H     1 <1>   0.0800 
 35 H       -4.6910     1.6380    -2.0450 H     1 <1>   0.0800 
 36 H       -6.5180     0.5560     2.4520 H     1 <1>   0.0800 
 37 H       -7.3040     1.2920     1.0790 H     1 <1>   0.0800 
 38 H       -6.0010     2.7000    -0.2000 H     1 <1>   0.0800 
 39 H       -4.2690     2.6570    -0.0030 H     1 <1>   0.0800 
 40 H       -6.2670     0.0440    -2.6250 H     1 <1>   0.0800 
 41 H       -7.1030     1.2430    -1.7050 H     1 <1>   0.0800 
 42 H       -7.4360    -3.1410     0.1040 H     1 <1>   0.0800 
 43 H       -9.0040    -2.3980     0.2560 H     1 <1>   0.0800 
 44 H       -8.1850    -4.1610    -2.0660 H     1 <1>   0.0800 
 45 H       -9.7790    -3.5560    -1.7410 H     1 <1>   0.0800 
 46 H       -6.1830    -5.3760    -0.1120 H     1 <1>   0.0800 
 47 H       -6.7510    -6.1150    -1.6000 H     1 <1>   0.0800 
 48 H       -6.3570    -7.1100    -0.2220 H     1 <1>   0.0800 
 49 H      -11.5780    -3.8070    -0.2680 H     1 <1>   0.0800 
 50 H      -11.8390    -4.4210     1.3420 H     1 <1>   0.0800 
 51 H      -12.3570    -5.3500    -0.0490 H     1 <1>   0.0800 
 52 H      -11.1830    -6.6700     2.6650 H     1 <1>   0.0800 
 53 H      -10.3480    -8.1520     2.2310 H     1 <1>   0.0800 
 54 H      -11.7190    -7.6120     1.2790 H     1 <1>   0.0800 
@<TRIPOS>BOND
  1   1   2  ar  
  2   2   3  ar  
  3   2   4  1   
  4   4   5  1   
  5   4  27  1   
  6   4  28  1   
  7   5   6  1   
  8   5   7  1   
  9   5  29  1   
 10   6   8  1   
 11   6  30  1   
 12   6  31  1   
 13   7   9  1   
 14   7  32  1   
 15   7  33  1   
 16   8  10  1   
 17   8  11  1   
 18   8  34  1   
 19   9  12  1   
 20   9  13  1   
 21   9  35  1   
 22  10  13  1   
 23  10  14  am  
 24  11  15  1   
 25  11  36  1   
 26  11  37  1   
 27  12  15  1   
 28  12  38  1   
 29  12  39  1   
 30  13  40  1   
 31  13  41  1   
 32  14  16  2   
 33  14  17  1   
 34  17  18  1   
 35  17  42  1   
 36  17  43  1   
 37  18  19  1   
 38  18  44  1   
 39  18  45  1   
 40  19  20  1   
 41  19  21  2   
 42  20  22  2   
 43  20  23  1   
 44  21  24  1   
 45  21  25  1   
 46  22  24  1   
 47  23  46  1   
 48  23  47  1   
 49  23  48  1   
 50  24  26  1   
 51  25  49  1   
 52  25  50  1   
 53  25  51  1   
 54  26  52  1   
 55  26  53  1   
 56  26  54  1   
@<TRIPOS>SUBSTRUCTURE
  1 ****  17 GROUP 4 **** **** 0

# MOE 2024.06 (io_trps.svl 2023.06)
