@<TRIPOS>MOLECULE
NONAME
45 46 1 0 0 
SMALL
USER_CHARGES


@<TRIPOS>ATOM
  1 O       -1.2250     1.7630     1.6700 O.2   1 <1>  -0.5700 
  2 C       -0.4570     0.8550     1.8790 C.2   1 <1>   0.5690 
  3 N        0.8730     0.9760     1.6760 N.am  1 <1>  -0.7300 
  4 C       -0.9810    -0.4820     2.3720 C.3   1 <1>   0.0440 
  5 C        1.5200     2.0470     0.9260 C.3   1 <1>   0.3640 
  6 C       -0.8860    -1.5490     1.2820 C.ar  1 <1>  -0.1440 
  7 C        2.6220     1.3950     0.0970 C.ar  1 <1>  -0.1440 
  8 C        1.9970     3.1030     1.9220 C.3   1 <1>  -0.2400 
  9 C        0.3190    -2.1880     0.9860 C.ar  1 <1>   0.0820 
 10 C       -2.0250    -1.8750     0.5610 C.ar  1 <1>  -0.1500 
 11 C        2.2440     0.5900    -0.9680 C.ar  1 <1>   0.1600 
 12 C        3.9750     1.5420     0.3530 C.ar  1 <1>  -0.1500 
 13 O        1.4250    -1.8350     1.6970 O.3   1 <1>  -0.3630 
 14 C        0.3580    -3.1470    -0.0210 C.ar  1 <1>  -0.1500 
 15 C       -1.9800    -2.8280    -0.4400 C.ar  1 <1>  -0.1500 
 16 N        3.0750    -0.0560    -1.7710 N.ar  1 <1>  -0.6200 
 17 C        4.8520     0.8780    -0.4780 C.ar  1 <1>  -0.1500 
 18 C        2.7150    -2.2240     1.2730 C.3   1 <1>   0.0400 
 19 C       -0.7830    -3.4710    -0.7340 C.ar  1 <1>   0.0820 
 20 C        4.3600     0.1020    -1.5150 C.ar  1 <1>   0.1670 
 21 O       -0.6520    -4.4170    -1.6980 O.3   1 <1>  -0.3620 
 22 C        5.3100    -0.6310    -2.4370 C.3   1 <1>  -0.0970 
 23 C       -1.7300    -4.7580    -2.5400 C.3   1 <1>   0.0400 
 24 H        1.4340     0.1200     1.7480 H     1 <1>   0.3700 
 25 H       -2.0010    -0.3580     2.6840 H     1 <1>   0.0800 
 26 H       -0.4150    -0.7840     3.2330 H     1 <1>   0.0800 
 27 H        0.8020     2.4990     0.2610 H     1 <1>   0.0800 
 28 H        2.6450     2.6690     2.6610 H     1 <1>   0.0800 
 29 H        1.1460     3.5390     2.4150 H     1 <1>   0.0800 
 30 H        2.5210     3.8850     1.4030 H     1 <1>   0.0800 
 31 H       -2.9580    -1.3810     0.7740 H     1 <1>   0.1500 
 32 H        1.1930     0.4610    -1.1680 H     1 <1>   0.1500 
 33 H        4.3510     2.1430     1.1600 H     1 <1>   0.1500 
 34 H        1.2620    -3.6620    -0.2770 H     1 <1>   0.1500 
 35 H       -2.8820    -3.0540    -0.9760 H     1 <1>   0.1500 
 36 H        5.9110     0.9660    -0.3200 H     1 <1>   0.1500 
 37 H        3.4390    -1.7200     1.8880 H     1 <1>   0.0800 
 38 H        2.8500    -1.9370     0.2450 H     1 <1>   0.0800 
 39 H        2.8150    -3.2880     1.3880 H     1 <1>   0.0800 
 40 H        5.1100    -1.6860    -2.3930 H     1 <1>   0.0800 
 41 H        6.3330    -0.4580    -2.1620 H     1 <1>   0.0800 
 42 H        5.1580    -0.2940    -3.4460 H     1 <1>   0.0800 
 43 H       -1.3850    -5.4970    -3.2410 H     1 <1>   0.0800 
 44 H       -2.0540    -3.8780    -3.0660 H     1 <1>   0.0800 
 45 H       -2.5250    -5.1660    -1.9410 H     1 <1>   0.0800 
@<TRIPOS>BOND
  1   1   2  2   
  2   2   3  am  
  3   2   4  1   
  4   3   5  1   
  5   3  24  1   
  6   4   6  1   
  7   4  25  1   
  8   4  26  1   
  9   5   7  1   
 10   5   8  1   
 11   5  27  1   
 12   6   9  ar  
 13   6  10  ar  
 14   7  11  ar  
 15   7  12  ar  
 16   8  28  1   
 17   8  29  1   
 18   8  30  1   
 19   9  13  1   
 20   9  14  ar  
 21  10  15  ar  
 22  10  31  1   
 23  11  16  ar  
 24  11  32  1   
 25  12  17  ar  
 26  12  33  1   
 27  13  18  1   
 28  14  19  ar  
 29  14  34  1   
 30  15  19  ar  
 31  15  35  1   
 32  16  20  ar  
 33  17  20  ar  
 34  17  36  1   
 35  18  37  1   
 36  18  38  1   
 37  18  39  1   
 38  19  21  1   
 39  20  22  1   
 40  21  23  1   
 41  22  40  1   
 42  22  41  1   
 43  22  42  1   
 44  23  43  1   
 45  23  44  1   
 46  23  45  1   
@<TRIPOS>SUBSTRUCTURE
  1 ****   9 GROUP 4 **** **** 0

# MOE 2024.06 (io_trps.svl 2023.06)
