@<TRIPOS>MOLECULE
NONAME
45 47 1 0 0 
SMALL
USER_CHARGES


@<TRIPOS>ATOM
  1 S        0.7300    -0.4610    -1.1840 S.o2  1 <1>   1.3330 
  2 O        2.0260    -0.8860    -0.7040 O.2   1 <1>  -0.6500 
  3 O        0.3420    -0.7610    -2.5440 O.2   1 <1>  -0.6500 
  4 N       -0.4530    -1.1460    -0.1740 N.am  1 <1>  -0.8490 
  5 C        0.5470     1.3080    -0.9050 C.3   1 <1>  -0.0550 
  6 C       -1.7920    -1.1680    -0.7730 C.3   1 <1>   0.1160 
  7 C       -0.0900    -2.4950     0.2710 C.3   1 <1>   0.1160 
  8 C        1.1790     1.9100     0.3710 C.3   1 <1>  -0.0800 
  9 C        2.7100     1.8440     0.3860 C.3   1 <1>   0.2200 
 10 C        0.7710     1.2880     1.7130 C.3   1 <1>   0.1200 
 11 N        3.2560     3.2160     0.4880 N.am  1 <1>  -0.7300 
 12 C        3.0070     1.0690     1.6670 C.3   1 <1>   0.1200 
 13 O        1.9200     1.3270     2.4940 O.3   1 <1>  -0.5600 
 14 C        3.3910     4.0570    -0.5730 C.2   1 <1>   0.7150 
 15 O        3.0210     3.6860    -1.6680 O.2   1 <1>  -0.5700 
 16 C        3.9360     5.3720    -0.3770 C.2   1 <1>  -0.2370 
 17 N        4.7380     5.7060     0.6890 N.pl3 1 <1>   0.0330 
 18 C        3.8020     6.4850    -1.1560 C.2   1 <1>  -0.1500 
 19 C        5.0980     7.0230     0.5890 C.ar  1 <1>  -0.1520 
 20 C        4.5200     7.5410    -0.5670 C.ar  1 <1>   0.0000 
 21 C        5.8970     7.8150     1.4240 C.ar  1 <1>  -0.1500 
 22 C        4.7330     8.8810    -0.9110 C.ar  1 <1>  -0.1500 
 23 C        6.1060     9.1320     1.0860 C.ar  1 <1>  -0.1500 
 24 C        5.5180     9.6380    -0.0780 C.ar  1 <1>   0.1900 
 25 F        5.7340    10.8950    -0.3740 F     1 <1>  -0.1900 
 26 H        0.9860     1.8190    -1.7420 H     1 <1>   0.0800 
 27 H       -0.4970     1.5510    -0.9150 H     1 <1>   0.0800 
 28 H       -2.5130    -1.5200    -0.0560 H     1 <1>   0.0800 
 29 H       -1.8100    -1.8160    -1.6340 H     1 <1>   0.0800 
 30 H       -2.0790    -0.1780    -1.0830 H     1 <1>   0.0800 
 31 H       -0.8550    -2.8960     0.9140 H     1 <1>   0.0800 
 32 H        0.8330    -2.4650     0.8270 H     1 <1>   0.0800 
 33 H        0.0390    -3.1470    -0.5770 H     1 <1>   0.0800 
 34 H        0.8710     2.9410     0.4020 H     1 <1>   0.0800 
 35 H        3.1320     1.3500    -0.4740 H     1 <1>   0.0800 
 36 H        0.4800     0.2580     1.6300 H     1 <1>   0.0800 
 37 H       -0.0070     1.8460     2.2060 H     1 <1>   0.0800 
 38 H        3.1770     3.6170     1.4220 H     1 <1>   0.3700 
 39 H        3.9170     1.3800     2.1490 H     1 <1>   0.0800 
 40 H        3.0370     0.0100     1.4770 H     1 <1>   0.0800 
 41 H        5.0720     5.0580     1.4090 H     1 <1>   0.2700 
 42 H        3.2460     6.5650    -2.0750 H     1 <1>   0.1500 
 43 H        6.3360     7.3940     2.3120 H     1 <1>   0.1500 
 44 H        4.2940     9.2920    -1.7990 H     1 <1>   0.1500 
 45 H        6.7110     9.7820     1.6930 H     1 <1>   0.1500 
@<TRIPOS>BOND
  1   1   2  2   
  2   1   3  2   
  3   1   4  am  
  4   1   5  1   
  5   4   6  1   
  6   4   7  1   
  7   5   8  1   
  8   5  26  1   
  9   5  27  1   
 10   6  28  1   
 11   6  29  1   
 12   6  30  1   
 13   7  31  1   
 14   7  32  1   
 15   7  33  1   
 16   8   9  1   
 17   8  10  1   
 18   8  34  1   
 19   9  11  1   
 20   9  12  1   
 21   9  35  1   
 22  10  13  1   
 23  10  36  1   
 24  10  37  1   
 25  11  14  am  
 26  11  38  1   
 27  12  13  1   
 28  12  39  1   
 29  12  40  1   
 30  14  15  2   
 31  14  16  1   
 32  16  17  1   
 33  16  18  2   
 34  17  19  1   
 35  17  41  1   
 36  18  20  1   
 37  18  42  1   
 38  19  20  ar  
 39  19  21  ar  
 40  20  22  ar  
 41  21  23  ar  
 42  21  43  1   
 43  22  24  ar  
 44  22  44  1   
 45  23  24  ar  
 46  23  45  1   
 47  24  25  1   
@<TRIPOS>SUBSTRUCTURE
  1 ****  11 GROUP 4 **** **** 0

# MOE 2024.06 (io_trps.svl 2023.06)
