@<TRIPOS>MOLECULE
NONAME
47 48 1 0 0 
SMALL
USER_CHARGES


@<TRIPOS>ATOM
  1 F        1.4120    -1.2680    -1.4760 F     1 <1>  -0.1900 
  2 C        1.0340    -2.4710    -1.1360 C.ar  1 <1>   0.1900 
  3 C        0.9130    -2.7730     0.2040 C.ar  1 <1>  -0.1500 
  4 C        0.7740    -3.3900    -2.1330 C.ar  1 <1>  -0.1500 
  5 C        0.5070    -4.0550     0.5620 C.ar  1 <1>   0.0830 
  6 C        0.3690    -4.6630    -1.7700 C.ar  1 <1>  -0.1500 
  7 O        0.3710    -4.4480     1.8550 O.3   1 <1>  -0.3630 
  8 C        0.2240    -4.9960    -0.4280 C.ar  1 <1>  -0.1440 
  9 C        0.7700    -3.6170     2.9260 C.3   1 <1>   0.0400 
 10 C       -0.2240    -6.3960    -0.0320 C.3   1 <1>   0.4870 
 11 N       -1.7020    -6.4950     0.0090 N.4   1 <1>  -0.9590 
 12 C       -2.4090    -6.2030    -1.2720 C.3   1 <1>   0.3430 
 13 C       -2.3180    -5.7740     1.1710 C.3   1 <1>   0.3430 
 14 C       -3.8820    -6.6800    -1.2230 C.3   1 <1>   0.2000 
 15 C       -3.8560    -5.6980     1.0450 C.3   1 <1>  -0.1600 
 16 O       -3.9930    -7.8490    -1.9550 O.3   1 <1>  -0.6800 
 17 C       -4.4150    -6.8970     0.2300 C.3   1 <1>  -0.1060 
 18 C       -3.8200    -8.1760     0.8740 C.2   1 <1>   0.9060 
 19 C       -5.9700    -6.9060     0.1790 C.3   1 <1>  -0.1600 
 20 O       -3.8790    -8.3200     2.0930 O.co2 1 <1>  -0.9000 
 21 O       -3.0460    -8.8780     0.2020 O.co2 1 <1>  -0.9000 
 22 C       -6.6920    -7.0550     1.5300 C.3   1 <1>  -0.1600 
 23 C       -8.2110    -7.0510     1.3400 C.3   1 <1>  -0.2400 
 24 H        1.1370    -2.0110     0.9250 H     1 <1>   0.1500 
 25 H        0.8900    -3.1100    -3.1660 H     1 <1>   0.1500 
 26 H        0.1730    -5.3880    -2.5430 H     1 <1>   0.1500 
 27 H        0.6210    -4.1580     3.8440 H     1 <1>   0.0800 
 28 H        0.1650    -2.7270     2.9270 H     1 <1>   0.0800 
 29 H        1.8120    -3.3730     2.8130 H     1 <1>   0.0800 
 30 H        0.1800    -6.6450     0.9360 H     1 <1>   0.0800 
 31 H        0.1620    -7.1080    -0.7420 H     1 <1>   0.0800 
 32 H       -1.9250    -7.5110     0.1810 H     1 <1>   0.4500 
 33 H       -2.3920    -5.1390    -1.4400 H     1 <1>   0.0800 
 34 H       -1.9160    -6.6890    -2.0960 H     1 <1>   0.0800 
 35 H       -2.0750    -6.3100     2.0760 H     1 <1>   0.0800 
 36 H       -1.9180    -4.7770     1.2520 H     1 <1>   0.0800 
 37 H       -4.4820    -5.9480    -1.7350 H     1 <1>   0.0800 
 38 H       -4.2580    -5.7010     2.0430 H     1 <1>   0.0800 
 39 H       -4.1410    -4.7660     0.5910 H     1 <1>   0.0800 
 40 H       -3.6610    -8.5830    -1.3560 H     1 <1>   0.4000 
 41 H       -6.3120    -5.9980    -0.2870 H     1 <1>   0.0800 
 42 H       -6.2780    -7.7230    -0.4510 H     1 <1>   0.0800 
 43 H       -6.4050    -7.9820     1.9980 H     1 <1>   0.0800 
 44 H       -6.4230    -6.2540     2.1940 H     1 <1>   0.0800 
 45 H       -8.5110    -7.8660     0.7050 H     1 <1>   0.0800 
 46 H       -8.5350    -6.1260     0.8980 H     1 <1>   0.0800 
 47 H       -8.6980    -7.1660     2.2930 H     1 <1>   0.0800 
@<TRIPOS>BOND
  1   1   2  1   
  2   2   3  ar  
  3   2   4  ar  
  4   3   5  ar  
  5   3  24  1   
  6   4   6  ar  
  7   4  25  1   
  8   5   7  1   
  9   5   8  ar  
 10   6   8  ar  
 11   6  26  1   
 12   7   9  1   
 13   8  10  1   
 14   9  27  1   
 15   9  28  1   
 16   9  29  1   
 17  10  11  1   
 18  10  30  1   
 19  10  31  1   
 20  11  12  1   
 21  11  13  1   
 22  11  32  1   
 23  12  14  1   
 24  12  33  1   
 25  12  34  1   
 26  13  15  1   
 27  13  35  1   
 28  13  36  1   
 29  14  16  1   
 30  14  17  1   
 31  14  37  1   
 32  15  17  1   
 33  15  38  1   
 34  15  39  1   
 35  16  40  1   
 36  17  18  1   
 37  17  19  1   
 38  18  20  ar  
 39  18  21  ar  
 40  19  22  1   
 41  19  41  1   
 42  19  42  1   
 43  22  23  1   
 44  22  43  1   
 45  22  44  1   
 46  23  45  1   
 47  23  46  1   
 48  23  47  1   
@<TRIPOS>SUBSTRUCTURE
  1 ****  11 GROUP 4 **** **** 0

# MOE 2024.06 (io_trps.svl 2023.06)
