@<TRIPOS>MOLECULE
NONAME
18 18 1 0 0 
SMALL
USER_CHARGES


@<TRIPOS>ATOM
  1 O       -0.0110    -0.2770    -0.2940 O.3   1 <1>  -0.5320 
  2 C       -0.0210    -1.6200    -0.1480 C.ar  1 <1>   0.0830 
  3 C       -0.8330    -2.2180     0.7910 C.ar  1 <1>   0.1600 
  4 C        0.7650    -2.4530    -0.9160 C.ar  1 <1>   0.1600 
  5 N       -0.8680    -3.5240     0.9600 N.ar  1 <1>  -0.6200 
  6 N        0.7530    -3.7610    -0.7710 N.ar  1 <1>  -0.6200 
  7 C       -0.0680    -4.2330     0.1690 C.ar  1 <1>   0.4770 
  8 C       -0.1050    -5.7650     0.3580 C.3   1 <1>   0.3440 
  9 O        1.1320    -6.3260     0.0630 O.3   1 <1>  -0.6800 
 10 C       -1.1270    -6.4400    -0.5570 C.3   1 <1>  -0.2400 
 11 H        0.5970     0.0550    -0.9810 H     1 <1>   0.4500 
 12 H       -1.4620    -1.6040     1.4110 H     1 <1>   0.1500 
 13 H        1.4170    -2.0380    -1.6650 H     1 <1>   0.1500 
 14 H       -0.3250    -5.9940     1.3860 H     1 <1>   0.0800 
 15 H        1.5630    -5.7210    -0.5790 H     1 <1>   0.4000 
 16 H       -0.9010    -6.2320    -1.5870 H     1 <1>   0.0800 
 17 H       -2.1090    -6.0600    -0.3380 H     1 <1>   0.0800 
 18 H       -1.1250    -7.5020    -0.3920 H     1 <1>   0.0800 
@<TRIPOS>BOND
  1   1   2  1   
  2   1  11  1   
  3   2   3  ar  
  4   2   4  ar  
  5   3   5  ar  
  6   3  12  1   
  7   4   6  ar  
  8   4  13  1   
  9   5   7  ar  
 10   6   7  ar  
 11   7   8  1   
 12   8   9  1   
 13   8  10  1   
 14   8  14  1   
 15   9  15  1   
 16  10  16  1   
 17  10  17  1   
 18  10  18  1   
@<TRIPOS>SUBSTRUCTURE
  1 ****   7 GROUP 4 **** **** 0

# MOE 2024.06 (io_trps.svl 2023.06)
