@<TRIPOS>MOLECULE
NONAME
52 54 1 0 0 
SMALL
USER_CHARGES


@<TRIPOS>ATOM
  1 O       -2.0150     1.4590    -1.6350 O.2   1 <1>  -0.5700 
  2 C       -1.8090     1.3150    -0.4560 C.2   1 <1>   0.5690 
  3 N       -1.9020     0.1070     0.1490 N.am  1 <1>  -0.7300 
  4 C       -1.4240     2.5190     0.3720 C.3   1 <1>  -0.0990 
  5 C       -2.2450    -1.1580    -0.5400 C.3   1 <1>   0.2200 
  6 C        0.0730     2.8310     0.2340 C.3   1 <1>  -0.0990 
  7 C       -3.6540    -1.5730    -0.1550 C.3   1 <1>  -0.0800 
  8 C       -1.4140    -2.2990     0.0370 C.3   1 <1>   0.1200 
  9 C        0.4540     4.0370     1.0620 C.2   1 <1>   0.5690 
 10 C       -3.4210    -2.2980     1.1740 C.3   1 <1>   0.1200 
 11 C       -4.2820    -2.4930    -1.2200 C.3   1 <1>  -0.0170 
 12 O       -2.0970    -2.7500     1.1690 O.3   1 <1>  -0.5600 
 13 O        0.6480     3.8900     2.2430 O.2   1 <1>  -0.5700 
 14 N        0.5450     5.2410     0.4490 N.am  1 <1>  -0.7300 
 15 C       -5.7010    -2.8940    -0.8460 C.ar  1 <1>  -0.1440 
 16 C        0.8920     6.5090     1.1120 C.3   1 <1>   0.2200 
 17 C       -6.0060    -4.1510    -0.3650 C.ar  1 <1>  -0.1500 
 18 C       -6.7590    -2.0170    -0.9710 C.ar  1 <1>  -0.1500 
 19 C       -0.2310     7.5100     0.8730 C.3   1 <1>  -0.1600 
 20 C        2.0780     7.1330     0.3890 C.3   1 <1>  -0.1600 
 21 C       -7.3150    -4.4600    -0.0370 C.ar  1 <1>   0.1600 
 22 C       -8.0340    -2.4260    -0.6150 C.ar  1 <1>   0.1600 
 23 C        0.0110     8.0830    -0.5290 C.3   1 <1>  -0.1600 
 24 C        1.4950     7.8450    -0.8380 C.3   1 <1>  -0.1600 
 25 N       -8.3370    -3.6270    -0.1480 N.ar  1 <1>  -0.6200 
 26 H       -1.7190     0.0100     1.1510 H     1 <1>   0.3700 
 27 H       -2.0010     3.3620     0.0370 H     1 <1>   0.0800 
 28 H       -1.6650     2.3420     1.4050 H     1 <1>   0.0800 
 29 H       -2.1080    -1.0530    -1.6040 H     1 <1>   0.0800 
 30 H        0.3150     3.0090    -0.7990 H     1 <1>   0.0800 
 31 H        0.6520     1.9910     0.5710 H     1 <1>   0.0800 
 32 H       -4.2900    -0.7150    -0.0220 H     1 <1>   0.0800 
 33 H       -0.4200    -1.9920     0.3120 H     1 <1>   0.0800 
 34 H       -1.3610    -3.1190    -0.6580 H     1 <1>   0.0800 
 35 H       -4.0780    -3.1370     1.3220 H     1 <1>   0.0800 
 36 H       -3.5260    -1.6160     2.0000 H     1 <1>   0.0800 
 37 H       -3.6820    -3.3760    -1.3530 H     1 <1>   0.0800 
 38 H       -4.3100    -1.9760    -2.1650 H     1 <1>   0.0800 
 39 H        0.3600     5.3290    -0.5490 H     1 <1>   0.3700 
 40 H        1.0860     6.3530     2.1610 H     1 <1>   0.0800 
 41 H       -5.2390    -4.8940    -0.2410 H     1 <1>   0.1500 
 42 H       -6.6060    -1.0200    -1.3430 H     1 <1>   0.1500 
 43 H       -1.2050     7.0640     0.9800 H     1 <1>   0.0800 
 44 H       -0.1380     8.3030     1.5940 H     1 <1>   0.0800 
 45 H        2.5220     7.8670     1.0390 H     1 <1>   0.0800 
 46 H        2.8280     6.4050     0.1330 H     1 <1>   0.0800 
 47 H       -7.5340    -5.4460     0.3370 H     1 <1>   0.1500 
 48 H       -8.8470    -1.7280    -0.7190 H     1 <1>   0.1500 
 49 H       -0.5980     7.5620    -1.2480 H     1 <1>   0.0800 
 50 H       -0.2350     9.1310    -0.5620 H     1 <1>   0.0800 
 51 H        2.0110     8.7710    -1.0250 H     1 <1>   0.0800 
 52 H        1.5880     7.2150    -1.7060 H     1 <1>   0.0800 
@<TRIPOS>BOND
  1   1   2  2   
  2   2   3  am  
  3   2   4  1   
  4   3   5  1   
  5   3  26  1   
  6   4   6  1   
  7   4  27  1   
  8   4  28  1   
  9   5   7  1   
 10   5   8  1   
 11   5  29  1   
 12   6   9  1   
 13   6  30  1   
 14   6  31  1   
 15   7  10  1   
 16   7  11  1   
 17   7  32  1   
 18   8  12  1   
 19   8  33  1   
 20   8  34  1   
 21   9  13  2   
 22   9  14  am  
 23  10  12  1   
 24  10  35  1   
 25  10  36  1   
 26  11  15  1   
 27  11  37  1   
 28  11  38  1   
 29  14  16  1   
 30  14  39  1   
 31  15  17  ar  
 32  15  18  ar  
 33  16  19  1   
 34  16  20  1   
 35  16  40  1   
 36  17  21  ar  
 37  17  41  1   
 38  18  22  ar  
 39  18  42  1   
 40  19  23  1   
 41  19  43  1   
 42  19  44  1   
 43  20  24  1   
 44  20  45  1   
 45  20  46  1   
 46  21  25  ar  
 47  21  47  1   
 48  22  25  ar  
 49  22  48  1   
 50  23  24  1   
 51  23  49  1   
 52  23  50  1   
 53  24  51  1   
 54  24  52  1   
@<TRIPOS>SUBSTRUCTURE
  1 ****   2 GROUP 4 **** **** 0

# MOE 2024.06 (io_trps.svl 2023.06)
