@<TRIPOS>MOLECULE
NONAME
45 46 1 0 0 
SMALL
USER_CHARGES


@<TRIPOS>ATOM
  1 S       -1.4900    -0.5180    -0.4090 S.3   1 <1>  -0.3320 
  2 C       -1.0950    -2.2600    -0.3910 C.ar  1 <1>   0.7220 
  3 C       -2.5570    -0.2500     1.0770 C.3   1 <1>  -0.0100 
  4 N       -1.6350    -2.9690     0.5890 N.ar  1 <1>  -0.6200 
  5 N       -0.3020    -2.6590    -1.3720 N.ar  1 <1>  -0.6200 
  6 C       -1.3190    -4.2440     0.5710 C.ar  1 <1>   0.1600 
  7 C       -0.0100    -3.9380    -1.3540 C.ar  1 <1>   0.1600 
  8 C       -0.5050    -4.7920    -0.3940 C.ar  1 <1>  -0.1430 
  9 C       -0.1870    -6.2760    -0.3960 C.3   1 <1>   0.2540 
 10 N       -1.4430    -7.0590    -0.4630 N.3   1 <1>  -0.8100 
 11 C       -1.2500    -8.5150    -0.2150 C.3   1 <1>   0.1900 
 12 C       -2.1550    -6.8180    -1.7520 C.3   1 <1>   0.1100 
 13 C       -2.5050    -9.3640    -0.6000 C.3   1 <1>   0.3430 
 14 C       -0.9140    -8.7390     1.2660 C.3   1 <1>  -0.2400 
 15 C       -3.5170    -7.5620    -1.8890 C.3   1 <1>   0.4230 
 16 N       -3.7600    -8.5500    -0.7850 N.4   1 <1>  -0.9590 
 17 C       -4.6920    -6.5920    -2.0340 C.3   1 <1>  -0.2400 
 18 C       -4.1820    -7.9170     0.4940 C.3   1 <1>   0.4810 
 19 C       -4.6910    -9.0160     1.3990 C.2   1 <1>  -0.2880 
 20 C       -5.9790    -9.2660     1.6550 C.2   1 <1>  -0.3000 
 21 H       -2.8020     0.7950     1.1210 H     1 <1>   0.0800 
 22 H       -1.9960    -0.5530     1.9430 H     1 <1>   0.0800 
 23 H       -3.4410    -0.8510     0.9610 H     1 <1>   0.0800 
 24 H       -1.7260    -4.8730     1.3460 H     1 <1>   0.1500 
 25 H        0.6380    -4.3060    -2.1320 H     1 <1>   0.1500 
 26 H        0.3480    -6.4940     0.5110 H     1 <1>   0.0800 
 27 H        0.4510    -6.5260    -1.2270 H     1 <1>   0.0800 
 28 H       -0.4220    -8.8740    -0.8040 H     1 <1>   0.0800 
 29 H       -2.3300    -5.7630    -1.8800 H     1 <1>   0.0800 
 30 H       -1.5220    -7.1240    -2.5680 H     1 <1>   0.0800 
 31 H       -2.6630   -10.1230     0.1470 H     1 <1>   0.0800 
 32 H       -2.2850    -9.8780    -1.5210 H     1 <1>   0.0800 
 33 H       -1.6320    -8.2590     1.9060 H     1 <1>   0.0800 
 34 H        0.0650    -8.3660     1.5030 H     1 <1>   0.0800 
 35 H       -0.9070    -9.7910     1.4910 H     1 <1>   0.0800 
 36 H       -3.4670    -8.1140    -2.8130 H     1 <1>   0.0800 
 37 H       -4.5320    -9.1710    -1.0510 H     1 <1>   0.4500 
 38 H       -4.7120    -5.8710    -1.2360 H     1 <1>   0.0800 
 39 H       -5.6260    -7.1220    -2.0750 H     1 <1>   0.0800 
 40 H       -4.5860    -6.0440    -2.9550 H     1 <1>   0.0800 
 41 H       -3.3700    -7.3770     0.9520 H     1 <1>   0.0800 
 42 H       -4.9890    -7.2270     0.3160 H     1 <1>   0.0800 
 43 H       -3.9010    -9.5950     1.8460 H     1 <1>   0.1500 
 44 H       -6.3170   -10.0520     2.3120 H     1 <1>   0.1500 
 45 H       -6.8120    -8.7170     1.2460 H     1 <1>   0.1500 
@<TRIPOS>BOND
  1   1   2  1   
  2   1   3  1   
  3   2   4  ar  
  4   2   5  ar  
  5   3  21  1   
  6   3  22  1   
  7   3  23  1   
  8   4   6  ar  
  9   5   7  ar  
 10   6   8  ar  
 11   6  24  1   
 12   7   8  ar  
 13   7  25  1   
 14   8   9  1   
 15   9  10  1   
 16   9  26  1   
 17   9  27  1   
 18  10  11  1   
 19  10  12  1   
 20  11  13  1   
 21  11  14  1   
 22  11  28  1   
 23  12  15  1   
 24  12  29  1   
 25  12  30  1   
 26  13  16  1   
 27  13  31  1   
 28  13  32  1   
 29  14  33  1   
 30  14  34  1   
 31  14  35  1   
 32  15  16  1   
 33  15  17  1   
 34  15  36  1   
 35  16  18  1   
 36  16  37  1   
 37  17  38  1   
 38  17  39  1   
 39  17  40  1   
 40  18  19  1   
 41  18  41  1   
 42  18  42  1   
 43  19  20  2   
 44  19  43  1   
 45  20  44  1   
 46  20  45  1   
@<TRIPOS>SUBSTRUCTURE
  1 ****  10 GROUP 4 **** **** 0

# MOE 2024.06 (io_trps.svl 2023.06)
