@<TRIPOS>MOLECULE
NONAME
45 46 1 0 0 
SMALL
USER_CHARGES


@<TRIPOS>ATOM
  1 O        1.4880     5.9670     2.5780 O.co2 1 <1>  -0.9000 
  2 C        0.3390     5.4680     2.5000 C.2   1 <1>   0.9790 
  3 O       -0.1940     5.0360     3.5370 O.co2 1 <1>  -0.9000 
  4 C       -0.3160     5.3560     1.1930 C.ar  1 <1>   0.1310 
  5 N        0.2060     5.9900     0.1510 N.ar  1 <1>  -0.6200 
  6 C       -1.4390     4.5770     0.9790 C.ar  1 <1>  -0.1500 
  7 C       -0.2770     5.7610    -1.0440 C.ar  1 <1>   0.7200 
  8 C       -1.9220     4.4490    -0.3040 C.ar  1 <1>   0.1660 
  9 N       -1.3420     5.0240    -1.3320 N.ar  1 <1>  -0.6200 
 10 N        0.4380     6.3460    -2.0680 N.pl3 1 <1>  -0.8380 
 11 C       -3.1520     3.6150    -0.5890 C.3   1 <1>  -0.0970 
 12 C        1.8950     6.0240    -2.2930 C.3   1 <1>   0.2090 
 13 C       -0.3030     6.7420    -3.2970 C.3   1 <1>   0.1290 
 14 C        2.8250     5.7630    -1.0650 C.3   1 <1>   0.3430 
 15 N        2.8360     6.7870     0.0380 N.4   1 <1>  -0.9590 
 16 C        2.5970     8.1930    -0.3780 C.3   1 <1>   0.4230 
 17 C        3.8870     6.5300     1.0620 C.3   1 <1>   0.2630 
 18 C        3.8240     8.8160    -1.0410 C.3   1 <1>  -0.1600 
 19 C        2.3190     9.0880     0.8270 C.3   1 <1>  -0.1600 
 20 C        4.6210     9.5190     0.0640 C.3   1 <1>  -0.1600 
 21 C        3.6400     9.7640     1.2160 C.3   1 <1>  -0.1600 
 22 H       -1.9010     4.0830     1.8160 H     1 <1>   0.1500 
 23 H       -3.5470     3.1900     0.3150 H     1 <1>   0.0800 
 24 H       -2.8990     2.8200    -1.2670 H     1 <1>   0.0800 
 25 H       -3.9060     4.2310    -1.0420 H     1 <1>   0.0800 
 26 H        2.3300     6.8260    -2.8620 H     1 <1>   0.0800 
 27 H        1.9390     5.1480    -2.9160 H     1 <1>   0.0800 
 28 H       -1.3010     7.0580    -3.0400 H     1 <1>   0.0800 
 29 H       -0.3700     5.9050    -3.9710 H     1 <1>   0.0800 
 30 H        0.1970     7.5590    -3.7870 H     1 <1>   0.0800 
 31 H        3.8290     5.6520    -1.4360 H     1 <1>   0.0800 
 32 H        2.5390     4.8160    -0.6360 H     1 <1>   0.0800 
 33 H        1.9560     6.5650     0.5750 H     1 <1>   0.4500 
 34 H        1.7460     8.2190    -1.0400 H     1 <1>   0.0800 
 35 H        4.8650     6.7410     0.6680 H     1 <1>   0.0800 
 36 H        3.8390     5.5030     1.3850 H     1 <1>   0.0800 
 37 H        3.7080     7.1450     1.9290 H     1 <1>   0.0800 
 38 H        3.4760     9.5650    -1.7310 H     1 <1>   0.0800 
 39 H        4.4170     8.1030    -1.5840 H     1 <1>   0.0800 
 40 H        1.8720     8.5470     1.6450 H     1 <1>   0.0800 
 41 H        1.6240     9.8490     0.5180 H     1 <1>   0.0800 
 42 H        5.0430    10.4430    -0.2920 H     1 <1>   0.0800 
 43 H        5.4250     8.8880     0.4010 H     1 <1>   0.0800 
 44 H        4.0230     9.3400     2.1290 H     1 <1>   0.0800 
 45 H        3.4870    10.8190     1.3720 H     1 <1>   0.0800 
@<TRIPOS>BOND
  1   1   2  ar  
  2   2   3  ar  
  3   2   4  1   
  4   4   5  ar  
  5   4   6  ar  
  6   5   7  ar  
  7   6   8  ar  
  8   6  22  1   
  9   7   9  ar  
 10   7  10  1   
 11   8   9  ar  
 12   8  11  1   
 13  10  12  1   
 14  10  13  1   
 15  11  23  1   
 16  11  24  1   
 17  11  25  1   
 18  12  14  1   
 19  12  26  1   
 20  12  27  1   
 21  13  28  1   
 22  13  29  1   
 23  13  30  1   
 24  14  15  1   
 25  14  31  1   
 26  14  32  1   
 27  15  16  1   
 28  15  17  1   
 29  15  33  1   
 30  16  18  1   
 31  16  19  1   
 32  16  34  1   
 33  17  35  1   
 34  17  36  1   
 35  17  37  1   
 36  18  20  1   
 37  18  38  1   
 38  18  39  1   
 39  19  21  1   
 40  19  40  1   
 41  19  41  1   
 42  20  21  1   
 43  20  42  1   
 44  20  43  1   
 45  21  44  1   
 46  21  45  1   
@<TRIPOS>SUBSTRUCTURE
  1 ****   5 GROUP 4 **** **** 0

# MOE 2024.06 (io_trps.svl 2023.06)
