@<TRIPOS>MOLECULE
NONAME
54 56 1 0 0 
SMALL
USER_CHARGES


@<TRIPOS>ATOM
  1 O       -0.5730     0.3480     1.3540 O.2   1 <1>  -0.5700 
  2 C       -1.5090     0.9200     0.8310 C.2   1 <1>   0.5440 
  3 N       -2.5400     0.1690     0.3180 N.am  1 <1>  -0.6600 
  4 C       -1.5240     2.3650     0.7530 C.ar  1 <1>   0.0860 
  5 C       -3.6470     0.6850    -0.5270 C.3   1 <1>   0.1400 
  6 C       -2.5160    -1.3160     0.2780 C.3   1 <1>   0.1400 
  7 C       -0.5930     3.0500    -0.0210 C.ar  1 <1>  -0.1500 
  8 C       -2.4670     3.1220     1.4440 C.ar  1 <1>  -0.1500 
  9 C       -4.6020    -0.5000    -0.6520 C.3   1 <1>   0.2000 
 10 C       -3.6640    -1.7100    -0.6580 C.3   1 <1>  -0.0800 
 11 C       -0.5980     4.4290    -0.1260 C.ar  1 <1>   0.0830 
 12 C       -2.4960     4.5010     1.3500 C.ar  1 <1>  -0.1500 
 13 O       -5.3910    -0.5300     0.4890 O.3   1 <1>  -0.6800 
 14 C       -4.3180    -3.0590    -0.3080 C.3   1 <1>   0.0210 
 15 O        0.3760     4.9500    -0.9230 O.3   1 <1>  -0.3630 
 16 C       -1.5710     5.1780     0.5570 C.ar  1 <1>   0.0830 
 17 C       -3.2960    -4.1780    -0.3540 C.2   1 <1>   0.1080 
 18 C        1.0010     6.1700    -0.5940 C.3   1 <1>   0.1200 
 19 O       -1.6040     6.5310     0.4230 O.3   1 <1>  -0.3630 
 20 N       -2.6850    -4.5290    -1.4430 N.2   1 <1>  -0.7070 
 21 C       -2.8940    -4.9340     0.7420 C.2   1 <1>  -0.1500 
 22 C        2.3660     6.1980    -1.2740 C.3   1 <1>  -0.2400 
 23 C       -2.5810     7.3380     1.0370 C.3   1 <1>   0.1200 
 24 N       -1.8680    -5.5300    -1.0660 N.pl3 1 <1>   0.3000 
 25 C       -1.9750    -5.7930     0.2530 C.2   1 <1>  -0.3320 
 26 C       -2.3080     8.7860     0.6440 C.3   1 <1>  -0.2400 
 27 C       -1.1800    -6.8640     0.9770 C.3   1 <1>  -0.0600 
 28 H       -4.1320     1.5400    -0.0900 H     1 <1>   0.0800 
 29 H       -3.2550     0.9450    -1.4950 H     1 <1>   0.0800 
 30 H       -1.5700    -1.6770    -0.0900 H     1 <1>   0.0800 
 31 H       -2.6750    -1.6960     1.2730 H     1 <1>   0.0800 
 32 H        0.1560     2.4900    -0.5510 H     1 <1>   0.1500 
 33 H       -3.1850     2.6130     2.0640 H     1 <1>   0.1500 
 34 H       -5.2420    -0.4450    -1.5160 H     1 <1>   0.0800 
 35 H       -3.2480    -1.7940    -1.6480 H     1 <1>   0.0800 
 36 H       -3.2490     5.0290     1.9020 H     1 <1>   0.1500 
 37 H       -4.8020    -0.4600     1.2680 H     1 <1>   0.4000 
 38 H       -5.0970    -3.2760    -1.0170 H     1 <1>   0.0800 
 39 H       -4.7590    -3.0270     0.6710 H     1 <1>   0.0800 
 40 H        0.3830     6.9750    -0.9510 H     1 <1>   0.0800 
 41 H        1.1040     6.2280     0.4760 H     1 <1>   0.0800 
 42 H       -3.2530    -4.8330     1.7500 H     1 <1>   0.1500 
 43 H        2.2480     6.1270    -2.3400 H     1 <1>   0.0800 
 44 H        2.9700     5.3810    -0.9230 H     1 <1>   0.0800 
 45 H        2.8670     7.1210    -1.0440 H     1 <1>   0.0800 
 46 H       -3.5500     7.0250     0.6880 H     1 <1>   0.0800 
 47 H       -2.5060     7.2130     2.1040 H     1 <1>   0.0800 
 48 H       -1.2510    -6.0110    -1.7320 H     1 <1>   0.2700 
 49 H       -2.3670     8.8960    -0.4240 H     1 <1>   0.0800 
 50 H       -1.3330     9.0840     0.9840 H     1 <1>   0.0800 
 51 H       -3.0400     9.4310     1.0960 H     1 <1>   0.0800 
 52 H       -1.4420    -6.8780     2.0200 H     1 <1>   0.0800 
 53 H       -0.1260    -6.6670     0.8920 H     1 <1>   0.0800 
 54 H       -1.3920    -7.8320     0.5570 H     1 <1>   0.0800 
@<TRIPOS>BOND
  1   1   2  2   
  2   2   3  am  
  3   2   4  1   
  4   3   5  1   
  5   3   6  1   
  6   4   7  ar  
  7   4   8  ar  
  8   5   9  1   
  9   5  28  1   
 10   5  29  1   
 11   6  10  1   
 12   6  30  1   
 13   6  31  1   
 14   7  11  ar  
 15   7  32  1   
 16   8  12  ar  
 17   8  33  1   
 18   9  10  1   
 19   9  13  1   
 20   9  34  1   
 21  10  14  1   
 22  10  35  1   
 23  11  15  1   
 24  11  16  ar  
 25  12  16  ar  
 26  12  36  1   
 27  13  37  1   
 28  14  17  1   
 29  14  38  1   
 30  14  39  1   
 31  15  18  1   
 32  16  19  1   
 33  17  20  2   
 34  17  21  1   
 35  18  22  1   
 36  18  40  1   
 37  18  41  1   
 38  19  23  1   
 39  20  24  1   
 40  21  25  2   
 41  21  42  1   
 42  22  43  1   
 43  22  44  1   
 44  22  45  1   
 45  23  26  1   
 46  23  46  1   
 47  23  47  1   
 48  24  25  1   
 49  24  48  1   
 50  25  27  1   
 51  26  49  1   
 52  26  50  1   
 53  26  51  1   
 54  27  52  1   
 55  27  53  1   
 56  27  54  1   
@<TRIPOS>SUBSTRUCTURE
  1 ****   2 GROUP 4 **** **** 0

# MOE 2024.06 (io_trps.svl 2023.06)
