@<TRIPOS>MOLECULE
NONAME
39 42 1 0 0 
SMALL
USER_CHARGES


@<TRIPOS>ATOM
  1 S       -0.4100     0.4470     0.1420 S.3   1 <1>  -0.0800 
  2 C       -0.3040    -1.3180     0.1110 C.2   1 <1>   0.4620 
  3 C        1.3350     0.5420     0.1540 C.ar  1 <1>   0.0400 
  4 N        0.8940    -1.7740     0.1100 N.2   1 <1>  -0.5650 
  5 N       -1.4630    -2.0500     0.0930 N.pl3 1 <1>  -0.8220 
  6 C        1.8270    -0.7500     0.1340 C.ar  1 <1>   0.2270 
  7 C        2.1360     1.6680     0.1780 C.ar  1 <1>  -0.1500 
  8 C       -2.8280    -1.5020    -0.0830 C.3   1 <1>   0.2090 
  9 C       -1.4570    -3.5270     0.0330 C.3   1 <1>   0.2090 
 10 C        3.2050    -0.9200     0.1400 C.ar  1 <1>  -0.1500 
 11 C        3.5080     1.4770     0.1830 C.ar  1 <1>  -0.1500 
 12 C       -3.6840    -2.7190    -0.4430 C.3   1 <1>   0.2000 
 13 C       -2.9310    -3.9300     0.1070 C.3   1 <1>  -0.0800 
 14 C        4.0370     0.1880     0.1640 C.ar  1 <1>  -0.1500 
 15 O       -4.9510    -2.6500     0.1180 O.3   1 <1>  -0.6800 
 16 C       -3.2530    -5.2280    -0.6470 C.3   1 <1>   0.0200 
 17 C       -2.4210    -6.3830    -0.1260 C.2   1 <1>  -0.0400 
 18 O       -2.5480    -6.7730     1.1150 O.3   1 <1>  -0.0190 
 19 C       -1.4950    -7.1580    -0.7090 C.2   1 <1>  -0.1500 
 20 N       -1.7540    -7.7660     1.3930 N.2   1 <1>  -0.4100 
 21 C       -1.1070    -8.0200     0.3130 C.2   1 <1>   0.1080 
 22 C       -0.0660    -9.1090     0.1810 C.3   1 <1>  -0.0590 
 23 H        1.7010     2.6520     0.1920 H     1 <1>   0.1500 
 24 H       -3.1530    -1.0600     0.8420 H     1 <1>   0.0800 
 25 H       -2.8480    -0.7740    -0.8750 H     1 <1>   0.0800 
 26 H       -1.0140    -3.8370    -0.8990 H     1 <1>   0.0800 
 27 H       -0.8920    -3.9410     0.8510 H     1 <1>   0.0800 
 28 H        3.6040    -1.9180     0.1260 H     1 <1>   0.1500 
 29 H        4.1690     2.3260     0.2010 H     1 <1>   0.1500 
 30 H       -3.7900    -2.7760    -1.5130 H     1 <1>   0.0800 
 31 H       -3.1670    -4.0540     1.1500 H     1 <1>   0.0800 
 32 H        5.1050     0.0540     0.1680 H     1 <1>   0.1500 
 33 H       -4.8910    -2.6600     1.0940 H     1 <1>   0.4000 
 34 H       -3.0590    -5.1000    -1.6970 H     1 <1>   0.0800 
 35 H       -4.2960    -5.4650    -0.5270 H     1 <1>   0.0800 
 36 H       -1.1160    -7.1460    -1.7140 H     1 <1>   0.1500 
 37 H       -0.3440    -9.7860    -0.6060 H     1 <1>   0.0800 
 38 H        0.0080    -9.6590     1.1020 H     1 <1>   0.0800 
 39 H        0.8900    -8.6740    -0.0430 H     1 <1>   0.0800 
@<TRIPOS>BOND
  1   1   2  1   
  2   1   3  1   
  3   2   4  2   
  4   2   5  1   
  5   3   6  ar  
  6   3   7  ar  
  7   4   6  1   
  8   5   8  1   
  9   5   9  1   
 10   6  10  ar  
 11   7  11  ar  
 12   7  23  1   
 13   8  12  1   
 14   8  24  1   
 15   8  25  1   
 16   9  13  1   
 17   9  26  1   
 18   9  27  1   
 19  10  14  ar  
 20  10  28  1   
 21  11  14  ar  
 22  11  29  1   
 23  12  13  1   
 24  12  15  1   
 25  12  30  1   
 26  13  16  1   
 27  13  31  1   
 28  14  32  1   
 29  15  33  1   
 30  16  17  1   
 31  16  34  1   
 32  16  35  1   
 33  17  18  1   
 34  17  19  2   
 35  18  20  1   
 36  19  21  1   
 37  19  36  1   
 38  20  21  2   
 39  21  22  1   
 40  22  37  1   
 41  22  38  1   
 42  22  39  1   
@<TRIPOS>SUBSTRUCTURE
  1 ****   9 GROUP 4 **** **** 0

# MOE 2024.06 (io_trps.svl 2023.06)
