@<TRIPOS>MOLECULE
NONAME
42 45 1 0 0 
SMALL
USER_CHARGES


@<TRIPOS>ATOM
  1 O        0.3250    -0.1420    -0.2360 O.3   1 <1>  -0.6800 
  2 C        1.6390    -0.2640    -0.6700 C.3   1 <1>   0.2000 
  3 C        2.3190    -1.4560    -0.0030 C.3   1 <1>  -0.0800 
  4 C        2.4770     0.9440    -0.2530 C.3   1 <1>   0.2090 
  5 C        3.8030    -1.0840    -0.0160 C.3   1 <1>   0.2090 
  6 C        2.0210    -2.7970    -0.6930 C.3   1 <1>  -0.0170 
  7 N        3.8430     0.4020    -0.0270 N.pl3 1 <1>  -0.8380 
  8 C        2.7880    -3.9340    -0.0350 C.ar  1 <1>  -0.1440 
  9 C        4.9850     1.1010    -0.3630 C.ar  1 <1>   0.4100 
 10 C        2.3620    -4.5090     1.1450 C.ar  1 <1>  -0.1500 
 11 C        3.9490    -4.4450    -0.5780 C.ar  1 <1>  -0.1500 
 12 N        6.0190     0.4180    -0.8140 N.ar  1 <1>  -0.6200 
 13 C        5.0560     2.4740    -0.2290 C.ar  1 <1>  -0.1500 
 14 C        3.0980    -5.5380     1.7100 C.ar  1 <1>   0.1600 
 15 C        4.6110    -5.4760     0.0680 C.ar  1 <1>   0.1600 
 16 C        7.0850     1.1280    -1.1250 C.ar  1 <1>   0.4700 
 17 C        6.2180     3.1030    -0.5830 C.ar  1 <1>   0.2780 
 18 N        4.2130    -6.0350     1.1990 N.ar  1 <1>  -0.6200 
 19 N        7.2540     2.4350    -1.0470 N.ar  1 <1>  -0.6200 
 20 C        6.3660     4.6120    -0.4650 C.3   1 <1>  -0.0680 
 21 C        7.2440     5.1950     0.6000 C.3   1 <1>  -0.2000 
 22 C        5.7600     5.3910     0.6670 C.3   1 <1>  -0.2000 
 23 H       -0.2020    -0.9170    -0.5080 H     1 <1>   0.4000 
 24 H        1.6460    -0.3530    -1.7430 H     1 <1>   0.0800 
 25 H        2.0150    -1.5020     1.0290 H     1 <1>   0.0800 
 26 H        2.1050     1.3560     0.6690 H     1 <1>   0.0800 
 27 H        2.4780     1.6920    -1.0260 H     1 <1>   0.0800 
 28 H        4.2770    -1.4600    -0.9070 H     1 <1>   0.0800 
 29 H        4.3150    -1.4700     0.8490 H     1 <1>   0.0800 
 30 H        2.2870    -2.7390    -1.7340 H     1 <1>   0.0800 
 31 H        0.9680    -3.0060    -0.6370 H     1 <1>   0.0800 
 32 H        1.4680    -4.1680     1.6330 H     1 <1>   0.1500 
 33 H        4.3500    -4.0530    -1.4950 H     1 <1>   0.1500 
 34 H        4.2200     3.0230     0.1500 H     1 <1>   0.1500 
 35 H        2.7520    -5.9740     2.6310 H     1 <1>   0.1500 
 36 H        5.5160    -5.8610    -0.3690 H     1 <1>   0.1500 
 37 H        7.9280     0.5690    -1.4940 H     1 <1>   0.1500 
 38 H        6.4070     5.0810    -1.4320 H     1 <1>   0.1000 
 39 H        7.7170     4.5180     1.2910 H     1 <1>   0.1000 
 40 H        7.8740     6.0280     0.3410 H     1 <1>   0.1000 
 41 H        5.3570     6.3670     0.4620 H     1 <1>   0.1000 
 42 H        5.2240     4.8790     1.4470 H     1 <1>   0.1000 
@<TRIPOS>BOND
  1   1   2  1   
  2   1  23  1   
  3   2   3  1   
  4   2   4  1   
  5   2  24  1   
  6   3   5  1   
  7   3   6  1   
  8   3  25  1   
  9   4   7  1   
 10   4  26  1   
 11   4  27  1   
 12   5   7  1   
 13   5  28  1   
 14   5  29  1   
 15   6   8  1   
 16   6  30  1   
 17   6  31  1   
 18   7   9  1   
 19   8  10  ar  
 20   8  11  ar  
 21   9  12  ar  
 22   9  13  ar  
 23  10  14  ar  
 24  10  32  1   
 25  11  15  ar  
 26  11  33  1   
 27  12  16  ar  
 28  13  17  ar  
 29  13  34  1   
 30  14  18  ar  
 31  14  35  1   
 32  15  18  ar  
 33  15  36  1   
 34  16  19  ar  
 35  16  37  1   
 36  17  19  ar  
 37  17  20  1   
 38  20  21  1   
 39  20  22  1   
 40  20  38  1   
 41  21  22  1   
 42  21  39  1   
 43  21  40  1   
 44  22  41  1   
 45  22  42  1   
@<TRIPOS>SUBSTRUCTURE
  1 ****   5 GROUP 4 **** **** 0

# MOE 2024.06 (io_trps.svl 2023.06)
