@<TRIPOS>MOLECULE
NONAME
55 58 1 0 0 
SMALL
USER_CHARGES


@<TRIPOS>ATOM
  1 O        1.3240    -0.7360     2.1710 O.co2 1 <1>  -0.9000 
  2 C        1.5630    -0.2650     1.0440 C.2   1 <1>   0.9790 
  3 O        0.7780     0.5870     0.5880 O.co2 1 <1>  -0.9000 
  4 C        2.7550    -0.6340     0.3370 C.ar  1 <1>  -0.1790 
  5 C        2.8400    -1.5200    -0.7400 C.ar  1 <1>   0.1000 
  6 C        3.9260    -0.0380     0.8260 C.ar  1 <1>   0.1600 
  7 N        1.7850    -2.3050    -1.2010 N.pl3 1 <1>  -0.8380 
  8 C        4.1210    -1.6350    -1.3230 C.ar  1 <1>   0.0000 
  9 N        5.1360    -0.1920     0.3500 N.ar  1 <1>  -0.5670 
 10 C        1.8760    -3.7970    -1.1720 C.3   1 <1>   0.2090 
 11 C        0.4370    -1.7420    -1.4720 C.3   1 <1>   0.2090 
 12 C        5.1860    -0.9910    -0.7320 C.ar  1 <1>   0.1050 
 13 C        4.7080    -2.2640    -2.4450 C.2   1 <1>   0.1080 
 14 C        0.8950    -4.4340    -0.1620 C.3   1 <1>   0.0000 
 15 C       -0.5770    -2.3180    -0.4820 C.3   1 <1>  -0.1600 
 16 N        6.2860    -1.3030    -1.4660 N.pl3 1 <1>   0.3140 
 17 N        5.9850    -2.0850    -2.5270 N.2   1 <1>  -0.7070 
 18 C        3.9700    -3.0500    -3.5050 C.3   1 <1>  -0.0590 
 19 C       -0.5120    -3.8440    -0.4600 C.3   1 <1>   0.2000 
 20 C        0.8040    -5.9550    -0.4350 C.3   1 <1>   0.1200 
 21 C        1.3510    -4.1550     1.3040 C.3   1 <1>  -0.0160 
 22 C        7.6500    -0.8350    -1.2060 C.3   1 <1>   0.0160 
 23 O       -1.4420    -4.2890     0.4650 O.3   1 <1>  -0.6800 
 24 O        2.0590    -6.5310    -0.5840 O.3   1 <1>  -0.6800 
 25 C        2.6460    -4.8480     1.7300 C.ar  1 <1>  -0.1430 
 26 C        2.6150    -6.0990     2.3290 C.ar  1 <1>  -0.1500 
 27 C        3.8680    -4.2280     1.5280 C.ar  1 <1>  -0.1500 
 28 C        3.7910    -6.7330     2.6910 C.ar  1 <1>  -0.1500 
 29 C        5.0450    -4.8580     1.8880 C.ar  1 <1>  -0.1500 
 30 C        5.0090    -6.1150     2.4660 C.ar  1 <1>  -0.1500 
 31 H        3.8120     0.6060     1.6830 H     1 <1>   0.1500 
 32 H        1.6520    -4.1660    -2.1560 H     1 <1>   0.0800 
 33 H        2.8840    -4.0910    -0.9400 H     1 <1>   0.0800 
 34 H        0.4590    -0.6680    -1.4150 H     1 <1>   0.0800 
 35 H        0.1510    -2.0040    -2.4750 H     1 <1>   0.0800 
 36 H       -1.5590    -1.9970    -0.7770 H     1 <1>   0.0800 
 37 H       -0.3830    -1.9200     0.4960 H     1 <1>   0.0800 
 38 H        2.9890    -2.6390    -3.6500 H     1 <1>   0.0800 
 39 H        3.8960    -4.0780    -3.2080 H     1 <1>   0.0800 
 40 H        4.5070    -2.9950    -4.4340 H     1 <1>   0.0800 
 41 H       -0.8380    -4.2010    -1.4220 H     1 <1>   0.0800 
 42 H        0.2630    -6.1480    -1.3450 H     1 <1>   0.0800 
 43 H        0.2940    -6.4540     0.3720 H     1 <1>   0.0800 
 44 H        1.4780    -3.0990     1.4410 H     1 <1>   0.0800 
 45 H        0.5830    -4.4550     1.9910 H     1 <1>   0.0800 
 46 H        7.8680    -0.9540    -0.1620 H     1 <1>   0.0800 
 47 H        7.7180     0.2020    -1.4750 H     1 <1>   0.0800 
 48 H        8.3400    -1.4130    -1.7930 H     1 <1>   0.0800 
 49 H       -1.3530    -3.7450     1.2740 H     1 <1>   0.4000 
 50 H        2.6180    -6.2960     0.1960 H     1 <1>   0.4000 
 51 H        1.6740    -6.5860     2.5140 H     1 <1>   0.1500 
 52 H        3.9060    -3.2430     1.0920 H     1 <1>   0.1500 
 53 H        3.7590    -7.7060     3.1490 H     1 <1>   0.1500 
 54 H        5.9850    -4.3640     1.7170 H     1 <1>   0.1500 
 55 H        5.9240    -6.6050     2.7450 H     1 <1>   0.1500 
@<TRIPOS>BOND
  1   1   2  ar  
  2   2   3  ar  
  3   2   4  1   
  4   4   5  ar  
  5   4   6  ar  
  6   5   7  1   
  7   5   8  ar  
  8   6   9  ar  
  9   6  31  1   
 10   7  10  1   
 11   7  11  1   
 12   8  12  ar  
 13   8  13  1   
 14   9  12  ar  
 15  10  14  1   
 16  10  32  1   
 17  10  33  1   
 18  11  15  1   
 19  11  34  1   
 20  11  35  1   
 21  12  16  1   
 22  13  17  2   
 23  13  18  1   
 24  14  19  1   
 25  14  20  1   
 26  14  21  1   
 27  15  19  1   
 28  15  36  1   
 29  15  37  1   
 30  16  17  1   
 31  16  22  1   
 32  18  38  1   
 33  18  39  1   
 34  18  40  1   
 35  19  23  1   
 36  19  41  1   
 37  20  24  1   
 38  20  42  1   
 39  20  43  1   
 40  21  25  1   
 41  21  44  1   
 42  21  45  1   
 43  22  46  1   
 44  22  47  1   
 45  22  48  1   
 46  23  49  1   
 47  24  50  1   
 48  25  26  ar  
 49  25  27  ar  
 50  26  28  ar  
 51  26  51  1   
 52  27  29  ar  
 53  27  52  1   
 54  28  30  ar  
 55  28  53  1   
 56  29  30  ar  
 57  29  54  1   
 58  30  55  1   
@<TRIPOS>SUBSTRUCTURE
  1 ****   5 GROUP 4 **** **** 0

# MOE 2024.06 (io_trps.svl 2023.06)
