@<TRIPOS>MOLECULE
NONAME
45 48 1 0 0 
SMALL
USER_CHARGES


@<TRIPOS>ATOM
  1 O       -0.8160     0.1010     0.8630 O.2   1 <1>  -0.5700 
  2 C       -1.7470     0.7520     0.4170 C.2   1 <1>   0.5440 
  3 N       -2.9980     0.1590     0.4580 N.am  1 <1>  -0.6600 
  4 C       -1.4860     2.1010    -0.0970 C.ar  1 <1>   0.3960 
  5 C       -4.2810     0.8000     0.0890 C.3   1 <1>   0.1400 
  6 C       -3.2060    -1.2130     0.9710 C.3   1 <1>   0.1400 
  7 N       -2.2500     2.6540    -1.0570 N.ar  1 <1>  -0.6200 
  8 C       -0.4000     2.8050     0.4410 C.ar  1 <1>   0.1600 
  9 C       -5.3740    -0.1420     0.6060 C.3   1 <1>  -0.0800 
 10 C       -4.6990    -1.5130     0.8110 C.3   1 <1>  -0.0800 
 11 C       -1.8720     3.8700    -1.4000 C.ar  1 <1>   0.1600 
 12 N       -0.0200     4.0280     0.1030 N.ar  1 <1>  -0.6200 
 13 C       -6.6850    -0.1620    -0.2270 C.3   1 <1>   0.4240 
 14 C       -4.9900    -2.4850    -0.3440 C.3   1 <1>  -0.1600 
 15 C       -0.7930     4.5380    -0.8390 C.ar  1 <1>   0.1600 
 16 O       -6.3830    -0.0850    -1.5760 O.3   1 <1>  -0.6800 
 17 C       -7.5940     1.0220     0.1610 C.ar  1 <1>  -0.1430 
 18 C       -7.3790    -1.5270    -0.0670 C.3   1 <1>  -0.1600 
 19 C       -6.5050    -2.7210    -0.5230 C.3   1 <1>  -0.1600 
 20 C       -8.2540     1.0240     1.3870 C.ar  1 <1>  -0.1500 
 21 C       -7.7740     2.1220    -0.6750 C.ar  1 <1>  -0.1500 
 22 C       -9.0690     2.0780     1.7620 C.ar  1 <1>  -0.1500 
 23 C       -8.5880     3.1780    -0.3030 C.ar  1 <1>  -0.1500 
 24 C       -9.2390     3.1570     0.9160 C.ar  1 <1>  -0.1500 
 25 H       -4.3700     1.7740     0.5400 H     1 <1>   0.0800 
 26 H       -4.3060     0.9090    -0.9810 H     1 <1>   0.0800 
 27 H       -2.5930    -1.9110     0.4260 H     1 <1>   0.0800 
 28 H       -2.9270    -1.2400     2.0100 H     1 <1>   0.0800 
 29 H        0.1840     2.3160     1.2010 H     1 <1>   0.1500 
 30 H       -5.6260     0.2080     1.5910 H     1 <1>   0.0800 
 31 H       -5.0590    -1.9650     1.7190 H     1 <1>   0.0800 
 32 H       -2.4430     4.3670    -2.1650 H     1 <1>   0.1500 
 33 H       -4.5720    -2.0840    -1.2520 H     1 <1>   0.0800 
 34 H       -4.5030    -3.4280    -0.1620 H     1 <1>   0.0800 
 35 H       -0.5600     5.5310    -1.1820 H     1 <1>   0.1500 
 36 H       -5.9020    -0.8960    -1.8160 H     1 <1>   0.4000 
 37 H       -7.6160    -1.6700     0.9710 H     1 <1>   0.0800 
 38 H       -8.3120    -1.5220    -0.6030 H     1 <1>   0.0800 
 39 H       -6.7990    -3.5900     0.0420 H     1 <1>   0.0800 
 40 H       -6.7030    -2.9390    -1.5590 H     1 <1>   0.0800 
 41 H       -8.1400     0.2040     2.0720 H     1 <1>   0.1500 
 42 H       -7.2810     2.1700    -1.6300 H     1 <1>   0.1500 
 43 H       -9.5720     2.0590     2.7130 H     1 <1>   0.1500 
 44 H       -8.7150     4.0150    -0.9670 H     1 <1>   0.1500 
 45 H       -9.8730     3.9770     1.2040 H     1 <1>   0.1500 
@<TRIPOS>BOND
  1   1   2  2   
  2   2   3  am  
  3   2   4  1   
  4   3   5  1   
  5   3   6  1   
  6   4   7  ar  
  7   4   8  ar  
  8   5   9  1   
  9   5  25  1   
 10   5  26  1   
 11   6  10  1   
 12   6  27  1   
 13   6  28  1   
 14   7  11  ar  
 15   8  12  ar  
 16   8  29  1   
 17   9  10  1   
 18   9  13  1   
 19   9  30  1   
 20  10  14  1   
 21  10  31  1   
 22  11  15  ar  
 23  11  32  1   
 24  12  15  ar  
 25  13  16  1   
 26  13  17  1   
 27  13  18  1   
 28  14  19  1   
 29  14  33  1   
 30  14  34  1   
 31  15  35  1   
 32  16  36  1   
 33  17  20  ar  
 34  17  21  ar  
 35  18  19  1   
 36  18  37  1   
 37  18  38  1   
 38  19  39  1   
 39  19  40  1   
 40  20  22  ar  
 41  20  41  1   
 42  21  23  ar  
 43  21  42  1   
 44  22  24  ar  
 45  22  43  1   
 46  23  24  ar  
 47  23  44  1   
 48  24  45  1   
@<TRIPOS>SUBSTRUCTURE
  1 ****   5 GROUP 4 **** **** 0

# MOE 2024.06 (io_trps.svl 2023.06)
