@<TRIPOS>MOLECULE
NONAME
54 57 1 0 0 
SMALL
USER_CHARGES


@<TRIPOS>ATOM
  1 O       -0.0740     1.3490    -0.9750 O.2   1 <1>  -0.5700 
  2 C       -0.3520     2.5200    -0.8540 C.2   1 <1>   0.5690 
  3 N       -1.2310     2.9990     0.0790 N.am  1 <1>  -0.5090 
  4 C        0.3200     3.5230    -1.7820 C.3   1 <1>   0.1810 
  5 C       -1.5380     4.4650     0.1580 C.3   1 <1>   0.3640 
  6 C       -1.7360     2.1550     1.1910 C.3   1 <1>   0.0490 
  7 O        0.6260     4.7040    -1.0890 O.3   1 <1>  -0.5600 
  8 C       -2.9240     4.7470    -0.4230 C.ar  1 <1>  -0.1440 
  9 C       -0.4990     5.3860    -0.5480 C.3   1 <1>   0.2610 
 10 C       -2.5260     0.9300     0.8540 C.3   1 <1>  -0.2000 
 11 C       -3.2010     2.0930     1.5040 C.3   1 <1>  -0.2000 
 12 C       -3.7140     5.7320     0.1560 C.ar  1 <1>   0.1600 
 13 C       -3.4270     4.0600    -1.5150 C.ar  1 <1>  -0.1500 
 14 C       -0.0430     6.4670     0.4350 C.2   1 <1>   0.5690 
 15 N       -4.9260     6.0720    -0.2520 N.ar  1 <1>  -0.6200 
 16 C       -4.6880     4.4040    -1.9520 C.ar  1 <1>  -0.1500 
 17 O       -0.8730     7.1870     0.9390 O.2   1 <1>  -0.5700 
 18 N        1.2780     6.5940     0.7240 N.am  1 <1>  -0.7300 
 19 C       -5.3850     5.4010    -1.2940 C.ar  1 <1>   0.1600 
 20 C        1.8830     7.5820     1.6510 C.3   1 <1>   0.1400 
 21 C        2.5860     8.7050     0.8720 C.3   1 <1>   0.0000 
 22 C        3.5170     9.5550     1.7860 C.3   1 <1>   0.0000 
 23 C        3.8530     8.2190     0.1080 C.3   1 <1>   0.0000 
 24 C        1.5810     9.5260     0.0310 C.3   1 <1>   0.1200 
 25 C        4.6430     9.4010     0.7290 C.3   1 <1>   0.0000 
 26 O        2.2080    10.5810    -0.6310 O.3   1 <1>  -0.5600 
 27 C        1.3440    11.3650    -1.3860 C.3   1 <1>   0.0400 
 28 H       -0.3230     3.7570    -2.6110 H     1 <1>   0.0800 
 29 H        1.2400     3.1100    -2.1520 H     1 <1>   0.0800 
 30 H       -1.5630     4.7230     1.2030 H     1 <1>   0.0800 
 31 H       -1.0320     2.0860     2.0040 H     1 <1>   0.1000 
 32 H       -0.9770     5.8900    -1.3690 H     1 <1>   0.0800 
 33 H       -2.7230     0.7180    -0.1820 H     1 <1>   0.1000 
 34 H       -2.3610     0.0390     1.4330 H     1 <1>   0.1000 
 35 H       -3.5080     1.9870     2.5290 H     1 <1>   0.1000 
 36 H       -3.9220     2.6320     0.9160 H     1 <1>   0.1000 
 37 H       -3.3320     6.2780     1.0040 H     1 <1>   0.1500 
 38 H       -2.8760     3.2800    -2.0110 H     1 <1>   0.1500 
 39 H       -5.1320     3.9020    -2.7920 H     1 <1>   0.1500 
 40 H        1.9280     5.9830     0.2150 H     1 <1>   0.3700 
 41 H       -6.3710     5.6610    -1.6420 H     1 <1>   0.1500 
 42 H        1.1180     8.0070     2.2790 H     1 <1>   0.0800 
 43 H        2.5870     7.0730     2.2870 H     1 <1>   0.0800 
 44 H        3.1960    10.5720     1.9270 H     1 <1>   0.0000 
 45 H        3.7700     9.0640     2.7100 H     1 <1>   0.0000 
 46 H        4.2180     7.2680     0.4560 H     1 <1>   0.0000 
 47 H        3.7700     8.2720    -0.9630 H     1 <1>   0.0000 
 48 H        0.8180     9.9330     0.6730 H     1 <1>   0.0800 
 49 H        1.1200     8.8950    -0.7080 H     1 <1>   0.0800 
 50 H        5.5880     9.1090     1.1500 H     1 <1>   0.0000 
 51 H        4.7160    10.2470     0.0690 H     1 <1>   0.0000 
 52 H        1.9200    12.1450    -1.8500 H     1 <1>   0.0800 
 53 H        0.6000    11.7980    -0.7400 H     1 <1>   0.0800 
 54 H        0.8810    10.7560    -2.1430 H     1 <1>   0.0800 
@<TRIPOS>BOND
  1   1   2  2   
  2   2   3  am  
  3   2   4  1   
  4   3   5  1   
  5   3   6  1   
  6   4   7  1   
  7   4  28  1   
  8   4  29  1   
  9   5   8  1   
 10   5   9  1   
 11   5  30  1   
 12   6  10  1   
 13   6  11  1   
 14   6  31  1   
 15   7   9  1   
 16   8  12  ar  
 17   8  13  ar  
 18   9  14  1   
 19   9  32  1   
 20  10  11  1   
 21  10  33  1   
 22  10  34  1   
 23  11  35  1   
 24  11  36  1   
 25  12  15  ar  
 26  12  37  1   
 27  13  16  ar  
 28  13  38  1   
 29  14  17  2   
 30  14  18  am  
 31  15  19  ar  
 32  16  19  ar  
 33  16  39  1   
 34  18  20  1   
 35  18  40  1   
 36  19  41  1   
 37  20  21  1   
 38  20  42  1   
 39  20  43  1   
 40  21  22  1   
 41  21  23  1   
 42  21  24  1   
 43  22  25  1   
 44  22  44  1   
 45  22  45  1   
 46  23  25  1   
 47  23  46  1   
 48  23  47  1   
 49  24  26  1   
 50  24  48  1   
 51  24  49  1   
 52  25  50  1   
 53  25  51  1   
 54  26  27  1   
 55  27  52  1   
 56  27  53  1   
 57  27  54  1   
@<TRIPOS>SUBSTRUCTURE
  1 ****   9 GROUP 4 **** **** 0

# MOE 2024.06 (io_trps.svl 2023.06)
