@<TRIPOS>MOLECULE
NONAME
52 53 1 0 0 
SMALL
USER_CHARGES


@<TRIPOS>ATOM
  1 O       -1.2590     0.7910     1.7050 O.co2 1 <1>  -0.9000 
  2 C       -0.8270     1.9550     1.6530 C.2   1 <1>   0.9060 
  3 O       -0.9650     2.7290     2.6120 O.co2 1 <1>  -0.9000 
  4 C       -0.0960     2.4730     0.3970 C.3   1 <1>  -0.1060 
  5 C       -1.5010     2.8130    -0.3220 C.3   1 <1>   0.2000 
  6 C        0.6680     3.0840    -0.8690 C.3   1 <1>   0.1100 
  7 C        1.2960     2.0780     1.0930 C.3   1 <1>  -0.0170 
  8 O       -2.6400     2.0430    -0.0610 O.3   1 <1>  -0.6800 
  9 C       -1.8520     4.2820    -0.1100 C.3   1 <1>  -0.1600 
 10 N        0.4260     4.5560    -1.0450 N.3   1 <1>  -0.8100 
 11 C        2.0730     0.9660     0.3740 C.ar  1 <1>  -0.1440 
 12 C       -0.5680     5.1100    -0.1000 C.3   1 <1>   0.1100 
 13 C        1.7110     5.3220    -1.0460 C.3   1 <1>   0.1710 
 14 C        3.4200     1.1260     0.0800 C.ar  1 <1>  -0.1500 
 15 C        1.4420    -0.2150     0.0160 C.ar  1 <1>  -0.1500 
 16 C        1.6310     6.8590    -1.1680 C.2   1 <1>   0.5690 
 17 C        4.1220     0.1250    -0.5710 C.ar  1 <1>  -0.1500 
 18 C        2.1410    -1.2180    -0.6340 C.ar  1 <1>  -0.1500 
 19 O        1.7490     7.3210    -2.2820 O.2   1 <1>  -0.5700 
 20 N        1.4810     7.6840    -0.0650 N.am  1 <1>  -0.6600 
 21 C        3.4810    -1.0480    -0.9310 C.ar  1 <1>  -0.1500 
 22 C        1.2760     9.1500    -0.2680 C.3   1 <1>   0.2200 
 23 C        1.4850     7.2030     1.3550 C.3   1 <1>   0.0600 
 24 C        2.5370     9.9150     0.1320 C.3   1 <1>  -0.2400 
 25 C        0.0480     9.6450     0.4990 C.3   1 <1>  -0.2400 
 26 H       -1.4480     2.6940    -1.3900 H     1 <1>   0.0800 
 27 H        0.3910     2.5700    -1.7740 H     1 <1>   0.0800 
 28 H        1.7350     2.9560    -0.8940 H     1 <1>   0.0800 
 29 H        1.9060     2.9610     1.1810 H     1 <1>   0.0800 
 30 H        1.2740     1.7360     2.1200 H     1 <1>   0.0800 
 31 H       -2.3970     1.3990     0.6710 H     1 <1>   0.4000 
 32 H       -2.4960     4.6160    -0.9020 H     1 <1>   0.0800 
 33 H       -2.3550     4.4110     0.8320 H     1 <1>   0.0800 
 34 H       -0.1610     5.0850     0.8970 H     1 <1>   0.0800 
 35 H       -0.8020     6.1300    -0.3520 H     1 <1>   0.0800 
 36 H        2.2770     5.0660    -0.1730 H     1 <1>   0.0800 
 37 H        2.2850     4.9820    -1.8890 H     1 <1>   0.0800 
 38 H        3.9280     2.0310     0.3590 H     1 <1>   0.1500 
 39 H        0.3990    -0.3600     0.2500 H     1 <1>   0.1500 
 40 H        5.1640     0.2590    -0.7970 H     1 <1>   0.1500 
 41 H        1.6340    -2.1270    -0.9040 H     1 <1>   0.1500 
 42 H        4.0230    -1.8270    -1.4360 H     1 <1>   0.1500 
 43 H        1.0940     9.3430    -1.3120 H     1 <1>   0.0800 
 44 H        2.0920     7.8480     1.9640 H     1 <1>   0.0800 
 45 H        1.8770     6.2080     1.4420 H     1 <1>   0.0800 
 46 H        0.4810     7.2050     1.7420 H     1 <1>   0.0800 
 47 H        2.7270     9.8390     1.1860 H     1 <1>   0.0800 
 48 H        2.4220    10.9540    -0.1160 H     1 <1>   0.0800 
 49 H        3.3810     9.5310    -0.4130 H     1 <1>   0.0800 
 50 H        0.2040     9.6040     1.5610 H     1 <1>   0.0800 
 51 H       -0.8090     9.0530     0.2360 H     1 <1>   0.0800 
 52 H       -0.1530    10.6660     0.2310 H     1 <1>   0.0800 
@<TRIPOS>BOND
  1   1   2  ar  
  2   2   3  ar  
  3   2   4  1   
  4   4   5  1   
  5   4   6  1   
  6   4   7  1   
  7   5   8  1   
  8   5   9  1   
  9   5  26  1   
 10   6  10  1   
 11   6  27  1   
 12   6  28  1   
 13   7  11  1   
 14   7  29  1   
 15   7  30  1   
 16   8  31  1   
 17   9  12  1   
 18   9  32  1   
 19   9  33  1   
 20  10  12  1   
 21  10  13  1   
 22  11  14  ar  
 23  11  15  ar  
 24  12  34  1   
 25  12  35  1   
 26  13  16  1   
 27  13  36  1   
 28  13  37  1   
 29  14  17  ar  
 30  14  38  1   
 31  15  18  ar  
 32  15  39  1   
 33  16  19  2   
 34  16  20  am  
 35  17  21  ar  
 36  17  40  1   
 37  18  21  ar  
 38  18  41  1   
 39  20  22  1   
 40  20  23  1   
 41  21  42  1   
 42  22  24  1   
 43  22  25  1   
 44  22  43  1   
 45  23  44  1   
 46  23  45  1   
 47  23  46  1   
 48  24  47  1   
 49  24  48  1   
 50  24  49  1   
 51  25  50  1   
 52  25  51  1   
 53  25  52  1   
@<TRIPOS>SUBSTRUCTURE
  1 ****   6 GROUP 4 **** **** 0

# MOE 2024.06 (io_trps.svl 2023.06)
