@<TRIPOS>MOLECULE
NONAME
51 54 1 0 0 
SMALL
USER_CHARGES


@<TRIPOS>ATOM
  1 O       -2.5010    -1.2240    -2.9870 O.2   1 <1>  -0.5700 
  2 C       -2.6530    -1.3700    -1.7970 C.2   1 <1>   0.5690 
  3 N       -2.4910    -0.3430    -0.9140 N.am  1 <1>  -0.6600 
  4 C       -3.0300    -2.7470    -1.3020 C.3   1 <1>  -0.0190 
  5 C       -2.7460    -0.5130     0.5450 C.3   1 <1>   0.2200 
  6 C       -2.1010     1.0260    -1.3570 C.3   1 <1>   0.0600 
  7 C       -1.9320    -3.3210    -0.3860 C.3   1 <1>   0.1200 
  8 C       -4.4800    -2.7730    -0.7830 C.3   1 <1>   0.1400 
  9 C       -1.7460    -1.5110     1.1840 C.3   1 <1>   0.1200 
 10 C       -4.2430    -0.7920     0.8170 C.3   1 <1>   0.1400 
 11 O       -1.9950    -2.8680     0.9310 O.3   1 <1>  -0.5600 
 12 N       -4.6810    -2.2090     0.5910 N.am  1 <1>  -0.6600 
 13 C       -5.1110    -2.9820     1.6530 C.2   1 <1>   0.5440 
 14 O       -5.3810    -2.4480     2.7130 O.2   1 <1>  -0.5700 
 15 C       -5.2540    -4.4180     1.5370 C.ar  1 <1>   0.0860 
 16 C       -6.4580    -4.9920     1.1400 C.ar  1 <1>  -0.1500 
 17 C       -4.1830    -5.2660     1.8030 C.ar  1 <1>  -0.1500 
 18 C       -6.6100    -6.3660     0.9900 C.ar  1 <1>   0.0000 
 19 C       -4.3090    -6.6360     1.6650 C.ar  1 <1>  -0.1500 
 20 C       -7.8700    -6.9330     0.5660 C.ar  1 <1>   0.0000 
 21 C       -5.5140    -7.1790     1.2600 C.ar  1 <1>  -0.1500 
 22 C       -7.9490    -7.7340    -0.5700 C.ar  1 <1>  -0.1500 
 23 C       -9.0390    -6.6930     1.2800 C.ar  1 <1>  -0.1500 
 24 C       -9.1510    -8.2810    -0.9860 C.ar  1 <1>  -0.1440 
 25 C      -10.2450    -7.2340     0.8740 C.ar  1 <1>  -0.1500 
 26 C      -10.3010    -8.0280    -0.2580 C.ar  1 <1>  -0.1500 
 27 C       -9.2170    -9.1550    -2.2260 C.3   1 <1>  -0.0970 
 28 H       -3.0260    -3.3700    -2.1780 H     1 <1>   0.0800 
 29 H       -2.5400     0.4370     1.0050 H     1 <1>   0.0800 
 30 H       -1.1950     1.3260    -0.8600 H     1 <1>   0.0800 
 31 H       -2.8860     1.7230    -1.1210 H     1 <1>   0.0800 
 32 H       -1.9310     1.0510    -2.4200 H     1 <1>   0.0800 
 33 H       -0.9540    -3.0960    -0.7770 H     1 <1>   0.0800 
 34 H       -2.0380    -4.3910    -0.3430 H     1 <1>   0.0800 
 35 H       -4.8220    -3.7910    -0.8150 H     1 <1>   0.0800 
 36 H       -5.1010    -2.2200    -1.4670 H     1 <1>   0.0800 
 37 H       -1.7910    -1.3960     2.2530 H     1 <1>   0.0800 
 38 H       -0.7430    -1.2850     0.8680 H     1 <1>   0.0800 
 39 H       -4.8390    -0.1400     0.2040 H     1 <1>   0.0800 
 40 H       -4.4360    -0.5160     1.8380 H     1 <1>   0.0800 
 41 H       -7.2950    -4.3470     0.9400 H     1 <1>   0.1500 
 42 H       -3.2480    -4.8360     2.1200 H     1 <1>   0.1500 
 43 H       -3.4700    -7.2770     1.8760 H     1 <1>   0.1500 
 44 H       -5.6130    -8.2450     1.1570 H     1 <1>   0.1500 
 45 H       -7.0520    -7.9240    -1.1310 H     1 <1>   0.1500 
 46 H       -9.0010    -6.0800     2.1630 H     1 <1>   0.1500 
 47 H      -11.1400    -7.0390     1.4380 H     1 <1>   0.1500 
 48 H      -11.2420    -8.4490    -0.5670 H     1 <1>   0.1500 
 49 H      -10.0890    -8.9100    -2.8060 H     1 <1>   0.0800 
 50 H       -9.2690   -10.1900    -1.9390 H     1 <1>   0.0800 
 51 H       -8.3480    -9.0100    -2.8420 H     1 <1>   0.0800 
@<TRIPOS>BOND
  1   1   2  2   
  2   2   3  am  
  3   2   4  1   
  4   3   5  1   
  5   3   6  1   
  6   4   7  1   
  7   4   8  1   
  8   4  28  1   
  9   5   9  1   
 10   5  10  1   
 11   5  29  1   
 12   6  30  1   
 13   6  31  1   
 14   6  32  1   
 15   7  11  1   
 16   7  33  1   
 17   7  34  1   
 18   8  12  1   
 19   8  35  1   
 20   8  36  1   
 21   9  11  1   
 22   9  37  1   
 23   9  38  1   
 24  10  12  1   
 25  10  39  1   
 26  10  40  1   
 27  12  13  am  
 28  13  14  2   
 29  13  15  1   
 30  15  16  ar  
 31  15  17  ar  
 32  16  18  ar  
 33  16  41  1   
 34  17  19  ar  
 35  17  42  1   
 36  18  20  1   
 37  18  21  ar  
 38  19  21  ar  
 39  19  43  1   
 40  20  22  ar  
 41  20  23  ar  
 42  21  44  1   
 43  22  24  ar  
 44  22  45  1   
 45  23  25  ar  
 46  23  46  1   
 47  24  26  ar  
 48  24  27  1   
 49  25  26  ar  
 50  25  47  1   
 51  26  48  1   
 52  27  49  1   
 53  27  50  1   
 54  27  51  1   
@<TRIPOS>SUBSTRUCTURE
  1 ****  15 GROUP 4 **** **** 0

# MOE 2024.06 (io_trps.svl 2023.06)
