@<TRIPOS>MOLECULE
NONAME
45 47 1 0 0 
SMALL
USER_CHARGES


@<TRIPOS>ATOM
  1 CL      -0.2610     0.9300     0.6100 Cl    1 <1>  -0.1230 
  2 C        1.3350     0.2270     0.7830 C.2   1 <1>   0.3500 
  3 N        1.4900    -1.1040     0.8870 N.2   1 <1>  -0.5650 
  4 C        2.5020     0.8950     0.8270 C.2   1 <1>  -0.3320 
  5 C        2.7760    -1.2360     0.9910 C.2   1 <1>   0.0060 
  6 N        3.4450    -0.0570     0.9610 N.pl3 1 <1>   0.0330 
  7 C        2.8370     2.3650     0.7480 C.3   1 <1>   0.2900 
  8 C        3.4810    -2.5730     1.1300 C.3   1 <1>   0.0200 
  9 N        4.2040     2.4570     0.2300 N.3   1 <1>  -0.8100 
 10 C        4.5800    -2.7540     0.0750 C.3   1 <1>  -0.1600 
 11 C        5.1060     3.3910     0.9310 C.3   1 <1>   0.1100 
 12 C        4.3080     2.3270    -1.2350 C.3   1 <1>   0.1100 
 13 C        5.2320    -4.1390     0.1660 C.3   1 <1>  -0.1600 
 14 C        6.6150     3.0810     0.7590 C.3   1 <1>   0.2200 
 15 C        5.6910     1.8630    -1.7360 C.3   1 <1>  -0.0190 
 16 C        6.3380    -4.2930    -0.8810 C.3   1 <1>  -0.2400 
 17 N        7.0900     3.5260    -0.5680 N.am  1 <1>  -0.7300 
 18 C        7.0220     1.6040     1.0210 C.3   1 <1>   0.1200 
 19 C        6.6740     3.0090    -1.7340 C.2   1 <1>   0.5690 
 20 C        6.3010     0.6170    -1.0560 C.3   1 <1>   0.1200 
 21 O        6.2640     0.6270     0.3470 O.3   1 <1>  -0.5600 
 22 O        7.0860     3.4520    -2.7760 O.2   1 <1>  -0.5700 
 23 H        4.4630     0.1240     0.9610 H     1 <1>   0.2700 
 24 H        2.7820     2.7850     1.7380 H     1 <1>   0.0800 
 25 H        2.1460     2.8900     0.1100 H     1 <1>   0.0800 
 26 H        3.9040    -2.6430     2.1160 H     1 <1>   0.0800 
 27 H        2.7500    -3.3570     1.0270 H     1 <1>   0.0800 
 28 H        4.1500    -2.6220    -0.9040 H     1 <1>   0.0800 
 29 H        5.3350    -2.0010     0.2170 H     1 <1>   0.0800 
 30 H        4.9040     4.3990     0.6120 H     1 <1>   0.0800 
 31 H        4.8930     3.3340     1.9840 H     1 <1>   0.0800 
 32 H        3.5850     1.5990    -1.5640 H     1 <1>   0.0800 
 33 H        4.0530     3.2670    -1.6960 H     1 <1>   0.0800 
 34 H        5.6540    -4.2770     1.1480 H     1 <1>   0.0800 
 35 H        4.4880    -4.9010     0.0110 H     1 <1>   0.0800 
 36 H        7.1390     3.6790     1.4830 H     1 <1>   0.0800 
 37 H        5.5610     1.6040    -2.7700 H     1 <1>   0.0800 
 38 H        7.1040    -3.5530    -0.7320 H     1 <1>   0.0800 
 39 H        5.9350    -4.1820    -1.8730 H     1 <1>   0.0800 
 40 H        6.7860    -5.2680    -0.8030 H     1 <1>   0.0800 
 41 H        7.7400     4.3120    -0.6150 H     1 <1>   0.3700 
 42 H        6.9020     1.4010     2.0700 H     1 <1>   0.0800 
 43 H        8.0590     1.4570     0.7730 H     1 <1>   0.0800 
 44 H        7.3240     0.4840    -1.3660 H     1 <1>   0.0800 
 45 H        5.7450    -0.2490    -1.3690 H     1 <1>   0.0800 
@<TRIPOS>BOND
  1   1   2  1   
  2   2   3  1   
  3   2   4  2   
  4   3   5  2   
  5   4   6  1   
  6   4   7  1   
  7   5   6  1   
  8   5   8  1   
  9   6  23  1   
 10   7   9  1   
 11   7  24  1   
 12   7  25  1   
 13   8  10  1   
 14   8  26  1   
 15   8  27  1   
 16   9  11  1   
 17   9  12  1   
 18  10  13  1   
 19  10  28  1   
 20  10  29  1   
 21  11  14  1   
 22  11  30  1   
 23  11  31  1   
 24  12  15  1   
 25  12  32  1   
 26  12  33  1   
 27  13  16  1   
 28  13  34  1   
 29  13  35  1   
 30  14  17  1   
 31  14  18  1   
 32  14  36  1   
 33  15  19  1   
 34  15  20  1   
 35  15  37  1   
 36  16  38  1   
 37  16  39  1   
 38  16  40  1   
 39  17  19  am  
 40  17  41  1   
 41  18  21  1   
 42  18  42  1   
 43  18  43  1   
 44  19  22  2   
 45  20  21  1   
 46  20  44  1   
 47  20  45  1   
@<TRIPOS>SUBSTRUCTURE
  1 ****   6 GROUP 4 **** **** 0

# MOE 2024.06 (io_trps.svl 2023.06)
