@<TRIPOS>MOLECULE
NONAME
49 52 1 0 0 
SMALL
USER_CHARGES


@<TRIPOS>ATOM
  1 O       -0.8950    -0.0920    -0.4680 O.co2 1 <1>  -0.9030 
  2 C       -1.3900     1.0270    -0.2590 C.2   1 <1>   0.9770 
  3 O       -0.6490     2.0130    -0.1270 O.co2 1 <1>  -0.9030 
  4 C       -2.8350     1.1710    -0.1730 C.ar  1 <1>  -0.1870 
  5 C       -3.6650     0.0650    -0.3330 C.ar  1 <1>  -0.1170 
  6 C       -3.4380     2.4200     0.0710 C.ar  1 <1>  -0.1580 
  7 C       -5.0370     0.2200    -0.2500 C.ar  1 <1>   0.3020 
  8 C       -4.8070     2.5730     0.1550 C.ar  1 <1>  -0.1170 
  9 N       -6.0730    -0.6760    -0.3590 N.pl3 1 <1>  -0.7040 
 10 C       -5.6110     1.4520    -0.0100 C.ar  1 <1>   0.3020 
 11 C       -7.2230    -0.0470    -0.1770 C.cat 1 <1>   1.0680 
 12 N       -6.9920     1.2690     0.0140 N.pl3 1 <1>  -0.7680 
 13 N       -8.4080    -0.6830    -0.1850 N.pl3 1 <1>  -0.5970 
 14 C       -7.9440     2.4050     0.0020 C.3   1 <1>   0.2670 
 15 C       -8.5850    -1.9950    -0.8850 C.3   1 <1>   0.1600 
 16 C       -9.6160    -0.2670     0.5800 C.3   1 <1>   0.1600 
 17 C       -8.8750    -3.1350     0.1060 C.3   1 <1>  -0.1140 
 18 C       -9.9990    -1.3520     1.5880 C.3   1 <1>  -0.1680 
 19 C       -9.2460    -4.3770    -0.7010 C.2   1 <1>   0.9030 
 20 C      -10.1270    -2.7180     0.9100 C.3   1 <1>   0.1920 
 21 C       -7.6480    -3.4450     1.0160 C.3   1 <1>  -0.0730 
 22 O       -9.8030    -5.3190    -0.1240 O.co2 1 <1>  -0.9030 
 23 O       -9.0070    -4.3950    -1.9140 O.co2 1 <1>  -0.9030 
 24 O      -10.3940    -3.6500     1.8850 O.3   1 <1>  -0.6840 
 25 C       -6.3620    -3.8390     0.2630 C.3   1 <1>  -0.2030 
 26 C       -5.4050    -4.7250     1.0070 C.3   1 <1>  -0.2080 
 27 C       -5.0080    -3.3310     0.6800 C.3   1 <1>  -0.2080 
 28 H       -3.2370    -0.9050    -0.5210 H     1 <1>   0.1420 
 29 H       -2.7880     3.2740     0.1960 H     1 <1>   0.1420 
 30 H       -5.2360     3.5380     0.3460 H     1 <1>   0.1420 
 31 H       -5.9890    -1.6960    -0.4100 H     1 <1>   0.4440 
 32 H       -7.5050     3.2490    -0.5030 H     1 <1>   0.0720 
 33 H       -8.1850     2.6900     1.0120 H     1 <1>   0.0720 
 34 H       -8.8450     2.1370    -0.5210 H     1 <1>   0.0720 
 35 H       -9.4180    -1.9060    -1.5640 H     1 <1>   0.0720 
 36 H       -7.7280    -2.2370    -1.4890 H     1 <1>   0.0720 
 37 H       -9.4390     0.6420     1.1230 H     1 <1>   0.0720 
 38 H      -10.4310    -0.1070    -0.1070 H     1 <1>   0.0720 
 39 H      -10.9420    -1.0970     2.0380 H     1 <1>   0.0720 
 40 H       -9.2610    -1.3940     2.3680 H     1 <1>   0.0720 
 41 H      -10.9790    -2.7090     0.2490 H     1 <1>   0.0720 
 42 H       -7.4370    -2.6150     1.6650 H     1 <1>   0.0720 
 43 H       -7.9140    -4.2730     1.6530 H     1 <1>   0.0720 
 44 H      -10.3380    -4.5380     1.4280 H     1 <1>   0.3940 
 45 H       -6.5310    -4.1470    -0.7570 H     1 <1>   0.0920 
 46 H       -5.6100    -4.9770     2.0330 H     1 <1>   0.0920 
 47 H       -4.9500    -5.5400     0.4700 H     1 <1>   0.0920 
 48 H       -4.2310    -3.2050    -0.0560 H     1 <1>   0.0920 
 49 H       -4.9080    -2.6460     1.5050 H     1 <1>   0.0920 
@<TRIPOS>BOND
  1   1   2  ar  
  2   2   3  ar  
  3   2   4  1   
  4   4   5  ar  
  5   4   6  ar  
  6   5   7  ar  
  7   5  28  1   
  8   6   8  ar  
  9   6  29  1   
 10   7   9  1   
 11   7  10  ar  
 12   8  10  ar  
 13   8  30  1   
 14   9  11  ar  
 15   9  31  1   
 16  10  12  1   
 17  11  12  ar  
 18  11  13  ar  
 19  12  14  1   
 20  13  15  1   
 21  13  16  1   
 22  14  32  1   
 23  14  33  1   
 24  14  34  1   
 25  15  17  1   
 26  15  35  1   
 27  15  36  1   
 28  16  18  1   
 29  16  37  1   
 30  16  38  1   
 31  17  19  1   
 32  17  20  1   
 33  17  21  1   
 34  18  20  1   
 35  18  39  1   
 36  18  40  1   
 37  19  22  ar  
 38  19  23  ar  
 39  20  24  1   
 40  20  41  1   
 41  21  25  1   
 42  21  42  1   
 43  21  43  1   
 44  24  44  1   
 45  25  26  1   
 46  25  27  1   
 47  25  45  1   
 48  26  27  1   
 49  26  46  1   
 50  26  47  1   
 51  27  48  1   
 52  27  49  1   
@<TRIPOS>SUBSTRUCTURE
  1 ****   9 GROUP 4 **** **** 0

# MOE 2024.06 (io_trps.svl 2023.06)
