@<TRIPOS>MOLECULE
NONAME
50 52 1 0 0 
SMALL
USER_CHARGES


@<TRIPOS>ATOM
  1 F       -0.9420    -1.3320     2.0670 F     1 <1>  -0.1900 
  2 C       -1.5090    -2.3800     1.5260 C.ar  1 <1>   0.1900 
  3 C       -2.8090    -2.6790     1.8530 C.ar  1 <1>  -0.1500 
  4 C       -0.7500    -3.1460     0.6360 C.ar  1 <1>  -0.1500 
  5 C       -3.3880    -3.8060     1.2600 C.ar  1 <1>   0.0000 
  6 C       -1.3200    -4.2550     0.0510 C.ar  1 <1>  -0.1500 
  7 C       -2.6440    -4.5780     0.3710 C.ar  1 <1>  -0.1520 
  8 C       -4.6600    -4.4110     1.3460 C.2   1 <1>  -0.1500 
  9 N       -3.4370    -5.6100    -0.0640 N.pl3 1 <1>   0.0330 
 10 C       -4.6600    -5.4980     0.5370 C.2   1 <1>  -0.3320 
 11 C       -5.7830    -6.4900     0.2920 C.3   1 <1>   0.2900 
 12 N       -6.6650    -6.0420    -0.7980 N.3   1 <1>  -0.8100 
 13 C       -7.9050    -6.8770    -0.8460 C.3   1 <1>   0.2510 
 14 C       -5.9610    -5.9820    -2.0940 C.3   1 <1>   0.0300 
 15 C       -7.6780    -8.3740    -1.1790 C.2   1 <1>   0.5690 
 16 C       -8.9670    -6.2140    -1.7460 C.3   1 <1>  -0.1600 
 17 O       -7.4740    -8.7280    -2.3190 O.2   1 <1>  -0.5700 
 18 N       -7.7010    -9.2750    -0.1580 N.am  1 <1>  -0.7300 
 19 C      -10.3730    -6.7900    -1.5200 C.3   1 <1>  -0.2400 
 20 C       -7.4900   -10.7250    -0.2940 C.3   1 <1>   0.2200 
 21 C       -8.6550   -11.4510     0.3660 C.3   1 <1>  -0.1600 
 22 C       -6.2960   -11.1260     0.5640 C.3   1 <1>  -0.1600 
 23 C       -8.3460   -11.4600     1.8680 C.3   1 <1>  -0.1600 
 24 C       -6.8320   -11.2420     1.9960 C.3   1 <1>  -0.1600 
 25 H       -3.3700    -2.0740     2.5390 H     1 <1>   0.1500 
 26 H        0.2620    -2.8550     0.4250 H     1 <1>   0.1500 
 27 H       -0.7650    -4.8660    -0.6390 H     1 <1>   0.1500 
 28 H       -5.4640    -4.0400     1.9570 H     1 <1>   0.1500 
 29 H       -3.1590    -6.3260    -0.7420 H     1 <1>   0.2700 
 30 H       -6.3590    -6.5630     1.1990 H     1 <1>   0.0800 
 31 H       -5.3780    -7.4640     0.0730 H     1 <1>   0.0800 
 32 H       -8.3210    -6.8500     0.1460 H     1 <1>   0.0800 
 33 H       -5.1670    -5.2580    -2.0480 H     1 <1>   0.0800 
 34 H       -6.6280    -5.6680    -2.8750 H     1 <1>   0.0800 
 35 H       -5.5520    -6.9430    -2.3520 H     1 <1>   0.0800 
 36 H       -8.7060    -6.3520    -2.7800 H     1 <1>   0.0800 
 37 H       -8.9880    -5.1580    -1.5370 H     1 <1>   0.0800 
 38 H       -7.8910    -8.9750     0.7960 H     1 <1>   0.3700 
 39 H      -10.3960    -7.8390    -1.7610 H     1 <1>   0.0800 
 40 H      -11.0800    -6.2840    -2.1540 H     1 <1>   0.0800 
 41 H      -10.6770    -6.6580    -0.4970 H     1 <1>   0.0800 
 42 H       -7.3650   -11.0020    -1.3290 H     1 <1>   0.0800 
 43 H       -8.6680   -12.4650     0.0070 H     1 <1>   0.0800 
 44 H       -9.6020   -10.9950     0.1360 H     1 <1>   0.0800 
 45 H       -5.4800   -10.4300     0.4770 H     1 <1>   0.0800 
 46 H       -5.9570   -12.0940     0.2390 H     1 <1>   0.0800 
 47 H       -8.6470   -12.3930     2.3140 H     1 <1>   0.0800 
 48 H       -8.8720   -10.6580     2.3580 H     1 <1>   0.0800 
 49 H       -6.6410   -10.3300     2.5350 H     1 <1>   0.0800 
 50 H       -6.3600   -12.0570     2.5170 H     1 <1>   0.0800 
@<TRIPOS>BOND
  1   1   2  1   
  2   2   3  ar  
  3   2   4  ar  
  4   3   5  ar  
  5   3  25  1   
  6   4   6  ar  
  7   4  26  1   
  8   5   7  ar  
  9   5   8  1   
 10   6   7  ar  
 11   6  27  1   
 12   7   9  1   
 13   8  10  2   
 14   8  28  1   
 15   9  10  1   
 16   9  29  1   
 17  10  11  1   
 18  11  12  1   
 19  11  30  1   
 20  11  31  1   
 21  12  13  1   
 22  12  14  1   
 23  13  15  1   
 24  13  16  1   
 25  13  32  1   
 26  14  33  1   
 27  14  34  1   
 28  14  35  1   
 29  15  17  2   
 30  15  18  am  
 31  16  19  1   
 32  16  36  1   
 33  16  37  1   
 34  18  20  1   
 35  18  38  1   
 36  19  39  1   
 37  19  40  1   
 38  19  41  1   
 39  20  21  1   
 40  20  22  1   
 41  20  42  1   
 42  21  23  1   
 43  21  43  1   
 44  21  44  1   
 45  22  24  1   
 46  22  45  1   
 47  22  46  1   
 48  23  24  1   
 49  23  47  1   
 50  23  48  1   
 51  24  49  1   
 52  24  50  1   
@<TRIPOS>SUBSTRUCTURE
  1 ****  11 GROUP 4 **** **** 0

# MOE 2024.06 (io_trps.svl 2023.06)
