@<TRIPOS>MOLECULE
NONAME
52 54 1 0 0 
SMALL
USER_CHARGES


@<TRIPOS>ATOM
  1 S       -0.5570     0.0390     1.5720 S.o2  1 <1>   1.4470 
  2 O       -1.2870     0.9640     2.4060 O.2   1 <1>  -0.6500 
  3 O       -0.3570    -1.3190     2.0390 O.2   1 <1>  -0.6500 
  4 N       -1.3940    -0.1030     0.0920 N.am  1 <1>  -0.8490 
  5 C        1.0320     0.7680     1.0830 C.ar  1 <1>  -0.0090 
  6 C       -1.3810    -1.4530    -0.4910 C.3   1 <1>   0.1960 
  7 C       -2.7320     0.5080     0.0550 C.3   1 <1>   0.1960 
  8 C        2.2310     0.3090     1.6140 C.ar  1 <1>  -0.1500 
  9 C        1.0930     1.8190     0.1780 C.ar  1 <1>  -0.1500 
 10 C       -2.3950    -2.4030     0.2130 C.3   1 <1>   0.4230 
 11 C       -3.7590    -0.3800     0.7760 C.3   1 <1>  -0.1600 
 12 C        3.4420     0.8720     1.2480 C.ar  1 <1>  -0.1500 
 13 C        2.3040     2.3820    -0.1890 C.ar  1 <1>  -0.1500 
 14 N       -2.3080    -3.8580    -0.2300 N.4   1 <1>  -0.9590 
 15 C       -3.8370    -1.8230     0.2030 C.3   1 <1>   0.0000 
 16 C        3.5020     1.9210     0.3390 C.ar  1 <1>  -0.0090 
 17 C       -3.5120    -4.6770     0.1330 C.3   1 <1>   0.3430 
 18 C       -1.9500    -4.0840    -1.6680 C.3   1 <1>   0.2630 
 19 C       -4.7440    -2.6840     1.1300 C.3   1 <1>  -0.1600 
 20 C       -4.4020    -1.8070    -1.2470 C.3   1 <1>   0.1200 
 21 S        5.0850     2.6670    -0.1450 S.o2  1 <1>   1.4470 
 22 C       -4.2120    -4.1100     1.3670 C.3   1 <1>  -0.1600 
 23 O       -5.5810    -1.0870    -1.3290 O.3   1 <1>  -0.6800 
 24 O        5.2650     2.6550    -1.5750 O.2   1 <1>  -0.6500 
 25 O        6.1570     2.2780     0.7370 O.2   1 <1>  -0.6500 
 26 N        4.8990     4.2740     0.1990 N.am  1 <1>  -0.9780 
 27 H       -1.6150    -1.3660    -1.5360 H     1 <1>   0.0800 
 28 H       -0.3860    -1.8600    -0.4120 H     1 <1>   0.0800 
 29 H       -2.7090     1.4880     0.5050 H     1 <1>   0.0800 
 30 H       -3.0320     0.6450    -0.9700 H     1 <1>   0.0800 
 31 H        2.2200    -0.5000     2.3270 H     1 <1>   0.1500 
 32 H        0.1820     2.2070    -0.2470 H     1 <1>   0.1500 
 33 H       -2.1140    -2.4040     1.2530 H     1 <1>   0.0800 
 34 H       -3.4980    -0.4090     1.8200 H     1 <1>   0.0800 
 35 H       -4.7200     0.1010     0.7240 H     1 <1>   0.0800 
 36 H        4.3550     0.4930     1.6790 H     1 <1>   0.1500 
 37 H        2.3200     3.1960    -0.8950 H     1 <1>   0.1500 
 38 H       -1.5340    -4.2420     0.3360 H     1 <1>   0.4500 
 39 H       -4.2130    -4.6780    -0.6860 H     1 <1>   0.0800 
 40 H       -3.2180    -5.6990     0.3170 H     1 <1>   0.0800 
 41 H       -2.7040    -3.6690    -2.3160 H     1 <1>   0.0800 
 42 H       -1.8680    -5.1400    -1.8710 H     1 <1>   0.0800 
 43 H       -1.0030    -3.6240    -1.9000 H     1 <1>   0.0800 
 44 H       -4.8510    -2.2180     2.0960 H     1 <1>   0.0800 
 45 H       -5.7380    -2.7450     0.7210 H     1 <1>   0.0800 
 46 H       -4.6070    -2.8000    -1.6020 H     1 <1>   0.0800 
 47 H       -3.7180    -1.3380    -1.9310 H     1 <1>   0.0800 
 48 H       -5.0330    -4.7530     1.6360 H     1 <1>   0.0800 
 49 H       -3.5240    -4.1160     2.1960 H     1 <1>   0.0800 
 50 H       -6.2920    -1.4750    -0.7800 H     1 <1>   0.4000 
 51 H        5.3530     4.7330    -0.5860 H     1 <1>   0.4200 
 52 H        5.5100     4.4130     1.0000 H     1 <1>   0.4200 
@<TRIPOS>BOND
  1   1   2  2   
  2   1   3  2   
  3   1   4  am  
  4   1   5  1   
  5   4   6  1   
  6   4   7  1   
  7   5   8  ar  
  8   5   9  ar  
  9   6  10  1   
 10   6  27  1   
 11   6  28  1   
 12   7  11  1   
 13   7  29  1   
 14   7  30  1   
 15   8  12  ar  
 16   8  31  1   
 17   9  13  ar  
 18   9  32  1   
 19  10  14  1   
 20  10  15  1   
 21  10  33  1   
 22  11  15  1   
 23  11  34  1   
 24  11  35  1   
 25  12  16  ar  
 26  12  36  1   
 27  13  16  ar  
 28  13  37  1   
 29  14  17  1   
 30  14  18  1   
 31  14  38  1   
 32  15  19  1   
 33  15  20  1   
 34  16  21  1   
 35  17  22  1   
 36  17  39  1   
 37  17  40  1   
 38  18  41  1   
 39  18  42  1   
 40  18  43  1   
 41  19  22  1   
 42  19  44  1   
 43  19  45  1   
 44  20  23  1   
 45  20  46  1   
 46  20  47  1   
 47  21  24  2   
 48  21  25  2   
 49  21  26  am  
 50  22  48  1   
 51  22  49  1   
 52  23  50  1   
 53  26  51  1   
 54  26  52  1   
@<TRIPOS>SUBSTRUCTURE
  1 ****   4 GROUP 4 **** **** 0

# MOE 2024.06 (io_trps.svl 2023.06)
