@<TRIPOS>MOLECULE
NONAME
51 52 1 0 0 
SMALL
USER_CHARGES


@<TRIPOS>ATOM
  1 O       -3.4820    -3.2240    -1.0360 O.3   1 <1>  -0.5600 
  2 C       -2.1630    -3.0290    -1.4690 C.3   1 <1>   0.1200 
  3 C       -3.5920    -3.6530     0.2940 C.3   1 <1>   0.1200 
  4 C       -1.3530    -4.3440    -1.3780 C.3   1 <1>   0.3430 
  5 C       -2.8270    -4.9790     0.5150 C.3   1 <1>   0.3430 
  6 N       -2.1770    -5.4460    -0.7580 N.4   1 <1>  -0.9590 
  7 C       -1.6020    -6.8270    -0.7110 C.3   1 <1>   0.4230 
  8 C       -0.3970    -7.0190     0.2650 C.3   1 <1>   0.3430 
  9 C       -1.2350    -7.2500    -2.1360 C.3   1 <1>  -0.2400 
 10 N        0.0240    -8.4610     0.4490 N.4   1 <1>  -0.9590 
 11 C       -0.5520    -9.1180     1.6730 C.3   1 <1>   0.3430 
 12 C        1.5130    -8.6230     0.4250 C.3   1 <1>   0.2630 
 13 C       -2.0620    -9.3800     1.5220 C.3   1 <1>   0.1200 
 14 O       -2.3510    -9.6720     0.1810 O.3   1 <1>  -0.5600 
 15 C       -3.7040    -9.9530    -0.0770 C.3   1 <1>   0.2630 
 16 C       -4.4410    -8.6420    -0.3230 C.ar  1 <1>  -0.1430 
 17 C       -4.4920    -8.1110    -1.6040 C.ar  1 <1>  -0.1500 
 18 C       -5.0810    -7.9740     0.7110 C.ar  1 <1>  -0.1500 
 19 C       -5.1490    -6.9160    -1.8440 C.ar  1 <1>  -0.1500 
 20 C       -5.7450    -6.7830     0.4710 C.ar  1 <1>  -0.1500 
 21 C       -5.7730    -6.2500    -0.8060 C.ar  1 <1>  -0.1500 
 22 H       -1.7130    -2.2560    -0.8690 H     1 <1>   0.0800 
 23 H       -2.1980    -2.6830    -2.4880 H     1 <1>   0.0800 
 24 H       -4.6380    -3.7870     0.5090 H     1 <1>   0.0800 
 25 H       -3.2150    -2.8780     0.9400 H     1 <1>   0.0800 
 26 H       -0.4620    -4.1670    -0.8000 H     1 <1>   0.0800 
 27 H       -1.0480    -4.6240    -2.3730 H     1 <1>   0.0800 
 28 H       -3.5220    -5.7230     0.8680 H     1 <1>   0.0800 
 29 H       -2.0880    -4.8280     1.2830 H     1 <1>   0.0800 
 30 H       -2.9960    -5.5070    -1.3920 H     1 <1>   0.4500 
 31 H       -2.3870    -7.4740    -0.3670 H     1 <1>   0.0800 
 32 H       -0.6500    -6.6040     1.2250 H     1 <1>   0.0800 
 33 H        0.4350    -6.4610    -0.1300 H     1 <1>   0.0800 
 34 H       -0.3520    -6.7460    -2.4850 H     1 <1>   0.0800 
 35 H       -2.0470    -7.0500    -2.8140 H     1 <1>   0.0800 
 36 H       -1.0470    -8.3080    -2.1690 H     1 <1>   0.0800 
 37 H       -0.3800    -9.0240    -0.3260 H     1 <1>   0.4500 
 38 H       -0.3640    -8.5260     2.5540 H     1 <1>   0.0800 
 39 H       -0.0720   -10.0730     1.8190 H     1 <1>   0.0800 
 40 H        1.9650    -8.0930     1.2480 H     1 <1>   0.0800 
 41 H        1.9200    -8.2420    -0.4970 H     1 <1>   0.0800 
 42 H        1.7780    -9.6660     0.5050 H     1 <1>   0.0800 
 43 H       -2.6200    -8.5110     1.8200 H     1 <1>   0.0800 
 44 H       -2.3540   -10.2140     2.1380 H     1 <1>   0.0800 
 45 H       -4.1320   -10.5050     0.7430 H     1 <1>   0.0800 
 46 H       -3.7480   -10.5710    -0.9580 H     1 <1>   0.0800 
 47 H       -4.0320    -8.6340    -2.4260 H     1 <1>   0.1500 
 48 H       -5.0860    -8.3850     1.7070 H     1 <1>   0.1500 
 49 H       -5.1980    -6.5150    -2.8440 H     1 <1>   0.1500 
 50 H       -6.2590    -6.2790     1.2740 H     1 <1>   0.1500 
 51 H       -6.3000    -5.3290    -0.9970 H     1 <1>   0.1500 
@<TRIPOS>BOND
  1   1   2  1   
  2   1   3  1   
  3   2   4  1   
  4   2  22  1   
  5   2  23  1   
  6   3   5  1   
  7   3  24  1   
  8   3  25  1   
  9   4   6  1   
 10   4  26  1   
 11   4  27  1   
 12   5   6  1   
 13   5  28  1   
 14   5  29  1   
 15   6   7  1   
 16   6  30  1   
 17   7   8  1   
 18   7   9  1   
 19   7  31  1   
 20   8  10  1   
 21   8  32  1   
 22   8  33  1   
 23   9  34  1   
 24   9  35  1   
 25   9  36  1   
 26  10  11  1   
 27  10  12  1   
 28  10  37  1   
 29  11  13  1   
 30  11  38  1   
 31  11  39  1   
 32  12  40  1   
 33  12  41  1   
 34  12  42  1   
 35  13  14  1   
 36  13  43  1   
 37  13  44  1   
 38  14  15  1   
 39  15  16  1   
 40  15  45  1   
 41  15  46  1   
 42  16  17  ar  
 43  16  18  ar  
 44  17  19  ar  
 45  17  47  1   
 46  18  20  ar  
 47  18  48  1   
 48  19  21  ar  
 49  19  49  1   
 50  20  21  ar  
 51  20  50  1   
 52  21  51  1   
@<TRIPOS>SUBSTRUCTURE
  1 ****   7 GROUP 4 **** **** 0

# MOE 2024.06 (io_trps.svl 2023.06)
