@<TRIPOS>MOLECULE
NONAME
48 50 1 0 0 
SMALL
USER_CHARGES


@<TRIPOS>ATOM
  1 O       -1.7240    -0.2310     1.4250 O.2   1 <1>  -0.5700 
  2 C       -2.0660     0.8350     0.9410 C.2   1 <1>   0.7670 
  3 N       -3.2920     1.3490     1.2620 N.2   1 <1>  -0.6610 
  4 C       -1.1970     1.5400     0.0690 C.2   1 <1>  -0.1360 
  5 C       -3.6240     2.4700     0.7430 C.2   1 <1>   0.4390 
  6 C       -1.5690     2.7350    -0.4450 C.2   1 <1>  -0.0380 
  7 N       -2.8190     3.1860    -0.0950 N.pl3 1 <1>  -0.5500 
  8 C       -4.9760     3.0640     1.0530 C.3   1 <1>  -0.1790 
  9 C       -0.6920     3.5730    -1.3780 C.3   1 <1>   0.2480 
 10 N        0.1780     4.5330    -0.6500 N.3   1 <1>  -0.8100 
 11 C       -0.6100     5.4980     0.1640 C.3   1 <1>   0.1100 
 12 C        1.2020     3.8340     0.1530 C.3   1 <1>   0.1100 
 13 C        0.2110     6.7040     0.6640 C.3   1 <1>   0.3430 
 14 C        2.5450     4.5680     0.0720 C.3   1 <1>  -0.1600 
 15 N        1.5010     6.7830    -0.0800 N.4   1 <1>  -0.9590 
 16 C        2.5480     5.9980     0.6110 C.3   1 <1>   0.3430 
 17 C        1.9700     8.1320    -0.5060 C.3   1 <1>   0.4230 
 18 C        2.1140     9.1040     0.6660 C.3   1 <1>  -0.1600 
 19 C        0.9580     8.7980    -1.4380 C.3   1 <1>  -0.1600 
 20 C        0.7980     9.8810     0.7730 C.3   1 <1>  -0.1600 
 21 C        0.1280     9.7830    -0.6010 C.3   1 <1>  -0.1600 
 22 H       -0.2570     1.0700    -0.1410 H     1 <1>   0.1500 
 23 H       -3.2030     4.0440    -0.4950 H     1 <1>   0.4000 
 24 H       -4.8590     4.0220     1.5250 H     1 <1>   0.0800 
 25 H       -5.5160     2.4170     1.7220 H     1 <1>   0.0800 
 26 H       -5.5460     3.1730     0.1500 H     1 <1>   0.0800 
 27 H       -1.3180     4.1090    -2.0710 H     1 <1>   0.0800 
 28 H       -0.0720     2.9150    -1.9640 H     1 <1>   0.0800 
 29 H       -1.0580     5.0020     1.0100 H     1 <1>   0.0800 
 30 H       -1.4120     5.8860    -0.4400 H     1 <1>   0.0800 
 31 H        1.3590     2.8410    -0.2350 H     1 <1>   0.0800 
 32 H        0.8790     3.7300     1.1770 H     1 <1>   0.0800 
 33 H        0.3970     6.6110     1.7210 H     1 <1>   0.0800 
 34 H       -0.3710     7.5950     0.5120 H     1 <1>   0.0800 
 35 H        2.8820     4.5700    -0.9500 H     1 <1>   0.0800 
 36 H        3.2680     4.0030     0.6320 H     1 <1>   0.0800 
 37 H        1.2910     6.2200    -0.9250 H     1 <1>   0.4500 
 38 H        3.5170     6.4350     0.4320 H     1 <1>   0.0800 
 39 H        2.3710     5.9960     1.6750 H     1 <1>   0.0800 
 40 H        2.9150     8.0280    -1.0170 H     1 <1>   0.0800 
 41 H        2.8910     9.8050     0.4130 H     1 <1>   0.0800 
 42 H        2.3850     8.6260     1.5900 H     1 <1>   0.0800 
 43 H        0.3440     8.0870    -1.9620 H     1 <1>   0.0800 
 44 H        1.5070     9.3650    -2.1700 H     1 <1>   0.0800 
 45 H        0.9780    10.9080     1.0460 H     1 <1>   0.0800 
 46 H        0.1650     9.4430     1.5250 H     1 <1>   0.0800 
 47 H       -0.8900     9.4460    -0.5010 H     1 <1>   0.0800 
 48 H        0.1120    10.7500    -1.0790 H     1 <1>   0.0800 
@<TRIPOS>BOND
  1   1   2  2   
  2   2   3  1   
  3   2   4  1   
  4   3   5  2   
  5   4   6  2   
  6   4  22  1   
  7   5   7  1   
  8   5   8  1   
  9   6   7  1   
 10   6   9  1   
 11   7  23  1   
 12   8  24  1   
 13   8  25  1   
 14   8  26  1   
 15   9  10  1   
 16   9  27  1   
 17   9  28  1   
 18  10  11  1   
 19  10  12  1   
 20  11  13  1   
 21  11  29  1   
 22  11  30  1   
 23  12  14  1   
 24  12  31  1   
 25  12  32  1   
 26  13  15  1   
 27  13  33  1   
 28  13  34  1   
 29  14  16  1   
 30  14  35  1   
 31  14  36  1   
 32  15  16  1   
 33  15  17  1   
 34  15  37  1   
 35  16  38  1   
 36  16  39  1   
 37  17  18  1   
 38  17  19  1   
 39  17  40  1   
 40  18  20  1   
 41  18  41  1   
 42  18  42  1   
 43  19  21  1   
 44  19  43  1   
 45  19  44  1   
 46  20  21  1   
 47  20  45  1   
 48  20  46  1   
 49  21  47  1   
 50  21  48  1   
@<TRIPOS>SUBSTRUCTURE
  1 ****  11 GROUP 4 **** **** 0

# MOE 2024.06 (io_trps.svl 2023.06)
