@<TRIPOS>MOLECULE
NONAME
46 48 1 0 0 
SMALL
USER_CHARGES


@<TRIPOS>ATOM
  1 O        3.2250     1.7510     1.9490 O.co2 1 <1>  -0.9000 
  2 C        2.8360     0.6250     1.6360 C.2   1 <1>   0.9060 
  3 O        3.1120    -0.3550     2.3340 O.co2 1 <1>  -0.9000 
  4 C        2.3630     0.3790     0.1880 C.3   1 <1>  -0.1060 
  5 C        3.4280    -0.5600    -0.4120 C.3   1 <1>   0.4230 
  6 C        2.3620     1.6940    -0.6610 C.3   1 <1>  -0.1600 
  7 C        0.9450    -0.2460     0.1210 C.3   1 <1>  -0.1600 
  8 N        3.3290    -1.9260     0.2230 N.4   1 <1>  -0.9590 
  9 C        4.8410     0.1140    -0.2740 C.3   1 <1>   0.3430 
 10 C        3.7490     2.2380    -1.0630 C.3   1 <1>   0.3430 
 11 C        0.9080    -1.6910     0.6390 C.3   1 <1>  -0.1600 
 12 C        1.9980    -2.5610     0.0140 C.3   1 <1>   0.3430 
 13 C        4.4400    -2.8830    -0.0480 C.3   1 <1>   0.2630 
 14 N        4.8030     1.6220    -0.2130 N.4   1 <1>  -0.9590 
 15 C        6.1310     2.2860    -0.2680 C.3   1 <1>   0.4860 
 16 C        5.9700     3.7840    -0.0880 C.ar  1 <1>  -0.1430 
 17 C        6.4070     4.6550    -1.0770 C.ar  1 <1>  -0.1500 
 18 C        5.3780     4.2980     1.0590 C.ar  1 <1>  -0.1500 
 19 C        6.2490     6.0210    -0.9230 C.ar  1 <1>  -0.1500 
 20 C        5.2210     5.6640     1.2090 C.ar  1 <1>  -0.1500 
 21 C        5.6550     6.5260     0.2190 C.ar  1 <1>  -0.1500 
 22 H        3.2190    -0.6670    -1.4620 H     1 <1>   0.0800 
 23 H        1.8500     2.4630    -0.1070 H     1 <1>   0.0800 
 24 H        1.8010     1.5600    -1.5690 H     1 <1>   0.0800 
 25 H        0.2600     0.3550     0.6980 H     1 <1>   0.0800 
 26 H        0.5920    -0.2500    -0.8960 H     1 <1>   0.0800 
 27 H        3.3330    -1.6830     1.2550 H     1 <1>   0.4500 
 28 H        5.4550    -0.1980    -1.1020 H     1 <1>   0.0800 
 29 H        5.2900    -0.2410     0.6400 H     1 <1>   0.0800 
 30 H        3.7490     3.3100    -0.9400 H     1 <1>   0.0800 
 31 H        3.9460     2.0190    -2.1000 H     1 <1>   0.0800 
 32 H       -0.0540    -2.1230     0.4230 H     1 <1>   0.0800 
 33 H        1.0190    -1.7010     1.7110 H     1 <1>   0.0800 
 34 H        1.8100    -2.6820    -1.0400 H     1 <1>   0.0800 
 35 H        1.9780    -3.5330     0.4790 H     1 <1>   0.0800 
 36 H        4.4820    -3.1250    -1.0980 H     1 <1>   0.0800 
 37 H        4.2830    -3.7940     0.5080 H     1 <1>   0.0800 
 38 H        5.3830    -2.4640     0.2580 H     1 <1>   0.0800 
 39 H        4.4440     1.8560     0.7550 H     1 <1>   0.4500 
 40 H        6.7630     1.9060     0.5190 H     1 <1>   0.0800 
 41 H        6.6050     2.0870    -1.2150 H     1 <1>   0.0800 
 42 H        6.8740     4.2860    -1.9740 H     1 <1>   0.1500 
 43 H        5.0280     3.6480     1.8470 H     1 <1>   0.1500 
 44 H        6.5900     6.6960    -1.6900 H     1 <1>   0.1500 
 45 H        4.7570     6.0530     2.1000 H     1 <1>   0.1500 
 46 H        5.5320     7.5890     0.3410 H     1 <1>   0.1500 
@<TRIPOS>BOND
  1   1   2  ar  
  2   2   3  ar  
  3   2   4  1   
  4   4   5  1   
  5   4   6  1   
  6   4   7  1   
  7   5   8  1   
  8   5   9  1   
  9   5  22  1   
 10   6  10  1   
 11   6  23  1   
 12   6  24  1   
 13   7  11  1   
 14   7  25  1   
 15   7  26  1   
 16   8  12  1   
 17   8  13  1   
 18   8  27  1   
 19   9  14  1   
 20   9  28  1   
 21   9  29  1   
 22  10  14  1   
 23  10  30  1   
 24  10  31  1   
 25  11  12  1   
 26  11  32  1   
 27  11  33  1   
 28  12  34  1   
 29  12  35  1   
 30  13  36  1   
 31  13  37  1   
 32  13  38  1   
 33  14  15  1   
 34  14  39  1   
 35  15  16  1   
 36  15  40  1   
 37  15  41  1   
 38  16  17  ar  
 39  16  18  ar  
 40  17  19  ar  
 41  17  42  1   
 42  18  20  ar  
 43  18  43  1   
 44  19  21  ar  
 45  19  44  1   
 46  20  21  ar  
 47  20  45  1   
 48  21  46  1   
@<TRIPOS>SUBSTRUCTURE
  1 ****  14 GROUP 4 **** **** 0

# MOE 2024.06 (io_trps.svl 2023.06)
