@<TRIPOS>MOLECULE
NONAME
47 48 1 0 0 
SMALL
USER_CHARGES


@<TRIPOS>ATOM
  1 S        1.9680     0.3060    -0.1630 S.o2  1 <1>   1.3330 
  2 O        3.1520     0.4620     0.6460 O.2   1 <1>  -0.6500 
  3 O        1.8520    -0.7350    -1.1520 O.2   1 <1>  -0.6500 
  4 N        1.7260     1.7490    -0.9870 N.am  1 <1>  -0.9140 
  5 C        0.5560     0.1890     0.9190 C.3   1 <1>  -0.1350 
  6 C        1.7240     2.9590    -0.1820 C.3   1 <1>   0.1960 
  7 C        1.7610     4.1700    -1.1070 C.3   1 <1>  -0.0990 
  8 C        1.8180     5.4290    -0.2750 C.2   1 <1>   0.5690 
  9 O        0.8330     5.7330     0.3500 O.2   1 <1>  -0.5700 
 10 N        2.9890     6.1300    -0.2500 N.am  1 <1>  -0.4940 
 11 C        3.3950     7.2680     0.4840 C.2   1 <1>  -0.0880 
 12 N        2.6490     8.3230     0.9110 N.pl3 1 <1>   0.3140 
 13 C        4.6780     7.5120     0.8720 C.2   1 <1>  -0.0540 
 14 N        3.4090     9.2320     1.5590 N.2   1 <1>  -0.7070 
 15 C        1.2240     8.5990     0.6910 C.3   1 <1>   0.0160 
 16 C        5.8320     6.6690     0.6610 C.ar  1 <1>   0.0540 
 17 C        4.6050     8.7440     1.5300 C.2   1 <1>   0.1080 
 18 C        6.9360     7.0690    -0.1040 C.ar  1 <1>   0.0820 
 19 C        5.8440     5.3960     1.2230 C.ar  1 <1>  -0.1500 
 20 C        5.7770     9.4640     2.1590 C.3   1 <1>  -0.0590 
 21 O        6.9070     8.3150    -0.6500 O.3   1 <1>  -0.3620 
 22 C        8.0060     6.1970    -0.2910 C.ar  1 <1>  -0.1500 
 23 C        6.9070     4.5330     1.0330 C.ar  1 <1>  -0.1500 
 24 C        7.9670     8.8180    -1.4330 C.3   1 <1>   0.0400 
 25 C        7.9900     4.9350     0.2740 C.ar  1 <1>  -0.1500 
 26 H        0.8920     1.6460    -1.5620 H     1 <1>   0.4200 
 27 H        0.5930    -0.7370     1.4590 H     1 <1>   0.0800 
 28 H       -0.3530     0.2150     0.3520 H     1 <1>   0.0800 
 29 H        0.5560     0.9930     1.6280 H     1 <1>   0.0800 
 30 H        2.5980     2.9720     0.4510 H     1 <1>   0.0800 
 31 H        0.8460     2.9990     0.4410 H     1 <1>   0.0800 
 32 H        0.8720     4.2000    -1.7100 H     1 <1>   0.0800 
 33 H        2.6200     4.1120    -1.7510 H     1 <1>   0.0800 
 34 H        3.7630     5.6950    -0.7570 H     1 <1>   0.3700 
 35 H        0.9450     8.2740    -0.2930 H     1 <1>   0.0800 
 36 H        1.0520     9.6550     0.7850 H     1 <1>   0.0800 
 37 H        0.6490     8.0740     1.4290 H     1 <1>   0.0800 
 38 H        5.0050     5.0830     1.8200 H     1 <1>   0.1500 
 39 H        6.5210     8.7590     2.4800 H     1 <1>   0.0800 
 40 H        5.4410    10.0310     3.0080 H     1 <1>   0.0800 
 41 H        6.2100    10.1340     1.4400 H     1 <1>   0.0800 
 42 H        8.8610     6.4790    -0.8750 H     1 <1>   0.1500 
 43 H        6.8920     3.5520     1.4760 H     1 <1>   0.1500 
 44 H        7.7090     9.8150    -1.7400 H     1 <1>   0.0800 
 45 H        8.0920     8.1900    -2.2970 H     1 <1>   0.0800 
 46 H        8.8620     8.8390    -0.8360 H     1 <1>   0.0800 
 47 H        8.8190     4.2650     0.1260 H     1 <1>   0.1500 
@<TRIPOS>BOND
  1   1   2  2   
  2   1   3  2   
  3   1   4  am  
  4   1   5  1   
  5   4   6  1   
  6   4  26  1   
  7   5  27  1   
  8   5  28  1   
  9   5  29  1   
 10   6   7  1   
 11   6  30  1   
 12   6  31  1   
 13   7   8  1   
 14   7  32  1   
 15   7  33  1   
 16   8   9  2   
 17   8  10  am  
 18  10  11  1   
 19  10  34  1   
 20  11  12  1   
 21  11  13  2   
 22  12  14  1   
 23  12  15  1   
 24  13  16  1   
 25  13  17  1   
 26  14  17  2   
 27  15  35  1   
 28  15  36  1   
 29  15  37  1   
 30  16  18  ar  
 31  16  19  ar  
 32  17  20  1   
 33  18  21  1   
 34  18  22  ar  
 35  19  23  ar  
 36  19  38  1   
 37  20  39  1   
 38  20  40  1   
 39  20  41  1   
 40  21  24  1   
 41  22  25  ar  
 42  22  42  1   
 43  23  25  ar  
 44  23  43  1   
 45  24  44  1   
 46  24  45  1   
 47  24  46  1   
 48  25  47  1   
@<TRIPOS>SUBSTRUCTURE
  1 ****  10 GROUP 4 **** **** 0

# MOE 2024.06 (io_trps.svl 2023.06)
