@<TRIPOS>MOLECULE
NONAME
44 47 1 0 0 
SMALL
USER_CHARGES


@<TRIPOS>ATOM
  1 S        0.4480    -0.6900     0.1690 S.3   1 <1>  -0.0800 
  2 C       -0.2450    -1.9550    -0.8370 C.ar  1 <1>   0.2970 
  3 C       -0.8080    -0.8950     1.3910 C.2   1 <1>  -0.1400 
  4 N        0.2810    -2.3060    -1.9910 N.ar  1 <1>  -0.5670 
  5 C       -1.3670    -2.4870    -0.2460 C.ar  1 <1>   0.0000 
  6 C       -1.6730    -1.8640     1.0270 C.2   1 <1>  -0.1810 
  7 C       -0.6930     0.0260     2.5910 C.3   1 <1>  -0.0600 
  8 C       -0.3950    -3.2710    -2.5780 C.ar  1 <1>   0.4700 
  9 C       -1.9730    -3.5080    -0.9900 C.ar  1 <1>   0.4100 
 10 C       -2.8820    -2.3060     1.8370 C.3   1 <1>  -0.0590 
 11 N       -1.4850    -3.8970    -2.1560 N.ar  1 <1>  -0.6200 
 12 N       -3.0920    -4.1790    -0.5580 N.pl3 1 <1>  -0.8380 
 13 C       -4.3150    -4.1130    -1.4050 C.3   1 <1>   0.2090 
 14 C       -2.8940    -5.5740    -0.0870 C.3   1 <1>   0.2090 
 15 C       -4.7320    -5.5650    -1.6380 C.3   1 <1>   0.2000 
 16 C       -4.1700    -6.3340    -0.4480 C.3   1 <1>  -0.0800 
 17 O       -6.1120    -5.7120    -1.6930 O.3   1 <1>  -0.6800 
 18 C       -3.9340    -7.8210    -0.7530 C.3   1 <1>  -0.0170 
 19 C       -3.2730    -8.5190     0.4250 C.ar  1 <1>  -0.1430 
 20 C       -3.9970    -8.9240     1.5280 C.ar  1 <1>  -0.1500 
 21 C       -1.9170    -8.7750     0.4570 C.ar  1 <1>  -0.1500 
 22 C       -3.3460    -9.5410     2.5840 C.ar  1 <1>   0.1600 
 23 C       -1.3640    -9.3980     1.5630 C.ar  1 <1>   0.1600 
 24 N       -2.0460    -9.7840     2.6290 N.ar  1 <1>  -0.6200 
 25 H       -1.4810    -0.1520     3.2970 H     1 <1>   0.0800 
 26 H       -0.7450     1.0500     2.2680 H     1 <1>   0.0800 
 27 H        0.2500    -0.1350     3.0820 H     1 <1>   0.0800 
 28 H       -0.0110    -3.5970    -3.5290 H     1 <1>   0.1500 
 29 H       -3.7750    -2.1850     1.2510 H     1 <1>   0.0800 
 30 H       -2.9870    -1.7310     2.7370 H     1 <1>   0.0800 
 31 H       -2.7810    -3.3410     2.1050 H     1 <1>   0.0800 
 32 H       -5.0780    -3.5770    -0.8700 H     1 <1>   0.0800 
 33 H       -4.1140    -3.6210    -2.3420 H     1 <1>   0.0800 
 34 H       -2.0450    -6.0040    -0.5910 H     1 <1>   0.0800 
 35 H       -2.7180    -5.5950     0.9750 H     1 <1>   0.0800 
 36 H       -4.3120    -5.9140    -2.5660 H     1 <1>   0.0800 
 37 H       -4.8390    -6.2400     0.3890 H     1 <1>   0.0800 
 38 H       -6.5200    -5.4010    -0.8620 H     1 <1>   0.4000 
 39 H       -3.3130    -7.9200    -1.6270 H     1 <1>   0.0800 
 40 H       -4.8750    -8.2950    -0.9710 H     1 <1>   0.0800 
 41 H       -5.0590    -8.7660     1.5770 H     1 <1>   0.1500 
 42 H       -1.2830    -8.4960    -0.3650 H     1 <1>   0.1500 
 43 H       -3.9260    -9.8510     3.4370 H     1 <1>   0.1500 
 44 H       -0.3050    -9.5890     1.5720 H     1 <1>   0.1500 
@<TRIPOS>BOND
  1   1   2  1   
  2   1   3  1   
  3   2   4  ar  
  4   2   5  ar  
  5   3   6  2   
  6   3   7  1   
  7   4   8  ar  
  8   5   6  1   
  9   5   9  ar  
 10   6  10  1   
 11   7  25  1   
 12   7  26  1   
 13   7  27  1   
 14   8  11  ar  
 15   8  28  1   
 16   9  11  ar  
 17   9  12  1   
 18  10  29  1   
 19  10  30  1   
 20  10  31  1   
 21  12  13  1   
 22  12  14  1   
 23  13  15  1   
 24  13  32  1   
 25  13  33  1   
 26  14  16  1   
 27  14  34  1   
 28  14  35  1   
 29  15  16  1   
 30  15  17  1   
 31  15  36  1   
 32  16  18  1   
 33  16  37  1   
 34  17  38  1   
 35  18  19  1   
 36  18  39  1   
 37  18  40  1   
 38  19  20  ar  
 39  19  21  ar  
 40  20  22  ar  
 41  20  41  1   
 42  21  23  ar  
 43  21  42  1   
 44  22  24  ar  
 45  22  43  1   
 46  23  24  ar  
 47  23  44  1   
@<TRIPOS>SUBSTRUCTURE
  1 ****  14 GROUP 4 **** **** 0

# MOE 2024.06 (io_trps.svl 2023.06)
