@<TRIPOS>MOLECULE
NONAME
44 46 1 0 0 
SMALL
USER_CHARGES


@<TRIPOS>ATOM
  1 O       -0.9920     1.2730     1.8860 O.2   1 <1>  -0.5700 
  2 C       -1.4830     0.9850     0.8090 C.2   1 <1>   0.7160 
  3 N       -2.0040    -0.2850     0.6290 N.am  1 <1>  -0.6600 
  4 C       -1.4830     1.9590    -0.2350 C.2   1 <1>  -0.0860 
  5 C       -2.6290    -0.7250    -0.6510 C.3   1 <1>   0.0600 
  6 C       -2.0830    -1.2830     1.7320 C.3   1 <1>   0.0600 
  7 C       -2.6160     2.5510    -0.8060 C.2   1 <1>   0.3720 
  8 C       -0.4460     2.5280    -0.9070 C.2   1 <1>   0.0870 
  9 N       -2.2810     3.3670    -1.7430 N.2   1 <1>  -0.4100 
 10 N       -3.9460     2.2920    -0.4320 N.pl3 1 <1>  -0.8210 
 11 O       -0.9760     3.3460    -1.7820 O.3   1 <1>  -0.0190 
 12 C        0.9900     2.3840    -0.8310 C.ar  1 <1>   0.0530 
 13 C       -4.2640     2.4120     1.0170 C.3   1 <1>   0.2090 
 14 C       -5.0280     2.9410    -1.2200 C.3   1 <1>   0.2090 
 15 C        1.6030     1.2880    -0.2190 C.ar  1 <1>  -0.1500 
 16 C        1.8330     3.3510    -1.3840 C.ar  1 <1>  -0.1500 
 17 C       -5.5620     3.2060     1.1000 C.3   1 <1>  -0.1600 
 18 C       -6.2090     3.0280    -0.2670 C.3   1 <1>  -0.1600 
 19 C        2.9780     1.1620    -0.1560 C.ar  1 <1>  -0.1500 
 20 C        3.2080     3.2330    -1.3280 C.ar  1 <1>  -0.1500 
 21 C        3.7960     2.1400    -0.7140 C.ar  1 <1>   0.0820 
 22 O        5.1490     2.0960    -0.6980 O.3   1 <1>  -0.3620 
 23 C        5.8450     1.0440    -0.0690 C.3   1 <1>   0.0400 
 24 H       -2.2230    -0.1790    -1.4850 H     1 <1>   0.0800 
 25 H       -3.6910    -0.5530    -0.6100 H     1 <1>   0.0800 
 26 H       -2.4460    -1.7730    -0.8110 H     1 <1>   0.0800 
 27 H       -1.6790    -0.8850     2.6470 H     1 <1>   0.0800 
 28 H       -1.5230    -2.1620     1.4660 H     1 <1>   0.0800 
 29 H       -3.1100    -1.5560     1.9020 H     1 <1>   0.0800 
 30 H       -3.4740     2.9100     1.5560 H     1 <1>   0.0800 
 31 H       -4.4030     1.4250     1.4240 H     1 <1>   0.0800 
 32 H       -5.2630     2.3580    -2.0940 H     1 <1>   0.0800 
 33 H       -4.7300     3.9330    -1.5170 H     1 <1>   0.0800 
 34 H        1.0020     0.5130     0.2180 H     1 <1>   0.1500 
 35 H        1.4050     4.2140    -1.8640 H     1 <1>   0.1500 
 36 H       -5.3240     4.2430     1.2600 H     1 <1>   0.0800 
 37 H       -6.1900     2.8620     1.9020 H     1 <1>   0.0800 
 38 H       -6.7550     2.1020    -0.3000 H     1 <1>   0.0800 
 39 H       -6.8690     3.8390    -0.5200 H     1 <1>   0.0800 
 40 H        3.3960     0.3010     0.3290 H     1 <1>   0.1500 
 41 H        3.8390     3.9890    -1.7590 H     1 <1>   0.1500 
 42 H        6.8980     1.2310    -0.1730 H     1 <1>   0.0800 
 43 H        5.5880     0.1180    -0.5520 H     1 <1>   0.0800 
 44 H        5.5780     1.0230     0.9730 H     1 <1>   0.0800 
@<TRIPOS>BOND
  1   1   2  2   
  2   2   3  am  
  3   2   4  1   
  4   3   5  1   
  5   3   6  1   
  6   4   7  1   
  7   4   8  2   
  8   5  24  1   
  9   5  25  1   
 10   5  26  1   
 11   6  27  1   
 12   6  28  1   
 13   6  29  1   
 14   7   9  2   
 15   7  10  1   
 16   8  11  1   
 17   8  12  1   
 18   9  11  1   
 19  10  13  1   
 20  10  14  1   
 21  12  15  ar  
 22  12  16  ar  
 23  13  17  1   
 24  13  30  1   
 25  13  31  1   
 26  14  18  1   
 27  14  32  1   
 28  14  33  1   
 29  15  19  ar  
 30  15  34  1   
 31  16  20  ar  
 32  16  35  1   
 33  17  18  1   
 34  17  36  1   
 35  17  37  1   
 36  18  38  1   
 37  18  39  1   
 38  19  21  ar  
 39  19  40  1   
 40  20  21  ar  
 41  20  41  1   
 42  21  22  1   
 43  22  23  1   
 44  23  42  1   
 45  23  43  1   
 46  23  44  1   
@<TRIPOS>SUBSTRUCTURE
  1 ****   4 GROUP 4 **** **** 0

# MOE 2024.06 (io_trps.svl 2023.06)
