@<TRIPOS>MOLECULE
NONAME
47 49 1 0 0 
SMALL
USER_CHARGES


@<TRIPOS>ATOM
  1 N        0.1880    -0.1820     0.1660 N.ar  1 <1>  -0.6200 
  2 C        0.4390    -1.4300    -0.1650 C.ar  1 <1>   0.7710 
  3 C        1.1660     0.6990     0.0480 C.ar  1 <1>   0.4100 
  4 N        1.6310    -1.8320    -0.6300 N.ar  1 <1>  -0.1790 
  5 N       -0.5690    -2.3000    -0.0140 N.pl3 1 <1>  -0.6690 
  6 N        0.8810     1.9630     0.4520 N.pl3 1 <1>  -0.8380 
  7 C        2.4380     0.3420    -0.4720 C.ar  1 <1>  -0.1430 
  8 C        2.6490    -0.9570    -0.8030 C.ar  1 <1>   0.2110 
  9 C       -0.7530    -3.7580    -0.2480 C.3   1 <1>   0.0740 
 10 C       -0.4340     2.6000     0.1520 C.3   1 <1>   0.1290 
 11 C        1.6660     2.6720     1.5010 C.3   1 <1>   0.1290 
 12 C        3.5370     1.3790    -0.7000 C.3   1 <1>  -0.0970 
 13 C        0.4230    -4.6540     0.0000 C.3   1 <1>  -0.2000 
 14 C       -0.0270    -4.3740    -1.4070 C.3   1 <1>  -0.2000 
 15 C       -2.1890    -4.1930     0.1240 C.3   1 <1>   0.0790 
 16 C       -2.4810    -5.6750    -0.0790 C.ar  1 <1>  -0.1430 
 17 C       -2.2600    -6.5810     0.9480 C.ar  1 <1>  -0.1500 
 18 C       -2.9830    -6.1330    -1.2880 C.ar  1 <1>  -0.1500 
 19 C       -2.5210    -7.9300     0.7720 C.ar  1 <1>  -0.1430 
 20 C       -3.2470    -7.4780    -1.4700 C.ar  1 <1>  -0.1500 
 21 C       -3.0160    -8.3750    -0.4420 C.ar  1 <1>  -0.1500 
 22 C       -2.2740    -8.9150     1.9000 C.3   1 <1>  -0.0970 
 23 H        1.6900    -2.8250    -0.8460 H     1 <1>   0.4570 
 24 H       -1.4110    -1.8470     0.3570 H     1 <1>   0.4000 
 25 H        3.5830    -1.3170    -1.2030 H     1 <1>   0.1500 
 26 H       -0.9190     2.0930    -0.6650 H     1 <1>   0.0800 
 27 H       -0.2880     3.6300    -0.1230 H     1 <1>   0.0800 
 28 H       -1.0710     2.5500     1.0180 H     1 <1>   0.0800 
 29 H        2.4190     2.0230     1.9120 H     1 <1>   0.0800 
 30 H        1.0150     2.9810     2.3010 H     1 <1>   0.0800 
 31 H        2.1380     3.5420     1.0780 H     1 <1>   0.0800 
 32 H        3.1220     2.2640    -1.1520 H     1 <1>   0.0800 
 33 H        4.3030     1.0010    -1.3540 H     1 <1>   0.0800 
 34 H        3.9970     1.6530     0.2330 H     1 <1>   0.0800 
 35 H        0.2590    -5.6570     0.3590 H     1 <1>   0.1000 
 36 H        1.3210    -4.2440     0.4200 H     1 <1>   0.1000 
 37 H        0.5200    -3.7450    -2.0820 H     1 <1>   0.1000 
 38 H       -0.4750    -5.1990    -1.9350 H     1 <1>   0.1000 
 39 H       -2.8880    -3.6280    -0.4670 H     1 <1>   0.0800 
 40 H       -2.3690    -3.9530     1.1570 H     1 <1>   0.0800 
 41 H       -1.8810    -6.2360     1.8940 H     1 <1>   0.1500 
 42 H       -3.1710    -5.4470    -2.0960 H     1 <1>   0.1500 
 43 H       -3.6350    -7.8290    -2.4100 H     1 <1>   0.1500 
 44 H       -3.2260    -9.4190    -0.5910 H     1 <1>   0.1500 
 45 H       -1.5120    -8.5490     2.5640 H     1 <1>   0.0800 
 46 H       -1.9530    -9.8630     1.5060 H     1 <1>   0.0800 
 47 H       -3.1810    -9.0620     2.4590 H     1 <1>   0.0800 
@<TRIPOS>BOND
  1   1   2  ar  
  2   1   3  ar  
  3   2   4  ar  
  4   2   5  1   
  5   3   6  1   
  6   3   7  ar  
  7   4   8  ar  
  8   4  23  1   
  9   5   9  1   
 10   5  24  1   
 11   6  10  1   
 12   6  11  1   
 13   7   8  ar  
 14   7  12  1   
 15   8  25  1   
 16   9  13  1   
 17   9  14  1   
 18   9  15  1   
 19  10  26  1   
 20  10  27  1   
 21  10  28  1   
 22  11  29  1   
 23  11  30  1   
 24  11  31  1   
 25  12  32  1   
 26  12  33  1   
 27  12  34  1   
 28  13  14  1   
 29  13  35  1   
 30  13  36  1   
 31  14  37  1   
 32  14  38  1   
 33  15  16  1   
 34  15  39  1   
 35  15  40  1   
 36  16  17  ar  
 37  16  18  ar  
 38  17  19  ar  
 39  17  41  1   
 40  18  20  ar  
 41  18  42  1   
 42  19  21  ar  
 43  19  22  1   
 44  20  21  ar  
 45  20  43  1   
 46  21  44  1   
 47  22  45  1   
 48  22  46  1   
 49  22  47  1   
@<TRIPOS>SUBSTRUCTURE
  1 ****   5 GROUP 4 **** **** 0

# MOE 2024.06 (io_trps.svl 2023.06)
