@<TRIPOS>MOLECULE
NONAME
49 51 1 0 0 
SMALL
USER_CHARGES


@<TRIPOS>ATOM
  1 O       -0.8520     0.7280    -0.0420 O.2   1 <1>  -0.5700 
  2 C       -0.5930     1.8800     0.1900 C.2   1 <1>   0.5690 
  3 N       -1.5600     2.7350     0.5900 N.am  1 <1>  -0.7300 
  4 C        0.8350     2.4000     0.0000 C.3   1 <1>   0.1810 
  5 C       -1.3060     4.1550     0.9390 C.3   1 <1>   0.3640 
  6 O        1.0760     3.6140     0.6800 O.3   1 <1>  -0.5600 
  7 C       -2.3960     5.0170     0.3130 C.ar  1 <1>  -0.1440 
  8 C        0.0980     4.6210     0.4690 C.3   1 <1>   0.2610 
  9 C       -2.8170     4.8120    -0.9950 C.ar  1 <1>   0.1600 
 10 C       -2.9780     6.0390     1.0380 C.ar  1 <1>  -0.1500 
 11 C        0.5130     5.9380     1.1480 C.2   1 <1>   0.5690 
 12 N       -3.7380     5.5260    -1.6200 N.ar  1 <1>  -0.6200 
 13 C       -3.9440     6.7910     0.4050 C.ar  1 <1>  -0.1500 
 14 O       -0.0170     6.2650     2.1880 O.2   1 <1>  -0.5700 
 15 N        1.4610     6.7380     0.5670 N.am  1 <1>  -0.6600 
 16 C       -4.2810     6.4980    -0.9050 C.ar  1 <1>   0.1600 
 17 C        1.8820     8.0320     1.1520 C.3   1 <1>   0.1400 
 18 C        2.3020     6.3940    -0.5970 C.3   1 <1>   0.1400 
 19 C        2.8250     8.6720     0.1160 C.3   1 <1>   0.0000 
 20 C        3.4140     7.4380    -0.5880 C.3   1 <1>  -0.1600 
 21 C        3.9340     9.4910     0.8230 C.3   1 <1>  -0.1600 
 22 C        2.0130     9.5090    -0.9120 C.3   1 <1>  -0.1600 
 23 C        4.9760    10.1100    -0.1230 C.3   1 <1>  -0.2400 
 24 C        1.4050    10.8150    -0.3740 C.3   1 <1>  -0.2400 
 25 H       -2.5000     2.3690     0.7530 H     1 <1>   0.3700 
 26 H        1.0240     2.5530    -1.0460 H     1 <1>   0.0800 
 27 H        1.5300     1.6720     0.3760 H     1 <1>   0.0800 
 28 H       -1.3610     4.2390     2.0110 H     1 <1>   0.0800 
 29 H        0.0550     4.8040    -0.5880 H     1 <1>   0.0800 
 30 H       -2.3720     4.0150    -1.5670 H     1 <1>   0.1500 
 31 H       -2.6900     6.2530     2.0550 H     1 <1>   0.1500 
 32 H       -4.4300     7.6000     0.9190 H     1 <1>   0.1500 
 33 H       -5.0360     7.0940    -1.3900 H     1 <1>   0.1500 
 34 H        1.0260     8.6430     1.3700 H     1 <1>   0.0800 
 35 H        2.4060     7.8310     2.0710 H     1 <1>   0.0800 
 36 H        2.7020     5.3980    -0.5070 H     1 <1>   0.0800 
 37 H        1.7170     6.4780    -1.4970 H     1 <1>   0.0800 
 38 H        4.2350     7.0420    -0.0170 H     1 <1>   0.0800 
 39 H        3.7660     7.6490    -1.5820 H     1 <1>   0.0800 
 40 H        3.4860    10.2750     1.4080 H     1 <1>   0.0800 
 41 H        4.4530     8.8510     1.5160 H     1 <1>   0.0800 
 42 H        2.6440     9.7550    -1.7480 H     1 <1>   0.0800 
 43 H        1.2090     8.9070    -1.3000 H     1 <1>   0.0800 
 44 H        4.5200    10.8220    -0.7870 H     1 <1>   0.0800 
 45 H        5.4640     9.3510    -0.7070 H     1 <1>   0.0800 
 46 H        5.7250    10.6240     0.4530 H     1 <1>   0.0800 
 47 H        2.1730    11.5040    -0.0740 H     1 <1>   0.0800 
 48 H        0.7570    10.6310     0.4630 H     1 <1>   0.0800 
 49 H        0.8230    11.2850    -1.1470 H     1 <1>   0.0800 
@<TRIPOS>BOND
  1   1   2  2   
  2   2   3  am  
  3   2   4  1   
  4   3   5  1   
  5   3  25  1   
  6   4   6  1   
  7   4  26  1   
  8   4  27  1   
  9   5   7  1   
 10   5   8  1   
 11   5  28  1   
 12   6   8  1   
 13   7   9  ar  
 14   7  10  ar  
 15   8  11  1   
 16   8  29  1   
 17   9  12  ar  
 18   9  30  1   
 19  10  13  ar  
 20  10  31  1   
 21  11  14  2   
 22  11  15  am  
 23  12  16  ar  
 24  13  16  ar  
 25  13  32  1   
 26  15  17  1   
 27  15  18  1   
 28  16  33  1   
 29  17  19  1   
 30  17  34  1   
 31  17  35  1   
 32  18  20  1   
 33  18  36  1   
 34  18  37  1   
 35  19  20  1   
 36  19  21  1   
 37  19  22  1   
 38  20  38  1   
 39  20  39  1   
 40  21  23  1   
 41  21  40  1   
 42  21  41  1   
 43  22  24  1   
 44  22  42  1   
 45  22  43  1   
 46  23  44  1   
 47  23  45  1   
 48  23  46  1   
 49  24  47  1   
 50  24  48  1   
 51  24  49  1   
@<TRIPOS>SUBSTRUCTURE
  1 ****  11 GROUP 4 **** **** 0

# MOE 2024.06 (io_trps.svl 2023.06)
