@<TRIPOS>MOLECULE
NONAME
34 36 1 0 0 
SMALL
USER_CHARGES


@<TRIPOS>ATOM
  1 O       -1.4070    -0.1940     0.2530 O.2   1 <1>  -0.5700 
  2 C       -2.3080     0.6040     0.1230 C.2   1 <1>   0.6300 
  3 N       -3.5610     0.3410     0.6060 N.am  1 <1>  -0.6600 
  4 C       -2.0290     1.8970    -0.6330 C.3   1 <1>  -0.1000 
  5 C       -3.8140    -0.9090     1.3810 C.3   1 <1>   0.3200 
  6 C       -4.7890     1.0980     0.2240 C.3   1 <1>   0.1400 
  7 C       -0.7310     2.6430    -0.4010 C.3   1 <1>   0.0000 
  8 C       -2.0620     3.2090     0.0240 C.3   1 <1>  -0.2000 
  9 C       -4.0200    -2.0830     0.4400 C.2   1 <1>   0.0060 
 10 C       -5.2390     2.0120     1.3690 C.3   1 <1>   0.1200 
 11 C        0.6060     2.1150    -0.8670 C.3   1 <1>  -0.2000 
 12 C        0.5620     3.3750    -0.1280 C.3   1 <1>  -0.2000 
 13 N       -5.1170    -2.7610     0.3210 N.2   1 <1>  -0.5650 
 14 N       -3.0280    -2.5130    -0.3670 N.pl3 1 <1>   0.0330 
 15 O       -6.3100     2.7870     0.9500 O.3   1 <1>  -0.6800 
 16 C       -4.8220    -3.6840    -0.6160 C.2   1 <1>   0.0770 
 17 C       -3.5500    -3.5480    -1.0490 C.2   1 <1>  -0.3020 
 18 H       -2.3210     1.8100    -1.6620 H     1 <1>   0.1000 
 19 H       -4.6860    -0.7920     1.9990 H     1 <1>   0.0800 
 20 H       -2.9760    -1.1140     2.0260 H     1 <1>   0.0800 
 21 H       -5.5770     0.3990    -0.0070 H     1 <1>   0.0800 
 22 H       -4.6010     1.6870    -0.6550 H     1 <1>   0.0800 
 23 H       -2.2220     3.2910     1.0850 H     1 <1>   0.1000 
 24 H       -2.4070     4.0810    -0.5030 H     1 <1>   0.1000 
 25 H       -4.4470     2.6720     1.6750 H     1 <1>   0.0800 
 26 H       -5.5700     1.4280     2.2100 H     1 <1>   0.0800 
 27 H        0.7850     2.1050    -1.9270 H     1 <1>   0.1000 
 28 H        0.9660     1.2190    -0.3910 H     1 <1>   0.1000 
 29 H        0.8910     3.4190     0.8950 H     1 <1>   0.1000 
 30 H        0.7210     4.3060    -0.6430 H     1 <1>   0.1000 
 31 H       -2.0920    -2.0870    -0.4260 H     1 <1>   0.2700 
 32 H       -6.0350     3.4400     0.2770 H     1 <1>   0.4000 
 33 H       -5.5540    -4.4090    -0.9340 H     1 <1>   0.1500 
 34 H       -3.0030    -4.1120    -1.7820 H     1 <1>   0.1500 
@<TRIPOS>BOND
  1   1   2  2   
  2   2   3  am  
  3   2   4  1   
  4   3   5  1   
  5   3   6  1   
  6   4   7  1   
  7   4   8  1   
  8   4  18  1   
  9   5   9  1   
 10   5  19  1   
 11   5  20  1   
 12   6  10  1   
 13   6  21  1   
 14   6  22  1   
 15   7   8  1   
 16   7  11  1   
 17   7  12  1   
 18   8  23  1   
 19   8  24  1   
 20   9  13  2   
 21   9  14  1   
 22  10  15  1   
 23  10  25  1   
 24  10  26  1   
 25  11  12  1   
 26  11  27  1   
 27  11  28  1   
 28  12  29  1   
 29  12  30  1   
 30  13  16  1   
 31  14  17  1   
 32  14  31  1   
 33  15  32  1   
 34  16  17  2   
 35  16  33  1   
 36  17  34  1   
@<TRIPOS>SUBSTRUCTURE
  1 ****   3 GROUP 4 **** **** 0

# MOE 2024.06 (io_trps.svl 2023.06)
