@<TRIPOS>MOLECULE
NONAME
48 49 1 0 0 
SMALL
USER_CHARGES


@<TRIPOS>ATOM
  1 O       -0.2130    -0.0120     1.1210 O.2   1 <1>  -0.5700 
  2 C        0.8130    -0.4790     0.6930 C.2   1 <1>   0.5690 
  3 N        1.8620     0.2680     0.2340 N.am  1 <1>  -0.4940 
  4 C        0.9560    -1.9850     0.6570 C.3   1 <1>  -0.0990 
  5 C        1.9660     1.6740     0.0860 C.2   1 <1>  -0.0880 
  6 C        0.3150    -2.5670    -0.6080 C.3   1 <1>  -0.0160 
  7 N        3.0790     2.3960     0.3890 N.pl3 1 <1>   0.3140 
  8 C        1.0530     2.5660    -0.3710 C.2   1 <1>  -0.1810 
  9 C        0.5670    -4.0630    -0.6840 C.ar  1 <1>  -0.1440 
 10 N        2.9070     3.7110     0.1350 N.2   1 <1>  -0.7070 
 11 C        4.3350     1.8930     0.9780 C.3   1 <1>   0.0960 
 12 C        1.6930     3.7990    -0.3120 C.2   1 <1>   0.1390 
 13 C       -0.3650     2.3360    -0.8590 C.3   1 <1>  -0.0590 
 14 C       -0.2370    -4.9410     0.0260 C.ar  1 <1>  -0.1500 
 15 C        1.6030    -4.5660    -1.4570 C.ar  1 <1>  -0.1500 
 16 C        5.2620     1.3200    -0.1040 C.3   1 <1>  -0.1600 
 17 C       -0.0170    -6.3080    -0.0270 C.ar  1 <1>   0.0820 
 18 C        1.8310    -5.9310    -1.5160 C.ar  1 <1>  -0.1500 
 19 C        6.5470     0.7520     0.5100 C.3   1 <1>  -0.1600 
 20 O       -0.8530    -7.0900     0.7010 O.3   1 <1>  -0.3620 
 21 C        1.0260    -6.8030    -0.8050 C.ar  1 <1>  -0.1500 
 22 C        7.4630     0.1740    -0.5730 C.3   1 <1>  -0.2400 
 23 C       -0.7280    -8.4940     0.7010 C.3   1 <1>   0.0400 
 24 H        2.6900    -0.2620    -0.0300 H     1 <1>   0.3700 
 25 H        0.4730    -2.3970     1.5250 H     1 <1>   0.0800 
 26 H        1.9940    -2.2560     0.6980 H     1 <1>   0.0800 
 27 H        0.7200    -2.0850    -1.4800 H     1 <1>   0.0800 
 28 H       -0.7450    -2.3780    -0.5940 H     1 <1>   0.0800 
 29 H        4.0920     1.1430     1.7080 H     1 <1>   0.0800 
 30 H        4.8190     2.7120     1.4800 H     1 <1>   0.0800 
 31 H        1.2410     4.7310    -0.6050 H     1 <1>   0.1500 
 32 H       -0.4710     1.3370    -1.2400 H     1 <1>   0.0800 
 33 H       -0.6080     3.0310    -1.6410 H     1 <1>   0.0800 
 34 H       -1.0530     2.4680    -0.0430 H     1 <1>   0.0800 
 35 H       -1.0470    -4.5740     0.6300 H     1 <1>   0.1500 
 36 H        2.2360    -3.9010    -2.0170 H     1 <1>   0.1500 
 37 H        5.5140     2.1070    -0.7960 H     1 <1>   0.0800 
 38 H        4.7510     0.5430    -0.6450 H     1 <1>   0.0800 
 39 H        2.6360    -6.3140    -2.1190 H     1 <1>   0.1500 
 40 H        6.3050    -0.0230     1.2180 H     1 <1>   0.0800 
 41 H        7.0730     1.5320     1.0360 H     1 <1>   0.0800 
 42 H        1.2250    -7.8550    -0.8680 H     1 <1>   0.1500 
 43 H        6.9710    -0.6250    -1.0990 H     1 <1>   0.0800 
 44 H        8.3610    -0.2140    -0.1260 H     1 <1>   0.0800 
 45 H        7.7370     0.9370    -1.2800 H     1 <1>   0.0800 
 46 H       -1.4960    -8.8970     1.3360 H     1 <1>   0.0800 
 47 H        0.2400    -8.7590     1.0860 H     1 <1>   0.0800 
 48 H       -0.8580    -8.8560    -0.3030 H     1 <1>   0.0800 
@<TRIPOS>BOND
  1   1   2  2   
  2   2   3  am  
  3   2   4  1   
  4   3   5  1   
  5   3  24  1   
  6   4   6  1   
  7   4  25  1   
  8   4  26  1   
  9   5   7  1   
 10   5   8  2   
 11   6   9  1   
 12   6  27  1   
 13   6  28  1   
 14   7  10  1   
 15   7  11  1   
 16   8  12  1   
 17   8  13  1   
 18   9  14  ar  
 19   9  15  ar  
 20  10  12  2   
 21  11  16  1   
 22  11  29  1   
 23  11  30  1   
 24  12  31  1   
 25  13  32  1   
 26  13  33  1   
 27  13  34  1   
 28  14  17  ar  
 29  14  35  1   
 30  15  18  ar  
 31  15  36  1   
 32  16  19  1   
 33  16  37  1   
 34  16  38  1   
 35  17  20  1   
 36  17  21  ar  
 37  18  21  ar  
 38  18  39  1   
 39  19  22  1   
 40  19  40  1   
 41  19  41  1   
 42  20  23  1   
 43  21  42  1   
 44  22  43  1   
 45  22  44  1   
 46  22  45  1   
 47  23  46  1   
 48  23  47  1   
 49  23  48  1   
@<TRIPOS>SUBSTRUCTURE
  1 ****   4 GROUP 4 **** **** 0

# MOE 2024.06 (io_trps.svl 2023.06)
