@<TRIPOS>MOLECULE
NONAME
42 44 1 0 0 
SMALL
USER_CHARGES


@<TRIPOS>ATOM
  1 CL       2.1080     0.5780     2.5810 Cl    1 <1>  -0.1770 
  2 C        2.3860    -0.5610     1.2900 C.ar  1 <1>   0.1770 
  3 C        2.2850    -1.9150     1.5500 C.ar  1 <1>  -0.1500 
  4 C        2.7030    -0.0840     0.0300 C.ar  1 <1>  -0.1500 
  5 C        2.4950    -2.8500     0.5360 C.ar  1 <1>   0.0860 
  6 C        2.9250    -0.9890    -0.9940 C.ar  1 <1>  -0.1500 
  7 C        2.8200    -2.3430    -0.7230 C.ar  1 <1>   0.1900 
  8 C        2.3840    -4.2640     0.8080 C.2   1 <1>   0.5440 
  9 F        3.0430    -3.1690    -1.7090 F     1 <1>  -0.1900 
 10 O        3.1360    -4.7730     1.6170 O.2   1 <1>  -0.5700 
 11 N        1.4270    -5.0490     0.2110 N.am  1 <1>  -0.6600 
 12 C        0.3370    -4.5820    -0.6810 C.3   1 <1>   0.1400 
 13 C        1.2160    -6.4670     0.5730 C.3   1 <1>   0.1400 
 14 C       -0.6730    -5.7360    -0.7380 C.3   1 <1>   0.2000 
 15 C        0.1710    -6.9760    -0.4240 C.3   1 <1>  -0.0800 
 16 O       -1.6350    -5.5770     0.2660 O.3   1 <1>  -0.5600 
 17 C       -0.6330    -8.1840     0.0890 C.3   1 <1>   0.0200 
 18 C       -2.7290    -4.7860    -0.0770 C.3   1 <1>   0.0400 
 19 C        0.2010    -9.4490     0.2180 C.2   1 <1>  -0.0400 
 20 O       -0.3590   -10.5220     0.7110 O.3   1 <1>  -0.0190 
 21 C        1.4740    -9.7550    -0.0800 C.2   1 <1>  -0.1500 
 22 N        0.4680   -11.5260     0.7610 N.2   1 <1>  -0.4100 
 23 C        1.5820   -11.0920     0.2910 C.2   1 <1>   0.1080 
 24 C        2.8360   -11.9270     0.1640 C.3   1 <1>  -0.0590 
 25 H        2.0460    -2.2540     2.5430 H     1 <1>   0.1500 
 26 H        2.7750     0.9770    -0.1400 H     1 <1>   0.1500 
 27 H        3.1790    -0.6540    -1.9840 H     1 <1>   0.1500 
 28 H       -0.1110    -3.6770    -0.3090 H     1 <1>   0.0800 
 29 H        0.7430    -4.4120    -1.6620 H     1 <1>   0.0800 
 30 H        2.1390    -7.0160     0.5130 H     1 <1>   0.0800 
 31 H        0.8360    -6.5140     1.5800 H     1 <1>   0.0800 
 32 H       -1.1630    -5.8150    -1.6940 H     1 <1>   0.0800 
 33 H        0.6860    -7.2580    -1.3250 H     1 <1>   0.0800 
 34 H       -1.4450    -8.3830    -0.5870 H     1 <1>   0.0800 
 35 H       -1.0600    -7.9560     1.0510 H     1 <1>   0.0800 
 36 H       -3.3820    -4.7330     0.7760 H     1 <1>   0.0800 
 37 H       -3.2510    -5.2390    -0.9020 H     1 <1>   0.0800 
 38 H       -2.3950    -3.7970    -0.3360 H     1 <1>   0.0800 
 39 H        2.2560    -9.1540    -0.5040 H     1 <1>   0.1500 
 40 H        3.6280   -11.4840     0.7380 H     1 <1>   0.0800 
 41 H        3.1320   -11.9860    -0.8670 H     1 <1>   0.0800 
 42 H        2.6530   -12.9210     0.5320 H     1 <1>   0.0800 
@<TRIPOS>BOND
  1   1   2  1   
  2   2   3  ar  
  3   2   4  ar  
  4   3   5  ar  
  5   3  25  1   
  6   4   6  ar  
  7   4  26  1   
  8   5   7  ar  
  9   5   8  1   
 10   6   7  ar  
 11   6  27  1   
 12   7   9  1   
 13   8  10  2   
 14   8  11  am  
 15  11  12  1   
 16  11  13  1   
 17  12  14  1   
 18  12  28  1   
 19  12  29  1   
 20  13  15  1   
 21  13  30  1   
 22  13  31  1   
 23  14  15  1   
 24  14  16  1   
 25  14  32  1   
 26  15  17  1   
 27  15  33  1   
 28  16  18  1   
 29  17  19  1   
 30  17  34  1   
 31  17  35  1   
 32  18  36  1   
 33  18  37  1   
 34  18  38  1   
 35  19  20  1   
 36  19  21  2   
 37  20  22  1   
 38  21  23  1   
 39  21  39  1   
 40  22  23  2   
 41  23  24  1   
 42  24  40  1   
 43  24  41  1   
 44  24  42  1   
@<TRIPOS>SUBSTRUCTURE
  1 ****  11 GROUP 4 **** **** 0

# MOE 2024.06 (io_trps.svl 2023.06)
