@<TRIPOS>MOLECULE
NONAME
50 53 1 0 0 
SMALL
USER_CHARGES


@<TRIPOS>ATOM
  1 O        0.8430     1.2100     1.2680 O.3   1 <1>  -0.0190 
  2 N        1.6600     0.2100     1.4310 N.2   1 <1>  -0.4100 
  3 C        0.8430     1.6420     0.0350 C.2   1 <1>  -0.0400 
  4 C        2.1910    -0.0070     0.2810 C.2   1 <1>   0.1080 
  5 C        1.7030     0.8880    -0.6660 C.2   1 <1>  -0.1500 
  6 C       -0.0350     2.8140    -0.3590 C.3   1 <1>   0.0200 
  7 C        3.2100    -1.0900     0.0070 C.3   1 <1>  -0.0590 
  8 C        0.3620     4.0840     0.4070 C.3   1 <1>  -0.0800 
  9 C       -0.4290     5.3140    -0.0270 C.3   1 <1>   0.2000 
 10 C        1.8190     4.4930     0.2000 C.3   1 <1>   0.2090 
 11 O       -1.6440     5.3590     0.6410 O.3   1 <1>  -0.6800 
 12 C        0.4600     6.5110     0.3160 C.3   1 <1>   0.2090 
 13 N        1.8420     5.9690     0.3770 N.pl3 1 <1>  -0.8380 
 14 C        2.9360     6.7250    -0.0110 C.ar  1 <1>   0.4100 
 15 N        3.9300     6.1010    -0.6180 N.ar  1 <1>  -0.6200 
 16 C        2.9980     8.0780     0.2280 C.ar  1 <1>  -0.1500 
 17 C        4.9490     6.8620    -0.9640 C.ar  1 <1>   0.4700 
 18 C        4.1080     8.7720    -0.1890 C.ar  1 <1>   0.4100 
 19 N        5.1070     8.1580    -0.7960 N.ar  1 <1>  -0.6200 
 20 N        4.2080    10.1340     0.0080 N.pl3 1 <1>  -0.8380 
 21 C        3.2300    11.0220    -0.6680 C.3   1 <1>   0.2090 
 22 C        5.5500    10.7460     0.1990 C.3   1 <1>   0.2090 
 23 C        3.0620    12.3090     0.1450 C.3   1 <1>  -0.1600 
 24 C        5.4130    12.0350     1.0150 C.3   1 <1>  -0.1600 
 25 C        4.4090    13.0090     0.3790 C.3   1 <1>  -0.1600 
 26 H        1.9770     0.9340    -1.7040 H     1 <1>   0.1500 
 27 H        0.0560     2.9800    -1.4180 H     1 <1>   0.0800 
 28 H       -1.0610     2.5700    -0.1460 H     1 <1>   0.0800 
 29 H        2.8430    -1.7530    -0.7550 H     1 <1>   0.0800 
 30 H        3.3940    -1.6570     0.9020 H     1 <1>   0.0800 
 31 H        4.1330    -0.6480    -0.3200 H     1 <1>   0.0800 
 32 H        0.2290     3.9230     1.4630 H     1 <1>   0.0800 
 33 H       -0.6230     5.3030    -1.0860 H     1 <1>   0.0800 
 34 H        2.1440     4.2460    -0.7970 H     1 <1>   0.0800 
 35 H        2.4690     4.0150     0.9140 H     1 <1>   0.0800 
 36 H       -1.5020     5.2930     1.6050 H     1 <1>   0.4000 
 37 H        0.2010     6.9180     1.2770 H     1 <1>   0.0800 
 38 H        0.3810     7.2690    -0.4440 H     1 <1>   0.0800 
 39 H        2.2130     8.5880     0.7420 H     1 <1>   0.1500 
 40 H        5.7630     6.3550    -1.4540 H     1 <1>   0.1500 
 41 H        3.5930    11.2560    -1.6550 H     1 <1>   0.0800 
 42 H        2.2810    10.5240    -0.7670 H     1 <1>   0.0800 
 43 H        6.1940    10.0550     0.7180 H     1 <1>   0.0800 
 44 H        5.9840    10.9560    -0.7640 H     1 <1>   0.0800 
 45 H        2.3940    12.9730    -0.3730 H     1 <1>   0.0800 
 46 H        2.6140    12.0610     1.0910 H     1 <1>   0.0800 
 47 H        5.0880    11.7770     2.0070 H     1 <1>   0.0800 
 48 H        6.3750    12.5070     1.0960 H     1 <1>   0.0800 
 49 H        4.2720    13.8620     1.0200 H     1 <1>   0.0800 
 50 H        4.7990    13.3570    -0.5630 H     1 <1>   0.0800 
@<TRIPOS>BOND
  1   1   2  1   
  2   1   3  1   
  3   2   4  2   
  4   3   5  2   
  5   3   6  1   
  6   4   5  1   
  7   4   7  1   
  8   5  26  1   
  9   6   8  1   
 10   6  27  1   
 11   6  28  1   
 12   7  29  1   
 13   7  30  1   
 14   7  31  1   
 15   8   9  1   
 16   8  10  1   
 17   8  32  1   
 18   9  11  1   
 19   9  12  1   
 20   9  33  1   
 21  10  13  1   
 22  10  34  1   
 23  10  35  1   
 24  11  36  1   
 25  12  13  1   
 26  12  37  1   
 27  12  38  1   
 28  13  14  1   
 29  14  15  ar  
 30  14  16  ar  
 31  15  17  ar  
 32  16  18  ar  
 33  16  39  1   
 34  17  19  ar  
 35  17  40  1   
 36  18  19  ar  
 37  18  20  1   
 38  20  21  1   
 39  20  22  1   
 40  21  23  1   
 41  21  41  1   
 42  21  42  1   
 43  22  24  1   
 44  22  43  1   
 45  22  44  1   
 46  23  25  1   
 47  23  45  1   
 48  23  46  1   
 49  24  25  1   
 50  24  47  1   
 51  24  48  1   
 52  25  49  1   
 53  25  50  1   
@<TRIPOS>SUBSTRUCTURE
  1 ****  13 GROUP 4 **** **** 0

# MOE 2024.06 (io_trps.svl 2023.06)
