@<TRIPOS>MOLECULE
NONAME
61 65 1 0 0 
SMALL
USER_CHARGES


@<TRIPOS>ATOM
  1 O        1.8340    -0.0280     1.5400 O.2   1 <1>  -0.5700 
  2 C        1.6300    -0.8310     0.6630 C.2   1 <1>   0.5690 
  3 N        2.4530    -1.0970    -0.3710 N.am  1 <1>  -0.6600 
  4 C        0.4090    -1.7040     0.6090 C.3   1 <1>  -0.0990 
  5 C        1.9490    -2.1860    -1.2270 C.3   1 <1>   0.1400 
  6 C        3.7730    -0.4740    -0.5960 C.3   1 <1>   0.2840 
  7 C        0.8210    -2.8090    -0.3830 C.3   1 <1>  -0.0190 
  8 C        4.8600    -1.4950    -0.3020 C.ar  1 <1>  -0.1440 
  9 C       -0.3460    -3.3650    -1.1960 C.2   1 <1>   0.5690 
 10 C        5.6120    -2.0880    -1.2960 C.ar  1 <1>  -0.1500 
 11 C        5.1400    -1.8850     0.9920 C.ar  1 <1>  -0.1500 
 12 O       -0.4620    -2.9940    -2.3410 O.2   1 <1>  -0.5700 
 13 N       -1.2310    -4.2620    -0.6450 N.am  1 <1>  -0.6600 
 14 C        6.5800    -3.0190    -0.9560 C.ar  1 <1>   0.1600 
 15 C        6.1300    -2.8250     1.2240 C.ar  1 <1>   0.1600 
 16 C       -1.1970    -4.7940     0.7470 C.3   1 <1>   0.1400 
 17 C       -2.3540    -4.8280    -1.4450 C.3   1 <1>   0.1400 
 18 N        6.8560    -3.4020     0.2800 N.ar  1 <1>  -0.6200 
 19 C       -1.0100    -6.3120     0.6940 C.3   1 <1>  -0.1600 
 20 C       -2.1900    -6.3470    -1.5320 C.3   1 <1>  -0.1600 
 21 C       -2.1060    -6.9950    -0.1380 C.3   1 <1>   0.4240 
 22 O       -3.3070    -6.7200     0.5450 O.3   1 <1>  -0.5600 
 23 C       -1.8360    -8.5120    -0.2380 C.ar  1 <1>  -0.1440 
 24 C       -4.3900    -7.5650     0.3080 C.3   1 <1>   0.1200 
 25 C       -2.7590    -9.4410     0.2330 C.ar  1 <1>  -0.1440 
 26 C       -0.6580    -8.9820    -0.8120 C.ar  1 <1>  -0.1500 
 27 C       -4.0570    -8.9540     0.8450 C.3   1 <1>  -0.0170 
 28 C       -2.5040   -10.8000     0.1450 C.ar  1 <1>  -0.1500 
 29 C       -0.4050   -10.3380    -0.9030 C.ar  1 <1>  -0.1500 
 30 C       -1.3210   -11.2570    -0.4250 C.ar  1 <1>   0.0830 
 31 O       -0.9960   -12.5680    -0.5500 O.3   1 <1>  -0.3630 
 32 C       -1.8500   -13.5840    -0.0760 C.3   1 <1>   0.0400 
 33 H       -0.4120    -1.1250     0.2270 H     1 <1>   0.0800 
 34 H        0.1710    -2.0910     1.5810 H     1 <1>   0.0800 
 35 H        2.7190    -2.9080    -1.4380 H     1 <1>   0.0800 
 36 H        1.5840    -1.7610    -2.1470 H     1 <1>   0.0800 
 37 H        3.8890     0.3750     0.0560 H     1 <1>   0.0800 
 38 H        3.8380    -0.1310    -1.6130 H     1 <1>   0.0800 
 39 H        1.2740    -3.6170     0.1620 H     1 <1>   0.0800 
 40 H        5.4550    -1.8380    -2.3290 H     1 <1>   0.1500 
 41 H        4.5910    -1.4650     1.8170 H     1 <1>   0.1500 
 42 H        7.1580    -3.4720    -1.7430 H     1 <1>   0.1500 
 43 H        6.3350    -3.1160     2.2400 H     1 <1>   0.1500 
 44 H       -2.1290    -4.5590     1.2350 H     1 <1>   0.0800 
 45 H       -0.4070    -4.3550     1.3260 H     1 <1>   0.0800 
 46 H       -2.3710    -4.4100    -2.4370 H     1 <1>   0.0800 
 47 H       -3.2870    -4.5830    -0.9670 H     1 <1>   0.0800 
 48 H       -1.0240    -6.7180     1.6890 H     1 <1>   0.0800 
 49 H       -0.0430    -6.5180     0.2760 H     1 <1>   0.0800 
 50 H       -1.2910    -6.5520    -2.0810 H     1 <1>   0.0800 
 51 H       -3.0020    -6.7730    -2.0890 H     1 <1>   0.0800 
 52 H       -4.5940    -7.5960    -0.7480 H     1 <1>   0.0800 
 53 H       -5.2440    -7.1590     0.8200 H     1 <1>   0.0800 
 54 H        0.0760    -8.2960    -1.1950 H     1 <1>   0.1500 
 55 H       -4.8590    -9.6270     0.6030 H     1 <1>   0.0800 
 56 H       -3.9600    -8.9100     1.9150 H     1 <1>   0.0800 
 57 H       -3.2330   -11.4900     0.5220 H     1 <1>   0.1500 
 58 H        0.5070   -10.6940    -1.3460 H     1 <1>   0.1500 
 59 H       -1.3830   -14.5320    -0.2740 H     1 <1>   0.0800 
 60 H       -2.7890   -13.5220    -0.5980 H     1 <1>   0.0800 
 61 H       -1.9870   -13.4580     0.9830 H     1 <1>   0.0800 
@<TRIPOS>BOND
  1   1   2  2   
  2   2   3  am  
  3   2   4  1   
  4   3   5  1   
  5   3   6  1   
  6   4   7  1   
  7   4  33  1   
  8   4  34  1   
  9   5   7  1   
 10   5  35  1   
 11   5  36  1   
 12   6   8  1   
 13   6  37  1   
 14   6  38  1   
 15   7   9  1   
 16   7  39  1   
 17   8  10  ar  
 18   8  11  ar  
 19   9  12  2   
 20   9  13  am  
 21  10  14  ar  
 22  10  40  1   
 23  11  15  ar  
 24  11  41  1   
 25  13  16  1   
 26  13  17  1   
 27  14  18  ar  
 28  14  42  1   
 29  15  18  ar  
 30  15  43  1   
 31  16  19  1   
 32  16  44  1   
 33  16  45  1   
 34  17  20  1   
 35  17  46  1   
 36  17  47  1   
 37  19  21  1   
 38  19  48  1   
 39  19  49  1   
 40  20  21  1   
 41  20  50  1   
 42  20  51  1   
 43  21  22  1   
 44  21  23  1   
 45  22  24  1   
 46  23  25  ar  
 47  23  26  ar  
 48  24  27  1   
 49  24  52  1   
 50  24  53  1   
 51  25  27  1   
 52  25  28  ar  
 53  26  29  ar  
 54  26  54  1   
 55  27  55  1   
 56  27  56  1   
 57  28  30  ar  
 58  28  57  1   
 59  29  30  ar  
 60  29  58  1   
 61  30  31  1   
 62  31  32  1   
 63  32  59  1   
 64  32  60  1   
 65  32  61  1   
@<TRIPOS>SUBSTRUCTURE
  1 ****  19 GROUP 4 **** **** 0

# MOE 2024.06 (io_trps.svl 2023.06)
