@<TRIPOS>MOLECULE
NONAME
46 48 1 0 0 
SMALL
USER_CHARGES


@<TRIPOS>ATOM
  1 N       -0.2080    -0.1150     0.4750 N.ar  1 <1>  -0.6200 
  2 C       -0.1610    -1.4260     0.3070 C.ar  1 <1>   0.7710 
  3 C        0.8000     0.6240     0.0540 C.ar  1 <1>   0.4100 
  4 N        0.8960    -2.0130    -0.2800 N.ar  1 <1>  -0.1790 
  5 N       -1.2010    -2.2000     0.7300 N.pl3 1 <1>  -0.8380 
  6 N        0.6700     1.9650     0.2150 N.pl3 1 <1>  -0.8380 
  7 C        1.9550     0.0430    -0.5300 C.ar  1 <1>  -0.1430 
  8 C        1.9700    -1.3020    -0.6950 C.ar  1 <1>   0.2110 
  9 C       -2.4660    -1.5850     1.2600 C.3   1 <1>   0.2090 
 10 C       -1.2540    -3.6950     0.7790 C.3   1 <1>   0.2090 
 11 C        0.7480     2.9250    -0.9210 C.3   1 <1>   0.1290 
 12 C        0.0640     2.5420     1.4500 C.3   1 <1>   0.1290 
 13 C        3.1670     0.8820    -0.9310 C.3   1 <1>  -0.0970 
 14 C       -3.6500    -2.0490     0.4070 C.3   1 <1>  -0.1600 
 15 C       -2.4070    -4.1880    -0.0970 C.3   1 <1>  -0.1600 
 16 C       -3.7420    -3.5810     0.3590 C.3   1 <1>   0.0630 
 17 C       -4.8870    -4.0470    -0.5350 C.ar  1 <1>  -0.1430 
 18 C       -4.9790    -3.7170    -1.8740 C.ar  1 <1>  -0.1500 
 19 C       -5.9050    -4.8400    -0.0410 C.ar  1 <1>  -0.1500 
 20 C       -6.0460    -4.1790    -2.6260 C.ar  1 <1>   0.1600 
 21 C       -6.9280    -5.2510    -0.8790 C.ar  1 <1>   0.1600 
 22 N       -7.0230    -4.9390    -2.1610 N.ar  1 <1>  -0.6200 
 23 H        0.8300    -3.0150    -0.3950 H     1 <1>   0.4570 
 24 H        2.8040    -1.8260    -1.1340 H     1 <1>   0.1500 
 25 H       -2.4360    -0.5090     1.2510 H     1 <1>   0.0800 
 26 H       -2.6100    -1.8930     2.2830 H     1 <1>   0.0800 
 27 H       -1.4220    -4.0060     1.7980 H     1 <1>   0.0800 
 28 H       -0.3360    -4.1460     0.4520 H     1 <1>   0.0800 
 29 H        0.8580     2.3990    -1.8530 H     1 <1>   0.0800 
 30 H        1.5860     3.5860    -0.7840 H     1 <1>   0.0800 
 31 H       -0.1550     3.5100    -0.9710 H     1 <1>   0.0800 
 32 H        0.1090     1.8300     2.2560 H     1 <1>   0.0800 
 33 H       -0.9660     2.7950     1.2670 H     1 <1>   0.0800 
 34 H        0.6010     3.4270     1.7440 H     1 <1>   0.0800 
 35 H        3.3920     1.5980    -0.1580 H     1 <1>   0.0800 
 36 H        2.9730     1.4140    -1.8450 H     1 <1>   0.0800 
 37 H        4.0380     0.2680    -1.0780 H     1 <1>   0.0800 
 38 H       -3.5370    -1.6450    -0.5830 H     1 <1>   0.0800 
 39 H       -4.5600    -1.6500     0.8180 H     1 <1>   0.0800 
 40 H       -2.4700    -5.2600    -0.0350 H     1 <1>   0.0800 
 41 H       -2.2130    -3.9290    -1.1220 H     1 <1>   0.0800 
 42 H       -3.9360    -3.9260     1.3610 H     1 <1>   0.0800 
 43 H       -4.2350    -3.1030    -2.3460 H     1 <1>   0.1500 
 44 H       -5.9180    -5.1470     0.9890 H     1 <1>   0.1500 
 45 H       -6.0990    -3.9090    -3.6670 H     1 <1>   0.1500 
 46 H       -7.7110    -5.8680    -0.4740 H     1 <1>   0.1500 
@<TRIPOS>BOND
  1   1   2  ar  
  2   1   3  ar  
  3   2   4  ar  
  4   2   5  1   
  5   3   6  1   
  6   3   7  ar  
  7   4   8  ar  
  8   4  23  1   
  9   5   9  1   
 10   5  10  1   
 11   6  11  1   
 12   6  12  1   
 13   7   8  ar  
 14   7  13  1   
 15   8  24  1   
 16   9  14  1   
 17   9  25  1   
 18   9  26  1   
 19  10  15  1   
 20  10  27  1   
 21  10  28  1   
 22  11  29  1   
 23  11  30  1   
 24  11  31  1   
 25  12  32  1   
 26  12  33  1   
 27  12  34  1   
 28  13  35  1   
 29  13  36  1   
 30  13  37  1   
 31  14  16  1   
 32  14  38  1   
 33  14  39  1   
 34  15  16  1   
 35  15  40  1   
 36  15  41  1   
 37  16  17  1   
 38  16  42  1   
 39  17  18  ar  
 40  17  19  ar  
 41  18  20  ar  
 42  18  43  1   
 43  19  21  ar  
 44  19  44  1   
 45  20  22  ar  
 46  20  45  1   
 47  21  22  ar  
 48  21  46  1   
@<TRIPOS>SUBSTRUCTURE
  1 ****   5 GROUP 4 **** **** 0

# MOE 2024.06 (io_trps.svl 2023.06)
