@<TRIPOS>MOLECULE
NONAME
35 36 1 0 0 
SMALL
USER_CHARGES


@<TRIPOS>ATOM
  1 CL       0.3220     0.0290     1.1900 Cl    1 <1>  -0.1770 
  2 C        1.6140     0.9670     0.4810 C.ar  1 <1>   0.1770 
  3 C        2.7050     0.3290    -0.0920 C.ar  1 <1>  -0.1440 
  4 C        1.5160     2.3430     0.5110 C.ar  1 <1>  -0.1500 
  5 C        3.7040     1.1130    -0.6460 C.ar  1 <1>  -0.1500 
  6 C        2.8070    -1.1890    -0.1210 C.3   1 <1>  -0.0960 
  7 C        2.5190     3.1440    -0.0320 C.ar  1 <1>   0.0860 
  8 C        3.6090     2.4940    -0.6190 C.ar  1 <1>  -0.1500 
  9 C        2.4190     4.5910     0.0200 C.2   1 <1>   0.5440 
 10 O        1.3360     5.1300    -0.0320 O.2   1 <1>  -0.5700 
 11 N        3.5580     5.3430     0.1670 N.am  1 <1>  -0.4940 
 12 C        3.7250     6.7130     0.1010 C.2   1 <1>   0.4420 
 13 S        5.3040     7.3120     0.5090 S.3   1 <1>  -0.0800 
 14 N        2.9090     7.6520    -0.2260 N.2   1 <1>  -0.3380 
 15 C        4.6760     8.8840     0.1850 C.2   1 <1>   0.4340 
 16 N        3.4590     8.9060    -0.1760 N.2   1 <1>  -0.3380 
 17 S        5.7980    10.2580     0.3930 S.3   1 <1>  -0.2860 
 18 C        4.7530    11.7220    -0.0330 C.3   1 <1>   0.0700 
 19 C        5.6100    12.9760     0.1130 C.3   1 <1>   0.1200 
 20 O        4.8270    14.0800    -0.2070 O.3   1 <1>  -0.5600 
 21 C        5.4980    15.2940    -0.1120 C.3   1 <1>   0.0400 
 22 H        0.6520     2.8010     0.9600 H     1 <1>   0.1500 
 23 H        4.5590     0.6480    -1.1070 H     1 <1>   0.1500 
 24 H        1.9740    -1.6030    -0.6610 H     1 <1>   0.0800 
 25 H        2.7940    -1.5780     0.8820 H     1 <1>   0.0800 
 26 H        3.7150    -1.5080    -0.5980 H     1 <1>   0.0800 
 27 H        4.3930     3.0710    -1.0750 H     1 <1>   0.1500 
 28 H        4.3970     4.8210     0.3990 H     1 <1>   0.3700 
 29 H        3.9210    11.7330     0.6480 H     1 <1>   0.0800 
 30 H        4.4140    11.5930    -1.0450 H     1 <1>   0.0800 
 31 H        6.4470    12.9370    -0.5630 H     1 <1>   0.0800 
 32 H        5.9540    13.0770     1.1280 H     1 <1>   0.0800 
 33 H        4.8100    16.0780    -0.3780 H     1 <1>   0.0800 
 34 H        6.3300    15.2960    -0.7950 H     1 <1>   0.0800 
 35 H        5.8360    15.4360     0.9000 H     1 <1>   0.0800 
@<TRIPOS>BOND
  1   1   2  1   
  2   2   3  ar  
  3   2   4  ar  
  4   3   5  ar  
  5   3   6  1   
  6   4   7  ar  
  7   4  22  1   
  8   5   8  ar  
  9   5  23  1   
 10   6  24  1   
 11   6  25  1   
 12   6  26  1   
 13   7   8  ar  
 14   7   9  1   
 15   8  27  1   
 16   9  10  2   
 17   9  11  am  
 18  11  12  1   
 19  11  28  1   
 20  12  13  1   
 21  12  14  2   
 22  13  15  1   
 23  14  16  1   
 24  15  16  2   
 25  15  17  1   
 26  17  18  1   
 27  18  19  1   
 28  18  29  1   
 29  18  30  1   
 30  19  20  1   
 31  19  31  1   
 32  19  32  1   
 33  20  21  1   
 34  21  33  1   
 35  21  34  1   
 36  21  35  1   
@<TRIPOS>SUBSTRUCTURE
  1 ****  12 GROUP 4 **** **** 0

# MOE 2024.06 (io_trps.svl 2023.06)
