@<TRIPOS>MOLECULE
NONAME
56 58 1 0 0 
SMALL
USER_CHARGES


@<TRIPOS>ATOM
  1 O       -0.6150     0.2300    -1.0500 O.2   1 <1>  -0.5700 
  2 C        0.3770    -0.4000    -0.7800 C.2   1 <1>   0.5690 
  3 N        1.5160     0.2030    -0.3830 N.am  1 <1>  -0.7300 
  4 C        0.3420    -1.9050    -0.8820 C.3   1 <1>  -0.0990 
  5 C        1.7220     1.6600    -0.3140 C.3   1 <1>   0.3210 
  6 C        0.0520    -2.5510     0.4810 C.3   1 <1>   0.1760 
  7 C        3.2170     1.9620    -0.2300 C.2   1 <1>   0.1080 
  8 N        0.1590    -4.0370     0.3710 N.pl3 1 <1>   0.3140 
  9 C       -1.2750    -2.0980     1.1170 C.3   1 <1>  -0.2400 
 10 N        4.1190     1.0520     0.0170 N.2   1 <1>  -0.7070 
 11 C        3.7870     3.2240    -0.4030 C.2   1 <1>  -0.1810 
 12 N        1.2950    -4.6150     0.7920 N.2   1 <1>  -0.7070 
 13 C       -0.6930    -4.9650    -0.1270 C.2   1 <1>  -0.3320 
 14 N        5.2870     1.7190     0.0070 N.pl3 1 <1>   0.3000 
 15 C        5.1110     3.0310    -0.2450 C.2   1 <1>  -0.3320 
 16 C        3.0890     4.5380    -0.7070 C.3   1 <1>   0.0210 
 17 C        1.1470    -5.8770     0.5710 C.2   1 <1>   0.1080 
 18 C       -0.0940    -6.1920     0.0030 C.2   1 <1>  -0.0860 
 19 C       -2.0540    -4.6510    -0.7410 C.3   1 <1>  -0.0600 
 20 C        6.2400     4.0410    -0.3230 C.3   1 <1>   0.0200 
 21 C        3.4550     5.6310     0.3060 C.3   1 <1>  -0.1600 
 22 C        2.2400    -6.8650     0.9190 C.3   1 <1>  -0.0590 
 23 C       -0.5340    -7.5290    -0.3120 C.2   1 <1>   0.5950 
 24 C        5.9980     5.2320     0.6130 C.3   1 <1>  -0.1600 
 25 C        4.8820     6.1860     0.1530 C.3   1 <1>  -0.1600 
 26 O        0.2070    -8.4200    -0.6440 O.2   1 <1>  -0.5700 
 27 C       -1.9990    -7.8870    -0.1950 C.3   1 <1>  -0.1790 
 28 H        2.3980    -0.2970    -0.2120 H     1 <1>   0.3700 
 29 H        1.2930    -2.2480    -1.2450 H     1 <1>   0.0800 
 30 H       -0.4100    -2.1770    -1.5960 H     1 <1>   0.0800 
 31 H        1.2280     2.0470     0.5590 H     1 <1>   0.0800 
 32 H        1.3020     2.1230    -1.1890 H     1 <1>   0.0800 
 33 H        0.8370    -2.2470     1.1520 H     1 <1>   0.0800 
 34 H       -2.0900    -2.1680     0.4210 H     1 <1>   0.0800 
 35 H       -1.1990    -1.0700     1.4240 H     1 <1>   0.0800 
 36 H       -1.4900    -2.6910     1.9890 H     1 <1>   0.0800 
 37 H        6.1850     1.2510     0.1760 H     1 <1>   0.2700 
 38 H        2.0240     4.3930    -0.6810 H     1 <1>   0.0800 
 39 H        3.3490     4.8560    -1.7020 H     1 <1>   0.0800 
 40 H       -2.0010    -3.7790    -1.3650 H     1 <1>   0.0800 
 41 H       -2.7810    -4.4830     0.0330 H     1 <1>   0.0800 
 42 H       -2.3920    -5.4590    -1.3620 H     1 <1>   0.0800 
 43 H        6.3450     4.3850    -1.3370 H     1 <1>   0.0800 
 44 H        7.1630     3.5660    -0.0420 H     1 <1>   0.0800 
 45 H        3.3140     5.2550     1.3050 H     1 <1>   0.0800 
 46 H        2.7680     6.4470     0.1710 H     1 <1>   0.0800 
 47 H        3.0250    -6.3710     1.4620 H     1 <1>   0.0800 
 48 H        2.6500    -7.2820     0.0180 H     1 <1>   0.0800 
 49 H        1.8420    -7.6570     1.5260 H     1 <1>   0.0800 
 50 H        6.9130     5.7960     0.6700 H     1 <1>   0.0800 
 51 H        5.7830     4.8710     1.6040 H     1 <1>   0.0800 
 52 H        4.9490     7.0770     0.7540 H     1 <1>   0.0800 
 53 H        5.0520     6.4820    -0.8680 H     1 <1>   0.0800 
 54 H       -2.4980    -7.2140     0.4750 H     1 <1>   0.0800 
 55 H       -2.0910    -8.8860     0.1890 H     1 <1>   0.0800 
 56 H       -2.4570    -7.8470    -1.1650 H     1 <1>   0.0800 
@<TRIPOS>BOND
  1   1   2  2   
  2   2   3  am  
  3   2   4  1   
  4   3   5  1   
  5   3  28  1   
  6   4   6  1   
  7   4  29  1   
  8   4  30  1   
  9   5   7  1   
 10   5  31  1   
 11   5  32  1   
 12   6   8  1   
 13   6   9  1   
 14   6  33  1   
 15   7  10  2   
 16   7  11  1   
 17   8  12  1   
 18   8  13  1   
 19   9  34  1   
 20   9  35  1   
 21   9  36  1   
 22  10  14  1   
 23  11  15  2   
 24  11  16  1   
 25  12  17  2   
 26  13  18  2   
 27  13  19  1   
 28  14  15  1   
 29  14  37  1   
 30  15  20  1   
 31  16  21  1   
 32  16  38  1   
 33  16  39  1   
 34  17  18  1   
 35  17  22  1   
 36  18  23  1   
 37  19  40  1   
 38  19  41  1   
 39  19  42  1   
 40  20  24  1   
 41  20  43  1   
 42  20  44  1   
 43  21  25  1   
 44  21  45  1   
 45  21  46  1   
 46  22  47  1   
 47  22  48  1   
 48  22  49  1   
 49  23  26  2   
 50  23  27  1   
 51  24  25  1   
 52  24  50  1   
 53  24  51  1   
 54  25  52  1   
 55  25  53  1   
 56  27  54  1   
 57  27  55  1   
 58  27  56  1   
@<TRIPOS>SUBSTRUCTURE
  1 ****   3 GROUP 4 **** **** 0

# MOE 2024.06 (io_trps.svl 2023.06)
