@<TRIPOS>MOLECULE
NONAME
51 54 1 0 0 
SMALL
USER_CHARGES


@<TRIPOS>ATOM
  1 O        3.6470    -1.6070     1.8870 O.2   1 <1>  -0.5700 
  2 C        2.8230    -1.5800     0.9930 C.2   1 <1>   0.5440 
  3 N        2.6740    -0.3800     0.3370 N.am  1 <1>  -0.6600 
  4 C        2.1480    -2.7910     0.5690 C.ar  1 <1>   0.0860 
  5 C        2.9180     0.9050     1.0940 C.3   1 <1>   0.2200 
  6 C        2.6480    -0.3520    -1.1550 C.3   1 <1>   0.1400 
  7 C        0.7740    -2.8340     0.2140 C.ar  1 <1>   0.0000 
  8 C        2.8450    -3.9680     0.4630 C.ar  1 <1>  -0.1500 
  9 C        2.1370     2.1010     0.5240 C.3   1 <1>   0.1200 
 10 C        4.4300     1.2300     1.1670 C.3   1 <1>   0.3430 
 11 C        3.5100     0.7670    -1.7700 C.3   1 <1>  -0.0800 
 12 C        0.2710    -4.0370    -0.3290 C.ar  1 <1>   0.3100 
 13 C       -0.1300    -1.7610     0.3820 C.ar  1 <1>  -0.1500 
 14 C        2.2450    -5.1190    -0.0510 C.ar  1 <1>   0.1660 
 15 O        2.8620     2.7200    -0.4970 O.3   1 <1>  -0.5600 
 16 N        5.2200     0.4540     0.1520 N.4   1 <1>  -0.9590 
 17 C        2.7850     2.1230    -1.7460 C.3   1 <1>   0.1200 
 18 C        4.9720     0.8720    -1.2690 C.3   1 <1>   0.3430 
 19 N        1.0180    -5.1580    -0.4570 N.ar  1 <1>  -0.6200 
 20 C       -1.0690    -4.0900    -0.7460 C.ar  1 <1>  -0.1500 
 21 C       -1.4340    -1.8480    -0.0240 C.ar  1 <1>  -0.1500 
 22 C        3.0440    -6.4010    -0.1640 C.3   1 <1>  -0.0970 
 23 C        6.6700     0.4490     0.4930 C.3   1 <1>   0.2630 
 24 C       -1.9160    -3.0230    -0.6070 C.ar  1 <1>  -0.1430 
 25 C       -3.3640    -3.0910    -1.0570 C.3   1 <1>  -0.0970 
 26 H        2.5650     0.7620     2.1010 H     1 <1>   0.0800 
 27 H        3.0020    -1.2990    -1.5280 H     1 <1>   0.0800 
 28 H        1.6270    -0.2460    -1.4830 H     1 <1>   0.0800 
 29 H        3.8750    -4.0130     0.7670 H     1 <1>   0.1500 
 30 H        2.0120     2.8390     1.2980 H     1 <1>   0.0800 
 31 H        1.1610     1.8150     0.1710 H     1 <1>   0.0800 
 32 H        4.7700     0.9630     2.1540 H     1 <1>   0.0800 
 33 H        4.5860     2.2890     1.0400 H     1 <1>   0.0800 
 34 H        3.5790     0.5290    -2.8160 H     1 <1>   0.0800 
 35 H        0.2030    -0.8520     0.8460 H     1 <1>   0.1500 
 36 H        4.8430    -0.5040     0.2710 H     1 <1>   0.4500 
 37 H        1.7480     2.0280    -2.0250 H     1 <1>   0.0800 
 38 H        3.2530     2.7990    -2.4420 H     1 <1>   0.0800 
 39 H        5.3070     1.8880    -1.4040 H     1 <1>   0.0800 
 40 H        5.5790     0.2500    -1.9080 H     1 <1>   0.0800 
 41 H       -1.4070    -5.0140    -1.1760 H     1 <1>   0.1500 
 42 H       -2.1070    -1.0160     0.1060 H     1 <1>   0.1500 
 43 H        4.0290    -6.2890     0.2510 H     1 <1>   0.0800 
 44 H        3.1300    -6.6810    -1.1970 H     1 <1>   0.0800 
 45 H        2.5350    -7.1870     0.3640 H     1 <1>   0.0800 
 46 H        7.0730     1.4470     0.4310 H     1 <1>   0.0800 
 47 H        7.2130    -0.1860    -0.1880 H     1 <1>   0.0800 
 48 H        6.8150     0.0780     1.4950 H     1 <1>   0.0800 
 49 H       -3.5550    -2.3360    -1.7980 H     1 <1>   0.0800 
 50 H       -4.0170    -2.9290    -0.2180 H     1 <1>   0.0800 
 51 H       -3.5880    -4.0530    -1.4830 H     1 <1>   0.0800 
@<TRIPOS>BOND
  1   1   2  2   
  2   2   3  am  
  3   2   4  1   
  4   3   5  1   
  5   3   6  1   
  6   4   7  ar  
  7   4   8  ar  
  8   5   9  1   
  9   5  10  1   
 10   5  26  1   
 11   6  11  1   
 12   6  27  1   
 13   6  28  1   
 14   7  12  ar  
 15   7  13  ar  
 16   8  14  ar  
 17   8  29  1   
 18   9  15  1   
 19   9  30  1   
 20   9  31  1   
 21  10  16  1   
 22  10  32  1   
 23  10  33  1   
 24  11  17  1   
 25  11  18  1   
 26  11  34  1   
 27  12  19  ar  
 28  12  20  ar  
 29  13  21  ar  
 30  13  35  1   
 31  14  19  ar  
 32  14  22  1   
 33  15  17  1   
 34  16  18  1   
 35  16  23  1   
 36  16  36  1   
 37  17  37  1   
 38  17  38  1   
 39  18  39  1   
 40  18  40  1   
 41  20  24  ar  
 42  20  41  1   
 43  21  24  ar  
 44  21  42  1   
 45  22  43  1   
 46  22  44  1   
 47  22  45  1   
 48  23  46  1   
 49  23  47  1   
 50  23  48  1   
 51  24  25  1   
 52  25  49  1   
 53  25  50  1   
 54  25  51  1   
@<TRIPOS>SUBSTRUCTURE
  1 ****   3 GROUP 4 **** **** 0

# MOE 2024.06 (io_trps.svl 2023.06)
