@<TRIPOS>MOLECULE
NONAME
36 37 1 0 0 
SMALL
USER_CHARGES


@<TRIPOS>ATOM
  1 O        1.2550    -0.1820     2.4390 O.2   1 <1>  -0.5700 
  2 C        1.4290    -0.6990     1.3490 C.2   1 <1>   0.5440 
  3 N        1.7850     0.0970     0.2900 N.am  1 <1>  -0.4930 
  4 C        1.2740    -2.1380     1.2100 C.ar  1 <1>   0.0860 
  5 C        2.0210     1.4940     0.2150 C.2   1 <1>   0.0630 
  6 C        1.1870    -2.8210    -0.0210 C.ar  1 <1>   0.3920 
  7 C        1.2020    -2.9280     2.3560 C.ar  1 <1>  -0.1500 
  8 C        2.3030     2.2260    -0.9410 C.2   1 <1>   0.1080 
  9 C        2.0320     2.4130     1.2010 C.2   1 <1>  -0.3020 
 10 O        1.2410    -2.1060    -1.1700 O.3   1 <1>  -0.3620 
 11 N        1.0520    -4.1370    -0.1640 N.ar  1 <1>  -0.6200 
 12 C        1.0590    -4.2880     2.2200 C.ar  1 <1>  -0.1500 
 13 N        2.4750     3.4880    -0.6970 N.2   1 <1>  -0.7070 
 14 C        2.4050     1.6510    -2.3350 C.3   1 <1>  -0.0590 
 15 N        2.3060     3.6040     0.6310 N.pl3 1 <1>   0.3140 
 16 C        1.1180    -2.7100    -2.4470 C.3   1 <1>   0.0400 
 17 C        0.9910    -4.8430     0.9560 C.ar  1 <1>   0.3930 
 18 C        2.4190     4.8920     1.3210 C.3   1 <1>   0.0160 
 19 O        0.8530    -6.1790     0.8800 O.3   1 <1>  -0.3630 
 20 C        0.7690    -6.8430    -0.3660 C.3   1 <1>   0.0400 
 21 H        1.8370    -0.3920    -0.6050 H     1 <1>   0.3700 
 22 H        1.2570    -2.4810     3.3350 H     1 <1>   0.1500 
 23 H        1.8620     2.2790     2.2520 H     1 <1>   0.1500 
 24 H        1.0000    -4.9300     3.0800 H     1 <1>   0.1500 
 25 H        3.2150     0.9470    -2.3800 H     1 <1>   0.0800 
 26 H        2.5910     2.4410    -3.0410 H     1 <1>   0.0800 
 27 H        1.4850     1.1620    -2.5960 H     1 <1>   0.0800 
 28 H        1.1780    -1.9410    -3.1950 H     1 <1>   0.0800 
 29 H        0.1660    -3.2090    -2.5050 H     1 <1>   0.0800 
 30 H        1.9190    -3.4170    -2.5770 H     1 <1>   0.0800 
 31 H        3.3440     4.9180     1.8650 H     1 <1>   0.0800 
 32 H        1.5920     5.0070     1.9950 H     1 <1>   0.0800 
 33 H        2.4060     5.6820     0.5930 H     1 <1>   0.0800 
 34 H        0.6630    -7.8970    -0.1810 H     1 <1>   0.0800 
 35 H        1.6700    -6.6540    -0.9220 H     1 <1>   0.0800 
 36 H       -0.0880    -6.4730    -0.9000 H     1 <1>   0.0800 
@<TRIPOS>BOND
  1   1   2  2   
  2   2   3  am  
  3   2   4  1   
  4   3   5  1   
  5   3  21  1   
  6   4   6  ar  
  7   4   7  ar  
  8   5   8  1   
  9   5   9  2   
 10   6  10  1   
 11   6  11  ar  
 12   7  12  ar  
 13   7  22  1   
 14   8  13  2   
 15   8  14  1   
 16   9  15  1   
 17   9  23  1   
 18  10  16  1   
 19  11  17  ar  
 20  12  17  ar  
 21  12  24  1   
 22  13  15  1   
 23  14  25  1   
 24  14  26  1   
 25  14  27  1   
 26  15  18  1   
 27  16  28  1   
 28  16  29  1   
 29  16  30  1   
 30  17  19  1   
 31  18  31  1   
 32  18  32  1   
 33  18  33  1   
 34  19  20  1   
 35  20  34  1   
 36  20  35  1   
 37  20  36  1   
@<TRIPOS>SUBSTRUCTURE
  1 ****   2 GROUP 4 **** **** 0

# MOE 2024.06 (io_trps.svl 2023.06)
