@<TRIPOS>MOLECULE
NONAME
48 50 1 0 0 
SMALL
USER_CHARGES


@<TRIPOS>ATOM
  1 CL      -0.4160    -1.0640    -2.5080 Cl    1 <1>  -0.1770 
  2 C       -0.4130    -2.3360    -1.3080 C.ar  1 <1>   0.1770 
  3 C        0.6660    -2.4770    -0.4450 C.ar  1 <1>  -0.1440 
  4 C       -1.5040    -3.1800    -1.2500 C.ar  1 <1>  -0.1500 
  5 C        0.6240    -3.4980     0.4910 C.ar  1 <1>  -0.1500 
  6 C        1.8650    -1.5450    -0.5170 C.3   1 <1>  -0.0960 
  7 C       -1.5460    -4.2040    -0.3140 C.ar  1 <1>   0.1170 
  8 C       -0.4680    -4.3470     0.5550 C.ar  1 <1>  -0.1500 
  9 N       -2.6750    -5.0340    -0.2740 N.am  1 <1>  -0.5470 
 10 C       -2.8590    -6.2970     0.2100 C.2   1 <1>   0.6900 
 11 O       -1.9310    -6.9650     0.6250 O.2   1 <1>  -0.5700 
 12 N       -4.1240    -6.8140     0.1960 N.am  1 <1>  -0.6600 
 13 C       -5.3770    -6.0520     0.0010 C.3   1 <1>   0.1400 
 14 C       -4.4090    -8.2100     0.5850 C.3   1 <1>   0.1400 
 15 C       -6.4820    -6.9300     0.6080 C.3   1 <1>  -0.0800 
 16 C       -5.9300    -8.3650     0.5030 C.3   1 <1>  -0.0800 
 17 C       -7.9170    -6.7300     0.0270 C.3   1 <1>   0.2800 
 18 C       -6.3850    -9.0310    -0.8050 C.3   1 <1>  -0.1600 
 19 O       -7.8490    -6.2540    -1.2690 O.3   1 <1>  -0.6800 
 20 C       -8.6560    -8.0800    -0.0410 C.3   1 <1>  -0.1600 
 21 C       -8.7510    -5.7120     0.8360 C.3   1 <1>  -0.1600 
 22 C       -7.9180    -9.1460    -0.8800 C.3   1 <1>  -0.1600 
 23 C       -8.1720    -4.2880     0.9140 C.3   1 <1>  -0.2400 
 24 H       -2.3140    -3.0360    -1.9380 H     1 <1>   0.1500 
 25 H        1.4410    -3.6410     1.1780 H     1 <1>   0.1500 
 26 H        2.6010    -1.8040     0.2230 H     1 <1>   0.0800 
 27 H        1.5520    -0.5300    -0.3470 H     1 <1>   0.0800 
 28 H        2.3210    -1.6080    -1.4890 H     1 <1>   0.0800 
 29 H       -0.4790    -5.1280     1.2940 H     1 <1>   0.1500 
 30 H       -3.4880    -4.7010    -0.7790 H     1 <1>   0.3700 
 31 H       -5.3280    -5.0950     0.4900 H     1 <1>   0.0800 
 32 H       -5.5150    -5.9120    -1.0560 H     1 <1>   0.0800 
 33 H       -3.8950    -8.8940    -0.0690 H     1 <1>   0.0800 
 34 H       -4.0690    -8.3650     1.5950 H     1 <1>   0.0800 
 35 H       -6.5170    -6.7060     1.6590 H     1 <1>   0.0800 
 36 H       -6.2700    -8.9650     1.3290 H     1 <1>   0.0800 
 37 H       -6.0380    -8.4370    -1.6340 H     1 <1>   0.0800 
 38 H       -5.9440   -10.0080    -0.9010 H     1 <1>   0.0800 
 39 H       -8.7440    -6.2380    -1.6510 H     1 <1>   0.4000 
 40 H       -8.7540    -8.4530     0.9630 H     1 <1>   0.0800 
 41 H       -9.6530    -7.9470    -0.4210 H     1 <1>   0.0800 
 42 H       -9.7380    -5.6570     0.4120 H     1 <1>   0.0800 
 43 H       -8.8670    -6.0830     1.8390 H     1 <1>   0.0800 
 44 H       -8.2230   -10.1210    -0.5400 H     1 <1>   0.0800 
 45 H       -8.2140    -9.0590    -1.9120 H     1 <1>   0.0800 
 46 H       -7.9950    -3.8940    -0.0720 H     1 <1>   0.0800 
 47 H       -7.2500    -4.2780     1.4650 H     1 <1>   0.0800 
 48 H       -8.8680    -3.6400     1.4170 H     1 <1>   0.0800 
@<TRIPOS>BOND
  1   1   2  1   
  2   2   3  ar  
  3   2   4  ar  
  4   3   5  ar  
  5   3   6  1   
  6   4   7  ar  
  7   4  24  1   
  8   5   8  ar  
  9   5  25  1   
 10   6  26  1   
 11   6  27  1   
 12   6  28  1   
 13   7   8  ar  
 14   7   9  1   
 15   8  29  1   
 16   9  10  am  
 17   9  30  1   
 18  10  11  2   
 19  10  12  am  
 20  12  13  1   
 21  12  14  1   
 22  13  15  1   
 23  13  31  1   
 24  13  32  1   
 25  14  16  1   
 26  14  33  1   
 27  14  34  1   
 28  15  16  1   
 29  15  17  1   
 30  15  35  1   
 31  16  18  1   
 32  16  36  1   
 33  17  19  1   
 34  17  20  1   
 35  17  21  1   
 36  18  22  1   
 37  18  37  1   
 38  18  38  1   
 39  19  39  1   
 40  20  22  1   
 41  20  40  1   
 42  20  41  1   
 43  21  23  1   
 44  21  42  1   
 45  21  43  1   
 46  22  44  1   
 47  22  45  1   
 48  23  46  1   
 49  23  47  1   
 50  23  48  1   
@<TRIPOS>SUBSTRUCTURE
  1 ****   9 GROUP 4 **** **** 0

# MOE 2024.06 (io_trps.svl 2023.06)
