@<TRIPOS>MOLECULE
NONAME
45 47 1 0 0 
SMALL
USER_CHARGES


@<TRIPOS>ATOM
  1 CL      -0.3800     0.9720    -0.6870 Cl    1 <1>  -0.1770 
  2 C        0.2680     2.5870    -0.5340 C.ar  1 <1>   0.1770 
  3 C        1.4300     2.7850     0.1880 C.ar  1 <1>  -0.1500 
  4 C       -0.3940     3.6390    -1.1380 C.ar  1 <1>  -0.1500 
  5 C        1.9500     4.0640     0.3160 C.ar  1 <1>  -0.1440 
  6 C        0.1210     4.9180    -1.0170 C.ar  1 <1>  -0.1500 
  7 C        1.2890     5.1310    -0.2890 C.ar  1 <1>   0.0830 
  8 C        3.2260     4.2850     1.1180 C.3   1 <1>  -0.0960 
  9 O        1.8090     6.3720    -0.1570 O.3   1 <1>  -0.3630 
 10 C        0.9410     7.4450     0.1790 C.3   1 <1>   0.1810 
 11 C        1.7000     8.6230     0.7910 C.2   1 <1>   0.5690 
 12 O        1.3600     8.9570     1.9040 O.2   1 <1>  -0.5700 
 13 N        2.6840     9.3090     0.1060 N.am  1 <1>  -0.6600 
 14 C        3.4790    10.3700     0.8120 C.3   1 <1>   0.1400 
 15 C        3.1280     8.9560    -1.2800 C.3   1 <1>   0.1400 
 16 C        4.9850    10.0660     0.9960 C.3   1 <1>   0.2200 
 17 C        4.5810     8.4550    -1.3930 C.3   1 <1>  -0.0190 
 18 N        5.7440    10.3460    -0.2560 N.am  1 <1>  -0.6600 
 19 C        5.3300     8.6670     1.5640 C.3   1 <1>   0.1200 
 20 C        5.5550     9.6110    -1.3900 C.2   1 <1>   0.5690 
 21 C        5.0320     7.3450    -0.4240 C.3   1 <1>   0.1200 
 22 C        6.7010    11.4880    -0.2050 C.3   1 <1>   0.0600 
 23 O        4.7210     7.5860     0.9150 O.3   1 <1>  -0.5600 
 24 O        6.1440     9.8530    -2.4170 O.2   1 <1>  -0.5700 
 25 H        1.9160     1.9400     0.6420 H     1 <1>   0.1500 
 26 H       -1.2940     3.4540    -1.6950 H     1 <1>   0.1500 
 27 H       -0.3820     5.7380    -1.4950 H     1 <1>   0.1500 
 28 H        3.4120     3.4580     1.7790 H     1 <1>   0.0800 
 29 H        3.1490     5.1790     1.7110 H     1 <1>   0.0800 
 30 H        4.0620     4.3880     0.4510 H     1 <1>   0.0800 
 31 H        0.4300     7.7640    -0.7080 H     1 <1>   0.0800 
 32 H        0.2250     7.0820     0.8950 H     1 <1>   0.0800 
 33 H        3.3720    11.2970     0.2770 H     1 <1>   0.0800 
 34 H        3.0680    10.5330     1.7920 H     1 <1>   0.0800 
 35 H        2.4870     8.2010    -1.6930 H     1 <1>   0.0800 
 36 H        3.0160     9.8270    -1.9030 H     1 <1>   0.0800 
 37 H        5.3350    10.7710     1.7290 H     1 <1>   0.0800 
 38 H        4.6610     8.0250    -2.3740 H     1 <1>   0.0800 
 39 H        4.9940     8.6250     2.5850 H     1 <1>   0.0800 
 40 H        6.3950     8.5140     1.5570 H     1 <1>   0.0800 
 41 H        6.0930     7.1810    -0.5020 H     1 <1>   0.0800 
 42 H        4.5300     6.4320    -0.6910 H     1 <1>   0.0800 
 43 H        7.4430    11.3080     0.5540 H     1 <1>   0.0800 
 44 H        6.1730    12.3970     0.0210 H     1 <1>   0.0800 
 45 H        7.2030    11.6110    -1.1490 H     1 <1>   0.0800 
@<TRIPOS>BOND
  1   1   2  1   
  2   2   3  ar  
  3   2   4  ar  
  4   3   5  ar  
  5   3  25  1   
  6   4   6  ar  
  7   4  26  1   
  8   5   7  ar  
  9   5   8  1   
 10   6   7  ar  
 11   6  27  1   
 12   7   9  1   
 13   8  28  1   
 14   8  29  1   
 15   8  30  1   
 16   9  10  1   
 17  10  11  1   
 18  10  31  1   
 19  10  32  1   
 20  11  12  2   
 21  11  13  am  
 22  13  14  1   
 23  13  15  1   
 24  14  16  1   
 25  14  33  1   
 26  14  34  1   
 27  15  17  1   
 28  15  35  1   
 29  15  36  1   
 30  16  18  1   
 31  16  19  1   
 32  16  37  1   
 33  17  20  1   
 34  17  21  1   
 35  17  38  1   
 36  18  20  am  
 37  18  22  1   
 38  19  23  1   
 39  19  39  1   
 40  19  40  1   
 41  20  24  2   
 42  21  23  1   
 43  21  41  1   
 44  21  42  1   
 45  22  43  1   
 46  22  44  1   
 47  22  45  1   
@<TRIPOS>SUBSTRUCTURE
  1 ****   9 GROUP 4 **** **** 0

# MOE 2024.06 (io_trps.svl 2023.06)
