@<TRIPOS>MOLECULE
NONAME
57 60 1 0 0 
SMALL
USER_CHARGES


@<TRIPOS>ATOM
  1 O       -0.2320    -3.1690     2.9320 O.2   1 <1>  -0.5700 
  2 C       -0.7200    -2.8070     1.8900 C.2   1 <1>   0.5690 
  3 N       -0.2350    -3.0320     0.6300 N.am  1 <1>  -0.4770 
  4 C       -1.9990    -2.0140     1.8540 C.3   1 <1>  -0.0990 
  5 C        0.9040    -3.7650     0.2520 C.ar  1 <1>   0.1170 
  6 C       -1.1090    -2.4010    -0.3810 C.3   1 <1>   0.1400 
  7 C       -2.3920    -2.0330     0.3730 C.3   1 <1>  -0.1600 
  8 C        1.6490    -3.4140    -0.8710 C.ar  1 <1>  -0.1500 
  9 C        1.3290    -4.8720     0.9810 C.ar  1 <1>  -0.1500 
 10 C        2.7590    -4.1440    -1.2510 C.ar  1 <1>  -0.1500 
 11 C        2.4410    -5.5980     0.6020 C.ar  1 <1>  -0.1500 
 12 C        3.1820    -5.2620    -0.5320 C.ar  1 <1>   0.0860 
 13 C        4.3480    -6.0220    -0.9460 C.2   1 <1>   0.5440 
 14 O        5.2910    -5.4430    -1.4520 O.2   1 <1>  -0.5700 
 15 N        4.4190    -7.3970    -0.8020 N.am  1 <1>  -0.6600 
 16 C        5.7050    -8.1860    -0.7650 C.3   1 <1>   0.2200 
 17 C        3.2280    -8.2300    -1.1470 C.3   1 <1>   0.1400 
 18 C        5.6160    -9.3380     0.2790 C.3   1 <1>   0.0000 
 19 C        6.9910    -7.3390    -0.5650 C.3   1 <1>   0.3430 
 20 C        3.0880    -9.3990    -0.1680 C.3   1 <1>  -0.1600 
 21 C        6.8950   -10.2270     0.1890 C.3   1 <1>  -0.1600 
 22 C        4.3880   -10.2160    -0.0720 C.3   1 <1>  -0.1600 
 23 C        5.4080    -8.7990     1.7300 C.3   1 <1>   0.1200 
 24 N        8.1350    -8.1040     0.0360 N.4   1 <1>  -0.9590 
 25 C        8.1440    -9.5270    -0.3700 C.3   1 <1>   0.3430 
 26 O        6.5650    -8.2630     2.2940 O.3   1 <1>  -0.6800 
 27 C        9.4360    -7.4090    -0.1660 C.3   1 <1>   0.2630 
 28 H       -2.7480    -2.4680     2.4760 H     1 <1>   0.0800 
 29 H       -1.7960    -1.0140     2.1910 H     1 <1>   0.0800 
 30 H       -0.6300    -1.5150    -0.7600 H     1 <1>   0.0800 
 31 H       -1.3110    -3.0840    -1.1890 H     1 <1>   0.0800 
 32 H       -2.7920    -1.0890     0.0440 H     1 <1>   0.0800 
 33 H       -3.1280    -2.8000     0.2030 H     1 <1>   0.0800 
 34 H        1.3690    -2.5560    -1.4520 H     1 <1>   0.1500 
 35 H        0.7800    -5.1670     1.8580 H     1 <1>   0.1500 
 36 H        3.3190    -3.8460    -2.1210 H     1 <1>   0.1500 
 37 H        2.7420    -6.4400     1.1980 H     1 <1>   0.1500 
 38 H        5.8040    -8.6410    -1.7350 H     1 <1>   0.0800 
 39 H        2.3260    -7.6420    -1.1400 H     1 <1>   0.0800 
 40 H        3.3540    -8.6140    -2.1460 H     1 <1>   0.0800 
 41 H        6.7550    -6.5140     0.0860 H     1 <1>   0.0800 
 42 H        7.2780    -6.9320    -1.5210 H     1 <1>   0.0800 
 43 H        2.7980    -9.0230     0.7970 H     1 <1>   0.0800 
 44 H        2.2920   -10.0400    -0.5070 H     1 <1>   0.0800 
 45 H        6.7170   -11.0800    -0.4430 H     1 <1>   0.0800 
 46 H        7.1270   -10.6280     1.1600 H     1 <1>   0.0800 
 47 H        4.5450   -10.6940    -1.0240 H     1 <1>   0.0800 
 48 H        4.2650   -10.9970     0.6600 H     1 <1>   0.0800 
 49 H        5.0900    -9.6030     2.3740 H     1 <1>   0.0800 
 50 H        4.6510    -8.0340     1.7510 H     1 <1>   0.0800 
 51 H        7.9030    -8.1200     1.0540 H     1 <1>   0.4500 
 52 H        8.1480    -9.5900    -1.4470 H     1 <1>   0.0800 
 53 H        9.0290   -10.0190     0.0020 H     1 <1>   0.0800 
 54 H        6.3760    -7.9680     3.2130 H     1 <1>   0.4000 
 55 H        9.6800    -7.3700    -1.2150 H     1 <1>   0.0800 
 56 H       10.2230    -7.9280     0.3560 H     1 <1>   0.0800 
 57 H        9.3800    -6.4010     0.2120 H     1 <1>   0.0800 
@<TRIPOS>BOND
  1   1   2  2   
  2   2   3  am  
  3   2   4  1   
  4   3   5  1   
  5   3   6  1   
  6   4   7  1   
  7   4  28  1   
  8   4  29  1   
  9   5   8  ar  
 10   5   9  ar  
 11   6   7  1   
 12   6  30  1   
 13   6  31  1   
 14   7  32  1   
 15   7  33  1   
 16   8  10  ar  
 17   8  34  1   
 18   9  11  ar  
 19   9  35  1   
 20  10  12  ar  
 21  10  36  1   
 22  11  12  ar  
 23  11  37  1   
 24  12  13  1   
 25  13  14  2   
 26  13  15  am  
 27  15  16  1   
 28  15  17  1   
 29  16  18  1   
 30  16  19  1   
 31  16  38  1   
 32  17  20  1   
 33  17  39  1   
 34  17  40  1   
 35  18  21  1   
 36  18  22  1   
 37  18  23  1   
 38  19  24  1   
 39  19  41  1   
 40  19  42  1   
 41  20  22  1   
 42  20  43  1   
 43  20  44  1   
 44  21  25  1   
 45  21  45  1   
 46  21  46  1   
 47  22  47  1   
 48  22  48  1   
 49  23  26  1   
 50  23  49  1   
 51  23  50  1   
 52  24  25  1   
 53  24  27  1   
 54  24  51  1   
 55  25  52  1   
 56  25  53  1   
 57  26  54  1   
 58  27  55  1   
 59  27  56  1   
 60  27  57  1   
@<TRIPOS>SUBSTRUCTURE
  1 ****  12 GROUP 4 **** **** 0

# MOE 2024.06 (io_trps.svl 2023.06)
