@<TRIPOS>MOLECULE
NONAME
40 41 1 0 0 
SMALL
USER_CHARGES


@<TRIPOS>ATOM
  1 S        1.0830    -0.0870    -0.3250 S.o2  1 <1>   1.3330 
  2 O        1.2640    -0.1740    -1.7560 O.2   1 <1>  -0.6500 
  3 O        2.2300     0.1110     0.5330 O.2   1 <1>  -0.6500 
  4 N        0.2650    -1.4820     0.1900 N.am  1 <1>  -0.8490 
  5 C       -0.0860     1.2230     0.0270 C.3   1 <1>  -0.0550 
  6 C       -0.6660    -2.0150    -0.8100 C.3   1 <1>   0.1160 
  7 C        1.1850    -2.5360     0.6270 C.3   1 <1>   0.1160 
  8 C        0.4110     2.6140    -0.4170 C.3   1 <1>  -0.0800 
  9 C       -0.6320     3.7250    -0.2910 C.3   1 <1>   0.2000 
 10 C        1.6190     3.1350     0.3740 C.3   1 <1>   0.1400 
 11 O       -1.2740     3.6100     0.9320 O.3   1 <1>  -0.6800 
 12 C        0.1990     5.0060    -0.2760 C.3   1 <1>   0.1400 
 13 N        1.4720     4.6160     0.3870 N.am  1 <1>  -0.6600 
 14 C        2.5460     5.4580     0.5720 C.2   1 <1>   0.7160 
 15 O        3.6430     4.9740     0.7710 O.2   1 <1>  -0.5700 
 16 C        2.3980     6.8870     0.5190 C.2   1 <1>  -0.0860 
 17 C        3.1210     7.8440    -0.1000 C.2   1 <1>  -0.0400 
 18 C        1.4290     7.6510     1.1440 C.2   1 <1>   0.1390 
 19 O        2.6340     9.0450     0.1030 O.3   1 <1>  -0.0190 
 20 C        4.3640     7.7080    -0.9570 C.3   1 <1>  -0.0600 
 21 N        1.5830     8.8930     0.8780 N.2   1 <1>  -0.4100 
 22 H       -1.0060     1.0130    -0.4830 H     1 <1>   0.0800 
 23 H       -0.2950     1.2300     1.0790 H     1 <1>   0.0800 
 24 H       -1.2180    -2.8430    -0.3980 H     1 <1>   0.0800 
 25 H       -0.1290    -2.3520    -1.6820 H     1 <1>   0.0800 
 26 H       -1.3670    -1.2560    -1.1090 H     1 <1>   0.0800 
 27 H        0.6340    -3.3980     0.9630 H     1 <1>   0.0800 
 28 H        1.7880    -2.1830     1.4470 H     1 <1>   0.0800 
 29 H        1.8360    -2.8230    -0.1830 H     1 <1>   0.0800 
 30 H        0.7040     2.5560    -1.4520 H     1 <1>   0.0800 
 31 H       -1.3740     3.7110    -1.0720 H     1 <1>   0.0800 
 32 H        2.5470     2.8390    -0.0890 H     1 <1>   0.0800 
 33 H        1.6060     2.7720     1.3890 H     1 <1>   0.0800 
 34 H       -0.6260     3.7620     1.6500 H     1 <1>   0.4000 
 35 H       -0.3140     5.7940     0.2470 H     1 <1>   0.0800 
 36 H        0.4090     5.3190    -1.2840 H     1 <1>   0.0800 
 37 H        0.6510     7.2600     1.7750 H     1 <1>   0.1500 
 38 H        4.6530     6.6770    -1.0510 H     1 <1>   0.0800 
 39 H        5.1750     8.2530    -0.5070 H     1 <1>   0.0800 
 40 H        4.1780     8.1080    -1.9370 H     1 <1>   0.0800 
@<TRIPOS>BOND
  1   1   2  2   
  2   1   3  2   
  3   1   4  am  
  4   1   5  1   
  5   4   6  1   
  6   4   7  1   
  7   5   8  1   
  8   5  22  1   
  9   5  23  1   
 10   6  24  1   
 11   6  25  1   
 12   6  26  1   
 13   7  27  1   
 14   7  28  1   
 15   7  29  1   
 16   8   9  1   
 17   8  10  1   
 18   8  30  1   
 19   9  11  1   
 20   9  12  1   
 21   9  31  1   
 22  10  13  1   
 23  10  32  1   
 24  10  33  1   
 25  11  34  1   
 26  12  13  1   
 27  12  35  1   
 28  12  36  1   
 29  13  14  am  
 30  14  15  2   
 31  14  16  1   
 32  16  17  2   
 33  16  18  1   
 34  17  19  1   
 35  17  20  1   
 36  18  21  2   
 37  18  37  1   
 38  19  21  1   
 39  20  38  1   
 40  20  39  1   
 41  20  40  1   
@<TRIPOS>SUBSTRUCTURE
  1 ****  10 GROUP 4 **** **** 0

# MOE 2024.06 (io_trps.svl 2023.06)
