@<TRIPOS>MOLECULE
NONAME
47 49 1 0 0 
SMALL
USER_CHARGES


@<TRIPOS>ATOM
  1 S        0.5970     0.3070     0.7410 S.o2  1 <1>   1.3330 
  2 O        0.3360     1.6030     1.3290 O.2   1 <1>  -0.6500 
  3 O        0.7450    -0.8470     1.5990 O.2   1 <1>  -0.6500 
  4 N       -0.6310    -0.0310    -0.3800 N.am  1 <1>  -0.8490 
  5 C        2.0520     0.4810    -0.2900 C.3   1 <1>  -0.0550 
  6 C       -0.6900    -1.4430    -0.7700 C.3   1 <1>   0.1160 
  7 C       -1.9470     0.4130     0.0890 C.3   1 <1>   0.1160 
  8 C        3.3140     0.8490     0.5110 C.3   1 <1>  -0.0800 
  9 C        4.4330     1.3160    -0.4160 C.3   1 <1>   0.2200 
 10 C        3.9240    -0.3500     1.2430 C.3   1 <1>   0.1200 
 11 N        4.7830     2.7300    -0.1270 N.am  1 <1>  -0.7300 
 12 C        5.5860     0.3590    -0.1240 C.3   1 <1>   0.1200 
 13 O        4.9980    -0.7540     0.4630 O.3   1 <1>  -0.5600 
 14 C        4.2380     3.8080    -0.7620 C.2   1 <1>   0.6160 
 15 O        3.4870     3.5910    -1.6900 O.2   1 <1>  -0.5700 
 16 C        4.4900     5.1760    -0.4040 C.2   1 <1>   0.0290 
 17 C        5.2910     5.5270     0.7240 C.2   1 <1>   0.9370 
 18 C        3.9680     6.1980    -1.1320 C.2   1 <1>   0.1910 
 19 O        5.8050     4.6960     1.4460 O.2   1 <1>  -0.5700 
 20 N        5.5190     6.8830     1.0410 N.pl3 1 <1>  -0.5760 
 21 N        4.2170     7.5010    -0.7900 N.pl3 1 <1>  -0.6450 
 22 C        4.9770     7.8610     0.2720 C.cat 1 <1>   0.7390 
 23 C        6.2900     7.2420     2.1260 C.2   1 <1>   0.1910 
 24 C        5.2030     9.2090     0.5780 C.2   1 <1>  -0.1800 
 25 C        6.5200     8.5530     2.4400 C.2   1 <1>  -0.1500 
 26 C        5.9690     9.5680     1.6550 C.2   1 <1>  -0.1500 
 27 H        2.2260    -0.4250    -0.8370 H     1 <1>   0.0800 
 28 H        1.8580     1.2610    -1.0020 H     1 <1>   0.0800 
 29 H       -1.4240    -1.5820    -1.5450 H     1 <1>   0.0800 
 30 H       -0.9530    -2.0570     0.0770 H     1 <1>   0.0800 
 31 H        0.2650    -1.7660    -1.1460 H     1 <1>   0.0800 
 32 H       -2.6990     0.2000    -0.6520 H     1 <1>   0.0800 
 33 H       -1.9370     1.4760     0.2610 H     1 <1>   0.0800 
 34 H       -2.2030    -0.0850     1.0100 H     1 <1>   0.0800 
 35 H        3.0610     1.6090     1.2310 H     1 <1>   0.0800 
 36 H        4.1520     1.2090    -1.4510 H     1 <1>   0.0800 
 37 H        3.2470    -1.1790     1.3590 H     1 <1>   0.0800 
 38 H        4.3060    -0.0600     2.2080 H     1 <1>   0.0800 
 39 H        5.3550     2.8720     0.7160 H     1 <1>   0.3700 
 40 H        6.2830     0.7750     0.5830 H     1 <1>   0.0800 
 41 H        6.0950     0.0490    -1.0190 H     1 <1>   0.0800 
 42 H        3.3450     6.0160    -1.9990 H     1 <1>   0.1500 
 43 H        3.8140     8.2570    -1.3570 H     1 <1>   0.4500 
 44 H        6.7240     6.4670     2.7440 H     1 <1>   0.1500 
 45 H        4.7660     9.9690    -0.0430 H     1 <1>   0.1500 
 46 H        7.1260     8.8180     3.2910 H     1 <1>   0.1500 
 47 H        6.1540    10.6020     1.9060 H     1 <1>   0.1500 
@<TRIPOS>BOND
  1   1   2  2   
  2   1   3  2   
  3   1   4  am  
  4   1   5  1   
  5   4   6  1   
  6   4   7  1   
  7   5   8  1   
  8   5  27  1   
  9   5  28  1   
 10   6  29  1   
 11   6  30  1   
 12   6  31  1   
 13   7  32  1   
 14   7  33  1   
 15   7  34  1   
 16   8   9  1   
 17   8  10  1   
 18   8  35  1   
 19   9  11  1   
 20   9  12  1   
 21   9  36  1   
 22  10  13  1   
 23  10  37  1   
 24  10  38  1   
 25  11  14  am  
 26  11  39  1   
 27  12  13  1   
 28  12  40  1   
 29  12  41  1   
 30  14  15  2   
 31  14  16  1   
 32  16  17  1   
 33  16  18  2   
 34  17  19  2   
 35  17  20  1   
 36  18  21  1   
 37  18  42  1   
 38  20  22  ar  
 39  20  23  1   
 40  21  22  ar  
 41  21  43  1   
 42  22  24  1   
 43  23  25  2   
 44  23  44  1   
 45  24  26  2   
 46  24  45  1   
 47  25  26  1   
 48  25  46  1   
 49  26  47  1   
@<TRIPOS>SUBSTRUCTURE
  1 ****  14 GROUP 4 **** **** 0

# MOE 2024.06 (io_trps.svl 2023.06)
