@<TRIPOS>MOLECULE
NONAME
60 62 1 0 0 
SMALL
USER_CHARGES


@<TRIPOS>ATOM
  1 O        0.9150     0.3560     0.8170 O.2   1 <1>  -0.5700 
  2 C        1.8130    -0.4170     0.5400 C.2   1 <1>   0.5440 
  3 N        1.5590    -1.7750     0.5330 N.am  1 <1>  -0.6600 
  4 C        3.1210     0.1210     0.2210 C.ar  1 <1>   0.0860 
  5 C        0.2620    -2.3320     1.0120 C.3   1 <1>   0.1400 
  6 C        2.4650    -2.7850    -0.0830 C.3   1 <1>   0.1400 
  7 C        3.2880     1.0110    -0.8370 C.ar  1 <1>  -0.1500 
  8 C        4.2520    -0.2220     0.9610 C.ar  1 <1>  -0.1500 
  9 C       -0.4680    -3.0150    -0.1480 C.3   1 <1>  -0.1600 
 10 C        1.7520    -3.4760    -1.2500 C.3   1 <1>  -0.1600 
 11 C        4.5300     1.5290    -1.1510 C.ar  1 <1>  -0.1500 
 12 C        5.4980     0.2940     0.6530 C.ar  1 <1>  -0.1500 
 13 C        0.4090    -4.0820    -0.8190 C.3   1 <1>  -0.1600 
 14 C        5.6450     1.1740    -0.4080 C.ar  1 <1>  -0.1430 
 15 C        7.0010     1.7630    -0.7490 C.3   1 <1>   0.2840 
 16 N        7.0130     3.1520    -0.2640 N.am  1 <1>  -0.7300 
 17 C        7.6430     4.1870    -0.8900 C.2   1 <1>   0.5690 
 18 O        8.3310     3.9760    -1.8670 O.2   1 <1>  -0.5700 
 19 C        7.4830     5.6490    -0.3580 C.3   1 <1>   0.4300 
 20 N        8.0220     6.6240    -1.3550 N.pl3 1 <1>  -0.8690 
 21 C        6.0030     6.0070    -0.1870 C.3   1 <1>  -0.2400 
 22 C        8.2020     5.7840     0.9960 C.3   1 <1>  -0.2400 
 23 C        8.8770     7.6610    -1.0030 C.ar  1 <1>   0.1000 
 24 C        8.3910     8.8300    -0.4340 C.ar  1 <1>  -0.1500 
 25 C       10.2420     7.5460    -1.2280 C.ar  1 <1>  -0.1500 
 26 C        9.2490     9.8550    -0.0810 C.ar  1 <1>  -0.1500 
 27 C       11.1040     8.5700    -0.8770 C.ar  1 <1>  -0.1500 
 28 C       10.6130     9.7310    -0.2990 C.ar  1 <1>  -0.1430 
 29 C       11.5580    10.8540     0.0890 C.3   1 <1>  -0.0970 
 30 H       -0.3600    -1.5550     1.4240 H     1 <1>   0.0800 
 31 H        0.4570    -3.0460     1.7930 H     1 <1>   0.0800 
 32 H        2.7340    -3.5130     0.6630 H     1 <1>   0.0800 
 33 H        3.3680    -2.3270    -0.4470 H     1 <1>   0.0800 
 34 H        2.4230     1.2970    -1.4120 H     1 <1>   0.1500 
 35 H        4.1410    -0.8990     1.7900 H     1 <1>   0.1500 
 36 H       -0.7460    -2.2650    -0.8680 H     1 <1>   0.0800 
 37 H       -1.3730    -3.4670     0.2190 H     1 <1>   0.0800 
 38 H        2.3850    -4.2490    -1.6470 H     1 <1>   0.0800 
 39 H        1.5880    -2.7540    -2.0310 H     1 <1>   0.0800 
 40 H        4.6280     2.2170    -1.9750 H     1 <1>   0.1500 
 41 H        6.3500     0.0100     1.2460 H     1 <1>   0.1500 
 42 H       -0.1010    -4.4860    -1.6760 H     1 <1>   0.0800 
 43 H        0.5850    -4.8860    -0.1250 H     1 <1>   0.0800 
 44 H        7.1620     1.7380    -1.8140 H     1 <1>   0.0800 
 45 H        7.7900     1.2090    -0.2700 H     1 <1>   0.0800 
 46 H        6.3880     3.3220     0.5240 H     1 <1>   0.3700 
 47 H        8.4180     6.0420    -2.1090 H     1 <1>   0.4000 
 48 H        5.4900     5.8900    -1.1240 H     1 <1>   0.0800 
 49 H        5.9020     7.0250     0.1400 H     1 <1>   0.0800 
 50 H        5.5350     5.3710     0.5410 H     1 <1>   0.0800 
 51 H        9.2540     5.5970     0.8730 H     1 <1>   0.0800 
 52 H        7.8140     5.0700     1.6970 H     1 <1>   0.0800 
 53 H        8.0630     6.7660     1.4110 H     1 <1>   0.0800 
 54 H        7.3340     8.9290    -0.2750 H     1 <1>   0.1500 
 55 H       10.6270     6.6490    -1.6750 H     1 <1>   0.1500 
 56 H        8.8520    10.7500     0.3630 H     1 <1>   0.1500 
 57 H       12.1580     8.4590    -1.0550 H     1 <1>   0.1500 
 58 H       11.0590    11.8040     0.0250 H     1 <1>   0.0800 
 59 H       12.4080    10.8730    -0.5690 H     1 <1>   0.0800 
 60 H       11.9000    10.7070     1.0970 H     1 <1>   0.0800 
@<TRIPOS>BOND
  1   1   2  2   
  2   2   3  am  
  3   2   4  1   
  4   3   5  1   
  5   3   6  1   
  6   4   7  ar  
  7   4   8  ar  
  8   5   9  1   
  9   5  30  1   
 10   5  31  1   
 11   6  10  1   
 12   6  32  1   
 13   6  33  1   
 14   7  11  ar  
 15   7  34  1   
 16   8  12  ar  
 17   8  35  1   
 18   9  13  1   
 19   9  36  1   
 20   9  37  1   
 21  10  13  1   
 22  10  38  1   
 23  10  39  1   
 24  11  14  ar  
 25  11  40  1   
 26  12  14  ar  
 27  12  41  1   
 28  13  42  1   
 29  13  43  1   
 30  14  15  1   
 31  15  16  1   
 32  15  44  1   
 33  15  45  1   
 34  16  17  am  
 35  16  46  1   
 36  17  18  2   
 37  17  19  1   
 38  19  20  1   
 39  19  21  1   
 40  19  22  1   
 41  20  23  1   
 42  20  47  1   
 43  21  48  1   
 44  21  49  1   
 45  21  50  1   
 46  22  51  1   
 47  22  52  1   
 48  22  53  1   
 49  23  24  ar  
 50  23  25  ar  
 51  24  26  ar  
 52  24  54  1   
 53  25  27  ar  
 54  25  55  1   
 55  26  28  ar  
 56  26  56  1   
 57  27  28  ar  
 58  27  57  1   
 59  28  29  1   
 60  29  58  1   
 61  29  59  1   
 62  29  60  1   
@<TRIPOS>SUBSTRUCTURE
  1 ****  16 GROUP 4 **** **** 0

# MOE 2024.06 (io_trps.svl 2023.06)
