@<TRIPOS>MOLECULE
NONAME
56 59 1 0 0 
SMALL
USER_CHARGES


@<TRIPOS>ATOM
  1 O        1.1120    -0.8980     0.3560 O.3   1 <1>  -0.5600 
  2 C        0.5990    -2.0630    -0.2560 C.3   1 <1>   0.4180 
  3 C        0.1910     0.0960     0.7260 C.3   1 <1>   0.1200 
  4 C       -0.7210    -2.4810     0.3780 C.2   1 <1>  -0.2880 
  5 C        1.6510    -3.1590    -0.0350 C.3   1 <1>  -0.1600 
  6 C        0.4570    -1.7980    -1.7590 C.3   1 <1>  -0.1600 
  7 C       -0.7980    -0.4390     1.7690 C.3   1 <1>  -0.0220 
  8 C       -1.3610    -1.7690     1.3080 C.2   1 <1>  -0.2760 
  9 C        2.8790    -3.0330    -0.9440 C.3   1 <1>   0.3430 
 10 C        1.7770    -1.3600    -2.4070 C.3   1 <1>   0.3430 
 11 C       -2.6540    -2.1960     1.9800 C.3   1 <1>  -0.1020 
 12 N        2.9350    -1.6630    -1.5190 N.4   1 <1>  -0.9590 
 13 C        4.2540    -1.3010    -2.0920 C.3   1 <1>   0.5240 
 14 C        5.2990    -1.4500    -1.0080 C.2   1 <1>  -0.1810 
 15 C        5.3890    -0.6870     0.1530 C.2   1 <1>   0.1080 
 16 C        6.3180    -2.3350    -0.9170 C.2   1 <1>  -0.3320 
 17 N        6.3640    -1.0670     0.9040 N.2   1 <1>  -0.7070 
 18 C        4.4880     0.4570     0.5720 C.3   1 <1>  -0.0590 
 19 N        6.9750    -2.0840     0.2530 N.pl3 1 <1>   0.5930 
 20 C        6.7290    -3.4460    -1.8760 C.3   1 <1>  -0.0600 
 21 C        8.0930    -2.7830     0.7860 C.ar  1 <1>  -0.0230 
 22 C        9.3240    -2.7670     0.1360 C.ar  1 <1>  -0.1500 
 23 C        7.9720    -3.5010     1.9720 C.ar  1 <1>  -0.1500 
 24 C       10.4010    -3.4670     0.6490 C.ar  1 <1>  -0.1500 
 25 C        9.0490    -4.2010     2.4850 C.ar  1 <1>  -0.1500 
 26 C       10.2630    -4.1870     1.8220 C.ar  1 <1>  -0.1500 
 27 H       -0.3380     0.4210    -0.1530 H     1 <1>   0.0800 
 28 H        0.7400     0.9280     1.1300 H     1 <1>   0.0800 
 29 H       -1.0930    -3.4210     0.0110 H     1 <1>   0.1500 
 30 H        1.2120    -4.1230    -0.2130 H     1 <1>   0.0800 
 31 H        1.9570    -3.1460     0.9960 H     1 <1>   0.0800 
 32 H       -0.3030    -1.0590    -1.9370 H     1 <1>   0.0800 
 33 H        0.1210    -2.7000    -2.2380 H     1 <1>   0.0800 
 34 H       -1.5900     0.2790     1.8890 H     1 <1>   0.0800 
 35 H       -0.3070    -0.5570     2.7190 H     1 <1>   0.0800 
 36 H        2.8210    -3.7570    -1.7410 H     1 <1>   0.0800 
 37 H        3.7670    -3.2370    -0.3650 H     1 <1>   0.0800 
 38 H        1.7410    -0.2970    -2.5860 H     1 <1>   0.0800 
 39 H        1.8930    -1.8570    -3.3570 H     1 <1>   0.0800 
 40 H       -3.4310    -1.4780     1.7860 H     1 <1>   0.0800 
 41 H       -2.5110    -2.2740     3.0430 H     1 <1>   0.0800 
 42 H       -2.9770    -3.1530     1.6100 H     1 <1>   0.0800 
 43 H        2.7950    -1.0600    -0.6860 H     1 <1>   0.4500 
 44 H        4.2440    -0.2810    -2.4400 H     1 <1>   0.0800 
 45 H        4.4900    -1.9470    -2.9210 H     1 <1>   0.0800 
 46 H        4.0980     0.9780    -0.2820 H     1 <1>   0.0800 
 47 H        5.0520     1.1540     1.1660 H     1 <1>   0.0800 
 48 H        3.6780     0.0830     1.1710 H     1 <1>   0.0800 
 49 H        6.0310    -3.5420    -2.6870 H     1 <1>   0.0800 
 50 H        6.7770    -4.3870    -1.3550 H     1 <1>   0.0800 
 51 H        7.7010    -3.2390    -2.2900 H     1 <1>   0.0800 
 52 H        9.4420    -2.2000    -0.7710 H     1 <1>   0.1500 
 53 H        7.0320    -3.5040     2.4950 H     1 <1>   0.1500 
 54 H       11.3490    -3.4500     0.1380 H     1 <1>   0.1500 
 55 H        8.9430    -4.7540     3.4030 H     1 <1>   0.1500 
 56 H       11.1020    -4.7320     2.2220 H     1 <1>   0.1500 
@<TRIPOS>BOND
  1   1   2  1   
  2   1   3  1   
  3   2   4  1   
  4   2   5  1   
  5   2   6  1   
  6   3   7  1   
  7   3  27  1   
  8   3  28  1   
  9   4   8  2   
 10   4  29  1   
 11   5   9  1   
 12   5  30  1   
 13   5  31  1   
 14   6  10  1   
 15   6  32  1   
 16   6  33  1   
 17   7   8  1   
 18   7  34  1   
 19   7  35  1   
 20   8  11  1   
 21   9  12  1   
 22   9  36  1   
 23   9  37  1   
 24  10  12  1   
 25  10  38  1   
 26  10  39  1   
 27  11  40  1   
 28  11  41  1   
 29  11  42  1   
 30  12  13  1   
 31  12  43  1   
 32  13  14  1   
 33  13  44  1   
 34  13  45  1   
 35  14  15  1   
 36  14  16  2   
 37  15  17  2   
 38  15  18  1   
 39  16  19  1   
 40  16  20  1   
 41  17  19  1   
 42  18  46  1   
 43  18  47  1   
 44  18  48  1   
 45  19  21  1   
 46  20  49  1   
 47  20  50  1   
 48  20  51  1   
 49  21  22  ar  
 50  21  23  ar  
 51  22  24  ar  
 52  22  52  1   
 53  23  25  ar  
 54  23  53  1   
 55  24  26  ar  
 56  24  54  1   
 57  25  26  ar  
 58  25  55  1   
 59  26  56  1   
@<TRIPOS>SUBSTRUCTURE
  1 ****  14 GROUP 4 **** **** 0

# MOE 2024.06 (io_trps.svl 2023.06)
