@<TRIPOS>MOLECULE
NONAME
57 60 1 0 0 
SMALL
USER_CHARGES


@<TRIPOS>ATOM
  1 O       -2.1160     0.4170    -1.7080 O.2   1 <1>  -0.5700 
  2 C       -2.0850     0.3540    -0.5040 C.2   1 <1>   0.5690 
  3 N       -2.0760    -0.8400     0.1440 N.am  1 <1>  -0.7300 
  4 C       -2.0190     1.6710     0.2880 C.3   1 <1>   0.4040 
  5 C       -2.0420    -2.1730    -0.5130 C.3   1 <1>   0.2200 
  6 N       -0.6450     2.3090     0.3340 N.4   1 <1>  -0.9590 
  7 C       -3.3750    -2.9010    -0.3620 C.3   1 <1>  -0.0800 
  8 C       -1.1530    -3.0760     0.3290 C.3   1 <1>   0.1200 
  9 C       -0.6290     3.5070     1.2210 C.3   1 <1>   0.3430 
 10 C       -0.1640     2.6370    -1.0460 C.3   1 <1>   0.3430 
 11 C       -3.2740    -3.4990     1.0510 C.3   1 <1>   0.1200 
 12 C       -4.6310    -2.0400    -0.6140 C.3   1 <1>  -0.0170 
 13 O       -1.9380    -3.3650     1.4430 O.3   1 <1>  -0.5600 
 14 C        0.7980     4.0450     1.3310 C.3   1 <1>  -0.1600 
 15 C        1.2690     3.1650    -0.9790 C.3   1 <1>  -0.1600 
 16 C       -5.9800    -2.7680    -0.5670 C.ar  1 <1>  -0.1440 
 17 C        1.3850     4.3800    -0.0480 C.3   1 <1>  -0.0800 
 18 C       -7.1820    -2.0170    -0.6120 C.ar  1 <1>   0.0000 
 19 C       -6.1050    -4.1270    -0.4890 C.ar  1 <1>  -0.1500 
 20 C        2.8460     4.8240     0.0800 C.3   1 <1>  -0.2400 
 21 C       -8.4100    -2.7190    -0.5300 C.ar  1 <1>   0.3100 
 22 C       -7.2400    -0.6080    -0.7430 C.ar  1 <1>  -0.1500 
 23 C       -7.3700    -4.7240    -0.4260 C.ar  1 <1>   0.1600 
 24 N       -8.4860    -4.0690    -0.4360 N.ar  1 <1>  -0.6200 
 25 C       -9.6130    -1.9970    -0.5510 C.ar  1 <1>  -0.1500 
 26 C       -8.4310     0.0660    -0.7660 C.ar  1 <1>  -0.1500 
 27 C       -9.6340    -0.6340    -0.6650 C.ar  1 <1>  -0.1500 
 28 H       -2.0910    -0.9320     1.1660 H     1 <1>   0.3700 
 29 H       -2.3570     1.4730     1.2900 H     1 <1>   0.0800 
 30 H       -2.7150     2.3570    -0.1640 H     1 <1>   0.0800 
 31 H       -1.7130    -2.1010    -1.5370 H     1 <1>   0.0800 
 32 H        0.0190     1.6230     0.7170 H     1 <1>   0.4500 
 33 H       -3.3730    -3.7110    -1.0700 H     1 <1>   0.0800 
 34 H       -0.2380    -2.6030     0.6390 H     1 <1>   0.0800 
 35 H       -0.9380    -3.9990    -0.1810 H     1 <1>   0.0800 
 36 H       -1.2690     4.2730     0.8130 H     1 <1>   0.0800 
 37 H       -0.9890     3.2480     2.2040 H     1 <1>   0.0800 
 38 H       -0.1880     1.7580    -1.6720 H     1 <1>   0.0800 
 39 H       -0.8040     3.3830    -1.4910 H     1 <1>   0.0800 
 40 H       -3.5320    -4.5440     1.0650 H     1 <1>   0.0800 
 41 H       -3.8830    -2.9660     1.7610 H     1 <1>   0.0800 
 42 H       -4.5360    -1.5750    -1.5800 H     1 <1>   0.0800 
 43 H       -4.6590    -1.2600     0.1250 H     1 <1>   0.0800 
 44 H        0.7870     4.9340     1.9380 H     1 <1>   0.0800 
 45 H        1.4150     3.3210     1.8340 H     1 <1>   0.0800 
 46 H        1.9220     2.3760    -0.6500 H     1 <1>   0.0800 
 47 H        1.5800     3.4450    -1.9710 H     1 <1>   0.0800 
 48 H        0.8230     5.1960    -0.4740 H     1 <1>   0.0800 
 49 H       -5.2640    -4.7920    -0.4730 H     1 <1>   0.1500 
 50 H        3.4530     4.0420     0.5020 H     1 <1>   0.0800 
 51 H        2.9200     5.6910     0.7130 H     1 <1>   0.0800 
 52 H        3.2460     5.0820    -0.8850 H     1 <1>   0.0800 
 53 H       -6.3310    -0.0470    -0.8340 H     1 <1>   0.1500 
 54 H       -7.4170    -5.7970    -0.3610 H     1 <1>   0.1500 
 55 H      -10.5270    -2.5580    -0.4770 H     1 <1>   0.1500 
 56 H       -8.4600     1.1380    -0.8650 H     1 <1>   0.1500 
 57 H      -10.5660    -0.0940    -0.6820 H     1 <1>   0.1500 
@<TRIPOS>BOND
  1   1   2  2   
  2   2   3  am  
  3   2   4  1   
  4   3   5  1   
  5   3  28  1   
  6   4   6  1   
  7   4  29  1   
  8   4  30  1   
  9   5   7  1   
 10   5   8  1   
 11   5  31  1   
 12   6   9  1   
 13   6  10  1   
 14   6  32  1   
 15   7  11  1   
 16   7  12  1   
 17   7  33  1   
 18   8  13  1   
 19   8  34  1   
 20   8  35  1   
 21   9  14  1   
 22   9  36  1   
 23   9  37  1   
 24  10  15  1   
 25  10  38  1   
 26  10  39  1   
 27  11  13  1   
 28  11  40  1   
 29  11  41  1   
 30  12  16  1   
 31  12  42  1   
 32  12  43  1   
 33  14  17  1   
 34  14  44  1   
 35  14  45  1   
 36  15  17  1   
 37  15  46  1   
 38  15  47  1   
 39  16  18  ar  
 40  16  19  ar  
 41  17  20  1   
 42  17  48  1   
 43  18  21  ar  
 44  18  22  ar  
 45  19  23  ar  
 46  19  49  1   
 47  20  50  1   
 48  20  51  1   
 49  20  52  1   
 50  21  24  ar  
 51  21  25  ar  
 52  22  26  ar  
 53  22  53  1   
 54  23  24  ar  
 55  23  54  1   
 56  25  27  ar  
 57  25  55  1   
 58  26  27  ar  
 59  26  56  1   
 60  27  57  1   
@<TRIPOS>SUBSTRUCTURE
  1 ****   3 GROUP 4 **** **** 0

# MOE 2024.06 (io_trps.svl 2023.06)
