@<TRIPOS>MOLECULE
NONAME
56 59 1 0 0 
SMALL
USER_CHARGES


@<TRIPOS>ATOM
  1 O        0.6010    -0.3480    -1.1600 O.3   1 <1>  -0.6800 
  2 C        1.9870    -0.4050    -1.1920 C.3   1 <1>   0.2000 
  3 C        2.4950    -1.6080    -0.4060 C.3   1 <1>  -0.0800 
  4 C        2.6040     0.7960    -0.4820 C.3   1 <1>   0.2090 
  5 C        3.9110    -1.1940     0.0030 C.3   1 <1>   0.2090 
  6 C        2.4480    -2.9260    -1.1960 C.3   1 <1>  -0.0170 
  7 N        3.8950     0.2990     0.0740 N.pl3 1 <1>  -0.8380 
  8 C        3.0500    -4.0680    -0.3970 C.ar  1 <1>   0.1660 
  9 C        5.0280     1.0470     0.1060 C.ar  1 <1>   0.4100 
 10 N        4.3070    -4.3320    -0.5860 N.ar  1 <1>  -0.6200 
 11 C        2.2330    -4.7680     0.5050 C.ar  1 <1>  -0.1500 
 12 N        6.0770     0.5300    -0.5000 N.ar  1 <1>  -0.6200 
 13 C        5.0790     2.3170     0.7430 C.ar  1 <1>  -0.1440 
 14 C        4.8520    -5.3500     0.1300 C.ar  1 <1>   0.3100 
 15 C        2.7550    -5.7890     1.2390 C.ar  1 <1>  -0.1500 
 16 C        7.1860     1.2400    -0.5670 C.ar  1 <1>   0.7710 
 17 C        6.2320     3.0370     0.6340 C.ar  1 <1>   0.2180 
 18 C        3.8770     2.8140     1.5550 C.3   1 <1>  -0.0970 
 19 C        4.1110    -6.1100     1.0620 C.ar  1 <1>   0.0000 
 20 C        6.2070    -5.6650    -0.0600 C.ar  1 <1>  -0.1500 
 21 N        7.2640     2.4650    -0.0290 N.ar  1 <1>  -0.1790 
 22 N        8.2780     0.7230    -1.1980 N.pl3 1 <1>  -0.8380 
 23 C        6.4800     4.4300     1.2020 C.3   1 <1>  -0.0970 
 24 C        4.7550    -7.1460     1.7680 C.ar  1 <1>  -0.1500 
 25 C        6.8140    -6.6770     0.6350 C.ar  1 <1>  -0.1500 
 26 C        8.2850    -0.7030    -1.6710 C.3   1 <1>   0.1290 
 27 C        9.5380     1.4450    -1.5660 C.3   1 <1>   0.1290 
 28 C        6.0780    -7.4250     1.5600 C.ar  1 <1>  -0.1500 
 29 H        0.2140    -1.0880    -1.6650 H     1 <1>   0.4000 
 30 H        2.3160    -0.4300    -2.2170 H     1 <1>   0.0800 
 31 H        1.9200    -1.7060     0.4990 H     1 <1>   0.0800 
 32 H        1.9640     1.1060     0.3260 H     1 <1>   0.0800 
 33 H        2.7650     1.6090    -1.1680 H     1 <1>   0.0800 
 34 H        4.6190    -1.5190    -0.7410 H     1 <1>   0.0800 
 35 H        4.1830    -1.6200     0.9540 H     1 <1>   0.0800 
 36 H        2.9940    -2.8190    -2.1180 H     1 <1>   0.0800 
 37 H        1.4310    -3.1660    -1.4470 H     1 <1>   0.0800 
 38 H        1.2010    -4.4880     0.6080 H     1 <1>   0.1500 
 39 H        2.1620    -6.3480     1.9410 H     1 <1>   0.1500 
 40 H        4.1640     3.5030     2.3270 H     1 <1>   0.0800 
 41 H        3.3960     1.9870     2.0490 H     1 <1>   0.0800 
 42 H        3.1620     3.2920     0.9100 H     1 <1>   0.0800 
 43 H        6.7550    -5.0810    -0.7750 H     1 <1>   0.1500 
 44 H        8.1630     2.9140    -0.1210 H     1 <1>   0.4570 
 45 H        5.5590     4.9480     1.3960 H     1 <1>   0.0800 
 46 H        7.0380     5.0290     0.5040 H     1 <1>   0.0800 
 47 H        7.0330     4.3610     2.1220 H     1 <1>   0.0800 
 48 H        4.1830    -7.7170     2.4780 H     1 <1>   0.1500 
 49 H        7.8540    -6.9090     0.4800 H     1 <1>   0.1500 
 50 H        9.2720    -1.1230    -1.5790 H     1 <1>   0.0800 
 51 H        7.9820    -0.7460    -2.7040 H     1 <1>   0.0800 
 52 H        7.6140    -1.3140    -1.0910 H     1 <1>   0.0800 
 53 H        9.8350     1.1700    -2.5650 H     1 <1>   0.0800 
 54 H       10.3290     1.1670    -0.8880 H     1 <1>   0.0800 
 55 H        9.4100     2.5120    -1.5470 H     1 <1>   0.0800 
 56 H        6.5670    -8.2180     2.1010 H     1 <1>   0.1500 
@<TRIPOS>BOND
  1   1   2  1   
  2   1  29  1   
  3   2   3  1   
  4   2   4  1   
  5   2  30  1   
  6   3   5  1   
  7   3   6  1   
  8   3  31  1   
  9   4   7  1   
 10   4  32  1   
 11   4  33  1   
 12   5   7  1   
 13   5  34  1   
 14   5  35  1   
 15   6   8  1   
 16   6  36  1   
 17   6  37  1   
 18   7   9  1   
 19   8  10  ar  
 20   8  11  ar  
 21   9  12  ar  
 22   9  13  ar  
 23  10  14  ar  
 24  11  15  ar  
 25  11  38  1   
 26  12  16  ar  
 27  13  17  ar  
 28  13  18  1   
 29  14  19  ar  
 30  14  20  ar  
 31  15  19  ar  
 32  15  39  1   
 33  16  21  ar  
 34  16  22  1   
 35  17  21  ar  
 36  17  23  1   
 37  18  40  1   
 38  18  41  1   
 39  18  42  1   
 40  19  24  ar  
 41  20  25  ar  
 42  20  43  1   
 43  21  44  1   
 44  22  26  1   
 45  22  27  1   
 46  23  45  1   
 47  23  46  1   
 48  23  47  1   
 49  24  28  ar  
 50  24  48  1   
 51  25  28  ar  
 52  25  49  1   
 53  26  50  1   
 54  26  51  1   
 55  26  52  1   
 56  27  53  1   
 57  27  54  1   
 58  27  55  1   
 59  28  56  1   
@<TRIPOS>SUBSTRUCTURE
  1 ****   5 GROUP 4 **** **** 0

# MOE 2024.06 (io_trps.svl 2023.06)
