@<TRIPOS>MOLECULE
NONAME
40 41 1 0 0 
SMALL
USER_CHARGES


@<TRIPOS>ATOM
  1 O        0.1990    -0.9150     0.2140 O.2   1 <1>  -0.5700 
  2 C       -0.6620    -1.7760     0.2900 C.2   1 <1>   0.6900 
  3 N       -1.9230    -1.6300     0.7290 N.am  1 <1>  -0.3680 
  4 N       -0.5400    -3.0530    -0.0550 N.am  1 <1>  -0.4900 
  5 N       -2.6130    -2.8100     0.6540 N.2   1 <1>  -0.5120 
  6 C       -1.7610    -3.6730     0.1750 C.2   1 <1>   0.5100 
  7 C       -1.9530    -5.0900    -0.1370 C.2   1 <1>   0.6300 
  8 O       -1.0880    -5.6610    -0.7880 O.2   1 <1>  -0.5700 
  9 N       -3.0540    -5.8480     0.2450 N.am  1 <1>  -0.6600 
 10 C       -3.4900    -7.0330    -0.5590 C.3   1 <1>   0.1400 
 11 C       -3.9350    -5.5290     1.4010 C.3   1 <1>   0.1400 
 12 C       -4.9420    -6.8400    -1.0370 C.3   1 <1>   0.2000 
 13 C       -5.3600    -5.2870     0.8910 C.3   1 <1>  -0.1600 
 14 O       -5.3440    -7.9730    -1.7370 O.3   1 <1>  -0.6800 
 15 C       -5.9370    -6.5040     0.1150 C.3   1 <1>   0.0000 
 16 C       -6.0690    -7.7330     1.0590 C.3   1 <1>   0.1200 
 17 C       -7.3540    -6.1670    -0.4370 C.3   1 <1>  -0.1600 
 18 O       -6.8660    -7.4560     2.1610 O.3   1 <1>  -0.6800 
 19 C       -7.4440    -5.0440    -1.4890 C.3   1 <1>  -0.1600 
 20 C       -8.8990    -4.8040    -1.9000 C.3   1 <1>  -0.2400 
 21 H       -2.2950    -0.7330     1.0520 H     1 <1>   0.3700 
 22 H        0.2760    -3.4840    -0.4800 H     1 <1>   0.3700 
 23 H       -2.8600    -7.1510    -1.4230 H     1 <1>   0.0800 
 24 H       -3.4010    -7.9170     0.0460 H     1 <1>   0.0800 
 25 H       -3.9160    -6.3520     2.0940 H     1 <1>   0.0800 
 26 H       -3.5830    -4.6660     1.9360 H     1 <1>   0.0800 
 27 H       -4.9280    -6.0330    -1.7470 H     1 <1>   0.0800 
 28 H       -5.9960    -5.0300     1.7180 H     1 <1>   0.0800 
 29 H       -5.3230    -4.4230     0.2530 H     1 <1>   0.0800 
 30 H       -5.4450    -8.7420    -1.1460 H     1 <1>   0.4000 
 31 H       -5.1140    -8.0610     1.4280 H     1 <1>   0.0800 
 32 H       -6.5300    -8.5580     0.5430 H     1 <1>   0.0800 
 33 H       -7.7710    -7.0590    -0.8740 H     1 <1>   0.0800 
 34 H       -7.9940    -5.9020     0.3880 H     1 <1>   0.0800 
 35 H       -6.5560    -6.6560     2.6260 H     1 <1>   0.4000 
 36 H       -7.0450    -4.1240    -1.1020 H     1 <1>   0.0800 
 37 H       -6.8860    -5.3130    -2.3690 H     1 <1>   0.0800 
 38 H       -9.4880    -4.5080    -1.0490 H     1 <1>   0.0800 
 39 H       -9.3240    -5.6990    -2.3200 H     1 <1>   0.0800 
 40 H       -8.9490    -4.0240    -2.6390 H     1 <1>   0.0800 
@<TRIPOS>BOND
  1   1   2  2   
  2   2   3  am  
  3   2   4  am  
  4   3   5  1   
  5   3  21  1   
  6   4   6  1   
  7   4  22  1   
  8   5   6  2   
  9   6   7  1   
 10   7   8  2   
 11   7   9  am  
 12   9  10  1   
 13   9  11  1   
 14  10  12  1   
 15  10  23  1   
 16  10  24  1   
 17  11  13  1   
 18  11  25  1   
 19  11  26  1   
 20  12  14  1   
 21  12  15  1   
 22  12  27  1   
 23  13  15  1   
 24  13  28  1   
 25  13  29  1   
 26  14  30  1   
 27  15  16  1   
 28  15  17  1   
 29  16  18  1   
 30  16  31  1   
 31  16  32  1   
 32  17  19  1   
 33  17  33  1   
 34  17  34  1   
 35  18  35  1   
 36  19  20  1   
 37  19  36  1   
 38  19  37  1   
 39  20  38  1   
 40  20  39  1   
 41  20  40  1   
@<TRIPOS>SUBSTRUCTURE
  1 ****   9 GROUP 4 **** **** 0

# MOE 2024.06 (io_trps.svl 2023.06)
