@<TRIPOS>MOLECULE
NONAME
41 43 1 0 0 
SMALL
USER_CHARGES


@<TRIPOS>ATOM
  1 F        1.7000    -1.1670    -1.5020 F     1 <1>  -0.1900 
  2 C        1.3310    -1.0070    -0.2490 C.ar  1 <1>   0.1900 
  3 C        0.2810    -1.7580     0.2710 C.ar  1 <1>   0.4100 
  4 C        1.9790    -0.1050     0.5590 C.ar  1 <1>   0.1660 
  5 N       -0.0840    -1.6080     1.5340 N.ar  1 <1>  -0.6200 
  6 N       -0.4210    -2.6960    -0.4620 N.pl3 1 <1>  -0.8380 
  7 N        1.6100     0.0470     1.8230 N.ar  1 <1>  -0.6200 
  8 C        3.1360     0.7560     0.0690 C.3   1 <1>  -0.0170 
  9 C        0.6050    -0.7140     2.2260 C.ar  1 <1>   0.4700 
 10 C       -1.8980    -2.5290    -0.5750 C.3   1 <1>   0.2090 
 11 C       -0.1340    -4.1280    -0.1660 C.3   1 <1>   0.2090 
 12 C        4.4890     0.1620     0.4800 C.3   1 <1>  -0.2400 
 13 C       -2.4790    -3.6880     0.2310 C.3   1 <1>   0.2000 
 14 C       -1.4960    -4.8260    -0.0480 C.3   1 <1>  -0.0800 
 15 O       -2.4200    -3.3410     1.5720 O.3   1 <1>  -0.6800 
 16 C       -1.5150    -5.9660     0.9870 C.3   1 <1>   0.0200 
 17 C       -0.6180    -7.1310     0.6020 C.2   1 <1>  -0.0400 
 18 O       -0.3910    -8.0660     1.4850 O.3   1 <1>  -0.0190 
 19 C        0.0490    -7.4570    -0.5180 C.2   1 <1>  -0.1500 
 20 N        0.3920    -8.9960     1.0210 N.2   1 <1>  -0.4100 
 21 C        0.6730    -8.6560    -0.1850 C.2   1 <1>   0.1080 
 22 C        1.5620    -9.4590    -1.1090 C.3   1 <1>  -0.0590 
 23 H        3.1010     0.8560    -1.0010 H     1 <1>   0.0800 
 24 H        3.0370     1.7430     0.4880 H     1 <1>   0.0800 
 25 H        0.3080    -0.5880     3.2550 H     1 <1>   0.1500 
 26 H       -2.2300    -1.5760    -0.1980 H     1 <1>   0.0800 
 27 H       -2.1800    -2.6180    -1.6090 H     1 <1>   0.0800 
 28 H        0.4570    -4.5570    -0.9560 H     1 <1>   0.0800 
 29 H        0.4110    -4.2060     0.7610 H     1 <1>   0.0800 
 30 H        4.6090    -0.8190     0.0550 H     1 <1>   0.0800 
 31 H        4.5480     0.0850     1.5520 H     1 <1>   0.0800 
 32 H        5.2900     0.7910     0.1340 H     1 <1>   0.0800 
 33 H       -3.4980    -3.9220    -0.0230 H     1 <1>   0.0800 
 34 H       -1.7400    -5.2330    -1.0130 H     1 <1>   0.0800 
 35 H       -1.5880    -2.8170     1.7020 H     1 <1>   0.4000 
 36 H       -2.5200    -6.3310     1.1020 H     1 <1>   0.0800 
 37 H       -1.1950    -5.5940     1.9450 H     1 <1>   0.0800 
 38 H        0.1150    -6.9540    -1.4640 H     1 <1>   0.1500 
 39 H        2.4280    -8.8800    -1.3750 H     1 <1>   0.0800 
 40 H        1.0220    -9.7220    -1.9990 H     1 <1>   0.0800 
 41 H        1.8840   -10.3590    -0.6170 H     1 <1>   0.0800 
@<TRIPOS>BOND
  1   1   2  1   
  2   2   3  ar  
  3   2   4  ar  
  4   3   5  ar  
  5   3   6  1   
  6   4   7  ar  
  7   4   8  1   
  8   5   9  ar  
  9   6  10  1   
 10   6  11  1   
 11   7   9  ar  
 12   8  12  1   
 13   8  23  1   
 14   8  24  1   
 15   9  25  1   
 16  10  13  1   
 17  10  26  1   
 18  10  27  1   
 19  11  14  1   
 20  11  28  1   
 21  11  29  1   
 22  12  30  1   
 23  12  31  1   
 24  12  32  1   
 25  13  14  1   
 26  13  15  1   
 27  13  33  1   
 28  14  16  1   
 29  14  34  1   
 30  15  35  1   
 31  16  17  1   
 32  16  36  1   
 33  16  37  1   
 34  17  18  1   
 35  17  19  2   
 36  18  20  1   
 37  19  21  1   
 38  19  38  1   
 39  20  21  2   
 40  21  22  1   
 41  22  39  1   
 42  22  40  1   
 43  22  41  1   
@<TRIPOS>SUBSTRUCTURE
  1 ****  11 GROUP 4 **** **** 0

# MOE 2024.06 (io_trps.svl 2023.06)
