@<TRIPOS>MOLECULE
NONAME
15 15 1 0 0 
SMALL
USER_CHARGES


@<TRIPOS>ATOM
  1 S       -4.3820    -1.4200    -0.0030 S.3   1 <1>  -0.0800 
  2 C       -5.8910    -0.5100     0.0170 C.2   1 <1>   0.4410 
  3 C       -5.3090    -2.8940     0.0100 C.2   1 <1>  -0.1100 
  4 O       -5.8590     0.8300     0.0160 O.3   1 <1>  -0.3430 
  5 N       -6.9430    -1.2350     0.0320 N.2   1 <1>  -0.5650 
  6 C       -6.6140    -2.5810     0.0280 C.2   1 <1>   0.0770 
  7 C       -4.6500     1.5510    -0.0010 C.3   1 <1>   0.1200 
  8 C       -4.9860     3.0390     0.0030 C.3   1 <1>  -0.2400 
  9 H       -4.7790    -3.8290     0.0030 H     1 <1>   0.1500 
 10 H       -7.4250    -3.2890     0.0400 H     1 <1>   0.1500 
 11 H       -4.1060     1.2870    -0.8920 H     1 <1>   0.0800 
 12 H       -4.0810     1.2880     0.8750 H     1 <1>   0.0800 
 13 H       -5.5660     3.2890    -0.8680 H     1 <1>   0.0800 
 14 H       -4.0810     3.6180    -0.0100 H     1 <1>   0.0800 
 15 H       -5.5420     3.2900     0.8890 H     1 <1>   0.0800 
@<TRIPOS>BOND
  1   1   2  1   
  2   1   3  1   
  3   2   4  1   
  4   2   5  2   
  5   3   6  2   
  6   3   9  1   
  7   4   7  1   
  8   5   6  1   
  9   6  10  1   
 10   7   8  1   
 11   7  11  1   
 12   7  12  1   
 13   8  13  1   
 14   8  14  1   
 15   8  15  1   
@<TRIPOS>SUBSTRUCTURE
  1 ****   2 GROUP 4 **** **** 0

# MOE 2024.06 (io_trps.svl 2023.06)
