@<TRIPOS>MOLECULE
NONAME
62 65 1 0 0 
SMALL
USER_CHARGES


@<TRIPOS>ATOM
  1 O        1.9020    -0.4290     2.4460 O.2   1 <1>  -0.5700 
  2 C        1.9840    -0.9150     1.3410 C.2   1 <1>   0.5690 
  3 N        1.0960    -1.8780     0.9190 N.am  1 <1>  -0.6600 
  4 C        3.1340    -0.4130     0.4560 C.3   1 <1>  -0.0190 
  5 C        1.1770    -2.6110    -0.3770 C.3   1 <1>   0.2840 
  6 C       -0.0440    -2.3030     1.7870 C.3   1 <1>   0.0600 
  7 C        4.4830    -0.9360     0.9910 C.3   1 <1>  -0.1600 
  8 C        3.1490     1.1280     0.3560 C.3   1 <1>  -0.1600 
  9 C        2.4610    -3.4280    -0.4830 C.ar  1 <1>  -0.1440 
 10 C        5.6530    -0.3780     0.1870 C.3   1 <1>   0.2090 
 11 C        4.3680     1.6410    -0.4140 C.3   1 <1>   0.2090 
 12 C        2.8760    -4.2430     0.5620 C.ar  1 <1>  -0.1500 
 13 C        3.2310    -3.3660    -1.6360 C.ar  1 <1>  -0.1500 
 14 N        5.6000     1.1120     0.2540 N.pl3 1 <1>  -0.8380 
 15 C        4.0440    -4.9770     0.4590 C.ar  1 <1>  -0.1500 
 16 C        4.4010    -4.0980    -1.7390 C.ar  1 <1>  -0.1500 
 17 C        6.4570     1.9340     0.9150 C.ar  1 <1>   0.7710 
 18 C        4.8090    -4.9040    -0.6910 C.ar  1 <1>  -0.1500 
 19 N        6.4030     3.2420     0.7130 N.ar  1 <1>  -0.6200 
 20 N        7.3350     1.3920     1.7770 N.ar  1 <1>  -0.1790 
 21 C        7.2480     4.0240     1.3570 C.ar  1 <1>   0.4100 
 22 C        8.2070     2.1540     2.4780 C.ar  1 <1>   0.2110 
 23 N        7.1940     5.3580     1.1070 N.pl3 1 <1>  -0.8380 
 24 C        8.1740     3.4920     2.2750 C.ar  1 <1>  -0.1500 
 25 C        8.3940     6.2620     1.1100 C.3   1 <1>   0.2090 
 26 C        5.9560     6.0310     0.6040 C.3   1 <1>   0.2090 
 27 C        8.6410     6.8380    -0.2960 C.3   1 <1>   0.2000 
 28 C        6.1930     6.5520    -0.8180 C.3   1 <1>  -0.1600 
 29 O        9.6540     7.7790    -0.2400 O.3   1 <1>  -0.6800 
 30 C        7.3940     7.5100    -0.8820 C.3   1 <1>  -0.1600 
 31 H        3.0100    -0.7790    -0.5430 H     1 <1>   0.0800 
 32 H        1.1140    -1.9040    -1.1840 H     1 <1>   0.0800 
 33 H        0.3390    -3.2800    -0.4700 H     1 <1>   0.0800 
 34 H       -0.0540    -1.7550     2.7130 H     1 <1>   0.0800 
 35 H        0.0410    -3.3510     2.0140 H     1 <1>   0.0800 
 36 H       -0.9750    -2.1240     1.2780 H     1 <1>   0.0800 
 37 H        4.4980    -2.0090     0.9360 H     1 <1>   0.0800 
 38 H        4.5910    -0.6630     2.0260 H     1 <1>   0.0800 
 39 H        3.1590     1.5620     1.3410 H     1 <1>   0.0800 
 40 H        2.2510     1.4630    -0.1320 H     1 <1>   0.0800 
 41 H        5.5640    -0.6920    -0.8420 H     1 <1>   0.0800 
 42 H        6.5830    -0.7680     0.5600 H     1 <1>   0.0800 
 43 H        4.3460     2.7180    -0.4340 H     1 <1>   0.0800 
 44 H        4.3360     1.2970    -1.4340 H     1 <1>   0.0800 
 45 H        2.2900    -4.3060     1.4630 H     1 <1>   0.1500 
 46 H        2.9240    -2.7510    -2.4640 H     1 <1>   0.1500 
 47 H        4.3550    -5.6090     1.2740 H     1 <1>   0.1500 
 48 H        4.9910    -4.0490    -2.6380 H     1 <1>   0.1500 
 49 H        5.7150    -5.4800    -0.7730 H     1 <1>   0.1500 
 50 H        7.2570     0.3900     1.8980 H     1 <1>   0.4570 
 51 H        8.8850     1.6820     3.1710 H     1 <1>   0.1500 
 52 H        8.8250     4.1560     2.8110 H     1 <1>   0.1500 
 53 H        9.2770     5.7280     1.4090 H     1 <1>   0.0800 
 54 H        8.2200     7.0650     1.8050 H     1 <1>   0.0800 
 55 H        5.7140     6.8530     1.2560 H     1 <1>   0.0800 
 56 H        5.1180     5.3550     0.6100 H     1 <1>   0.0800 
 57 H        8.9730     6.0450    -0.9440 H     1 <1>   0.0800 
 58 H        5.3090     7.0590    -1.1610 H     1 <1>   0.0800 
 59 H        6.3600     5.7100    -1.4690 H     1 <1>   0.0800 
 60 H        9.3160     8.6240     0.1130 H     1 <1>   0.4000 
 61 H        7.5800     7.7840    -1.9060 H     1 <1>   0.0800 
 62 H        7.1580     8.3970    -0.3210 H     1 <1>   0.0800 
@<TRIPOS>BOND
  1   1   2  2   
  2   2   3  am  
  3   2   4  1   
  4   3   5  1   
  5   3   6  1   
  6   4   7  1   
  7   4   8  1   
  8   4  31  1   
  9   5   9  1   
 10   5  32  1   
 11   5  33  1   
 12   6  34  1   
 13   6  35  1   
 14   6  36  1   
 15   7  10  1   
 16   7  37  1   
 17   7  38  1   
 18   8  11  1   
 19   8  39  1   
 20   8  40  1   
 21   9  12  ar  
 22   9  13  ar  
 23  10  14  1   
 24  10  41  1   
 25  10  42  1   
 26  11  14  1   
 27  11  43  1   
 28  11  44  1   
 29  12  15  ar  
 30  12  45  1   
 31  13  16  ar  
 32  13  46  1   
 33  14  17  1   
 34  15  18  ar  
 35  15  47  1   
 36  16  18  ar  
 37  16  48  1   
 38  17  19  ar  
 39  17  20  ar  
 40  18  49  1   
 41  19  21  ar  
 42  20  22  ar  
 43  20  50  1   
 44  21  23  1   
 45  21  24  ar  
 46  22  24  ar  
 47  22  51  1   
 48  23  25  1   
 49  23  26  1   
 50  24  52  1   
 51  25  27  1   
 52  25  53  1   
 53  25  54  1   
 54  26  28  1   
 55  26  55  1   
 56  26  56  1   
 57  27  29  1   
 58  27  30  1   
 59  27  57  1   
 60  28  30  1   
 61  28  58  1   
 62  28  59  1   
 63  29  60  1   
 64  30  61  1   
 65  30  62  1   
@<TRIPOS>SUBSTRUCTURE
  1 ****  14 GROUP 4 **** **** 0

# MOE 2024.06 (io_trps.svl 2023.06)
