@<TRIPOS>MOLECULE
NONAME
50 52 1 0 0 
SMALL
USER_CHARGES


@<TRIPOS>ATOM
  1 S        0.7210     0.1000    -0.3840 S.3   1 <1>  -0.0800 
  2 C       -0.6510     1.1520    -0.6680 C.2   1 <1>  -0.0450 
  3 C       -0.3540    -1.1500     0.1930 C.2   1 <1>   0.1980 
  4 C       -1.7580     0.4590    -0.3150 C.2   1 <1>   0.0460 
  5 C       -0.4310     2.4680    -1.2120 C.2   1 <1>   0.7150 
  6 N       -1.5820    -0.8160     0.1780 N.2   1 <1>  -0.5650 
  7 C        0.2420    -2.4790     0.6470 C.3   1 <1>   0.1000 
  8 C       -3.1920     0.9400    -0.4080 C.3   1 <1>  -0.0590 
  9 O       -1.1660     2.8930    -2.0820 O.2   1 <1>  -0.5700 
 10 N        0.5840     3.2870    -0.7610 N.am  1 <1>  -0.6600 
 11 C        1.1830    -2.2960     1.8460 C.3   1 <1>  -0.2400 
 12 C        0.9660    -3.1920    -0.5030 C.3   1 <1>  -0.2400 
 13 C        1.0420     3.2430     0.6760 C.3   1 <1>   0.2200 
 14 C        1.1040     4.3450    -1.6880 C.3   1 <1>   0.1400 
 15 C        0.7870     4.5740     1.4040 C.3   1 <1>   0.1200 
 16 C        2.5180     2.7970     0.8180 C.3   1 <1>   0.3430 
 17 C        2.2680     5.1980    -1.1510 C.3   1 <1>  -0.0800 
 18 O        1.8400     5.4680     1.2120 O.3   1 <1>  -0.5600 
 19 N        3.3080     3.0000    -0.4300 N.4   1 <1>  -0.9590 
 20 C        1.8460     6.1330    -0.0080 C.3   1 <1>   0.1200 
 21 C        3.5530     4.4160    -0.8270 C.3   1 <1>   0.3430 
 22 C        4.5930     2.1970    -0.5100 C.3   1 <1>   0.2370 
 23 C        5.0700     2.0140    -1.9550 C.2   1 <1>   0.9060 
 24 O        4.2310     2.2280    -2.8420 O.co2 1 <1>  -0.9000 
 25 O        6.2450     1.7250    -2.1720 O.co2 1 <1>  -0.9000 
 26 H       -0.5780    -3.1030     0.9600 H     1 <1>   0.0800 
 27 H       -3.2440     1.9460    -0.7800 H     1 <1>   0.0800 
 28 H       -3.6500     0.9030     0.5630 H     1 <1>   0.0800 
 29 H       -3.7420     0.2980    -1.0730 H     1 <1>   0.0800 
 30 H        2.0440    -1.7140     1.5720 H     1 <1>   0.0800 
 31 H        1.5160    -3.2540     2.2040 H     1 <1>   0.0800 
 32 H        0.6640    -1.7950     2.6440 H     1 <1>   0.0800 
 33 H        1.8170    -2.6240    -0.8340 H     1 <1>   0.0800 
 34 H        0.2940    -3.3170    -1.3340 H     1 <1>   0.0800 
 35 H        1.3010    -4.1640    -0.1880 H     1 <1>   0.0800 
 36 H        0.4420     2.5210     1.2010 H     1 <1>   0.0800 
 37 H        1.4240     3.8640    -2.5990 H     1 <1>   0.0800 
 38 H        0.2880     4.9980    -1.9510 H     1 <1>   0.0800 
 39 H        0.7360     4.3910     2.4630 H     1 <1>   0.0800 
 40 H       -0.1420     5.0230     1.0950 H     1 <1>   0.0800 
 41 H        2.5240     1.7500     1.0650 H     1 <1>   0.0800 
 42 H        2.9780     3.3270     1.6350 H     1 <1>   0.0800 
 43 H        2.5310     5.8570    -1.9580 H     1 <1>   0.0800 
 44 H        2.7620     2.6190    -1.2310 H     1 <1>   0.4500 
 45 H        0.8750     6.5660    -0.1840 H     1 <1>   0.0800 
 46 H        2.5580     6.9350     0.0820 H     1 <1>   0.0800 
 47 H        4.1020     4.9250    -0.0520 H     1 <1>   0.0800 
 48 H        4.1650     4.4130    -1.7160 H     1 <1>   0.0800 
 49 H        5.3780     2.6790     0.0440 H     1 <1>   0.0800 
 50 H        4.4400     1.2140    -0.1060 H     1 <1>   0.0800 
@<TRIPOS>BOND
  1   1   2  1   
  2   1   3  1   
  3   2   4  2   
  4   2   5  1   
  5   3   6  2   
  6   3   7  1   
  7   4   6  1   
  8   4   8  1   
  9   5   9  2   
 10   5  10  am  
 11   7  11  1   
 12   7  12  1   
 13   7  26  1   
 14   8  27  1   
 15   8  28  1   
 16   8  29  1   
 17  10  13  1   
 18  10  14  1   
 19  11  30  1   
 20  11  31  1   
 21  11  32  1   
 22  12  33  1   
 23  12  34  1   
 24  12  35  1   
 25  13  15  1   
 26  13  16  1   
 27  13  36  1   
 28  14  17  1   
 29  14  37  1   
 30  14  38  1   
 31  15  18  1   
 32  15  39  1   
 33  15  40  1   
 34  16  19  1   
 35  16  41  1   
 36  16  42  1   
 37  17  20  1   
 38  17  21  1   
 39  17  43  1   
 40  18  20  1   
 41  19  21  1   
 42  19  22  1   
 43  19  44  1   
 44  20  45  1   
 45  20  46  1   
 46  21  47  1   
 47  21  48  1   
 48  22  23  1   
 49  22  49  1   
 50  22  50  1   
 51  23  24  ar  
 52  23  25  ar  
@<TRIPOS>SUBSTRUCTURE
  1 ****  10 GROUP 4 **** **** 0

# MOE 2024.06 (io_trps.svl 2023.06)
