@<TRIPOS>MOLECULE
NONAME
54 57 1 0 0 
SMALL
USER_CHARGES


@<TRIPOS>ATOM
  1 O       -0.2730     0.6730    -0.9270 O.2   1 <1>  -0.5700 
  2 C       -0.2520     1.8420    -0.6210 C.2   1 <1>   0.5690 
  3 N       -1.3030     2.4750    -0.0110 N.am  1 <1>  -0.5090 
  4 C        1.0030     2.6400    -0.9770 C.3   1 <1>   0.1810 
  5 C       -1.3110     3.9570     0.2000 C.3   1 <1>   0.3640 
  6 C       -2.4940     1.7430     0.4880 C.3   1 <1>   0.0490 
  7 O        1.0910     3.8830    -0.3150 O.3   1 <1>  -0.5600 
  8 C       -2.5860     4.5630    -0.3860 C.ar  1 <1>  -0.1440 
  9 C       -0.0790     4.6720    -0.4170 C.3   1 <1>   0.2610 
 10 C       -2.8490     1.8520     1.9390 C.3   1 <1>  -0.2000 
 11 C       -2.3120     0.5670     1.3950 C.3   1 <1>  -0.2000 
 12 C       -3.3240     5.4710     0.3600 C.ar  1 <1>   0.1600 
 13 C       -3.0300     4.2360    -1.6560 C.ar  1 <1>  -0.1500 
 14 C        0.1490     6.0580     0.2160 C.2   1 <1>   0.5690 
 15 N       -4.4330     6.0660    -0.0500 N.ar  1 <1>  -0.6200 
 16 C       -4.1860     4.8450    -2.0950 C.ar  1 <1>  -0.1500 
 17 O       -0.3890     6.3160     1.2690 O.2   1 <1>  -0.5700 
 18 N        0.9630     7.0000    -0.3770 N.am  1 <1>  -0.6600 
 19 C       -4.8390     5.7380    -1.2650 C.ar  1 <1>   0.1600 
 20 C        1.0690     8.3790     0.1940 C.3   1 <1>   0.1400 
 21 C        2.0420     6.6900    -1.3630 C.3   1 <1>   0.1400 
 22 C        2.4470     8.5730     0.8530 C.3   1 <1>   0.3430 
 23 C        3.4260     6.8980    -0.7090 C.3   1 <1>   0.3430 
 24 N        3.5790     8.2740    -0.1040 N.4   1 <1>  -0.9590 
 25 C        4.9220     8.3970     0.5560 C.3   1 <1>   0.3430 
 26 C        5.2590     9.8370     0.9720 C.3   1 <1>   0.1200 
 27 O        6.5480     9.8370     1.4720 O.3   1 <1>  -0.6800 
 28 H        1.0230     2.8130    -2.0370 H     1 <1>   0.0800 
 29 H        1.8690     2.0630    -0.7060 H     1 <1>   0.0800 
 30 H       -1.3040     4.1150     1.2640 H     1 <1>   0.0800 
 31 H       -3.2910     1.7040    -0.2370 H     1 <1>   0.1000 
 32 H       -0.2680     4.8270    -1.4640 H     1 <1>   0.0800 
 33 H       -2.2210     2.4060     2.6130 H     1 <1>   0.1000 
 34 H       -3.8880     1.8910     2.2140 H     1 <1>   0.1000 
 35 H       -2.9820    -0.2670     1.2890 H     1 <1>   0.1000 
 36 H       -1.3110     0.2630     1.6470 H     1 <1>   0.1000 
 37 H       -2.9860     5.7320     1.3500 H     1 <1>   0.1500 
 38 H       -2.5090     3.5310    -2.2800 H     1 <1>   0.1500 
 39 H       -4.5830     4.6280    -3.0700 H     1 <1>   0.1500 
 40 H       -5.7420     6.2080    -1.6180 H     1 <1>   0.1500 
 41 H        0.9300     9.1030    -0.5900 H     1 <1>   0.0800 
 42 H        0.2980     8.5520     0.9260 H     1 <1>   0.0800 
 43 H        1.9700     5.6790    -1.7180 H     1 <1>   0.0800 
 44 H        1.9420     7.3380    -2.2170 H     1 <1>   0.0800 
 45 H        2.5060     7.9140     1.7050 H     1 <1>   0.0800 
 46 H        2.5220     9.5860     1.2130 H     1 <1>   0.0800 
 47 H        4.1930     6.7360    -1.4490 H     1 <1>   0.0800 
 48 H        3.5480     6.1500     0.0590 H     1 <1>   0.0800 
 49 H        3.5320     8.9550    -0.8740 H     1 <1>   0.4500 
 50 H        4.9580     7.7660     1.4290 H     1 <1>   0.0800 
 51 H        5.6870     8.0660    -0.1280 H     1 <1>   0.0800 
 52 H        4.6040    10.1870     1.7510 H     1 <1>   0.0800 
 53 H        5.2320    10.5030     0.1270 H     1 <1>   0.0800 
 54 H        6.8320    10.7320     1.7570 H     1 <1>   0.4000 
@<TRIPOS>BOND
  1   1   2  2   
  2   2   3  am  
  3   2   4  1   
  4   3   5  1   
  5   3   6  1   
  6   4   7  1   
  7   4  28  1   
  8   4  29  1   
  9   5   8  1   
 10   5   9  1   
 11   5  30  1   
 12   6  10  1   
 13   6  11  1   
 14   6  31  1   
 15   7   9  1   
 16   8  12  ar  
 17   8  13  ar  
 18   9  14  1   
 19   9  32  1   
 20  10  11  1   
 21  10  33  1   
 22  10  34  1   
 23  11  35  1   
 24  11  36  1   
 25  12  15  ar  
 26  12  37  1   
 27  13  16  ar  
 28  13  38  1   
 29  14  17  2   
 30  14  18  am  
 31  15  19  ar  
 32  16  19  ar  
 33  16  39  1   
 34  18  20  1   
 35  18  21  1   
 36  19  40  1   
 37  20  22  1   
 38  20  41  1   
 39  20  42  1   
 40  21  23  1   
 41  21  43  1   
 42  21  44  1   
 43  22  24  1   
 44  22  45  1   
 45  22  46  1   
 46  23  24  1   
 47  23  47  1   
 48  23  48  1   
 49  24  25  1   
 50  24  49  1   
 51  25  26  1   
 52  25  50  1   
 53  25  51  1   
 54  26  27  1   
 55  26  52  1   
 56  26  53  1   
 57  27  54  1   
@<TRIPOS>SUBSTRUCTURE
  1 ****   9 GROUP 4 **** **** 0

# MOE 2024.06 (io_trps.svl 2023.06)
