@<TRIPOS>MOLECULE
NONAME
40 42 1 0 0 
SMALL
USER_CHARGES


@<TRIPOS>ATOM
  1 O       -0.4360     0.2950    -0.0570 O.2   1 <1>  -0.5700 
  2 C       -1.4540     0.8990     0.2270 C.2   1 <1>   0.7030 
  3 N       -2.6340     0.1880     0.3060 N.am  1 <1>  -0.6600 
  4 C       -1.3940     2.3370     0.4720 C.2   1 <1>   0.2770 
  5 C       -3.9770     0.7200    -0.0590 C.3   1 <1>   0.1400 
  6 C       -2.6460    -1.3010     0.2370 C.3   1 <1>   0.1400 
  7 N       -0.4870     3.2580    -0.0660 N.pl3 1 <1>  -0.7640 
  8 C       -2.1990     3.0650     1.2900 C.2   1 <1>   0.2000 
  9 C       -4.7450    -0.4820    -0.6040 C.3   1 <1>   0.2000 
 10 C       -4.1150    -1.6950     0.0710 C.3   1 <1>  -0.0800 
 11 C       -0.7700     4.4570     0.4230 C.cat 1 <1>   0.6500 
 12 C        0.6230     2.8970    -0.9960 C.3   1 <1>   0.2740 
 13 N       -1.8060     4.3740     1.2420 N.pl3 1 <1>  -0.7000 
 14 O       -6.0920    -0.4000    -0.2990 O.3   1 <1>  -0.6800 
 15 C       -4.3190    -3.0020    -0.7100 C.3   1 <1>   0.0200 
 16 C       -3.5830    -4.1460    -0.0410 C.2   1 <1>  -0.0400 
 17 O       -3.8690    -4.4720     1.1910 O.3   1 <1>  -0.0190 
 18 C       -2.6100    -4.9630    -0.4690 C.2   1 <1>  -0.1500 
 19 N       -3.1340    -5.4590     1.6130 N.2   1 <1>  -0.4100 
 20 C       -2.3670    -5.7780     0.6330 C.2   1 <1>   0.1080 
 21 C       -1.3420    -6.8890     0.6820 C.3   1 <1>  -0.0590 
 22 H       -4.4640     1.0980     0.8230 H     1 <1>   0.0800 
 23 H       -3.9020     1.4880    -0.8090 H     1 <1>   0.0800 
 24 H       -2.0680    -1.6230    -0.6140 H     1 <1>   0.0800 
 25 H       -2.2240    -1.7310     1.1300 H     1 <1>   0.0800 
 26 H       -3.0160     2.7140     1.9010 H     1 <1>   0.1500 
 27 H       -4.6420    -0.5260    -1.6760 H     1 <1>   0.0800 
 28 H       -4.5250    -1.8080     1.0610 H     1 <1>   0.0800 
 29 H       -0.2320     5.3680     0.1920 H     1 <1>   0.1500 
 30 H        0.2310     2.3830    -1.8570 H     1 <1>   0.0800 
 31 H        1.3230     2.2470    -0.4970 H     1 <1>   0.0800 
 32 H        1.1450     3.7790    -1.3260 H     1 <1>   0.0800 
 33 H       -2.2270     5.1530     1.7610 H     1 <1>   0.4500 
 34 H       -6.2570    -0.6240     0.6380 H     1 <1>   0.4000 
 35 H       -3.9600    -2.8930    -1.7180 H     1 <1>   0.0800 
 36 H       -5.3680    -3.2370    -0.7530 H     1 <1>   0.0800 
 37 H       -2.1100    -5.0090    -1.4190 H     1 <1>   0.1500 
 38 H       -1.5680    -7.6270    -0.0650 H     1 <1>   0.0800 
 39 H       -1.3560    -7.3580     1.6500 H     1 <1>   0.0800 
 40 H       -0.3610    -6.4890     0.5030 H     1 <1>   0.0800 
@<TRIPOS>BOND
  1   1   2  2   
  2   2   3  am  
  3   2   4  1   
  4   3   5  1   
  5   3   6  1   
  6   4   7  1   
  7   4   8  2   
  8   5   9  1   
  9   5  22  1   
 10   5  23  1   
 11   6  10  1   
 12   6  24  1   
 13   6  25  1   
 14   7  11  ar  
 15   7  12  1   
 16   8  13  1   
 17   8  26  1   
 18   9  10  1   
 19   9  14  1   
 20   9  27  1   
 21  10  15  1   
 22  10  28  1   
 23  11  13  ar  
 24  11  29  1   
 25  12  30  1   
 26  12  31  1   
 27  12  32  1   
 28  13  33  1   
 29  14  34  1   
 30  15  16  1   
 31  15  35  1   
 32  15  36  1   
 33  16  17  1   
 34  16  18  2   
 35  17  19  1   
 36  18  20  1   
 37  18  37  1   
 38  19  20  2   
 39  20  21  1   
 40  21  38  1   
 41  21  39  1   
 42  21  40  1   
@<TRIPOS>SUBSTRUCTURE
  1 ****   6 GROUP 4 **** **** 0

# MOE 2024.06 (io_trps.svl 2023.06)
