@<TRIPOS>MOLECULE
NONAME
60 63 1 0 0 
SMALL
USER_CHARGES


@<TRIPOS>ATOM
  1 O       -1.0020     1.3370    -1.2750 O.2   1 <1>  -0.5700 
  2 C       -1.0920     1.1570    -0.0760 C.2   1 <1>   0.5440 
  3 N       -1.4090    -0.0960     0.3620 N.am  1 <1>  -0.7300 
  4 C       -0.8710     2.2450     0.8620 C.ar  1 <1>   0.0860 
  5 C       -1.5890    -1.2870    -0.5030 C.3   1 <1>   0.2200 
  6 C       -0.0710     3.3330     0.5170 C.ar  1 <1>  -0.1500 
  7 C       -1.4450     2.2550     2.1360 C.ar  1 <1>  -0.1500 
  8 C       -3.0610    -1.6470    -0.6510 C.3   1 <1>  -0.0800 
  9 C       -1.0780    -2.5120     0.2420 C.3   1 <1>   0.1200 
 10 C        0.1610     4.3800     1.3910 C.ar  1 <1>   0.0830 
 11 C       -1.2200     3.2930     3.0220 C.ar  1 <1>  -0.1500 
 12 C       -3.3400    -2.4840     0.6020 C.3   1 <1>   0.1200 
 13 C       -4.0260    -0.4640    -0.8540 C.3   1 <1>  -0.0160 
 14 O       -2.0970    -2.8410     1.1370 O.3   1 <1>  -0.5600 
 15 O        0.9540     5.3830     0.9440 O.3   1 <1>  -0.3630 
 16 C       -0.4170     4.3570     2.6570 C.ar  1 <1>  -0.1500 
 17 C       -5.4450    -0.9580    -1.0910 C.ar  1 <1>  -0.1430 
 18 C        1.1360     6.5740     1.6980 C.3   1 <1>   0.1810 
 19 C       -5.8630    -1.3900    -2.3330 C.ar  1 <1>  -0.1500 
 20 C       -6.3870    -1.0010    -0.0820 C.ar  1 <1>  -0.1500 
 21 C        2.0010     7.5880     0.9520 C.2   1 <1>   0.5690 
 22 C       -7.1630    -1.8380    -2.5010 C.ar  1 <1>   0.1600 
 23 C       -7.6620    -1.4680    -0.3560 C.ar  1 <1>   0.1600 
 24 O        3.0380     7.9120     1.4870 O.2   1 <1>  -0.5700 
 25 N        1.6070     8.1380    -0.2480 N.am  1 <1>  -0.6600 
 26 N       -8.0720    -1.8900    -1.5410 N.ar  1 <1>  -0.6200 
 27 C        2.4640     9.1250    -0.9630 C.3   1 <1>   0.1400 
 28 C        0.3630     7.7730    -0.9840 C.3   1 <1>   0.1400 
 29 C        1.6610    10.3990    -1.2480 C.3   1 <1>  -0.1600 
 30 C       -0.4590     9.0350    -1.2700 C.3   1 <1>  -0.1600 
 31 C        0.3670    10.0930    -2.0150 C.3   1 <1>  -0.1600 
 32 H       -1.4590    -0.3060     1.3600 H     1 <1>   0.3700 
 33 H       -1.0960    -1.1500    -1.4510 H     1 <1>   0.0800 
 34 H        0.3840     3.3620    -0.4580 H     1 <1>   0.1500 
 35 H       -2.0810     1.4430     2.4400 H     1 <1>   0.1500 
 36 H       -3.1530    -2.3010    -1.5000 H     1 <1>   0.0800 
 37 H       -0.1650    -2.3260     0.7780 H     1 <1>   0.0800 
 38 H       -0.9480    -3.3420    -0.4310 H     1 <1>   0.0800 
 39 H       -1.6710     3.2740     4.0000 H     1 <1>   0.1500 
 40 H       -3.8920    -3.3790     0.3690 H     1 <1>   0.0800 
 41 H       -3.8650    -1.9180     1.3520 H     1 <1>   0.0800 
 42 H       -3.7040     0.1170    -1.7010 H     1 <1>   0.0800 
 43 H       -4.0130     0.1850     0.0030 H     1 <1>   0.0800 
 44 H       -0.2540     5.1480     3.3650 H     1 <1>   0.1500 
 45 H        0.1730     7.0050     1.8970 H     1 <1>   0.0800 
 46 H        1.6180     6.3130     2.6220 H     1 <1>   0.0800 
 47 H       -5.1900    -1.3820    -3.1710 H     1 <1>   0.1500 
 48 H       -6.1430    -0.6760     0.9120 H     1 <1>   0.1500 
 49 H       -7.4710    -2.1720    -3.4770 H     1 <1>   0.1500 
 50 H       -8.3830    -1.4950     0.4430 H     1 <1>   0.1500 
 51 H        3.3330     9.3730    -0.3780 H     1 <1>   0.0800 
 52 H        2.8010     8.6890    -1.8870 H     1 <1>   0.0800 
 53 H        0.6360     7.2980    -1.9120 H     1 <1>   0.0800 
 54 H       -0.2390     7.0810    -0.4250 H     1 <1>   0.0800 
 55 H        1.4270    10.8750    -0.3120 H     1 <1>   0.0800 
 56 H        2.2680    11.0790    -1.8190 H     1 <1>   0.0800 
 57 H       -1.3210     8.7710    -1.8580 H     1 <1>   0.0800 
 58 H       -0.8110     9.4400    -0.3370 H     1 <1>   0.0800 
 59 H        0.6120     9.7270    -2.9970 H     1 <1>   0.0800 
 60 H       -0.2110    10.9940    -2.1290 H     1 <1>   0.0800 
@<TRIPOS>BOND
  1   1   2  2   
  2   2   3  am  
  3   2   4  1   
  4   3   5  1   
  5   3  32  1   
  6   4   6  ar  
  7   4   7  ar  
  8   5   8  1   
  9   5   9  1   
 10   5  33  1   
 11   6  10  ar  
 12   6  34  1   
 13   7  11  ar  
 14   7  35  1   
 15   8  12  1   
 16   8  13  1   
 17   8  36  1   
 18   9  14  1   
 19   9  37  1   
 20   9  38  1   
 21  10  15  1   
 22  10  16  ar  
 23  11  16  ar  
 24  11  39  1   
 25  12  14  1   
 26  12  40  1   
 27  12  41  1   
 28  13  17  1   
 29  13  42  1   
 30  13  43  1   
 31  15  18  1   
 32  16  44  1   
 33  17  19  ar  
 34  17  20  ar  
 35  18  21  1   
 36  18  45  1   
 37  18  46  1   
 38  19  22  ar  
 39  19  47  1   
 40  20  23  ar  
 41  20  48  1   
 42  21  24  2   
 43  21  25  am  
 44  22  26  ar  
 45  22  49  1   
 46  23  26  ar  
 47  23  50  1   
 48  25  27  1   
 49  25  28  1   
 50  27  29  1   
 51  27  51  1   
 52  27  52  1   
 53  28  30  1   
 54  28  53  1   
 55  28  54  1   
 56  29  31  1   
 57  29  55  1   
 58  29  56  1   
 59  30  31  1   
 60  30  57  1   
 61  30  58  1   
 62  31  59  1   
 63  31  60  1   
@<TRIPOS>SUBSTRUCTURE
  1 ****   4 GROUP 4 **** **** 0

# MOE 2024.06 (io_trps.svl 2023.06)
