@<TRIPOS>MOLECULE
NONAME
45 46 1 0 0 
SMALL
USER_CHARGES


@<TRIPOS>ATOM
  1 O       -0.3270    -0.3010    -0.6730 O.3   1 <1>  -0.2800 
  2 C       -1.2780    -1.0820    -0.1980 C.2   1 <1>  -0.0400 
  3 C       -0.0580     0.6170     0.2300 C.2   1 <1>  -0.0400 
  4 C       -1.6380    -0.6630     1.0390 C.2   1 <1>  -0.1500 
  5 C       -1.7330    -2.2180    -1.1110 C.3   1 <1>   0.2900 
  6 C       -0.8370     0.4500     1.3180 C.2   1 <1>  -0.1500 
  7 C        1.0100     1.6440    -0.0750 C.3   1 <1>  -0.0600 
  8 N       -2.8560    -3.0370    -0.5970 N.3   1 <1>  -0.8100 
  9 C       -2.4310    -3.8830     0.5350 C.3   1 <1>   0.2900 
 10 C       -4.0810    -2.2460    -0.3410 C.3   1 <1>   0.1100 
 11 C       -3.5690    -4.8120     0.8930 C.2   1 <1>  -0.3320 
 12 C       -5.2990    -2.9380    -0.9800 C.3   1 <1>   0.3430 
 13 N       -3.9360    -5.8670     0.1430 N.pl3 1 <1>   0.0330 
 14 C       -4.4140    -4.7780     1.9440 C.2   1 <1>   0.0770 
 15 N       -6.6090    -2.4330    -0.4490 N.4   1 <1>  -0.9590 
 16 C       -5.0180    -6.3820     0.7670 C.2   1 <1>   0.0060 
 17 N       -5.3480    -5.7410     1.8400 N.2   1 <1>  -0.5650 
 18 C       -6.8890    -3.0210     0.9010 C.3   1 <1>   0.2630 
 19 C       -7.7150    -2.7840    -1.3880 C.3   1 <1>   0.2630 
 20 C       -5.7560    -7.6010     0.2550 C.3   1 <1>  -0.0600 
 21 H       -2.3720    -1.0580     1.7140 H     1 <1>   0.1500 
 22 H       -0.8880    -2.8550    -1.3080 H     1 <1>   0.0800 
 23 H       -2.0240    -1.7880    -2.0540 H     1 <1>   0.0800 
 24 H       -0.8610     1.0300     2.2230 H     1 <1>   0.1500 
 25 H        0.7390     2.1980    -0.9550 H     1 <1>   0.0800 
 26 H        1.9490     1.1500    -0.2490 H     1 <1>   0.0800 
 27 H        1.1200     2.3240     0.7490 H     1 <1>   0.0800 
 28 H       -2.1730    -3.2780     1.3870 H     1 <1>   0.0800 
 29 H       -1.5640    -4.4610     0.2610 H     1 <1>   0.0800 
 30 H       -3.9840    -1.2640    -0.7730 H     1 <1>   0.0800 
 31 H       -4.2240    -2.1360     0.7190 H     1 <1>   0.0800 
 32 H       -5.2350    -3.9960    -0.7980 H     1 <1>   0.0800 
 33 H       -5.2510    -2.7790    -2.0440 H     1 <1>   0.0800 
 34 H       -3.4860    -6.2080    -0.7130 H     1 <1>   0.2700 
 35 H       -4.4100    -4.0940     2.7770 H     1 <1>   0.1500 
 36 H       -6.5580    -1.4060    -0.3680 H     1 <1>   0.4500 
 37 H       -6.9240    -4.0980     0.8410 H     1 <1>   0.0800 
 38 H       -7.8330    -2.6670     1.2800 H     1 <1>   0.0800 
 39 H       -6.1150    -2.7500     1.6000 H     1 <1>   0.0800 
 40 H       -7.7910    -3.8550    -1.4910 H     1 <1>   0.0800 
 41 H       -7.5330    -2.3550    -2.3600 H     1 <1>   0.0800 
 42 H       -8.6540    -2.4070    -1.0170 H     1 <1>   0.0800 
 43 H       -6.1270    -7.4270    -0.7380 H     1 <1>   0.0800 
 44 H       -6.5850    -7.8240     0.9020 H     1 <1>   0.0800 
 45 H       -5.0970    -8.4500     0.2440 H     1 <1>   0.0800 
@<TRIPOS>BOND
  1   1   2  1   
  2   1   3  1   
  3   2   4  2   
  4   2   5  1   
  5   3   6  2   
  6   3   7  1   
  7   4   6  1   
  8   4  21  1   
  9   5   8  1   
 10   5  22  1   
 11   5  23  1   
 12   6  24  1   
 13   7  25  1   
 14   7  26  1   
 15   7  27  1   
 16   8   9  1   
 17   8  10  1   
 18   9  11  1   
 19   9  28  1   
 20   9  29  1   
 21  10  12  1   
 22  10  30  1   
 23  10  31  1   
 24  11  13  1   
 25  11  14  2   
 26  12  15  1   
 27  12  32  1   
 28  12  33  1   
 29  13  16  1   
 30  13  34  1   
 31  14  17  1   
 32  14  35  1   
 33  15  18  1   
 34  15  19  1   
 35  15  36  1   
 36  16  17  2   
 37  16  20  1   
 38  18  37  1   
 39  18  38  1   
 40  18  39  1   
 41  19  40  1   
 42  19  41  1   
 43  19  42  1   
 44  20  43  1   
 45  20  44  1   
 46  20  45  1   
@<TRIPOS>SUBSTRUCTURE
  1 ****   8 GROUP 4 **** **** 0

# MOE 2024.06 (io_trps.svl 2023.06)
