@<TRIPOS>MOLECULE
Untitled Document
35 35 1 0 0 
SMALL
USER_CHARGES


@<TRIPOS>ATOM
  1 O        0.9450    -1.1290    -1.3670 O.2   1 <1>  -0.5700 
  2 C        0.4780    -1.7550    -0.4340 C.2   1 <1>   0.6340 
  3 O        1.2190    -1.9210     0.6690 O.3   1 <1>  -0.4300 
  4 C       -0.8460    -2.3300    -0.4670 C.ar  1 <1>   0.0860 
  5 C        2.5130    -1.3850     0.9540 C.3   1 <1>   0.2000 
  6 C       -1.1690    -3.6070     0.0270 C.ar  1 <1>   0.0830 
  7 C       -1.8880    -1.5740    -1.0130 C.ar  1 <1>  -0.1500 
  8 C        3.6630    -2.0880     0.1840 C.3   1 <1>   0.3170 
  9 C        2.5170     0.1430     0.7860 C.3   1 <1>  -0.2400 
 10 O       -0.2650    -4.4790     0.5400 O.3   1 <1>  -0.2320 
 11 C       -2.4820    -4.0550     0.0130 C.ar  1 <1>  -0.1500 
 12 C       -3.1900    -2.0330    -1.0390 C.ar  1 <1>  -0.1500 
 13 N        3.3020    -2.4780    -1.2320 N.4   1 <1>  -0.8530 
 14 C        4.1300    -3.3070     0.9840 C.2   1 <1>   0.9060 
 15 C        0.8580    -4.9020    -0.0400 C.2   1 <1>   0.6590 
 16 C       -3.4920    -3.2770    -0.5170 C.ar  1 <1>  -0.1500 
 17 O        4.5540    -3.1630     2.1290 O.co2 1 <1>  -0.9000 
 18 O        4.0650    -4.4020     0.4120 O.co2 1 <1>  -0.9000 
 19 O        1.2670    -4.4540    -1.0840 O.2   1 <1>  -0.5700 
 20 C        1.5620    -6.0260     0.6780 C.3   1 <1>  -0.1790 
 21 H        2.6680    -1.5660     2.0060 H     1 <1>   0.0800 
 22 H       -1.6680    -0.6010    -1.4210 H     1 <1>   0.1500 
 23 H        4.4990    -1.4150     0.1650 H     1 <1>   0.0800 
 24 H        2.5120     0.4360    -0.2470 H     1 <1>   0.0800 
 25 H        3.4050     0.5480     1.2370 H     1 <1>   0.0800 
 26 H        1.6660     0.5710     1.2860 H     1 <1>   0.0800 
 27 H       -2.7140    -5.0260     0.4150 H     1 <1>   0.1500 
 28 H       -3.9720    -1.4250    -1.4630 H     1 <1>   0.1500 
 29 H        2.8840    -3.4290    -1.1380 H     1 <1>   0.4500 
 30 H        4.1200    -2.6040    -1.8250 H     1 <1>   0.4500 
 31 H        2.5740    -1.8670    -1.6330 H     1 <1>   0.4500 
 32 H       -4.5070    -3.6360    -0.5280 H     1 <1>   0.1500 
 33 H        0.8730    -6.8240     0.8780 H     1 <1>   0.0800 
 34 H        1.9680    -5.6620     1.6040 H     1 <1>   0.0800 
 35 H        2.3680    -6.3970     0.0740 H     1 <1>   0.0800 
@<TRIPOS>BOND
  1   1   2  2   
  2   2   3  1   
  3   2   4  1   
  4   3   5  1   
  5   4   6  ar  
  6   4   7  ar  
  7   5   8  1   
  8   5   9  1   
  9   5  21  1   
 10   6  10  1   
 11   6  11  ar  
 12   7  12  ar  
 13   7  22  1   
 14   8  13  1   
 15   8  14  1   
 16   8  23  1   
 17   9  24  1   
 18   9  25  1   
 19   9  26  1   
 20  10  15  1   
 21  11  16  ar  
 22  11  27  1   
 23  12  16  ar  
 24  12  28  1   
 25  13  29  1   
 26  13  30  1   
 27  13  31  1   
 28  14  17  ar  
 29  14  18  ar  
 30  15  19  2   
 31  15  20  1   
 32  16  32  1   
 33  20  33  1   
 34  20  34  1   
 35  20  35  1   
@<TRIPOS>SUBSTRUCTURE
  1 ****   3 GROUP 4 **** **** 0

# MOE 2024.06 (io_trps.svl 2023.06)
