@<TRIPOS>MOLECULE
NONAME
44 46 1 0 0 
SMALL
USER_CHARGES


@<TRIPOS>ATOM
  1 F       -0.7080    -2.3500    -1.8290 F     1 <1>  -0.3400 
  2 C       -1.6790    -2.5790    -0.9570 C.3   1 <1>   1.1640 
  3 F       -2.4560    -3.5170    -1.4910 F     1 <1>  -0.3400 
  4 F       -1.1150    -3.1380     0.1050 F     1 <1>  -0.3400 
  5 C       -2.5100    -1.3380    -0.5760 C.ar  1 <1>  -0.1440 
  6 C       -3.5010    -1.3840     0.4150 C.ar  1 <1>  -0.1440 
  7 C       -2.2790    -0.1310    -1.2320 C.ar  1 <1>  -0.1500 
  8 C       -4.2140    -0.2340     0.7280 C.ar  1 <1>  -0.1500 
  9 C       -3.8500    -2.6500     1.1950 C.3   1 <1>   0.4870 
 10 C       -3.0020     1.0040    -0.9160 C.ar  1 <1>  -0.1500 
 11 C       -3.9690     0.9530     0.0670 C.ar  1 <1>  -0.1500 
 12 N       -4.6430    -3.5750     0.3410 N.4   1 <1>  -0.9590 
 13 C       -5.9190    -2.9600    -0.1630 C.3   1 <1>   0.3430 
 14 C       -5.0290    -4.8060     1.0880 C.3   1 <1>   0.3430 
 15 C       -7.0640    -3.8460     0.3520 C.3   1 <1>   0.2000 
 16 C       -6.4040    -5.2080     0.5450 C.3   1 <1>  -0.0800 
 17 O       -7.4390    -3.3740     1.6040 O.3   1 <1>  -0.6800 
 18 C       -6.3460    -6.0000    -0.7810 C.3   1 <1>   0.0200 
 19 C       -5.3300    -7.1230    -0.7290 C.2   1 <1>  -0.0400 
 20 O       -4.0610    -6.8440    -0.8610 O.3   1 <1>  -0.0190 
 21 C       -5.4470    -8.4490    -0.5670 C.2   1 <1>  -0.1500 
 22 N       -3.3210    -7.9060    -0.7720 N.2   1 <1>  -0.4100 
 23 C       -4.1270    -8.8920    -0.6030 C.2   1 <1>   0.1080 
 24 C       -3.6910   -10.3350    -0.4640 C.3   1 <1>  -0.0590 
 25 H       -1.5280    -0.0510    -2.0030 H     1 <1>   0.1500 
 26 H       -4.9710    -0.2440     1.4960 H     1 <1>   0.1500 
 27 H       -4.4270    -2.3820     2.0660 H     1 <1>   0.0800 
 28 H       -2.9490    -3.1360     1.5330 H     1 <1>   0.0800 
 29 H       -2.8080     1.9290    -1.4330 H     1 <1>   0.1500 
 30 H       -4.5270     1.8410     0.3160 H     1 <1>   0.1500 
 31 H       -4.0670    -3.8570    -0.4680 H     1 <1>   0.4500 
 32 H       -6.0500    -1.9480     0.1830 H     1 <1>   0.0800 
 33 H       -5.9150    -2.9630    -1.2400 H     1 <1>   0.0800 
 34 H       -4.2940    -5.5870     0.9900 H     1 <1>   0.0800 
 35 H       -5.1400    -4.5680     2.1340 H     1 <1>   0.0800 
 36 H       -7.9240    -3.8450    -0.2960 H     1 <1>   0.0800 
 37 H       -6.9250    -5.8040     1.2740 H     1 <1>   0.0800 
 38 H       -8.2880    -3.7710     1.8980 H     1 <1>   0.4000 
 39 H       -6.0900    -5.3630    -1.6100 H     1 <1>   0.0800 
 40 H       -7.3170    -6.4180    -0.9850 H     1 <1>   0.0800 
 41 H       -6.3200    -9.0620    -0.4370 H     1 <1>   0.1500 
 42 H       -4.0470   -10.7390     0.4650 H     1 <1>   0.0800 
 43 H       -2.6180   -10.3980    -0.4820 H     1 <1>   0.0800 
 44 H       -4.0860   -10.9150    -1.2770 H     1 <1>   0.0800 
@<TRIPOS>BOND
  1   1   2  1   
  2   2   3  1   
  3   2   4  1   
  4   2   5  1   
  5   5   6  ar  
  6   5   7  ar  
  7   6   8  ar  
  8   6   9  1   
  9   7  10  ar  
 10   7  25  1   
 11   8  11  ar  
 12   8  26  1   
 13   9  12  1   
 14   9  27  1   
 15   9  28  1   
 16  10  11  ar  
 17  10  29  1   
 18  11  30  1   
 19  12  13  1   
 20  12  14  1   
 21  12  31  1   
 22  13  15  1   
 23  13  32  1   
 24  13  33  1   
 25  14  16  1   
 26  14  34  1   
 27  14  35  1   
 28  15  16  1   
 29  15  17  1   
 30  15  36  1   
 31  16  18  1   
 32  16  37  1   
 33  17  38  1   
 34  18  19  1   
 35  18  39  1   
 36  18  40  1   
 37  19  20  1   
 38  19  21  2   
 39  20  22  1   
 40  21  23  1   
 41  21  41  1   
 42  22  23  2   
 43  23  24  1   
 44  24  42  1   
 45  24  43  1   
 46  24  44  1   
@<TRIPOS>SUBSTRUCTURE
  1 ****  12 GROUP 4 **** **** 0

# MOE 2024.06 (io_trps.svl 2023.06)
