@<TRIPOS>MOLECULE
NONAME
42 43 1 0 0 
SMALL
USER_CHARGES


@<TRIPOS>ATOM
  1 S        1.1190    -1.2520     0.4390 S.o2  1 <1>   1.4470 
  2 O        1.8680    -2.0680    -0.4890 O.2   1 <1>  -0.6500 
  3 O        1.4810    -1.2540     1.8350 O.2   1 <1>  -0.6500 
  4 N       -0.4620    -1.8090     0.3820 N.am  1 <1>  -0.9140 
  5 C        1.0200     0.4370    -0.1950 C.ar  1 <1>  -0.0090 
  6 C       -0.5800    -3.2490     0.5880 C.3   1 <1>   0.2760 
  7 C        0.1710     1.3650     0.3920 C.ar  1 <1>   0.1900 
  8 C        1.7880     0.8660    -1.2760 C.ar  1 <1>  -0.1500 
  9 C       -1.9550    -3.7130     0.1280 C.3   1 <1>  -0.0800 
 10 C       -0.6820    -3.5650     2.0790 C.3   1 <1>   0.1200 
 11 F       -0.5730     1.0030     1.4020 F     1 <1>  -0.1900 
 12 C        0.0600     2.6740    -0.0400 C.ar  1 <1>  -0.1500 
 13 C        1.7050     2.1710    -1.7410 C.ar  1 <1>  -0.1500 
 14 C       -2.8420    -3.4220     1.3460 C.3   1 <1>   0.1200 
 15 C       -2.4410    -3.0860    -1.1980 C.3   1 <1>  -0.0550 
 16 O       -1.9800    -3.1950     2.4230 O.3   1 <1>  -0.5600 
 17 C        0.8420     3.0510    -1.1120 C.ar  1 <1>   0.1900 
 18 S       -3.9390    -3.8220    -1.8560 S.o2  1 <1>   1.3330 
 19 F        0.7640     4.2770    -1.5490 F     1 <1>  -0.1900 
 20 O       -3.7890    -5.2580    -1.8000 O.2   1 <1>  -0.6500 
 21 O       -4.2640    -3.1830    -3.1110 O.2   1 <1>  -0.6500 
 22 N       -5.1390    -3.3780    -0.7370 N.am  1 <1>  -0.8490 
 23 C       -6.2590    -4.3250    -0.7260 C.3   1 <1>   0.1160 
 24 C       -5.6460    -2.0160    -0.9390 C.3   1 <1>   0.1160 
 25 H       -0.9060    -1.4030     1.2110 H     1 <1>   0.4200 
 26 H        0.2100    -3.7930     0.0950 H     1 <1>   0.0800 
 27 H        2.4580     0.1720    -1.7600 H     1 <1>   0.1500 
 28 H       -1.9160    -4.7820     0.0040 H     1 <1>   0.0800 
 29 H        0.0220    -3.0330     2.6920 H     1 <1>   0.0800 
 30 H       -0.5810    -4.6230     2.2520 H     1 <1>   0.0800 
 31 H       -0.6050     3.3700     0.4370 H     1 <1>   0.1500 
 32 H        2.2970     2.5040    -2.5750 H     1 <1>   0.1500 
 33 H       -3.4870    -4.2520     1.5790 H     1 <1>   0.0800 
 34 H       -3.4320    -2.5310     1.2120 H     1 <1>   0.0800 
 35 H       -1.6630    -3.2090    -1.9260 H     1 <1>   0.0800 
 36 H       -2.5910    -2.0330    -1.0680 H     1 <1>   0.0800 
 37 H       -6.9960    -4.0250    -0.0010 H     1 <1>   0.0800 
 38 H       -5.9080    -5.3080    -0.4610 H     1 <1>   0.0800 
 39 H       -6.7180    -4.3730    -1.7000 H     1 <1>   0.0800 
 40 H       -6.3370    -1.7590    -0.1540 H     1 <1>   0.0800 
 41 H       -6.1500    -1.9380    -1.8890 H     1 <1>   0.0800 
 42 H       -4.8350    -1.3090    -0.9210 H     1 <1>   0.0800 
@<TRIPOS>BOND
  1   1   2  2   
  2   1   3  2   
  3   1   4  am  
  4   1   5  1   
  5   4   6  1   
  6   4  25  1   
  7   5   7  ar  
  8   5   8  ar  
  9   6   9  1   
 10   6  10  1   
 11   6  26  1   
 12   7  11  1   
 13   7  12  ar  
 14   8  13  ar  
 15   8  27  1   
 16   9  14  1   
 17   9  15  1   
 18   9  28  1   
 19  10  16  1   
 20  10  29  1   
 21  10  30  1   
 22  12  17  ar  
 23  12  31  1   
 24  13  17  ar  
 25  13  32  1   
 26  14  16  1   
 27  14  33  1   
 28  14  34  1   
 29  15  18  1   
 30  15  35  1   
 31  15  36  1   
 32  17  19  1   
 33  18  20  2   
 34  18  21  2   
 35  18  22  am  
 36  22  23  1   
 37  22  24  1   
 38  23  37  1   
 39  23  38  1   
 40  23  39  1   
 41  24  40  1   
 42  24  41  1   
 43  24  42  1   
@<TRIPOS>SUBSTRUCTURE
  1 ****   4 GROUP 4 **** **** 0

# MOE 2024.06 (io_trps.svl 2023.06)
