@<TRIPOS>MOLECULE
NONAME
55 57 1 0 0 
SMALL
USER_CHARGES


@<TRIPOS>ATOM
  1 O       -4.2630    -1.0550     0.6560 O.2   1 <1>  -0.5700 
  2 C       -3.5120    -0.0870     0.6930 C.2   1 <1>   0.7150 
  3 N       -3.5890     0.7740     1.7720 N.am  1 <1>  -0.6600 
  4 C       -2.6070     0.1550    -0.4140 C.2   1 <1>   0.1010 
  5 C       -4.4370     0.4860     2.9690 C.3   1 <1>   0.1400 
  6 C       -3.0240     2.1520     1.7110 C.3   1 <1>   0.1400 
  7 N       -1.2930     0.1170    -0.3540 N.2   1 <1>  -0.5650 
  8 N       -3.0450     0.4650    -1.6690 N.pl3 1 <1>   0.0480 
  9 C       -5.6100     1.4760     3.1240 C.3   1 <1>   0.1400 
 10 C       -3.9400     3.0850     0.8990 C.3   1 <1>  -0.1600 
 11 C       -0.8900     0.3990    -1.5970 C.2   1 <1>   0.0770 
 12 C       -1.9430     0.6160    -2.4130 C.2   1 <1>  -0.3020 
 13 C       -4.4260     0.6740    -2.1460 C.3   1 <1>   0.0160 
 14 N       -6.0410     2.0600     1.8150 N.am  1 <1>  -0.6600 
 15 C       -5.3420     3.3340     1.4810 C.3   1 <1>   0.1400 
 16 C       -6.8580     1.4420     0.8990 C.2   1 <1>   0.5690 
 17 O       -7.0960     1.9400    -0.1770 O.2   1 <1>  -0.5700 
 18 C       -7.4800     0.0750     1.1750 C.3   1 <1>  -0.0990 
 19 C       -7.3950    -0.8610    -0.0470 C.3   1 <1>  -0.1600 
 20 C       -7.5040    -2.3280     0.3670 C.3   1 <1>   0.3430 
 21 N       -7.0390    -3.2100    -0.7350 N.4   1 <1>  -0.9590 
 22 C       -7.4380    -4.6250    -0.5560 C.3   1 <1>   0.3430 
 23 C       -5.5570    -3.2310    -0.8670 C.3   1 <1>   0.3430 
 24 C       -6.4920    -5.4000    -1.4620 C.3   1 <1>  -0.1600 
 25 C       -5.2590    -4.5080    -1.6370 C.3   1 <1>  -0.1600 
 26 H       -3.8230     0.5230     3.8520 H     1 <1>   0.0800 
 27 H       -4.8280    -0.5130     2.9100 H     1 <1>   0.0800 
 28 H       -2.0480     2.1210     1.2550 H     1 <1>   0.0800 
 29 H       -2.8970     2.5380     2.7080 H     1 <1>   0.0800 
 30 H       -5.3000     2.2700     3.7790 H     1 <1>   0.0800 
 31 H       -6.4380     0.9910     3.6090 H     1 <1>   0.0800 
 32 H       -4.0410     2.7110    -0.1010 H     1 <1>   0.0800 
 33 H       -3.4500     4.0370     0.8140 H     1 <1>   0.0800 
 34 H        0.1570     0.4360    -1.8540 H     1 <1>   0.1500 
 35 H       -1.9530     0.8670    -3.4590 H     1 <1>   0.1500 
 36 H       -5.0370     1.0450    -1.3450 H     1 <1>   0.0800 
 37 H       -4.8250    -0.2570    -2.5040 H     1 <1>   0.0800 
 38 H       -4.4250     1.3940    -2.9440 H     1 <1>   0.0800 
 39 H       -5.9260     3.8900     0.7660 H     1 <1>   0.0800 
 40 H       -5.2650     3.9410     2.3660 H     1 <1>   0.0800 
 41 H       -8.5070     0.2210     1.4550 H     1 <1>   0.0800 
 42 H       -6.9780    -0.3960     1.9950 H     1 <1>   0.0800 
 43 H       -6.4520    -0.6920    -0.5280 H     1 <1>   0.0800 
 44 H       -8.1730    -0.6080    -0.7450 H     1 <1>   0.0800 
 45 H       -8.5290    -2.5510     0.6170 H     1 <1>   0.0800 
 46 H       -6.8960    -2.5040     1.2400 H     1 <1>   0.0800 
 47 H       -7.4320    -2.8780    -1.6250 H     1 <1>   0.4500 
 48 H       -8.4710    -4.7880    -0.8200 H     1 <1>   0.0800 
 49 H       -7.2760    -4.9210     0.4680 H     1 <1>   0.0800 
 50 H       -5.1040    -3.2840     0.1110 H     1 <1>   0.0800 
 51 H       -5.1840    -2.3560    -1.3750 H     1 <1>   0.0800 
 52 H       -6.9630    -5.5780    -2.4130 H     1 <1>   0.0800 
 53 H       -6.2400    -6.3490    -1.0220 H     1 <1>   0.0800 
 54 H       -4.3680    -4.9740    -1.2500 H     1 <1>   0.0800 
 55 H       -5.1000    -4.2810    -2.6770 H     1 <1>   0.0800 
@<TRIPOS>BOND
  1   1   2  2   
  2   2   3  am  
  3   2   4  1   
  4   3   5  1   
  5   3   6  1   
  6   4   7  2   
  7   4   8  1   
  8   5   9  1   
  9   5  26  1   
 10   5  27  1   
 11   6  10  1   
 12   6  28  1   
 13   6  29  1   
 14   7  11  1   
 15   8  12  1   
 16   8  13  1   
 17   9  14  1   
 18   9  30  1   
 19   9  31  1   
 20  10  15  1   
 21  10  32  1   
 22  10  33  1   
 23  11  12  2   
 24  11  34  1   
 25  12  35  1   
 26  13  36  1   
 27  13  37  1   
 28  13  38  1   
 29  14  15  1   
 30  14  16  am  
 31  15  39  1   
 32  15  40  1   
 33  16  17  2   
 34  16  18  1   
 35  18  19  1   
 36  18  41  1   
 37  18  42  1   
 38  19  20  1   
 39  19  43  1   
 40  19  44  1   
 41  20  21  1   
 42  20  45  1   
 43  20  46  1   
 44  21  22  1   
 45  21  23  1   
 46  21  47  1   
 47  22  24  1   
 48  22  48  1   
 49  22  49  1   
 50  23  25  1   
 51  23  50  1   
 52  23  51  1   
 53  24  25  1   
 54  24  52  1   
 55  24  53  1   
 56  25  54  1   
 57  25  55  1   
@<TRIPOS>SUBSTRUCTURE
  1 ****   1 GROUP 4 **** **** 0

# MOE 2024.06 (io_trps.svl 2023.06)
