@<TRIPOS>MOLECULE
NONAME
47 49 1 0 0 
SMALL
USER_CHARGES


@<TRIPOS>ATOM
  1 O       -0.2460    -1.1720     1.4140 O.3   1 <1>  -0.5600 
  2 C        0.1220    -2.0030     0.3380 C.3   1 <1>   0.2800 
  3 C       -0.9730    -0.0120     1.1250 C.3   1 <1>   0.1200 
  4 C       -1.0840    -2.2150    -0.6120 C.3   1 <1>  -0.1600 
  5 C        0.5520    -3.3410     0.9690 C.3   1 <1>  -0.1600 
  6 C        1.3220    -1.3810    -0.4040 C.3   1 <1>  -0.1600 
  7 C       -2.3320    -0.3590     0.4950 C.3   1 <1>  -0.1600 
  8 C       -2.4240    -1.8120     0.0120 C.3   1 <1>   0.2800 
  9 C        1.8000    -3.1960     1.8410 C.3   1 <1>   0.2090 
 10 C        2.5500    -1.2600     0.4990 C.3   1 <1>   0.2090 
 11 O       -2.6190    -2.5930     1.1360 O.3   1 <1>  -0.6800 
 12 C       -3.6070    -2.0460    -0.9510 C.3   1 <1>   0.1200 
 13 N        2.8860    -2.6130     1.0100 N.pl3 1 <1>  -0.8380 
 14 O       -4.8120    -1.8360    -0.2930 O.3   1 <1>  -0.6800 
 15 C        3.9420    -3.3620     0.5250 C.ar  1 <1>   0.7200 
 16 N        4.1850    -4.5280     1.1210 N.ar  1 <1>  -0.6200 
 17 N        4.6230    -2.8600    -0.5050 N.ar  1 <1>  -0.6200 
 18 C        5.1870    -5.2270     0.6510 C.ar  1 <1>   0.1600 
 19 C        5.6200    -3.5830    -0.9530 C.ar  1 <1>   0.1600 
 20 C        5.9560    -4.7990    -0.4060 C.ar  1 <1>  -0.1440 
 21 C        7.1170    -5.6240    -0.9390 C.3   1 <1>  -0.0170 
 22 C        8.4140    -5.2570    -0.2160 C.3   1 <1>  -0.2400 
 23 H       -0.3900     0.6070     0.4670 H     1 <1>   0.0800 
 24 H       -1.1170     0.5200     2.0490 H     1 <1>   0.0800 
 25 H       -1.1270    -3.2360    -0.9470 H     1 <1>   0.0800 
 26 H       -0.9410    -1.6200    -1.4960 H     1 <1>   0.0800 
 27 H        0.7770    -4.0520     0.1950 H     1 <1>   0.0800 
 28 H       -0.2470    -3.7490     1.5590 H     1 <1>   0.0800 
 29 H        1.0720    -0.4170    -0.8020 H     1 <1>   0.0800 
 30 H        1.5890    -2.0070    -1.2360 H     1 <1>   0.0800 
 31 H       -2.4840     0.3020    -0.3380 H     1 <1>   0.0800 
 32 H       -3.1250    -0.1540     1.1930 H     1 <1>   0.0800 
 33 H        2.0760    -4.1540     2.2440 H     1 <1>   0.0800 
 34 H        1.5990    -2.5380     2.6700 H     1 <1>   0.0800 
 35 H        2.3350    -0.6130     1.3320 H     1 <1>   0.0800 
 36 H        3.3720    -0.8290    -0.0460 H     1 <1>   0.0800 
 37 H       -1.8790    -2.3770     1.7480 H     1 <1>   0.4000 
 38 H       -3.5970    -3.0600    -1.3090 H     1 <1>   0.0800 
 39 H       -3.5630    -1.3780    -1.7920 H     1 <1>   0.0800 
 40 H       -4.7390    -2.2650     0.5870 H     1 <1>   0.4000 
 41 H        5.4020    -6.1700     1.1230 H     1 <1>   0.1500 
 42 H        6.1860    -3.1920    -1.7800 H     1 <1>   0.1500 
 43 H        7.2310    -5.4500    -1.9950 H     1 <1>   0.0800 
 44 H        6.9110    -6.6720    -0.8020 H     1 <1>   0.0800 
 45 H        8.6420    -4.2160    -0.3610 H     1 <1>   0.0800 
 46 H        9.2300    -5.8450    -0.5980 H     1 <1>   0.0800 
 47 H        8.3200    -5.4440     0.8390 H     1 <1>   0.0800 
@<TRIPOS>BOND
  1   1   2  1   
  2   1   3  1   
  3   2   4  1   
  4   2   5  1   
  5   2   6  1   
  6   3   7  1   
  7   3  23  1   
  8   3  24  1   
  9   4   8  1   
 10   4  25  1   
 11   4  26  1   
 12   5   9  1   
 13   5  27  1   
 14   5  28  1   
 15   6  10  1   
 16   6  29  1   
 17   6  30  1   
 18   7   8  1   
 19   7  31  1   
 20   7  32  1   
 21   8  11  1   
 22   8  12  1   
 23   9  13  1   
 24   9  33  1   
 25   9  34  1   
 26  10  13  1   
 27  10  35  1   
 28  10  36  1   
 29  11  37  1   
 30  12  14  1   
 31  12  38  1   
 32  12  39  1   
 33  13  15  1   
 34  14  40  1   
 35  15  16  ar  
 36  15  17  ar  
 37  16  18  ar  
 38  17  19  ar  
 39  18  20  ar  
 40  18  41  1   
 41  19  20  ar  
 42  19  42  1   
 43  20  21  1   
 44  21  22  1   
 45  21  43  1   
 46  21  44  1   
 47  22  45  1   
 48  22  46  1   
 49  22  47  1   
@<TRIPOS>SUBSTRUCTURE
  1 ****   5 GROUP 4 **** **** 0

# MOE 2024.06 (io_trps.svl 2023.06)
