@<TRIPOS>MOLECULE
NONAME
53 55 1 0 0 
SMALL
USER_CHARGES


@<TRIPOS>ATOM
  1 O        0.0730    -0.7350     0.7350 O.2   1 <1>  -0.5700 
  2 C       -0.4720     0.0760     0.0270 C.2   1 <1>   0.5690 
  3 N       -1.3460    -0.3200    -0.9610 N.am  1 <1>  -0.6600 
  4 C       -0.2330     1.5540     0.3200 C.3   1 <1>   0.1810 
  5 C       -2.2010     0.6220    -1.7520 C.3   1 <1>   0.1400 
  6 C       -1.9080    -1.7090    -0.9570 C.3   1 <1>   0.1400 
  7 O       -1.4690     2.1690     0.6740 O.3   1 <1>  -0.3620 
  8 C       -3.6150     0.7350    -1.1200 C.3   1 <1>   0.4230 
  9 C       -3.3970    -1.6970    -0.5300 C.3   1 <1>   0.3430 
 10 C       -1.5950     3.5170     0.7290 C.ar  1 <1>   0.0830 
 11 N       -3.8500    -0.3300    -0.0610 N.4   1 <1>  -0.9590 
 12 C       -4.7140     0.6960    -2.2050 C.3   1 <1>   0.1200 
 13 C       -0.5370     4.4020     0.5400 C.ar  1 <1>  -0.1500 
 14 C       -2.8630     4.0170     0.9800 C.ar  1 <1>  -0.1500 
 15 C       -5.2560    -0.2490     0.4560 C.3   1 <1>   0.4230 
 16 O       -5.9860     0.7560    -1.6250 O.3   1 <1>  -0.5600 
 17 C       -0.7610     5.7670     0.5850 C.ar  1 <1>  -0.1500 
 18 C       -3.0810     5.3820     1.0240 C.ar  1 <1>  -0.1500 
 19 C       -6.2760    -0.2620    -0.7070 C.3   1 <1>   0.1200 
 20 C       -5.5150    -1.3480     1.4980 C.3   1 <1>  -0.1600 
 21 C       -2.0320     6.2640     0.8250 C.ar  1 <1>  -0.1430 
 22 C       -6.7900    -1.0900     2.3180 C.3   1 <1>  -0.1600 
 23 C       -2.2720     7.7630     0.8710 C.3   1 <1>  -0.0970 
 24 C       -6.9660    -2.1570     3.4010 C.3   1 <1>  -0.2400 
 25 H        0.1650     2.0310    -0.5560 H     1 <1>   0.0800 
 26 H        0.4490     1.6650     1.1430 H     1 <1>   0.0800 
 27 H       -1.7560     1.5990    -1.8170 H     1 <1>   0.0800 
 28 H       -2.2750     0.2510    -2.7610 H     1 <1>   0.0800 
 29 H       -1.8140    -2.1380    -1.9400 H     1 <1>   0.0800 
 30 H       -1.3540    -2.3430    -0.2850 H     1 <1>   0.0800 
 31 H       -3.6740     1.7020    -0.6480 H     1 <1>   0.0800 
 32 H       -3.5260    -2.4200     0.2580 H     1 <1>   0.0800 
 33 H       -4.0010    -2.0150    -1.3630 H     1 <1>   0.0800 
 34 H       -3.2100    -0.0800     0.7070 H     1 <1>   0.4500 
 35 H       -4.6510    -0.1990    -2.7980 H     1 <1>   0.0800 
 36 H       -4.6190     1.5460    -2.8590 H     1 <1>   0.0800 
 37 H        0.4650     4.0600     0.3610 H     1 <1>   0.1500 
 38 H       -3.6810     3.3440     1.1470 H     1 <1>   0.1500 
 39 H       -5.3710     0.6980     0.9580 H     1 <1>   0.0800 
 40 H        0.0600     6.4460     0.4340 H     1 <1>   0.1500 
 41 H       -4.0710     5.7600     1.2170 H     1 <1>   0.1500 
 42 H       -7.2690    -0.0790    -0.3350 H     1 <1>   0.0800 
 43 H       -6.2750    -1.2070    -1.2220 H     1 <1>   0.0800 
 44 H       -5.6070    -2.3060     1.0170 H     1 <1>   0.0800 
 45 H       -4.6850    -1.3840     2.1820 H     1 <1>   0.0800 
 46 H       -6.7350    -0.1220     2.7900 H     1 <1>   0.0800 
 47 H       -7.6600    -1.1020     1.6820 H     1 <1>   0.0800 
 48 H       -1.3930     8.2750     1.2200 H     1 <1>   0.0800 
 49 H       -3.0840     7.9940     1.5360 H     1 <1>   0.0800 
 50 H       -2.5160     8.1220    -0.1130 H     1 <1>   0.0800 
 51 H       -6.1320    -2.1540     4.0810 H     1 <1>   0.0800 
 52 H       -7.0520    -3.1360     2.9620 H     1 <1>   0.0800 
 53 H       -7.8610    -1.9620     3.9660 H     1 <1>   0.0800 
@<TRIPOS>BOND
  1   1   2  2   
  2   2   3  am  
  3   2   4  1   
  4   3   5  1   
  5   3   6  1   
  6   4   7  1   
  7   4  25  1   
  8   4  26  1   
  9   5   8  1   
 10   5  27  1   
 11   5  28  1   
 12   6   9  1   
 13   6  29  1   
 14   6  30  1   
 15   7  10  1   
 16   8  11  1   
 17   8  12  1   
 18   8  31  1   
 19   9  11  1   
 20   9  32  1   
 21   9  33  1   
 22  10  13  ar  
 23  10  14  ar  
 24  11  15  1   
 25  11  34  1   
 26  12  16  1   
 27  12  35  1   
 28  12  36  1   
 29  13  17  ar  
 30  13  37  1   
 31  14  18  ar  
 32  14  38  1   
 33  15  19  1   
 34  15  20  1   
 35  15  39  1   
 36  16  19  1   
 37  17  21  ar  
 38  17  40  1   
 39  18  21  ar  
 40  18  41  1   
 41  19  42  1   
 42  19  43  1   
 43  20  22  1   
 44  20  44  1   
 45  20  45  1   
 46  21  23  1   
 47  22  24  1   
 48  22  46  1   
 49  22  47  1   
 50  23  48  1   
 51  23  49  1   
 52  23  50  1   
 53  24  51  1   
 54  24  52  1   
 55  24  53  1   
@<TRIPOS>SUBSTRUCTURE
  1 ****   8 GROUP 4 **** **** 0

# MOE 2024.06 (io_trps.svl 2023.06)
