@<TRIPOS>MOLECULE
NONAME
55 57 1 0 0 
SMALL
USER_CHARGES


@<TRIPOS>ATOM
  1 O       -0.7040     0.7540     2.5720 O.2   1 <1>  -0.5700 
  2 C       -1.3570     1.6100     2.0180 C.2   1 <1>   0.5690 
  3 N       -2.7130     1.4520     1.8010 N.am  1 <1>  -0.6600 
  4 C       -0.6060     2.8810     1.6200 C.3   1 <1>   0.1810 
  5 C       -3.5580     2.5190     1.1810 C.3   1 <1>   0.2200 
  6 C       -3.3670     0.1570     2.1700 C.3   1 <1>   0.0600 
  7 O       -0.7350     3.1550     0.2320 O.3   1 <1>  -0.3620 
  8 C       -4.9180     2.7310     1.8410 C.3   1 <1>  -0.1600 
  9 C       -3.9050     2.2210    -0.2720 C.3   1 <1>  -0.1600 
 10 C       -0.3180     4.3330    -0.2940 C.ar  1 <1>   0.0820 
 11 C       -5.7350     3.4850     0.7790 C.3   1 <1>  -0.0800 
 12 C       -5.0870     3.1530    -0.5770 C.3   1 <1>  -0.0800 
 13 C        0.3700     5.3040     0.4280 C.ar  1 <1>  -0.1500 
 14 C       -0.6110     4.5580    -1.6290 C.ar  1 <1>  -0.1500 
 15 C       -7.1990     3.0350     0.6860 C.3   1 <1>  -0.1600 
 16 C       -6.1780     2.5070    -1.4400 C.3   1 <1>  -0.1600 
 17 C        0.7430     6.4880    -0.1870 C.ar  1 <1>  -0.1500 
 18 C       -0.2360     5.7420    -2.2390 C.ar  1 <1>  -0.1500 
 19 C       -7.2090     1.9990    -0.4380 C.3   1 <1>   0.4230 
 20 C        0.4400     6.7150    -1.5200 C.ar  1 <1>  -0.1430 
 21 N       -8.5510     1.7550    -1.0530 N.4   1 <1>  -0.9590 
 22 C        0.8520     8.0130    -2.1900 C.3   1 <1>  -0.0970 
 23 C       -9.2360     2.9710    -1.6060 C.3   1 <1>   0.2630 
 24 C       -9.4540     1.0540    -0.0890 C.3   1 <1>   0.2630 
 25 H        0.4390     2.7650     1.8390 H     1 <1>   0.0800 
 26 H       -1.0030     3.7100     2.1750 H     1 <1>   0.0800 
 27 H       -3.0450     3.4640     1.2110 H     1 <1>   0.0800 
 28 H       -4.0800    -0.1350     1.4230 H     1 <1>   0.0800 
 29 H       -3.8620     0.2620     3.1190 H     1 <1>   0.0800 
 30 H       -2.6350    -0.6290     2.2550 H     1 <1>   0.0800 
 31 H       -5.3860     1.7910     2.0610 H     1 <1>   0.0800 
 32 H       -4.8230     3.3050     2.7460 H     1 <1>   0.0800 
 33 H       -3.0700     2.4230    -0.9190 H     1 <1>   0.0800 
 34 H       -4.1930     1.1920    -0.3760 H     1 <1>   0.0800 
 35 H       -5.6730     4.5450     0.9680 H     1 <1>   0.0800 
 36 H       -4.7170     4.0540    -1.0400 H     1 <1>   0.0800 
 37 H        0.6290     5.1620     1.4590 H     1 <1>   0.1500 
 38 H       -1.1310     3.8020    -2.1870 H     1 <1>   0.1500 
 39 H       -7.7890     3.8940     0.4270 H     1 <1>   0.0800 
 40 H       -7.5520     2.6280     1.6170 H     1 <1>   0.0800 
 41 H       -5.7860     1.7150    -2.0540 H     1 <1>   0.0800 
 42 H       -6.5920     3.2710    -2.0710 H     1 <1>   0.0800 
 43 H        1.2740     7.2340     0.3770 H     1 <1>   0.1500 
 44 H       -0.4700     5.9020    -3.2770 H     1 <1>   0.1500 
 45 H       -6.8310     1.0730    -0.0320 H     1 <1>   0.0800 
 46 H       -8.3850     1.1140    -1.8440 H     1 <1>   0.4500 
 47 H        0.8810     8.8140    -1.4740 H     1 <1>   0.0800 
 48 H        0.1520     8.2760    -2.9640 H     1 <1>   0.0800 
 49 H        1.8280     7.9030    -2.6280 H     1 <1>   0.0800 
 50 H       -9.4570     3.6720    -0.8180 H     1 <1>   0.0800 
 51 H      -10.1630     2.6920    -2.0810 H     1 <1>   0.0800 
 52 H       -8.6160     3.4590    -2.3390 H     1 <1>   0.0800 
 53 H       -9.6640     1.6890     0.7570 H     1 <1>   0.0800 
 54 H       -8.9920     0.1470     0.2670 H     1 <1>   0.0800 
 55 H      -10.3870     0.7980    -0.5670 H     1 <1>   0.0800 
@<TRIPOS>BOND
  1   1   2  2   
  2   2   3  am  
  3   2   4  1   
  4   3   5  1   
  5   3   6  1   
  6   4   7  1   
  7   4  25  1   
  8   4  26  1   
  9   5   8  1   
 10   5   9  1   
 11   5  27  1   
 12   6  28  1   
 13   6  29  1   
 14   6  30  1   
 15   7  10  1   
 16   8  11  1   
 17   8  31  1   
 18   8  32  1   
 19   9  12  1   
 20   9  33  1   
 21   9  34  1   
 22  10  13  ar  
 23  10  14  ar  
 24  11  12  1   
 25  11  15  1   
 26  11  35  1   
 27  12  16  1   
 28  12  36  1   
 29  13  17  ar  
 30  13  37  1   
 31  14  18  ar  
 32  14  38  1   
 33  15  19  1   
 34  15  39  1   
 35  15  40  1   
 36  16  19  1   
 37  16  41  1   
 38  16  42  1   
 39  17  20  ar  
 40  17  43  1   
 41  18  20  ar  
 42  18  44  1   
 43  19  21  1   
 44  19  45  1   
 45  20  22  1   
 46  21  23  1   
 47  21  24  1   
 48  21  46  1   
 49  22  47  1   
 50  22  48  1   
 51  22  49  1   
 52  23  50  1   
 53  23  51  1   
 54  23  52  1   
 55  24  53  1   
 56  24  54  1   
 57  24  55  1   
@<TRIPOS>SUBSTRUCTURE
  1 ****   9 GROUP 4 **** **** 0

# MOE 2024.06 (io_trps.svl 2023.06)
