@<TRIPOS>MOLECULE
NONAME
35 37 1 0 0 
SMALL
USER_CHARGES


@<TRIPOS>ATOM
  1 F       -2.8460    -2.5780    -2.2500 F     1 <1>  -0.1900 
  2 C       -2.8810    -2.4870    -0.9430 C.ar  1 <1>   0.1900 
  3 C       -2.8490    -1.2320    -0.3440 C.ar  1 <1>   0.0820 
  4 C       -2.9460    -3.6530    -0.2070 C.ar  1 <1>  -0.1500 
  5 O       -2.9060    -0.0880    -1.0650 O.3   1 <1>  -0.3630 
  6 C       -2.8040    -1.2060     1.0440 C.ar  1 <1>   0.1900 
  7 C       -2.9760    -3.6010     1.1890 C.ar  1 <1>   0.0860 
  8 C       -4.2000     0.2160    -1.5420 C.3   1 <1>   0.0400 
  9 F       -2.7120    -0.0570     1.6680 F     1 <1>  -0.1900 
 10 C       -2.8630    -2.3550     1.8070 C.ar  1 <1>  -0.1500 
 11 C       -3.1910    -4.7960     1.9750 C.2   1 <1>   0.5440 
 12 O       -2.2680    -5.3280     2.5640 O.2   1 <1>  -0.5700 
 13 N       -4.4480    -5.3270     2.0790 N.am  1 <1>  -0.6600 
 14 C       -5.6390    -4.4890     1.9440 C.3   1 <1>   0.2350 
 15 C       -4.7730    -6.5020     1.2770 C.3   1 <1>   0.2350 
 16 C       -6.0210    -4.5350     0.4670 C.3   1 <1>  -0.2420 
 17 C       -5.4150    -5.9560    -0.0040 C.3   1 <1>  -0.2420 
 18 C       -6.7090    -3.1760     0.3420 C.2   1 <1>   0.9470 
 19 C       -6.2010    -5.0810    -0.8770 C.3   1 <1>  -0.2000 
 20 C       -5.0570    -7.0840    -0.9660 C.2   1 <1>   0.9470 
 21 O       -6.0460    -2.1920    -0.0150 O.co2 1 <1>  -0.9000 
 22 O       -7.8860    -3.0670     0.7050 O.co2 1 <1>  -0.9000 
 23 O       -4.0350    -6.9800    -1.6560 O.co2 1 <1>  -0.9000 
 24 O       -5.7470    -8.1110    -0.9660 O.co2 1 <1>  -0.9000 
 25 H       -3.0090    -4.6030    -0.7120 H     1 <1>   0.1500 
 26 H       -4.1740     1.1790    -2.0160 H     1 <1>   0.0800 
 27 H       -4.8860     0.2250    -0.7110 H     1 <1>   0.0800 
 28 H       -4.5030    -0.5400    -2.2450 H     1 <1>   0.0800 
 29 H       -2.8490    -2.2920     2.8790 H     1 <1>   0.1500 
 30 H       -6.4330    -4.9280     2.5240 H     1 <1>   0.0800 
 31 H       -5.4650    -3.4900     2.3090 H     1 <1>   0.0800 
 32 H       -3.8940    -7.0990     1.0870 H     1 <1>   0.0800 
 33 H       -5.4900    -7.1010     1.8110 H     1 <1>   0.0800 
 34 H       -5.6990    -4.5940    -1.6970 H     1 <1>   0.1000 
 35 H       -7.1870    -5.4070    -1.1630 H     1 <1>   0.1000 
@<TRIPOS>BOND
  1   1   2  1   
  2   2   3  ar  
  3   2   4  ar  
  4   3   5  1   
  5   3   6  ar  
  6   4   7  ar  
  7   4  25  1   
  8   5   8  1   
  9   6   9  1   
 10   6  10  ar  
 11   7  10  ar  
 12   7  11  1   
 13   8  26  1   
 14   8  27  1   
 15   8  28  1   
 16  10  29  1   
 17  11  12  2   
 18  11  13  am  
 19  13  14  1   
 20  13  15  1   
 21  14  16  1   
 22  14  30  1   
 23  14  31  1   
 24  15  17  1   
 25  15  32  1   
 26  15  33  1   
 27  16  17  1   
 28  16  18  1   
 29  16  19  1   
 30  17  19  1   
 31  17  20  1   
 32  18  21  ar  
 33  18  22  ar  
 34  19  34  1   
 35  19  35  1   
 36  20  23  ar  
 37  20  24  ar  
@<TRIPOS>SUBSTRUCTURE
  1 ****   4 GROUP 4 **** **** 0

# MOE 2024.06 (io_trps.svl 2023.06)
