@<TRIPOS>MOLECULE
NONAME
42 44 1 0 0 
SMALL
USER_CHARGES


@<TRIPOS>ATOM
  1 CL       1.4660     0.5580    -1.6980 Cl    1 <1>  -0.1770 
  2 C        0.5630     1.5900    -0.6110 C.ar  1 <1>   0.1770 
  3 C        1.1710     2.2270     0.4680 C.ar  1 <1>  -0.1440 
  4 C       -0.7860     1.7470    -0.8780 C.ar  1 <1>  -0.1500 
  5 C        0.3800     3.0380     1.2730 C.ar  1 <1>  -0.1500 
  6 C        2.6540     2.0760     0.8080 C.3   1 <1>   0.3640 
  7 C       -1.5570     2.5550    -0.0620 C.ar  1 <1>  -0.1500 
  8 C       -0.9700     3.2000     1.0120 C.ar  1 <1>  -0.1500 
  9 N        2.9200     0.6490     1.1130 N.am  1 <1>  -0.7300 
 10 C        3.5970     2.6610    -0.2840 C.3   1 <1>   0.2610 
 11 C        3.9250    -0.0600     0.5560 C.2   1 <1>   0.5690 
 12 O        4.8710     2.0260    -0.2840 O.3   1 <1>  -0.5600 
 13 C        3.7620     4.1740    -0.0840 C.2   1 <1>   0.5690 
 14 O        4.0970    -1.2170     0.8440 O.2   1 <1>  -0.5700 
 15 C        4.8340     0.6270    -0.4630 C.3   1 <1>   0.1810 
 16 O        2.8010     4.8620     0.1680 O.2   1 <1>  -0.5700 
 17 N        4.9950     4.7300    -0.1910 N.am  1 <1>  -0.7300 
 18 C        5.2890     6.1570    -0.0440 C.3   1 <1>   0.2010 
 19 C        6.7750     6.5110    -0.2460 C.2   1 <1>   0.5690 
 20 O        7.5930     5.6280    -0.4940 O.2   1 <1>  -0.5700 
 21 N        7.1400     7.8200    -0.1410 N.am  1 <1>  -0.5790 
 22 C        8.5060     8.3380    -0.3030 C.3   1 <1>   0.0490 
 23 C        8.9210     9.4960     0.5410 C.3   1 <1>  -0.2000 
 24 C        8.6750     9.6840    -0.9260 C.3   1 <1>  -0.2000 
 25 H       -1.2250     1.2410    -1.7180 H     1 <1>   0.1500 
 26 H        0.8110     3.5590     2.1120 H     1 <1>   0.1500 
 27 H        2.8480     2.6250     1.7140 H     1 <1>   0.0800 
 28 H       -2.6070     2.6840    -0.2630 H     1 <1>   0.1500 
 29 H       -1.5670     3.8340     1.6460 H     1 <1>   0.1500 
 30 H        2.2850     0.1720     1.7540 H     1 <1>   0.3700 
 31 H        3.1680     2.5160    -1.2570 H     1 <1>   0.0800 
 32 H        4.4870     0.4170    -1.4580 H     1 <1>   0.0800 
 33 H        5.8360     0.2550    -0.3560 H     1 <1>   0.0800 
 34 H        5.7840     4.1150    -0.3700 H     1 <1>   0.3700 
 35 H        4.7020     6.7190    -0.7710 H     1 <1>   0.0800 
 36 H        4.9930     6.4830     0.9530 H     1 <1>   0.0800 
 37 H        6.4410     8.5330     0.0660 H     1 <1>   0.3700 
 38 H        9.2330     7.5710    -0.5230 H     1 <1>   0.1000 
 39 H        8.2210     9.9050     1.2480 H     1 <1>   0.1000 
 40 H        9.9360     9.5350     0.8960 H     1 <1>   0.1000 
 41 H        9.5240     9.8500    -1.5660 H     1 <1>   0.1000 
 42 H        7.8030    10.2250    -1.2470 H     1 <1>   0.1000 
@<TRIPOS>BOND
  1   1   2  1   
  2   2   3  ar  
  3   2   4  ar  
  4   3   5  ar  
  5   3   6  1   
  6   4   7  ar  
  7   4  25  1   
  8   5   8  ar  
  9   5  26  1   
 10   6   9  1   
 11   6  10  1   
 12   6  27  1   
 13   7   8  ar  
 14   7  28  1   
 15   8  29  1   
 16   9  11  am  
 17   9  30  1   
 18  10  12  1   
 19  10  13  1   
 20  10  31  1   
 21  11  14  2   
 22  11  15  1   
 23  12  15  1   
 24  13  16  2   
 25  13  17  am  
 26  15  32  1   
 27  15  33  1   
 28  17  18  1   
 29  17  34  1   
 30  18  19  1   
 31  18  35  1   
 32  18  36  1   
 33  19  20  2   
 34  19  21  am  
 35  21  22  1   
 36  21  37  1   
 37  22  23  1   
 38  22  24  1   
 39  22  38  1   
 40  23  24  1   
 41  23  39  1   
 42  23  40  1   
 43  24  41  1   
 44  24  42  1   
@<TRIPOS>SUBSTRUCTURE
  1 ****  13 GROUP 4 **** **** 0

# MOE 2024.06 (io_trps.svl 2023.06)
