@<TRIPOS>MOLECULE
NONAME
50 53 1 0 0 
SMALL
USER_CHARGES


@<TRIPOS>ATOM
  1 S       -0.7750     0.6020     1.1650 S.o2  1 <1>   1.4470 
  2 O       -0.7570    -0.6160     1.9510 O.2   1 <1>  -0.6500 
  3 O       -1.2990     1.8050     1.7760 O.2   1 <1>  -0.6500 
  4 N       -1.7040     0.2900    -0.2230 N.am  1 <1>  -0.8490 
  5 C        0.8900     0.9180     0.5100 C.ar  1 <1>  -0.0090 
  6 C       -3.1440     0.3250     0.0230 C.3   1 <1>   0.1960 
  7 C       -1.4460    -1.0190    -0.8200 C.3   1 <1>   0.1960 
  8 C        1.1440     1.9760    -0.4080 C.ar  1 <1>   0.0000 
  9 C        1.9310     0.1110     0.9060 C.ar  1 <1>  -0.1500 
 10 C       -3.5250    -1.0910     0.4580 C.3   1 <1>  -0.0800 
 11 C       -2.5560    -1.9720    -0.3500 C.3   1 <1>  -0.0800 
 12 C        2.4610     2.1570    -0.8960 C.ar  1 <1>   0.0000 
 13 C        0.1560     2.8770    -0.8760 C.ar  1 <1>  -0.1500 
 14 C        3.2300     0.2940     0.4280 C.ar  1 <1>  -0.1500 
 15 C       -5.0280    -1.4750     0.3600 C.3   1 <1>   0.2800 
 16 C       -3.2410    -2.6700    -1.5370 C.3   1 <1>  -0.1600 
 17 C        3.4860     1.2980    -0.4570 C.ar  1 <1>  -0.1500 
 18 C        2.7300     3.1950    -1.8110 C.ar  1 <1>  -0.1500 
 19 C        0.4440     3.8760    -1.7640 C.ar  1 <1>  -0.1500 
 20 O       -5.6030    -0.8620    -0.7370 O.3   1 <1>  -0.6800 
 21 C       -5.1570    -2.9960     0.1550 C.3   1 <1>  -0.1600 
 22 C       -5.8520    -1.0550     1.6000 C.3   1 <1>  -0.1600 
 23 C       -4.4330    -3.5350    -1.0970 C.3   1 <1>  -0.1600 
 24 C        1.7460     4.0390    -2.2400 C.ar  1 <1>  -0.1500 
 25 C       -5.8820     0.4480     1.9230 C.3   1 <1>  -0.2400 
 26 H       -3.4100     1.0710     0.7490 H     1 <1>   0.0800 
 27 H       -3.6330     0.5700    -0.9050 H     1 <1>   0.0800 
 28 H       -1.4840    -0.9110    -1.8910 H     1 <1>   0.0800 
 29 H       -0.4710    -1.3940    -0.5570 H     1 <1>   0.0800 
 30 H        1.7620    -0.6910     1.6050 H     1 <1>   0.1500 
 31 H       -3.2440    -1.1940     1.4910 H     1 <1>   0.0800 
 32 H       -2.1310    -2.7210     0.2950 H     1 <1>   0.0800 
 33 H       -0.8570     2.7860    -0.5320 H     1 <1>   0.1500 
 34 H        4.0140    -0.3620     0.7660 H     1 <1>   0.1500 
 35 H       -3.6020    -1.9160    -2.2170 H     1 <1>   0.0800 
 36 H       -2.5330    -3.2770    -2.0740 H     1 <1>   0.0800 
 37 H        4.4810     1.4500    -0.8340 H     1 <1>   0.1500 
 38 H        3.7360     3.3140    -2.1710 H     1 <1>   0.1500 
 39 H       -0.3260     4.5470    -2.1050 H     1 <1>   0.1500 
 40 H       -6.5280    -1.1550    -0.8200 H     1 <1>   0.4000 
 41 H       -4.7240    -3.4750     1.0160 H     1 <1>   0.0800 
 42 H       -6.1910    -3.2880     0.1260 H     1 <1>   0.0800 
 43 H       -6.8650    -1.3930     1.4700 H     1 <1>   0.0800 
 44 H       -5.4640    -1.5710     2.4610 H     1 <1>   0.0800 
 45 H       -4.0950    -4.5370    -0.8940 H     1 <1>   0.0800 
 46 H       -5.1300    -3.5900    -1.9150 H     1 <1>   0.0800 
 47 H        1.9560     4.8300    -2.9380 H     1 <1>   0.1500 
 48 H       -6.1500     1.0250     1.0550 H     1 <1>   0.0800 
 49 H       -4.9270     0.7800     2.2870 H     1 <1>   0.0800 
 50 H       -6.6090     0.6390     2.6930 H     1 <1>   0.0800 
@<TRIPOS>BOND
  1   1   2  2   
  2   1   3  2   
  3   1   4  am  
  4   1   5  1   
  5   4   6  1   
  6   4   7  1   
  7   5   8  ar  
  8   5   9  ar  
  9   6  10  1   
 10   6  26  1   
 11   6  27  1   
 12   7  11  1   
 13   7  28  1   
 14   7  29  1   
 15   8  12  ar  
 16   8  13  ar  
 17   9  14  ar  
 18   9  30  1   
 19  10  11  1   
 20  10  15  1   
 21  10  31  1   
 22  11  16  1   
 23  11  32  1   
 24  12  17  ar  
 25  12  18  ar  
 26  13  19  ar  
 27  13  33  1   
 28  14  17  ar  
 29  14  34  1   
 30  15  20  1   
 31  15  21  1   
 32  15  22  1   
 33  16  23  1   
 34  16  35  1   
 35  16  36  1   
 36  17  37  1   
 37  18  24  ar  
 38  18  38  1   
 39  19  24  ar  
 40  19  39  1   
 41  20  40  1   
 42  21  23  1   
 43  21  41  1   
 44  21  42  1   
 45  22  25  1   
 46  22  43  1   
 47  22  44  1   
 48  23  45  1   
 49  23  46  1   
 50  24  47  1   
 51  25  48  1   
 52  25  49  1   
 53  25  50  1   
@<TRIPOS>SUBSTRUCTURE
  1 ****   4 GROUP 4 **** **** 0

# MOE 2024.06 (io_trps.svl 2023.06)
