@<TRIPOS>MOLECULE
NONAME
55 57 1 0 0 
SMALL
USER_CHARGES


@<TRIPOS>ATOM
  1 O       -2.0080    -0.3530     2.8420 O.2   1 <1>  -0.5700 
  2 C       -1.9830     0.3630     1.8690 C.2   1 <1>   0.5690 
  3 N       -2.2580    -0.1210     0.6150 N.am  1 <1>  -0.6600 
  4 C       -1.6400     1.8310     2.1000 C.3   1 <1>   0.0440 
  5 C       -2.5610    -1.5710     0.3960 C.3   1 <1>   0.3640 
  6 C       -2.2800     0.7270    -0.6160 C.3   1 <1>   0.1400 
  7 C       -0.4190     2.3130     1.3190 C.ar  1 <1>  -0.1440 
  8 C       -1.3020    -2.2720    -0.1540 C.ar  1 <1>  -0.1440 
  9 C       -3.8470    -1.7060    -0.4740 C.3   1 <1>   0.2000 
 10 C       -2.8080    -0.0170    -1.8550 C.3   1 <1>   0.1200 
 11 C       -0.4520     3.5260     0.6470 C.ar  1 <1>  -0.1500 
 12 C        0.7300     1.5390     1.2660 C.ar  1 <1>  -0.1500 
 13 C       -0.1540    -2.2500     0.6300 C.ar  1 <1>  -0.1500 
 14 C       -1.2480    -2.9350    -1.3780 C.ar  1 <1>  -0.1500 
 15 O       -3.9340    -0.7980    -1.5580 O.3   1 <1>  -0.5600 
 16 C       -5.1090    -1.4920     0.3720 C.3   1 <1>   0.1200 
 17 C        0.6440     3.9620    -0.0800 C.ar  1 <1>  -0.1430 
 18 C        1.8260     1.9670     0.5390 C.ar  1 <1>  -0.1500 
 19 C        1.0200    -2.8500     0.2110 C.ar  1 <1>   0.0830 
 20 C       -0.0760    -3.5340    -1.8100 C.ar  1 <1>  -0.1500 
 21 O       -5.3200    -2.5810     1.2130 O.3   1 <1>  -0.6800 
 22 C        1.7820     3.1750    -0.1340 C.ar  1 <1>  -0.1500 
 23 C        0.5980     5.2890    -0.8150 C.3   1 <1>  -0.0970 
 24 O        2.0840    -2.8000     1.0480 O.3   1 <1>  -0.3630 
 25 C        1.0670    -3.4820    -1.0340 C.ar  1 <1>   0.0830 
 26 C        2.4430    -4.0210     1.6540 C.3   1 <1>   0.0400 
 27 O        2.1890    -4.0580    -1.5340 O.3   1 <1>  -0.3630 
 28 C        3.2860    -3.2030    -1.7720 C.3   1 <1>   0.0400 
 29 H       -2.5020     2.4190     1.8480 H     1 <1>   0.0800 
 30 H       -1.4490     1.9760     3.1470 H     1 <1>   0.0800 
 31 H       -2.7710    -2.0400     1.3420 H     1 <1>   0.0800 
 32 H       -2.9010     1.5880    -0.4420 H     1 <1>   0.0800 
 33 H       -1.2830     1.0720    -0.8300 H     1 <1>   0.0800 
 34 H       -3.9030    -2.6940    -0.8890 H     1 <1>   0.0800 
 35 H       -2.0450    -0.6480    -2.2690 H     1 <1>   0.0800 
 36 H       -3.0920     0.6920    -2.6130 H     1 <1>   0.0800 
 37 H       -1.3350     4.1380     0.6870 H     1 <1>   0.1500 
 38 H        0.7810     0.5960     1.7850 H     1 <1>   0.1500 
 39 H       -0.1630    -1.7650     1.5890 H     1 <1>   0.1500 
 40 H       -2.1060    -2.9950    -2.0230 H     1 <1>   0.1500 
 41 H       -5.9750    -1.3880    -0.2590 H     1 <1>   0.0800 
 42 H       -5.0030    -0.6150     0.9870 H     1 <1>   0.0800 
 43 H        2.7120     1.3570     0.4990 H     1 <1>   0.1500 
 44 H       -0.0410    -4.0390    -2.7580 H     1 <1>   0.1500 
 45 H       -5.6590    -3.3500     0.7130 H     1 <1>   0.4000 
 46 H        2.6400     3.4990    -0.6970 H     1 <1>   0.1500 
 47 H        1.5810     5.7230    -0.8660 H     1 <1>   0.0800 
 48 H       -0.0490     5.9800    -0.3050 H     1 <1>   0.0800 
 49 H        0.2330     5.1400    -1.8150 H     1 <1>   0.0800 
 50 H        3.2580    -3.8350     2.3290 H     1 <1>   0.0800 
 51 H        2.7440    -4.7190     0.8940 H     1 <1>   0.0800 
 52 H        1.5940    -4.4010     2.1950 H     1 <1>   0.0800 
 53 H        4.0270    -3.7530    -2.3230 H     1 <1>   0.0800 
 54 H        3.6970    -2.8790    -0.8330 H     1 <1>   0.0800 
 55 H        2.9500    -2.3580    -2.3460 H     1 <1>   0.0800 
@<TRIPOS>BOND
  1   1   2  2   
  2   2   3  am  
  3   2   4  1   
  4   3   5  1   
  5   3   6  1   
  6   4   7  1   
  7   4  29  1   
  8   4  30  1   
  9   5   8  1   
 10   5   9  1   
 11   5  31  1   
 12   6  10  1   
 13   6  32  1   
 14   6  33  1   
 15   7  11  ar  
 16   7  12  ar  
 17   8  13  ar  
 18   8  14  ar  
 19   9  15  1   
 20   9  16  1   
 21   9  34  1   
 22  10  15  1   
 23  10  35  1   
 24  10  36  1   
 25  11  17  ar  
 26  11  37  1   
 27  12  18  ar  
 28  12  38  1   
 29  13  19  ar  
 30  13  39  1   
 31  14  20  ar  
 32  14  40  1   
 33  16  21  1   
 34  16  41  1   
 35  16  42  1   
 36  17  22  ar  
 37  17  23  1   
 38  18  22  ar  
 39  18  43  1   
 40  19  24  1   
 41  19  25  ar  
 42  20  25  ar  
 43  20  44  1   
 44  21  45  1   
 45  22  46  1   
 46  23  47  1   
 47  23  48  1   
 48  23  49  1   
 49  24  26  1   
 50  25  27  1   
 51  26  50  1   
 52  26  51  1   
 53  26  52  1   
 54  27  28  1   
 55  28  53  1   
 56  28  54  1   
 57  28  55  1   
@<TRIPOS>SUBSTRUCTURE
  1 ****   3 GROUP 4 **** **** 0

# MOE 2024.06 (io_trps.svl 2023.06)
