@<TRIPOS>MOLECULE
NONAME
51 55 1 0 0 
SMALL
USER_CHARGES


@<TRIPOS>ATOM
  1 N        0.1860     0.3910     0.3670 N.ar  1 <1>  -0.6200 
  2 C       -1.0820     0.8230     0.4590 C.ar  1 <1>   0.6200 
  3 C        0.9960     1.1650    -0.3100 C.ar  1 <1>   0.1660 
  4 N       -1.5460     1.9640    -0.0690 N.ar  1 <1>  -0.6200 
  5 C       -2.0210    -0.0070     1.1970 C.ar  1 <1>   0.0000 
  6 C        0.6120     2.3370    -0.8810 C.ar  1 <1>  -0.1430 
  7 C        2.4620     0.8800    -0.5390 C.3   1 <1>   0.1440 
  8 C       -0.6990     2.7120    -0.7380 C.ar  1 <1>   0.1600 
  9 C       -3.0380     0.5550     1.9740 C.ar  1 <1>  -0.1500 
 10 C       -1.9470    -1.4030     1.1640 C.ar  1 <1>  -0.1500 
 11 C        1.7590     3.0190    -1.5830 C.3   1 <1>  -0.0160 
 12 C        3.0970     0.4610     0.8010 C.3   1 <1>   0.3430 
 13 C        2.6280    -0.2450    -1.5820 C.3   1 <1>  -0.1600 
 14 C        2.9870     2.2440    -1.0650 C.3   1 <1>  -0.1600 
 15 C       -3.9290    -0.2300     2.6830 C.ar  1 <1>  -0.1500 
 16 C       -2.8340    -2.1940     1.8710 C.ar  1 <1>  -0.1500 
 17 N        4.5330     0.0320     0.6440 N.4   1 <1>  -0.9590 
 18 C        4.0830    -0.7380    -1.6710 C.3   1 <1>  -0.1600 
 19 C       -3.8280    -1.6080     2.6340 C.ar  1 <1>  -0.1500 
 20 C        4.6470    -1.1240    -0.3010 C.3   1 <1>   0.3430 
 21 C        5.1440    -0.2670     1.9730 C.3   1 <1>   0.4860 
 22 C        6.6240    -0.5260     1.8090 C.ar  1 <1>  -0.1430 
 23 C        7.5180     0.5010     1.6020 C.ar  1 <1>   0.1600 
 24 C        7.1400    -1.8020     1.8600 C.ar  1 <1>   0.1600 
 25 N        8.8010     0.2850     1.4300 N.ar  1 <1>  -0.6200 
 26 N        8.4180    -2.0440     1.6910 N.ar  1 <1>  -0.6200 
 27 C        9.1820    -0.9820     1.4870 C.ar  1 <1>   0.4700 
 28 H       -1.0590     3.6310    -1.1710 H     1 <1>   0.1500 
 29 H       -3.1330     1.6260     2.0200 H     1 <1>   0.1500 
 30 H       -1.1850    -1.8750     0.5710 H     1 <1>   0.1500 
 31 H        1.8130     4.0660    -1.3370 H     1 <1>   0.0800 
 32 H        1.6510     2.9010    -2.6480 H     1 <1>   0.0800 
 33 H        2.5190    -0.3550     1.2040 H     1 <1>   0.0800 
 34 H        3.0250     1.2860     1.4900 H     1 <1>   0.0800 
 35 H        2.2920     0.0930    -2.5490 H     1 <1>   0.0800 
 36 H        1.9990    -1.0740    -1.3020 H     1 <1>   0.0800 
 37 H        3.7300     2.1440    -1.8370 H     1 <1>   0.0800 
 38 H        3.4120     2.8080    -0.2530 H     1 <1>   0.0800 
 39 H       -4.7020     0.2310     3.2720 H     1 <1>   0.1500 
 40 H       -2.7550    -3.2660     1.8270 H     1 <1>   0.1500 
 41 H        5.0560     0.8110     0.2230 H     1 <1>   0.4500 
 42 H        4.7110     0.0130    -2.1180 H     1 <1>   0.0800 
 43 H        4.1210    -1.6000    -2.3150 H     1 <1>   0.0800 
 44 H       -4.5200    -2.2220     3.1850 H     1 <1>   0.1500 
 45 H        4.0980    -1.9680     0.0850 H     1 <1>   0.0800 
 46 H        5.6810    -1.4140    -0.4140 H     1 <1>   0.0800 
 47 H        4.6670    -1.1290     2.4120 H     1 <1>   0.0800 
 48 H        5.0030     0.5690     2.6400 H     1 <1>   0.0800 
 49 H        7.1910     1.5270     1.5720 H     1 <1>   0.1500 
 50 H        6.5030    -2.6530     2.0400 H     1 <1>   0.1500 
 51 H       10.2360    -1.1700     1.3510 H     1 <1>   0.1500 
@<TRIPOS>BOND
  1   1   2  ar  
  2   1   3  ar  
  3   2   4  ar  
  4   2   5  1   
  5   3   6  ar  
  6   3   7  1   
  7   4   8  ar  
  8   5   9  ar  
  9   5  10  ar  
 10   6   8  ar  
 11   6  11  1   
 12   7  12  1   
 13   7  13  1   
 14   7  14  1   
 15   8  28  1   
 16   9  15  ar  
 17   9  29  1   
 18  10  16  ar  
 19  10  30  1   
 20  11  14  1   
 21  11  31  1   
 22  11  32  1   
 23  12  17  1   
 24  12  33  1   
 25  12  34  1   
 26  13  18  1   
 27  13  35  1   
 28  13  36  1   
 29  14  37  1   
 30  14  38  1   
 31  15  19  ar  
 32  15  39  1   
 33  16  19  ar  
 34  16  40  1   
 35  17  20  1   
 36  17  21  1   
 37  17  41  1   
 38  18  20  1   
 39  18  42  1   
 40  18  43  1   
 41  19  44  1   
 42  20  45  1   
 43  20  46  1   
 44  21  22  1   
 45  21  47  1   
 46  21  48  1   
 47  22  23  ar  
 48  22  24  ar  
 49  23  25  ar  
 50  23  49  1   
 51  24  26  ar  
 52  24  50  1   
 53  25  27  ar  
 54  26  27  ar  
 55  27  51  1   
@<TRIPOS>SUBSTRUCTURE
  1 ****  12 GROUP 4 **** **** 0

# MOE 2024.06 (io_trps.svl 2023.06)
