@<TRIPOS>MOLECULE
NONAME
41 42 1 0 0 
SMALL
USER_CHARGES


@<TRIPOS>ATOM
  1 CL      -2.0310     0.3070     0.0280 Cl    1 <1>  -0.1240 
  2 C       -1.8060    -1.3060     0.6400 C.2   1 <1>   0.1640 
  3 S       -3.2190    -2.3310     0.6830 S.3   1 <1>  -0.0800 
  4 C       -0.7140    -1.9390     1.1000 C.2   1 <1>  -0.1500 
  5 C       -2.2790    -3.6810     1.3410 C.2   1 <1>  -0.0450 
  6 C       -0.9890    -3.2800     1.5030 C.2   1 <1>  -0.1500 
  7 C       -2.9300    -4.9270     1.6560 C.2   1 <1>   0.7150 
  8 O       -2.8000    -5.3770     2.7780 O.2   1 <1>  -0.5700 
  9 N       -3.6920    -5.6460     0.7530 N.am  1 <1>  -0.6600 
 10 C       -4.1810    -7.0020     1.2080 C.3   1 <1>   0.3210 
 11 C       -3.7360    -5.3190    -0.7170 C.3   1 <1>   0.1400 
 12 C       -4.8200    -7.8780     0.1280 C.2   1 <1>   0.0460 
 13 C       -4.9650    -4.4900    -1.1720 C.3   1 <1>   0.3430 
 14 N       -6.0830    -7.6650    -0.3040 N.2   1 <1>  -0.5650 
 15 C       -4.2730    -8.9440    -0.5050 C.2   1 <1>  -0.3320 
 16 N       -6.2390    -4.8100    -0.4530 N.4   1 <1>  -0.9590 
 17 C       -6.2820    -8.6120    -1.1640 C.2   1 <1>   0.0360 
 18 N       -5.2180    -9.4220    -1.3350 N.pl3 1 <1>   0.0330 
 19 C       -2.9000    -9.5880    -0.3840 C.3   1 <1>  -0.0600 
 20 C       -7.4340    -4.5950    -1.3160 C.3   1 <1>   0.2630 
 21 C       -6.3800    -4.0840     0.8460 C.3   1 <1>   0.2630 
 22 H        0.2700    -1.5100     1.1730 H     1 <1>   0.1500 
 23 H       -0.2100    -3.9020     1.9120 H     1 <1>   0.1500 
 24 H       -4.8960    -6.8660     2.0000 H     1 <1>   0.0800 
 25 H       -3.3500    -7.5410     1.6290 H     1 <1>   0.0800 
 26 H       -3.7000    -6.2240    -1.2970 H     1 <1>   0.0800 
 27 H       -2.8470    -4.7760    -0.9890 H     1 <1>   0.0800 
 28 H       -5.0980    -4.6680    -2.2260 H     1 <1>   0.0800 
 29 H       -4.7500    -3.4420    -1.0600 H     1 <1>   0.0800 
 30 H       -6.1950    -5.8340    -0.2420 H     1 <1>   0.4500 
 31 H       -7.2010    -8.7670    -1.7040 H     1 <1>   0.1500 
 32 H       -5.1540   -10.2390    -1.9510 H     1 <1>   0.2700 
 33 H       -2.2730    -9.0380     0.2930 H     1 <1>   0.0800 
 34 H       -2.4160    -9.6150    -1.3450 H     1 <1>   0.0800 
 35 H       -2.9950   -10.5950    -0.0170 H     1 <1>   0.0800 
 36 H       -7.5240    -3.5540    -1.5820 H     1 <1>   0.0800 
 37 H       -8.3270    -4.9000    -0.7950 H     1 <1>   0.0800 
 38 H       -7.3500    -5.1810    -2.2170 H     1 <1>   0.0800 
 39 H       -6.4080    -3.0200     0.6800 H     1 <1>   0.0800 
 40 H       -5.5520    -4.3090     1.4970 H     1 <1>   0.0800 
 41 H       -7.2890    -4.3830     1.3410 H     1 <1>   0.0800 
@<TRIPOS>BOND
  1   1   2  1   
  2   2   3  1   
  3   2   4  2   
  4   3   5  1   
  5   4   6  1   
  6   4  22  1   
  7   5   6  2   
  8   5   7  1   
  9   6  23  1   
 10   7   8  2   
 11   7   9  am  
 12   9  10  1   
 13   9  11  1   
 14  10  12  1   
 15  10  24  1   
 16  10  25  1   
 17  11  13  1   
 18  11  26  1   
 19  11  27  1   
 20  12  14  1   
 21  12  15  2   
 22  13  16  1   
 23  13  28  1   
 24  13  29  1   
 25  14  17  2   
 26  15  18  1   
 27  15  19  1   
 28  16  20  1   
 29  16  21  1   
 30  16  30  1   
 31  17  18  1   
 32  17  31  1   
 33  18  32  1   
 34  19  33  1   
 35  19  34  1   
 36  19  35  1   
 37  20  36  1   
 38  20  37  1   
 39  20  38  1   
 40  21  39  1   
 41  21  40  1   
 42  21  41  1   
@<TRIPOS>SUBSTRUCTURE
  1 ****   9 GROUP 4 **** **** 0

# MOE 2024.06 (io_trps.svl 2023.06)
