@<TRIPOS>MOLECULE
NONAME
56 59 1 0 0 
SMALL
USER_CHARGES


@<TRIPOS>ATOM
  1 O        3.8080     2.7350     1.0470 O.co2 1 <1>  -0.9000 
  2 C        3.2620     1.6430     1.2160 C.2   1 <1>   0.9060 
  3 O        3.4870     0.9770     2.2300 O.co2 1 <1>  -0.9000 
  4 C        2.6250     0.9340     0.0020 C.3   1 <1>  -0.1060 
  5 C        3.4790    -0.3330    -0.2060 C.3   1 <1>   0.4230 
  6 C        2.7360     1.7920    -1.3020 C.3   1 <1>  -0.1600 
  7 C        1.1320     0.5850     0.2340 C.3   1 <1>  -0.1600 
  8 N        3.2460    -1.3050     0.9260 N.4   1 <1>  -0.9590 
  9 C        4.9820     0.0850    -0.3970 C.3   1 <1>   0.3430 
 10 C        4.1490     1.9180    -1.9070 C.3   1 <1>   0.3430 
 11 C        0.9390    -0.5090     1.2930 C.3   1 <1>  -0.1600 
 12 C        1.8230    -1.7290     1.0350 C.3   1 <1>   0.3430 
 13 C        4.1710    -2.4720     1.0180 C.3   1 <1>   0.2630 
 14 N        5.1700     1.4920    -0.9130 N.4   1 <1>  -0.9590 
 15 C        6.5680     1.8620    -1.2550 C.3   1 <1>   0.4860 
 16 C        6.6390     3.3550    -1.5190 C.ar  1 <1>  -0.1440 
 17 C        6.2570     4.2590    -0.5370 C.ar  1 <1>  -0.1500 
 18 C        7.0740     3.8290    -2.7480 C.ar  1 <1>  -0.1500 
 19 C        6.2890     5.6220    -0.7800 C.ar  1 <1>  -0.1440 
 20 C        7.1180     5.1900    -2.9910 C.ar  1 <1>  -0.1500 
 21 C        6.7250     6.0830    -2.0110 C.ar  1 <1>  -0.1500 
 22 C        5.8440     6.6070     0.2970 C.3   1 <1>   0.2390 
 23 N        6.9850     7.4150     0.7780 N.pl3 1 <1>   0.3140 
 24 N        7.1080     8.7300     0.5000 N.2   1 <1>  -0.7070 
 25 C        8.0160     6.9810     1.5320 C.2   1 <1>  -0.3020 
 26 C        8.2110     9.0920     1.0800 C.2   1 <1>   0.1390 
 27 C        8.8260     8.0380     1.7440 C.2   1 <1>  -0.1500 
 28 H        3.1540    -0.8030    -1.1180 H     1 <1>   0.0800 
 29 H        2.3720     2.7860    -1.0940 H     1 <1>   0.0800 
 30 H        2.0960     1.3970    -2.0700 H     1 <1>   0.0800 
 31 H        0.5990     1.4720     0.5380 H     1 <1>   0.0800 
 32 H        0.6880     0.2410    -0.6850 H     1 <1>   0.0800 
 33 H        3.3910    -0.6870     1.7740 H     1 <1>   0.4500 
 34 H        5.4520    -0.6110    -1.0700 H     1 <1>   0.0800 
 35 H        5.4690     0.0190     0.5620 H     1 <1>   0.0800 
 36 H        4.3150     2.9460    -2.1920 H     1 <1>   0.0800 
 37 H        4.2280     1.3090    -2.7930 H     1 <1>   0.0800 
 38 H       -0.0920    -0.8180     1.3020 H     1 <1>   0.0800 
 39 H        1.1550    -0.1170     2.2720 H     1 <1>   0.0800 
 40 H        1.5140    -2.2190     0.1260 H     1 <1>   0.0800 
 41 H        1.7080    -2.4220     1.8530 H     1 <1>   0.0800 
 42 H        4.0680    -3.1040     0.1510 H     1 <1>   0.0800 
 43 H        3.9400    -3.0530     1.8970 H     1 <1>   0.0800 
 44 H        5.1920    -2.1400     1.0970 H     1 <1>   0.0800 
 45 H        4.9360     2.1260    -0.1010 H     1 <1>   0.4500 
 46 H        7.2230     1.6220    -0.4330 H     1 <1>   0.0800 
 47 H        6.8950     1.3200    -2.1260 H     1 <1>   0.0800 
 48 H        5.9240     3.9100     0.4280 H     1 <1>   0.1500 
 49 H        7.3840     3.1530    -3.5270 H     1 <1>   0.1500 
 50 H        7.4600     5.5610    -3.9420 H     1 <1>   0.1500 
 51 H        6.7650     7.1440    -2.2050 H     1 <1>   0.1500 
 52 H        5.4160     6.0890     1.1350 H     1 <1>   0.0800 
 53 H        5.1030     7.2730    -0.1040 H     1 <1>   0.0800 
 54 H        8.1110     5.9630     1.8640 H     1 <1>   0.1500 
 55 H        8.5960    10.0970     1.0450 H     1 <1>   0.1500 
 56 H        9.7470     8.0860     2.2970 H     1 <1>   0.1500 
@<TRIPOS>BOND
  1   1   2  ar  
  2   2   3  ar  
  3   2   4  1   
  4   4   5  1   
  5   4   6  1   
  6   4   7  1   
  7   5   8  1   
  8   5   9  1   
  9   5  28  1   
 10   6  10  1   
 11   6  29  1   
 12   6  30  1   
 13   7  11  1   
 14   7  31  1   
 15   7  32  1   
 16   8  12  1   
 17   8  13  1   
 18   8  33  1   
 19   9  14  1   
 20   9  34  1   
 21   9  35  1   
 22  10  14  1   
 23  10  36  1   
 24  10  37  1   
 25  11  12  1   
 26  11  38  1   
 27  11  39  1   
 28  12  40  1   
 29  12  41  1   
 30  13  42  1   
 31  13  43  1   
 32  13  44  1   
 33  14  15  1   
 34  14  45  1   
 35  15  16  1   
 36  15  46  1   
 37  15  47  1   
 38  16  17  ar  
 39  16  18  ar  
 40  17  19  ar  
 41  17  48  1   
 42  18  20  ar  
 43  18  49  1   
 44  19  21  ar  
 45  19  22  1   
 46  20  21  ar  
 47  20  50  1   
 48  21  51  1   
 49  22  23  1   
 50  22  52  1   
 51  22  53  1   
 52  23  24  1   
 53  23  25  1   
 54  24  26  2   
 55  25  27  2   
 56  25  54  1   
 57  26  27  1   
 58  26  55  1   
 59  27  56  1   
@<TRIPOS>SUBSTRUCTURE
  1 ****   1 GROUP 4 **** **** 0

# MOE 2024.06 (io_trps.svl 2023.06)
