@<TRIPOS>MOLECULE
NONAME
61 63 1 0 0 
SMALL
USER_CHARGES


@<TRIPOS>ATOM
  1 O       -3.1950     2.6760    -1.2840 O.2   1 <1>  -0.5700 
  2 C       -2.8540     1.7450    -0.5810 C.2   1 <1>   0.5440 
  3 N       -3.2520     0.4690    -0.9250 N.am  1 <1>  -0.6600 
  4 C       -2.0230     2.0140     0.5770 C.ar  1 <1>   0.0860 
  5 C       -2.6350    -0.7610    -0.3040 C.3   1 <1>   0.3640 
  6 C       -4.4290     0.2910    -1.8300 C.3   1 <1>   0.1400 
  7 C       -0.7640     2.5910     0.4200 C.ar  1 <1>  -0.1500 
  8 C       -2.4300     1.6900     1.8700 C.ar  1 <1>  -0.1500 
  9 C       -1.1120    -0.6800    -0.4730 C.ar  1 <1>  -0.1430 
 10 C       -3.1440    -2.1330    -0.8440 C.3   1 <1>   0.2000 
 11 C       -4.5010    -1.1060    -2.4480 C.3   1 <1>   0.1200 
 12 C        0.0880     2.7900     1.4960 C.ar  1 <1>  -0.1440 
 13 C       -1.5960     1.8930     2.9530 C.ar  1 <1>  -0.1500 
 14 C       -0.2910    -0.6940     0.6460 C.ar  1 <1>  -0.1500 
 15 C       -0.5390    -0.5640    -1.7330 C.ar  1 <1>  -0.1500 
 16 O       -4.4090    -2.0600    -1.4390 O.3   1 <1>  -0.5600 
 17 C       -3.2490    -3.1860     0.2710 C.3   1 <1>   0.1200 
 18 C       -0.3370     2.4340     2.7670 C.ar  1 <1>  -0.1500 
 19 C        1.4680     3.3930     1.3040 C.3   1 <1>   0.4860 
 20 C        1.0870    -0.5680     0.5200 C.ar  1 <1>   0.0830 
 21 C        0.8340    -0.4710    -1.8740 C.ar  1 <1>  -0.1500 
 22 O       -2.0390    -3.3370     0.9430 O.3   1 <1>  -0.6800 
 23 N        2.3280     2.4120     0.5940 N.4   1 <1>  -0.9590 
 24 O        1.9120    -0.4810     1.6010 O.3   1 <1>  -0.3630 
 25 C        1.6460    -0.4780    -0.7550 C.ar  1 <1>   0.0830 
 26 C        3.6890     2.2960     1.1870 C.3   1 <1>   0.2630 
 27 C        2.4070     2.6840    -0.8730 C.3   1 <1>   0.2630 
 28 C        1.5100    -1.0340     2.8390 C.3   1 <1>   0.0400 
 29 O        2.9830    -0.3590    -0.9290 O.3   1 <1>  -0.3630 
 30 C        3.7220    -1.5530    -0.7890 C.3   1 <1>   0.0400 
 31 H       -2.8660    -0.7350     0.7450 H     1 <1>   0.0800 
 32 H       -5.3280     0.4690    -1.2660 H     1 <1>   0.0800 
 33 H       -4.3920     1.0180    -2.6230 H     1 <1>   0.0800 
 34 H       -0.4770     2.8700    -0.5770 H     1 <1>   0.1500 
 35 H       -3.4120     1.2740     2.0200 H     1 <1>   0.1500 
 36 H       -2.4700    -2.5010    -1.5960 H     1 <1>   0.0800 
 37 H       -3.7080    -1.2590    -3.1600 H     1 <1>   0.0800 
 38 H       -5.4450    -1.2400    -2.9450 H     1 <1>   0.0800 
 39 H       -1.9310     1.6320     3.9440 H     1 <1>   0.1500 
 40 H       -0.7480    -0.7820     1.6150 H     1 <1>   0.1500 
 41 H       -1.1660    -0.5390    -2.6090 H     1 <1>   0.1500 
 42 H       -3.5290    -4.1420    -0.1380 H     1 <1>   0.0800 
 43 H       -3.9860    -2.8810     0.9940 H     1 <1>   0.0800 
 44 H        0.2990     2.5790     3.6240 H     1 <1>   0.1500 
 45 H        1.8870     3.6180     2.2710 H     1 <1>   0.0800 
 46 H        1.3970     4.3100     0.7430 H     1 <1>   0.0800 
 47 H        1.2740    -0.3920    -2.8530 H     1 <1>   0.1500 
 48 H       -1.3890    -3.8100     0.3860 H     1 <1>   0.4000 
 49 H        1.8780     1.4810     0.7150 H     1 <1>   0.4500 
 50 H        4.2240     3.2270     1.0920 H     1 <1>   0.0800 
 51 H        4.2430     1.5210     0.6810 H     1 <1>   0.0800 
 52 H        3.6190     2.0350     2.2300 H     1 <1>   0.0800 
 53 H        2.8110     3.6660    -1.0540 H     1 <1>   0.0800 
 54 H        1.4290     2.6190    -1.3200 H     1 <1>   0.0800 
 55 H        3.0420     1.9560    -1.3510 H     1 <1>   0.0800 
 56 H        2.3630    -1.0500     3.4950 H     1 <1>   0.0800 
 57 H        1.1580    -2.0390     2.6780 H     1 <1>   0.0800 
 58 H        0.7350    -0.4240     3.2650 H     1 <1>   0.0800 
 59 H        4.7570    -1.3390    -0.9890 H     1 <1>   0.0800 
 60 H        3.3540    -2.2760    -1.4960 H     1 <1>   0.0800 
 61 H        3.6100    -1.9240     0.2150 H     1 <1>   0.0800 
@<TRIPOS>BOND
  1   1   2  2   
  2   2   3  am  
  3   2   4  1   
  4   3   5  1   
  5   3   6  1   
  6   4   7  ar  
  7   4   8  ar  
  8   5   9  1   
  9   5  10  1   
 10   5  31  1   
 11   6  11  1   
 12   6  32  1   
 13   6  33  1   
 14   7  12  ar  
 15   7  34  1   
 16   8  13  ar  
 17   8  35  1   
 18   9  14  ar  
 19   9  15  ar  
 20  10  16  1   
 21  10  17  1   
 22  10  36  1   
 23  11  16  1   
 24  11  37  1   
 25  11  38  1   
 26  12  18  ar  
 27  12  19  1   
 28  13  18  ar  
 29  13  39  1   
 30  14  20  ar  
 31  14  40  1   
 32  15  21  ar  
 33  15  41  1   
 34  17  22  1   
 35  17  42  1   
 36  17  43  1   
 37  18  44  1   
 38  19  23  1   
 39  19  45  1   
 40  19  46  1   
 41  20  24  1   
 42  20  25  ar  
 43  21  25  ar  
 44  21  47  1   
 45  22  48  1   
 46  23  26  1   
 47  23  27  1   
 48  23  49  1   
 49  24  28  1   
 50  25  29  1   
 51  26  50  1   
 52  26  51  1   
 53  26  52  1   
 54  27  53  1   
 55  27  54  1   
 56  27  55  1   
 57  28  56  1   
 58  28  57  1   
 59  28  58  1   
 60  29  30  1   
 61  30  59  1   
 62  30  60  1   
 63  30  61  1   
@<TRIPOS>SUBSTRUCTURE
  1 ****  14 GROUP 4 **** **** 0

# MOE 2024.06 (io_trps.svl 2023.06)
