@<TRIPOS>MOLECULE
NONAME
45 47 1 0 0 
SMALL
USER_CHARGES


@<TRIPOS>ATOM
  1 O       -0.5130     0.2890     0.7090 O.2   1 <1>  -0.5700 
  2 C       -1.5220     0.9460     0.5430 C.2   1 <1>   0.5440 
  3 N       -2.7330     0.2970     0.4540 N.am  1 <1>  -0.6600 
  4 C       -1.4240     2.3760     0.4220 C.ar  1 <1>   0.0860 
  5 C       -3.8790     0.7730    -0.3700 C.3   1 <1>   0.1400 
  6 C       -2.8930    -1.1530     0.7260 C.3   1 <1>   0.1400 
  7 C       -2.3260     3.2440     1.0090 C.ar  1 <1>   0.1600 
  8 C       -0.4090     2.9830    -0.2930 C.ar  1 <1>   0.1600 
  9 C       -4.8010    -0.4410    -0.5560 C.3   1 <1>   0.2000 
 10 C       -3.8790    -1.6440    -0.3340 C.3   1 <1>  -0.0800 
 11 N       -2.2670     4.5470     0.8750 N.ar  1 <1>  -0.6200 
 12 N       -0.3150     4.2820    -0.4480 N.ar  1 <1>  -0.6200 
 13 O       -5.7870    -0.4390     0.4370 O.3   1 <1>  -0.5600 
 14 C       -4.6050    -2.9450     0.0540 C.3   1 <1>   0.0200 
 15 C       -1.2590     5.0060     0.1460 C.ar  1 <1>   0.7200 
 16 C       -6.9350     0.2900     0.1350 C.3   1 <1>   0.0400 
 17 C       -3.6860    -4.1550     0.0970 C.2   1 <1>  -0.0400 
 18 N       -1.2250     6.3480     0.0200 N.pl3 1 <1>  -0.8690 
 19 O       -4.1750    -5.2990     0.4970 O.3   1 <1>  -0.0190 
 20 C       -2.3920    -4.3500    -0.2060 C.2   1 <1>  -0.1500 
 21 C       -0.1980     7.1700    -0.6670 C.3   1 <1>   0.1290 
 22 N       -3.2810    -6.2450     0.4820 N.2   1 <1>  -0.4100 
 23 C       -2.1950    -5.7010     0.0630 C.2   1 <1>   0.1080 
 24 C       -0.8860    -6.4370    -0.1100 C.3   1 <1>  -0.0590 
 25 H       -4.3980     1.5800     0.1140 H     1 <1>   0.0800 
 26 H       -3.5110     1.1000    -1.3260 H     1 <1>   0.0800 
 27 H       -1.9540    -1.6770     0.6710 H     1 <1>   0.0800 
 28 H       -3.3100    -1.2750     1.7120 H     1 <1>   0.0800 
 29 H       -3.1210     2.8380     1.6110 H     1 <1>   0.1500 
 30 H        0.3440     2.3630    -0.7500 H     1 <1>   0.1500 
 31 H       -5.2700    -0.4660    -1.5260 H     1 <1>   0.0800 
 32 H       -3.3300    -1.8090    -1.2440 H     1 <1>   0.0800 
 33 H       -5.3870    -3.1410    -0.6580 H     1 <1>   0.0800 
 34 H       -5.0670    -2.8320     1.0200 H     1 <1>   0.0800 
 35 H       -7.6010     0.2270     0.9780 H     1 <1>   0.0800 
 36 H       -7.4100    -0.1380    -0.7310 H     1 <1>   0.0800 
 37 H       -6.6760     1.3190    -0.0430 H     1 <1>   0.0800 
 38 H       -1.9580     6.8350     0.5350 H     1 <1>   0.4000 
 39 H       -1.6490    -3.6660    -0.5710 H     1 <1>   0.1500 
 40 H        0.5060     6.5470    -1.1920 H     1 <1>   0.0800 
 41 H        0.3360     7.7610     0.0570 H     1 <1>   0.0800 
 42 H       -0.6740     7.8240    -1.3760 H     1 <1>   0.0800 
 43 H       -0.5650    -6.3740    -1.1330 H     1 <1>   0.0800 
 44 H       -1.0090    -7.4720     0.1540 H     1 <1>   0.0800 
 45 H       -0.1370    -6.0020     0.5260 H     1 <1>   0.0800 
@<TRIPOS>BOND
  1   1   2  2   
  2   2   3  am  
  3   2   4  1   
  4   3   5  1   
  5   3   6  1   
  6   4   7  ar  
  7   4   8  ar  
  8   5   9  1   
  9   5  25  1   
 10   5  26  1   
 11   6  10  1   
 12   6  27  1   
 13   6  28  1   
 14   7  11  ar  
 15   7  29  1   
 16   8  12  ar  
 17   8  30  1   
 18   9  10  1   
 19   9  13  1   
 20   9  31  1   
 21  10  14  1   
 22  10  32  1   
 23  11  15  ar  
 24  12  15  ar  
 25  13  16  1   
 26  14  17  1   
 27  14  33  1   
 28  14  34  1   
 29  15  18  1   
 30  16  35  1   
 31  16  36  1   
 32  16  37  1   
 33  17  19  1   
 34  17  20  2   
 35  18  21  1   
 36  18  38  1   
 37  19  22  1   
 38  20  23  1   
 39  20  39  1   
 40  21  40  1   
 41  21  41  1   
 42  21  42  1   
 43  22  23  2   
 44  23  24  1   
 45  24  43  1   
 46  24  44  1   
 47  24  45  1   
@<TRIPOS>SUBSTRUCTURE
  1 ****   3 GROUP 4 **** **** 0

# MOE 2024.06 (io_trps.svl 2023.06)
