@<TRIPOS>MOLECULE
NONAME
47 48 1 0 0 
SMALL
USER_CHARGES


@<TRIPOS>ATOM
  1 F        1.8010     0.5600     0.6890 F     1 <1>  -0.3400 
  2 C        2.6500    -0.4230     0.4250 C.3   1 <1>   1.1640 
  3 F        3.3100    -0.0660    -0.6710 F     1 <1>  -0.3400 
  4 F        3.5400    -0.4250     1.4100 F     1 <1>  -0.3400 
  5 C        1.9290    -1.7750     0.2760 C.ar  1 <1>  -0.1440 
  6 C        1.6680    -2.5700     1.3870 C.ar  1 <1>  -0.1500 
  7 C        1.5140    -2.2360    -0.9680 C.ar  1 <1>  -0.1500 
  8 C        1.0160    -3.7820     1.2550 C.ar  1 <1>  -0.1500 
  9 C        0.8620    -3.4490    -1.0930 C.ar  1 <1>  -0.1500 
 10 C        0.5880    -4.2540     0.0130 C.ar  1 <1>   0.0860 
 11 C       -0.1130    -5.5210    -0.1360 C.2   1 <1>   0.5440 
 12 O       -0.3220    -6.0070    -1.2300 O.2   1 <1>  -0.5700 
 13 N       -0.6470    -6.1890     0.9300 N.am  1 <1>  -0.6600 
 14 C       -0.1530    -7.5610     1.2600 C.3   1 <1>   0.3210 
 15 C       -1.8580    -5.6800     1.6490 C.3   1 <1>   0.1400 
 16 C       -1.0860    -8.6770     0.7900 C.2   1 <1>   0.0460 
 17 C       -3.1760    -6.1670     1.0080 C.3   1 <1>   0.3430 
 18 N       -2.1480    -9.0610     1.5320 N.2   1 <1>  -0.5650 
 19 C       -0.9800    -9.4430    -0.3220 C.2   1 <1>  -0.3320 
 20 N       -3.0880    -6.1980    -0.4860 N.4   1 <1>  -0.9590 
 21 C       -2.6320   -10.0720     0.8850 C.2   1 <1>   0.0360 
 22 N       -1.9690   -10.3520    -0.2550 N.pl3 1 <1>   0.0330 
 23 C        0.0250    -9.4090    -1.4630 C.3   1 <1>  -0.0600 
 24 C       -3.3530    -4.8800    -1.1280 C.3   1 <1>   0.2630 
 25 C       -3.9250    -7.2860    -1.0550 C.3   1 <1>   0.2630 
 26 H        1.9770    -2.2450     2.3680 H     1 <1>   0.1500 
 27 H        1.7000    -1.6500    -1.8550 H     1 <1>   0.1500 
 28 H        0.8430    -4.3740     2.1380 H     1 <1>   0.1500 
 29 H        0.5620    -3.7820    -2.0730 H     1 <1>   0.1500 
 30 H       -0.0170    -7.6470     2.3240 H     1 <1>   0.0800 
 31 H        0.8100    -7.7040     0.8020 H     1 <1>   0.0800 
 32 H       -1.8470    -4.6040     1.6390 H     1 <1>   0.0800 
 33 H       -1.8280    -5.9940     2.6790 H     1 <1>   0.0800 
 34 H       -3.9940    -5.5420     1.3250 H     1 <1>   0.0800 
 35 H       -3.3770    -7.1580     1.3730 H     1 <1>   0.0800 
 36 H       -2.0890    -6.4470    -0.6850 H     1 <1>   0.4500 
 37 H       -3.4790   -10.6530     1.2100 H     1 <1>   0.1500 
 38 H       -2.1570   -11.1200    -0.9090 H     1 <1>   0.2700 
 39 H        0.7200    -8.5980    -1.3390 H     1 <1>   0.0800 
 40 H       -0.4810    -9.2730    -2.4020 H     1 <1>   0.0800 
 41 H        0.5810   -10.3290    -1.4970 H     1 <1>   0.0800 
 42 H       -4.3700    -4.5710    -0.9490 H     1 <1>   0.0800 
 43 H       -3.1910    -4.9490    -2.1920 H     1 <1>   0.0800 
 44 H       -2.6840    -4.1330    -0.7330 H     1 <1>   0.0800 
 45 H       -4.9680    -7.0970    -0.8650 H     1 <1>   0.0800 
 46 H       -3.6530    -8.2270    -0.6060 H     1 <1>   0.0800 
 47 H       -3.7690    -7.3560    -2.1190 H     1 <1>   0.0800 
@<TRIPOS>BOND
  1   1   2  1   
  2   2   3  1   
  3   2   4  1   
  4   2   5  1   
  5   5   6  ar  
  6   5   7  ar  
  7   6   8  ar  
  8   6  26  1   
  9   7   9  ar  
 10   7  27  1   
 11   8  10  ar  
 12   8  28  1   
 13   9  10  ar  
 14   9  29  1   
 15  10  11  1   
 16  11  12  2   
 17  11  13  am  
 18  13  14  1   
 19  13  15  1   
 20  14  16  1   
 21  14  30  1   
 22  14  31  1   
 23  15  17  1   
 24  15  32  1   
 25  15  33  1   
 26  16  18  1   
 27  16  19  2   
 28  17  20  1   
 29  17  34  1   
 30  17  35  1   
 31  18  21  2   
 32  19  22  1   
 33  19  23  1   
 34  20  24  1   
 35  20  25  1   
 36  20  36  1   
 37  21  22  1   
 38  21  37  1   
 39  22  38  1   
 40  23  39  1   
 41  23  40  1   
 42  23  41  1   
 43  24  42  1   
 44  24  43  1   
 45  24  44  1   
 46  25  45  1   
 47  25  46  1   
 48  25  47  1   
@<TRIPOS>SUBSTRUCTURE
  1 ****  11 GROUP 4 **** **** 0

# MOE 2024.06 (io_trps.svl 2023.06)
