@<TRIPOS>MOLECULE
NONAME
51 52 1 0 0 
SMALL
USER_CHARGES


@<TRIPOS>ATOM
  1 O       -3.0500     0.5930     1.7110 O.2   1 <1>  -0.5700 
  2 C       -2.6390     0.9990     0.6400 C.2   1 <1>   0.5440 
  3 N       -2.9260     0.2040    -0.4370 N.am  1 <1>  -0.6600 
  4 C       -2.0290     2.3150     0.5320 C.ar  1 <1>   0.0860 
  5 C       -2.5330    -1.2360    -0.4220 C.3   1 <1>   0.3210 
  6 C       -3.6150     0.7280    -1.6550 C.3   1 <1>   0.1400 
  7 C       -1.0510     2.6420    -0.4220 C.ar  1 <1>   0.0820 
  8 C       -2.4280     3.3210     1.4170 C.ar  1 <1>  -0.1500 
  9 C       -3.7260    -2.1750    -0.2420 C.2   1 <1>   0.0460 
 10 C       -5.1410     0.5270    -1.5580 C.3   1 <1>   0.3430 
 11 O       -0.6110     1.6690    -1.2590 O.3   1 <1>  -0.3630 
 12 C       -0.5450     3.9380    -0.4900 C.ar  1 <1>  -0.1500 
 13 C       -1.9210     4.6050     1.3520 C.ar  1 <1>  -0.1440 
 14 N       -4.5220    -2.5120    -1.2810 N.2   1 <1>  -0.5650 
 15 C       -4.1180    -2.8160     0.8850 C.2   1 <1>  -0.3320 
 16 N       -5.6110     0.6400    -0.1390 N.4   1 <1>  -0.9590 
 17 C        0.5190     1.8290    -2.0900 C.3   1 <1>   0.0400 
 18 C       -0.9790     4.9110     0.3880 C.ar  1 <1>  -0.1500 
 19 C       -2.3730     5.6780     2.3270 C.3   1 <1>  -0.0970 
 20 C       -5.3420    -3.3770    -0.7780 C.2   1 <1>   0.0360 
 21 N       -5.1540    -3.6020     0.5380 N.pl3 1 <1>   0.0330 
 22 C       -3.5640    -2.7690     2.3010 C.3   1 <1>  -0.0600 
 23 C       -6.8000    -0.2150     0.1120 C.3   1 <1>   0.2630 
 24 C       -5.8060     2.0470     0.3120 C.3   1 <1>   0.2630 
 25 H       -1.8350    -1.4000     0.3800 H     1 <1>   0.0800 
 26 H       -2.0280    -1.4800    -1.3390 H     1 <1>   0.0800 
 27 H       -3.2380     0.2320    -2.5330 H     1 <1>   0.0800 
 28 H       -3.4070     1.7770    -1.7630 H     1 <1>   0.0800 
 29 H       -3.1490     3.0810     2.1790 H     1 <1>   0.1500 
 30 H       -5.3680    -0.4580    -1.9290 H     1 <1>   0.0800 
 31 H       -5.6520     1.2340    -2.1890 H     1 <1>   0.0800 
 32 H        0.1930     4.2130    -1.2200 H     1 <1>   0.1500 
 33 H       -4.8160     0.2350     0.4100 H     1 <1>   0.4500 
 34 H        0.7160     0.8890    -2.5740 H     1 <1>   0.0800 
 35 H        1.3630     2.1100    -1.4840 H     1 <1>   0.0800 
 36 H        0.3090     2.5820    -2.8290 H     1 <1>   0.0800 
 37 H       -0.5760     5.9080     0.3240 H     1 <1>   0.1500 
 38 H       -3.0670     5.2820     3.0460 H     1 <1>   0.0800 
 39 H       -2.8500     6.4820     1.7950 H     1 <1>   0.0800 
 40 H       -1.5240     6.0710     2.8570 H     1 <1>   0.0800 
 41 H       -6.1080    -3.8870    -1.3390 H     1 <1>   0.1500 
 42 H       -5.6650    -4.2590     1.1350 H     1 <1>   0.2700 
 43 H       -2.7570    -2.0620     2.3750 H     1 <1>   0.0800 
 44 H       -3.1950    -3.7370     2.5890 H     1 <1>   0.0800 
 45 H       -4.3320    -2.4680     2.9920 H     1 <1>   0.0800 
 46 H       -7.6440     0.1380    -0.4570 H     1 <1>   0.0800 
 47 H       -7.0520    -0.2020     1.1590 H     1 <1>   0.0800 
 48 H       -6.5850    -1.2310    -0.1760 H     1 <1>   0.0800 
 49 H       -6.6130     2.5080    -0.2320 H     1 <1>   0.0800 
 50 H       -4.9050     2.6170     0.1510 H     1 <1>   0.0800 
 51 H       -6.0370     2.0670     1.3650 H     1 <1>   0.0800 
@<TRIPOS>BOND
  1   1   2  2   
  2   2   3  am  
  3   2   4  1   
  4   3   5  1   
  5   3   6  1   
  6   4   7  ar  
  7   4   8  ar  
  8   5   9  1   
  9   5  25  1   
 10   5  26  1   
 11   6  10  1   
 12   6  27  1   
 13   6  28  1   
 14   7  11  1   
 15   7  12  ar  
 16   8  13  ar  
 17   8  29  1   
 18   9  14  1   
 19   9  15  2   
 20  10  16  1   
 21  10  30  1   
 22  10  31  1   
 23  11  17  1   
 24  12  18  ar  
 25  12  32  1   
 26  13  18  ar  
 27  13  19  1   
 28  14  20  2   
 29  15  21  1   
 30  15  22  1   
 31  16  23  1   
 32  16  24  1   
 33  16  33  1   
 34  17  34  1   
 35  17  35  1   
 36  17  36  1   
 37  18  37  1   
 38  19  38  1   
 39  19  39  1   
 40  19  40  1   
 41  20  21  1   
 42  20  41  1   
 43  21  42  1   
 44  22  43  1   
 45  22  44  1   
 46  22  45  1   
 47  23  46  1   
 48  23  47  1   
 49  23  48  1   
 50  24  49  1   
 51  24  50  1   
 52  24  51  1   
@<TRIPOS>SUBSTRUCTURE
  1 ****   3 GROUP 4 **** **** 0

# MOE 2024.06 (io_trps.svl 2023.06)
