@<TRIPOS>MOLECULE
NONAME
38 39 1 0 0 
SMALL
USER_CHARGES


@<TRIPOS>ATOM
  1 O       -1.7430    -0.1750     2.4060 O.2   1 <1>  -0.5700 
  2 C       -2.0330     0.3880     1.3760 C.2   1 <1>   0.5690 
  3 N       -2.3540    -0.3150     0.2420 N.am  1 <1>  -0.6600 
  4 C       -2.0750     1.9220     1.4160 C.3   1 <1>   0.1810 
  5 C       -2.3100    -1.8170     0.2300 C.3   1 <1>   0.3640 
  6 C       -2.7780     0.3410    -1.0360 C.3   1 <1>   0.1400 
  7 O       -1.3550     2.5280     0.3690 O.3   1 <1>  -0.5600 
  8 C       -0.9980    -2.3590    -0.3690 C.ar  1 <1>  -0.1440 
  9 C       -3.5580    -2.4120    -0.5020 C.3   1 <1>   0.2000 
 10 C       -3.2520    -0.6740    -2.0860 C.3   1 <1>   0.1200 
 11 C       -1.2770     3.9130     0.4670 C.3   1 <1>   0.0400 
 12 C       -0.0250    -1.5540    -0.9540 C.ar  1 <1>  -0.1500 
 13 C       -0.7640    -3.7270    -0.3020 C.ar  1 <1>  -0.1500 
 14 O       -4.1270    -1.5790    -1.4900 O.3   1 <1>  -0.5600 
 15 C       -4.6780    -2.7380     0.4910 C.3   1 <1>   0.1200 
 16 C        1.1290    -2.1060    -1.4830 C.ar  1 <1>  -0.1500 
 17 C        0.3890    -4.2820    -0.8300 C.ar  1 <1>  -0.1500 
 18 O       -4.3420    -3.8610     1.2440 O.3   1 <1>  -0.6800 
 19 C        1.3360    -3.4710    -1.4260 C.ar  1 <1>  -0.1500 
 20 H       -1.6520     2.2480     2.3500 H     1 <1>   0.0800 
 21 H       -3.0980     2.2460     1.3600 H     1 <1>   0.0800 
 22 H       -2.3330    -2.1740     1.2460 H     1 <1>   0.0800 
 23 H       -3.5820     1.0260    -0.8310 H     1 <1>   0.0800 
 24 H       -1.9580     0.9050    -1.4420 H     1 <1>   0.0800 
 25 H       -3.2820    -3.3210    -1.0040 H     1 <1>   0.0800 
 26 H       -2.4240    -1.2140    -2.5120 H     1 <1>   0.0800 
 27 H       -3.7800    -0.1720    -2.8780 H     1 <1>   0.0800 
 28 H       -0.7220     4.2780    -0.3790 H     1 <1>   0.0800 
 29 H       -0.7640     4.1760     1.3760 H     1 <1>   0.0800 
 30 H       -2.2700     4.3290     0.4570 H     1 <1>   0.0800 
 31 H       -0.1420    -0.4870    -0.9990 H     1 <1>   0.1500 
 32 H       -1.4820    -4.3750     0.1710 H     1 <1>   0.1500 
 33 H       -5.5980    -2.9480    -0.0270 H     1 <1>   0.0800 
 34 H       -4.8250    -1.9140     1.1690 H     1 <1>   0.0800 
 35 H        1.8690    -1.4680    -1.9350 H     1 <1>   0.1500 
 36 H        0.5500    -5.3440    -0.7730 H     1 <1>   0.1500 
 37 H       -4.5020    -4.6790     0.7340 H     1 <1>   0.4000 
 38 H        2.2330    -3.8990    -1.8370 H     1 <1>   0.1500 
@<TRIPOS>BOND
  1   1   2  2   
  2   2   3  am  
  3   2   4  1   
  4   3   5  1   
  5   3   6  1   
  6   4   7  1   
  7   4  20  1   
  8   4  21  1   
  9   5   8  1   
 10   5   9  1   
 11   5  22  1   
 12   6  10  1   
 13   6  23  1   
 14   6  24  1   
 15   7  11  1   
 16   8  12  ar  
 17   8  13  ar  
 18   9  14  1   
 19   9  15  1   
 20   9  25  1   
 21  10  14  1   
 22  10  26  1   
 23  10  27  1   
 24  11  28  1   
 25  11  29  1   
 26  11  30  1   
 27  12  16  ar  
 28  12  31  1   
 29  13  17  ar  
 30  13  32  1   
 31  15  18  1   
 32  15  33  1   
 33  15  34  1   
 34  16  19  ar  
 35  16  35  1   
 36  17  19  ar  
 37  17  36  1   
 38  18  37  1   
 39  19  38  1   
@<TRIPOS>SUBSTRUCTURE
  1 ****   5 GROUP 4 **** **** 0

# MOE 2024.06 (io_trps.svl 2023.06)
