@<TRIPOS>MOLECULE
NONAME
43 45 1 0 0 
SMALL
USER_CHARGES


@<TRIPOS>ATOM
  1 O       -0.1470     1.0060    -0.5850 O.2   1 <1>  -0.5700 
  2 C       -0.3710     2.1920    -0.6470 C.2   1 <1>   0.5690 
  3 N       -1.2520     2.8440     0.1760 N.am  1 <1>  -0.5090 
  4 C        0.3720     3.0150    -1.6910 C.3   1 <1>   0.1810 
  5 C       -1.4700     4.3220     0.0490 C.3   1 <1>   0.3640 
  6 C       -1.8250     2.1940     1.3810 C.3   1 <1>   0.0490 
  7 O        0.7200     4.2710    -1.1690 O.3   1 <1>  -0.5600 
  8 C       -2.8410     4.6040    -0.5680 C.ar  1 <1>  -0.1440 
  9 C       -0.3840     5.0770    -0.7760 C.3   1 <1>   0.2610 
 10 C       -2.6470     0.9560     1.2040 C.3   1 <1>  -0.2000 
 11 C       -3.3010     2.2260     1.6430 C.3   1 <1>  -0.2000 
 12 C       -3.3770     3.7980    -1.5660 C.ar  1 <1>   0.1600 
 13 C       -3.5750     5.6950    -0.1430 C.ar  1 <1>  -0.1500 
 14 C        0.1000     6.2950     0.0190 C.2   1 <1>   0.5690 
 15 N       -4.5430     3.9960    -2.1600 N.ar  1 <1>  -0.6200 
 16 C       -4.7940     5.9120    -0.7460 C.ar  1 <1>  -0.1500 
 17 O       -0.7120     7.0930     0.4260 O.2   1 <1>  -0.5700 
 18 N        1.4310     6.4470     0.2560 N.am  1 <1>  -0.7300 
 19 C       -5.2250     5.0470    -1.7360 C.ar  1 <1>   0.1600 
 20 C        2.0710     7.5640     0.9780 C.3   1 <1>   0.1400 
 21 C        3.1290     8.1970     0.0770 C.3   1 <1>  -0.1600 
 22 C        3.8310     9.3660     0.7770 C.3   1 <1>  -0.2400 
 23 H       -0.2360     3.1520    -2.5660 H     1 <1>   0.0800 
 24 H        1.2800     2.5100    -1.9660 H     1 <1>   0.0800 
 25 H       -1.4730     4.7250     1.0480 H     1 <1>   0.0800 
 26 H       -1.1530     2.2290     2.2220 H     1 <1>   0.1000 
 27 H       -0.8290     5.4520    -1.6800 H     1 <1>   0.0800 
 28 H       -2.8230     0.5950     0.2060 H     1 <1>   0.1000 
 29 H       -2.5350     0.1590     1.9170 H     1 <1>   0.1000 
 30 H       -3.6450     2.2860     2.6600 H     1 <1>   0.1000 
 31 H       -3.9840     2.6860     0.9530 H     1 <1>   0.1000 
 32 H       -2.8260     2.9370    -1.9000 H     1 <1>   0.1500 
 33 H       -3.2170     6.3610     0.6260 H     1 <1>   0.1500 
 34 H       -5.4060     6.7470    -0.4550 H     1 <1>   0.1500 
 35 H        2.0550     5.7300    -0.1290 H     1 <1>   0.3700 
 36 H       -6.1790     5.2270    -2.2020 H     1 <1>   0.1500 
 37 H        1.3300     8.2990     1.2490 H     1 <1>   0.0800 
 38 H        2.5250     7.1890     1.8800 H     1 <1>   0.0800 
 39 H        3.8630     7.4580    -0.1930 H     1 <1>   0.0800 
 40 H        2.6580     8.5590    -0.8220 H     1 <1>   0.0800 
 41 H        4.3240     9.0290     1.6720 H     1 <1>   0.0800 
 42 H        3.1190    10.1290     1.0390 H     1 <1>   0.0800 
 43 H        4.5680     9.7980     0.1230 H     1 <1>   0.0800 
@<TRIPOS>BOND
  1   1   2  2   
  2   2   3  am  
  3   2   4  1   
  4   3   5  1   
  5   3   6  1   
  6   4   7  1   
  7   4  23  1   
  8   4  24  1   
  9   5   8  1   
 10   5   9  1   
 11   5  25  1   
 12   6  10  1   
 13   6  11  1   
 14   6  26  1   
 15   7   9  1   
 16   8  12  ar  
 17   8  13  ar  
 18   9  14  1   
 19   9  27  1   
 20  10  11  1   
 21  10  28  1   
 22  10  29  1   
 23  11  30  1   
 24  11  31  1   
 25  12  15  ar  
 26  12  32  1   
 27  13  16  ar  
 28  13  33  1   
 29  14  17  2   
 30  14  18  am  
 31  15  19  ar  
 32  16  19  ar  
 33  16  34  1   
 34  18  20  1   
 35  18  35  1   
 36  19  36  1   
 37  20  21  1   
 38  20  37  1   
 39  20  38  1   
 40  21  22  1   
 41  21  39  1   
 42  21  40  1   
 43  22  41  1   
 44  22  42  1   
 45  22  43  1   
@<TRIPOS>SUBSTRUCTURE
  1 ****   5 GROUP 4 **** **** 0

# MOE 2024.06 (io_trps.svl 2023.06)
