@<TRIPOS>MOLECULE
NONAME
38 41 1 0 0 
SMALL
USER_CHARGES


@<TRIPOS>ATOM
  1 O       -0.6460    -0.0080    -1.9350 O.2   1 <1>  -0.5700 
  2 C       -1.5300     0.2720    -1.1460 C.2   1 <1>   0.7030 
  3 N       -2.6080    -0.5690    -1.0450 N.am  1 <1>  -0.6600 
  4 C       -1.4570     1.5210    -0.4050 C.2   1 <1>   0.2770 
  5 C       -3.9040    -0.0300    -1.5300 C.3   1 <1>   0.2350 
  6 C       -2.8470    -1.3080     0.2270 C.3   1 <1>   0.2350 
  7 N       -1.8950     1.7610     0.8760 N.pl3 1 <1>  -0.7000 
  8 C       -1.0020     2.7150    -0.8550 C.2   1 <1>   0.2000 
  9 C       -4.7460     0.1350    -0.2800 C.3   1 <1>  -0.2420 
 10 C       -4.1350    -0.7380     0.8000 C.3   1 <1>  -0.2420 
 11 C       -1.8480     3.0610     1.1250 C.cat 1 <1>   0.7910 
 12 N       -1.2080     3.6860     0.1040 N.pl3 1 <1>  -0.6290 
 13 C       -5.2180     1.5800    -0.1030 C.2   1 <1>   0.9470 
 14 C       -5.5020    -1.0460     0.2520 C.3   1 <1>  -0.2000 
 15 C       -4.0100    -0.5200     2.3020 C.2   1 <1>   0.9470 
 16 C       -2.3370     3.7780     2.2260 C.2   1 <1>  -0.1410 
 17 C       -1.0350     5.0510     0.1370 C.2   1 <1>   0.2410 
 18 O       -6.4060     1.8170     0.1260 O.co2 1 <1>  -0.9000 
 19 O       -4.4030     2.4900    -0.3190 O.co2 1 <1>  -0.9000 
 20 O       -4.4670    -1.3620     3.0760 O.co2 1 <1>  -0.9000 
 21 O       -3.2950     0.4120     2.6950 O.co2 1 <1>  -0.9000 
 22 C       -2.1570     5.1330     2.2790 C.2   1 <1>  -0.1500 
 23 C       -1.4910     5.7680     1.2090 C.2   1 <1>  -0.1500 
 24 C       -0.3420     5.7010    -1.0440 C.3   1 <1>  -0.1020 
 25 H       -3.7700     0.9020    -2.0530 H     1 <1>   0.0800 
 26 H       -4.3660    -0.7370    -2.1960 H     1 <1>   0.0800 
 27 H       -2.9630    -2.3600     0.0300 H     1 <1>   0.0800 
 28 H       -2.0230    -1.1680     0.9080 H     1 <1>   0.0800 
 29 H       -2.4830     1.1500     1.4810 H     1 <1>   0.4500 
 30 H       -0.5750     2.9210    -1.8200 H     1 <1>   0.1500 
 31 H       -5.6330    -1.9280    -0.3470 H     1 <1>   0.1000 
 32 H       -6.3540    -0.8490     0.8820 H     1 <1>   0.1000 
 33 H       -2.8540     3.2200     2.9870 H     1 <1>   0.1500 
 34 H       -2.5220     5.7160     3.1070 H     1 <1>   0.1500 
 35 H       -1.3640     6.8350     1.2550 H     1 <1>   0.1500 
 36 H        0.6410     5.2850    -1.1680 H     1 <1>   0.0800 
 37 H       -0.2490     6.7610    -0.8930 H     1 <1>   0.0800 
 38 H       -0.9140     5.5330    -1.9380 H     1 <1>   0.0800 
@<TRIPOS>BOND
  1   1   2  2   
  2   2   3  am  
  3   2   4  1   
  4   3   5  1   
  5   3   6  1   
  6   4   7  1   
  7   4   8  2   
  8   5   9  1   
  9   5  25  1   
 10   5  26  1   
 11   6  10  1   
 12   6  27  1   
 13   6  28  1   
 14   7  11  ar  
 15   7  29  1   
 16   8  12  1   
 17   8  30  1   
 18   9  10  1   
 19   9  13  1   
 20   9  14  1   
 21  10  14  1   
 22  10  15  1   
 23  11  12  ar  
 24  11  16  1   
 25  12  17  1   
 26  13  18  ar  
 27  13  19  ar  
 28  14  31  1   
 29  14  32  1   
 30  15  20  ar  
 31  15  21  ar  
 32  16  22  2   
 33  16  33  1   
 34  17  23  2   
 35  17  24  1   
 36  22  23  1   
 37  22  34  1   
 38  23  35  1   
 39  24  36  1   
 40  24  37  1   
 41  24  38  1   
@<TRIPOS>SUBSTRUCTURE
  1 ****   7 GROUP 4 **** **** 0

# MOE 2024.06 (io_trps.svl 2023.06)
