@<TRIPOS>MOLECULE
NONAME
46 48 1 0 0 
SMALL
USER_CHARGES


@<TRIPOS>ATOM
  1 O       -0.2490     2.1540     3.1610 O.co2 1 <1>  -0.9000 
  2 C       -0.5410     2.1930     1.9500 C.2   1 <1>   1.0330 
  3 O       -1.4850     1.4800     1.5520 O.co2 1 <1>  -0.9000 
  4 C        0.1670     3.0370     0.9840 C.2   1 <1>  -0.0060 
  5 N        1.2280     3.8880     1.2020 N.2   1 <1>  -0.5650 
  6 C       -0.1320     3.1110    -0.3260 C.2   1 <1>  -0.0100 
  7 C        1.4750     4.3920     0.0410 C.2   1 <1>   0.5620 
  8 O        0.6780     3.9540    -0.9120 O.3   1 <1>  -0.2800 
  9 N        2.4580     5.3250    -0.2540 N.pl3 1 <1>  -0.8220 
 10 C        3.2280     5.9030     0.8770 C.3   1 <1>   0.2090 
 11 C        2.3360     6.1540    -1.4780 C.3   1 <1>   0.2090 
 12 C        4.6010     6.3780     0.3970 C.3   1 <1>  -0.1600 
 13 C        3.7170     6.6220    -1.9400 C.3   1 <1>  -0.1600 
 14 C        4.4860     7.3260    -0.8080 C.3   1 <1>  -0.0190 
 15 C        5.8600     7.8120    -1.2650 C.2   1 <1>   0.5690 
 16 O        6.6150     7.0570    -1.8280 O.2   1 <1>  -0.5700 
 17 N        6.2090     9.0970    -1.0190 N.am  1 <1>  -0.7300 
 18 C        7.5050     9.6840    -1.3850 C.3   1 <1>   0.2840 
 19 C        7.5750    11.0690    -0.7690 C.ar  1 <1>  -0.1430 
 20 C        7.0680    12.1630    -1.4540 C.ar  1 <1>  -0.1500 
 21 C        8.1370    11.2520     0.4860 C.ar  1 <1>  -0.1500 
 22 C        7.1240    13.4250    -0.8890 C.ar  1 <1>  -0.1500 
 23 C        8.1950    12.5140     1.0520 C.ar  1 <1>  -0.1500 
 24 C        7.6850    13.6110     0.3640 C.ar  1 <1>   0.0820 
 25 O        7.7000    14.8800     0.8440 O.3   1 <1>  -0.3630 
 26 C        8.2690    15.1830     2.0980 C.3   1 <1>   0.0400 
 27 H       -0.8940     2.6000    -0.8880 H     1 <1>   0.1500 
 28 H        3.3610     5.1630     1.6500 H     1 <1>   0.0800 
 29 H        2.6710     6.7250     1.2940 H     1 <1>   0.0800 
 30 H        1.7090     7.0030    -1.2630 H     1 <1>   0.0800 
 31 H        1.8750     5.5850    -2.2680 H     1 <1>   0.0800 
 32 H        5.1860     5.5160     0.1250 H     1 <1>   0.0800 
 33 H        5.1050     6.8730     1.2070 H     1 <1>   0.0800 
 34 H        3.6050     7.2900    -2.7750 H     1 <1>   0.0800 
 35 H        4.2730     5.7650    -2.2790 H     1 <1>   0.0800 
 36 H        3.9140     8.1840    -0.5040 H     1 <1>   0.0800 
 37 H        5.5860     9.7360    -0.5240 H     1 <1>   0.3700 
 38 H        7.5860     9.7410    -2.4570 H     1 <1>   0.0800 
 39 H        8.3030     9.0600    -1.0160 H     1 <1>   0.0800 
 40 H        6.6270    12.0380    -2.4280 H     1 <1>   0.1500 
 41 H        8.5320    10.4100     1.0270 H     1 <1>   0.1500 
 42 H        6.7320    14.2760    -1.4160 H     1 <1>   0.1500 
 43 H        8.6370    12.6230     2.0240 H     1 <1>   0.1500 
 44 H        8.1720    16.2410     2.2610 H     1 <1>   0.0800 
 45 H        9.3090    14.9080     2.0850 H     1 <1>   0.0800 
 46 H        7.7370    14.6450     2.8620 H     1 <1>   0.0800 
@<TRIPOS>BOND
  1   1   2  ar  
  2   2   3  ar  
  3   2   4  1   
  4   4   5  1   
  5   4   6  2   
  6   5   7  2   
  7   6   8  1   
  8   6  27  1   
  9   7   8  1   
 10   7   9  1   
 11   9  10  1   
 12   9  11  1   
 13  10  12  1   
 14  10  28  1   
 15  10  29  1   
 16  11  13  1   
 17  11  30  1   
 18  11  31  1   
 19  12  14  1   
 20  12  32  1   
 21  12  33  1   
 22  13  14  1   
 23  13  34  1   
 24  13  35  1   
 25  14  15  1   
 26  14  36  1   
 27  15  16  2   
 28  15  17  am  
 29  17  18  1   
 30  17  37  1   
 31  18  19  1   
 32  18  38  1   
 33  18  39  1   
 34  19  20  ar  
 35  19  21  ar  
 36  20  22  ar  
 37  20  40  1   
 38  21  23  ar  
 39  21  41  1   
 40  22  24  ar  
 41  22  42  1   
 42  23  24  ar  
 43  23  43  1   
 44  24  25  1   
 45  25  26  1   
 46  26  44  1   
 47  26  45  1   
 48  26  46  1   
@<TRIPOS>SUBSTRUCTURE
  1 ****  14 GROUP 4 **** **** 0

# MOE 2024.06 (io_trps.svl 2023.06)
