@<TRIPOS>MOLECULE
NONAME
51 54 1 0 0 
SMALL
USER_CHARGES


@<TRIPOS>ATOM
  1 O       -1.5740     0.1150     0.9050 O.2   1 <1>  -0.5700 
  2 C       -1.9770     1.0140     0.1980 C.2   1 <1>   0.7150 
  3 N       -2.8270     0.7340    -0.8290 N.am  1 <1>  -0.7300 
  4 C       -1.6050     2.3780     0.4110 C.2   1 <1>  -0.2370 
  5 C       -3.3310    -0.5960    -1.2720 C.3   1 <1>   0.2200 
  6 N       -0.3590     2.8510     0.7140 N.pl3 1 <1>   0.3140 
  7 C       -2.4070     3.4780     0.3480 C.2   1 <1>  -0.1500 
  8 C       -4.0470    -1.3600    -0.1520 C.3   1 <1>  -0.0800 
  9 C       -2.2060    -1.5370    -1.7160 C.3   1 <1>   0.1200 
 10 N       -0.3630     4.1940     0.8300 N.2   1 <1>  -0.7070 
 11 C        0.9550     2.1420     0.8590 C.3   1 <1>   0.1760 
 12 C       -1.5890     4.5560     0.6170 C.2   1 <1>   0.1390 
 13 C       -3.1570    -2.5930     0.0310 C.3   1 <1>   0.1200 
 14 C       -5.4800    -1.7520    -0.5650 C.3   1 <1>  -0.0160 
 15 O       -2.5430    -2.7820    -1.2000 O.3   1 <1>  -0.5600 
 16 C        1.2650     1.1980    -0.3140 C.3   1 <1>  -0.2400 
 17 C        1.0840     1.4420     2.2190 C.3   1 <1>  -0.2400 
 18 C       -6.3220    -2.4760     0.4950 C.ar  1 <1>  -0.1440 
 19 C       -7.5690    -3.0470     0.1370 C.ar  1 <1>   0.0000 
 20 C       -5.9400    -2.5990     1.8020 C.ar  1 <1>  -0.1500 
 21 C       -8.3100    -3.7140     1.1430 C.ar  1 <1>   0.3100 
 22 C       -8.1290    -2.9920    -1.1620 C.ar  1 <1>  -0.1500 
 23 C       -6.7510    -3.2760     2.7200 C.ar  1 <1>   0.1600 
 24 N       -7.8890    -3.8190     2.4280 N.ar  1 <1>  -0.6200 
 25 C       -9.5440    -4.2960     0.8110 C.ar  1 <1>  -0.1500 
 26 C       -9.3350    -3.5680    -1.4530 C.ar  1 <1>  -0.1500 
 27 C      -10.0540    -4.2310    -0.4570 C.ar  1 <1>  -0.1500 
 28 H       -3.0960     1.5220    -1.4180 H     1 <1>   0.3700 
 29 H       -3.9950    -0.4460    -2.1050 H     1 <1>   0.0800 
 30 H       -3.4610     3.5270     0.1430 H     1 <1>   0.1500 
 31 H       -4.0780    -0.7800     0.7510 H     1 <1>   0.0800 
 32 H       -1.2570    -1.2540    -1.2960 H     1 <1>   0.0800 
 33 H       -2.1380    -1.6150    -2.7860 H     1 <1>   0.0800 
 34 H        1.7050     2.9140     0.8370 H     1 <1>   0.0800 
 35 H       -1.9120     5.5830     0.6490 H     1 <1>   0.1500 
 36 H       -3.7030    -3.4830     0.2930 H     1 <1>   0.0800 
 37 H       -2.3860    -2.4070     0.7610 H     1 <1>   0.0800 
 38 H       -5.4070    -2.3840    -1.4330 H     1 <1>   0.0800 
 39 H       -6.0110    -0.8600    -0.8490 H     1 <1>   0.0800 
 40 H        0.6560     0.3150    -0.2840 H     1 <1>   0.0800 
 41 H        2.2930     0.8870    -0.2600 H     1 <1>   0.0800 
 42 H        1.1170     1.7080    -1.2490 H     1 <1>   0.0800 
 43 H        0.4030     0.6160     2.3050 H     1 <1>   0.0800 
 44 H        0.8870     2.1430     3.0110 H     1 <1>   0.0800 
 45 H        2.0830     1.0650     2.3420 H     1 <1>   0.0800 
 46 H       -5.0210    -2.1950     2.1810 H     1 <1>   0.1500 
 47 H       -7.6000    -2.4850    -1.9470 H     1 <1>   0.1500 
 48 H       -6.4050    -3.3480     3.7370 H     1 <1>   0.1500 
 49 H      -10.0790    -4.7990     1.5950 H     1 <1>   0.1500 
 50 H       -9.7460    -3.5190    -2.4470 H     1 <1>   0.1500 
 51 H      -11.0010    -4.6820    -0.6970 H     1 <1>   0.1500 
@<TRIPOS>BOND
  1   1   2  2   
  2   2   3  am  
  3   2   4  1   
  4   3   5  1   
  5   3  28  1   
  6   4   6  1   
  7   4   7  2   
  8   5   8  1   
  9   5   9  1   
 10   5  29  1   
 11   6  10  1   
 12   6  11  1   
 13   7  12  1   
 14   7  30  1   
 15   8  13  1   
 16   8  14  1   
 17   8  31  1   
 18   9  15  1   
 19   9  32  1   
 20   9  33  1   
 21  10  12  2   
 22  11  16  1   
 23  11  17  1   
 24  11  34  1   
 25  12  35  1   
 26  13  15  1   
 27  13  36  1   
 28  13  37  1   
 29  14  18  1   
 30  14  38  1   
 31  14  39  1   
 32  16  40  1   
 33  16  41  1   
 34  16  42  1   
 35  17  43  1   
 36  17  44  1   
 37  17  45  1   
 38  18  19  ar  
 39  18  20  ar  
 40  19  21  ar  
 41  19  22  ar  
 42  20  23  ar  
 43  20  46  1   
 44  21  24  ar  
 45  21  25  ar  
 46  22  26  ar  
 47  22  47  1   
 48  23  24  ar  
 49  23  48  1   
 50  25  27  ar  
 51  25  49  1   
 52  26  27  ar  
 53  26  50  1   
 54  27  51  1   
@<TRIPOS>SUBSTRUCTURE
  1 ****   8 GROUP 4 **** **** 0

# MOE 2024.06 (io_trps.svl 2023.06)
