@<TRIPOS>MOLECULE
NONAME
48 49 1 0 0 
SMALL
USER_CHARGES


@<TRIPOS>ATOM
  1 S        0.6920    -0.3170    -1.2930 S.o2  1 <1>   1.3330 
  2 O       -0.0810    -0.2960    -2.5140 O.2   1 <1>  -0.6500 
  3 O        2.0400    -0.8430    -1.3130 O.2   1 <1>  -0.6500 
  4 N       -0.2020    -1.2210    -0.1650 N.am  1 <1>  -0.8490 
  5 C        0.7080     1.3360    -0.5810 C.3   1 <1>  -0.0550 
  6 C        0.1790    -2.6380    -0.1630 C.3   1 <1>   0.1160 
  7 C       -1.6540    -1.1020    -0.3390 C.3   1 <1>   0.1160 
  8 C        1.7290     1.6220     0.5440 C.3   1 <1>  -0.0800 
  9 C        3.1820     1.6110     0.0620 C.3   1 <1>   0.2200 
 10 C        1.7320     0.6700     1.7460 C.3   1 <1>   0.1200 
 11 N        3.7660     2.9580     0.2490 N.am  1 <1>  -0.7300 
 12 C        3.8490     0.6000     0.9910 C.3   1 <1>   0.1200 
 13 O        3.0630     0.5940     2.1390 O.3   1 <1>  -0.5600 
 14 C        3.6270     3.9920    -0.6320 C.2   1 <1>   0.5440 
 15 O        2.9790     3.7920    -1.6420 O.2   1 <1>  -0.5700 
 16 C        4.2240     5.2900    -0.3710 C.ar  1 <1>   0.0860 
 17 C        4.5680     5.7090     0.9180 C.ar  1 <1>  -0.1500 
 18 C        4.4760     6.1820    -1.4160 C.ar  1 <1>  -0.1500 
 19 C        5.1440     6.9460     1.1440 C.ar  1 <1>  -0.1500 
 20 C        5.0510     7.4210    -1.1980 C.ar  1 <1>  -0.1500 
 21 C        5.3920     7.8120     0.0930 C.ar  1 <1>   0.0820 
 22 O        5.9590     9.0000     0.3980 O.3   1 <1>  -0.3630 
 23 C        6.2480     9.9610    -0.5900 C.3   1 <1>   0.1200 
 24 C        6.8740    11.1720     0.0960 C.3   1 <1>  -0.2400 
 25 H        0.9090     2.0350    -1.3710 H     1 <1>   0.0800 
 26 H       -0.2740     1.5620    -0.2160 H     1 <1>   0.0800 
 27 H       -0.3990    -3.1800     0.5660 H     1 <1>   0.0800 
 28 H        1.2210    -2.7400     0.0940 H     1 <1>   0.0800 
 29 H        0.0190    -3.0690    -1.1370 H     1 <1>   0.0800 
 30 H       -2.1660    -1.6140     0.4570 H     1 <1>   0.0800 
 31 H       -1.9570    -1.5290    -1.2820 H     1 <1>   0.0800 
 32 H       -1.9490    -0.0670    -0.3220 H     1 <1>   0.0800 
 33 H        1.4960     2.6000     0.9270 H     1 <1>   0.0800 
 34 H        3.2900     1.3120    -0.9680 H     1 <1>   0.0800 
 35 H        1.4210    -0.3270     1.4950 H     1 <1>   0.0800 
 36 H        1.1440     1.0390     2.5680 H     1 <1>   0.0800 
 37 H        4.2360     3.0970     1.1440 H     1 <1>   0.3700 
 38 H        4.8620     0.8600     1.2420 H     1 <1>   0.0800 
 39 H        3.8170    -0.3880     0.5630 H     1 <1>   0.0800 
 40 H        4.3800     5.0670     1.7580 H     1 <1>   0.1500 
 41 H        4.2140     5.8900    -2.4190 H     1 <1>   0.1500 
 42 H        5.4050     7.2540     2.1410 H     1 <1>   0.1500 
 43 H        5.2230     8.0650    -2.0390 H     1 <1>   0.1500 
 44 H        6.9350     9.5270    -1.2960 H     1 <1>   0.0800 
 45 H        5.3300    10.2330    -1.0800 H     1 <1>   0.0800 
 46 H        7.7810    10.8840     0.5960 H     1 <1>   0.0800 
 47 H        6.1860    11.5870     0.8110 H     1 <1>   0.0800 
 48 H        7.1070    11.9250    -0.6340 H     1 <1>   0.0800 
@<TRIPOS>BOND
  1   1   2  2   
  2   1   3  2   
  3   1   4  am  
  4   1   5  1   
  5   4   6  1   
  6   4   7  1   
  7   5   8  1   
  8   5  25  1   
  9   5  26  1   
 10   6  27  1   
 11   6  28  1   
 12   6  29  1   
 13   7  30  1   
 14   7  31  1   
 15   7  32  1   
 16   8   9  1   
 17   8  10  1   
 18   8  33  1   
 19   9  11  1   
 20   9  12  1   
 21   9  34  1   
 22  10  13  1   
 23  10  35  1   
 24  10  36  1   
 25  11  14  am  
 26  11  37  1   
 27  12  13  1   
 28  12  38  1   
 29  12  39  1   
 30  14  15  2   
 31  14  16  1   
 32  16  17  ar  
 33  16  18  ar  
 34  17  19  ar  
 35  17  40  1   
 36  18  20  ar  
 37  18  41  1   
 38  19  21  ar  
 39  19  42  1   
 40  20  21  ar  
 41  20  43  1   
 42  21  22  1   
 43  22  23  1   
 44  23  24  1   
 45  23  44  1   
 46  23  45  1   
 47  24  46  1   
 48  24  47  1   
 49  24  48  1   
@<TRIPOS>SUBSTRUCTURE
  1 ****  11 GROUP 4 **** **** 0

# MOE 2024.06 (io_trps.svl 2023.06)
