@<TRIPOS>MOLECULE
NONAME
53 56 1 0 0 
SMALL
USER_CHARGES


@<TRIPOS>ATOM
  1 O        0.8380    -1.4360    -1.6650 O.3   1 <1>  -0.6800 
  2 C        0.3630    -1.9220    -0.4550 C.3   1 <1>   0.1200 
  3 C        1.4730    -1.9370     0.6370 C.3   1 <1>   0.0000 
  4 C        2.8120    -2.5760     0.1640 C.3   1 <1>   0.4230 
  5 C        1.7490    -0.4840     1.1090 C.3   1 <1>  -0.1600 
  6 C        0.9460    -2.7500     1.8540 C.3   1 <1>  -0.1600 
  7 N        2.6630    -4.0290    -0.2900 N.4   1 <1>  -0.9590 
  8 C        3.6100    -1.6420    -0.8060 C.3   1 <1>   0.3430 
  9 C        2.4570     0.3880     0.0680 C.3   1 <1>   0.3430 
 10 C        1.4160    -4.2190     1.8730 C.3   1 <1>  -0.1600 
 11 C        1.6190    -4.7980     0.4720 C.3   1 <1>   0.3430 
 12 C        2.4180    -4.2180    -1.7620 C.3   1 <1>   0.2630 
 13 N        3.7700    -0.2270    -0.3030 N.4   1 <1>  -0.9590 
 14 C        4.4740     0.6330    -1.3040 C.3   1 <1>   0.4860 
 15 C        4.8300     1.9480    -0.6390 C.ar  1 <1>  -0.1430 
 16 C        5.8860     2.0110     0.3060 C.ar  1 <1>   0.0000 
 17 C        4.1040     3.0710    -0.9500 C.ar  1 <1>  -0.1500 
 18 C        6.1280     3.2370     0.9720 C.ar  1 <1>   0.3100 
 19 C        6.7340     0.9290     0.6310 C.ar  1 <1>  -0.1500 
 20 C        4.3700     4.2860    -0.3150 C.ar  1 <1>  -0.1500 
 21 N        7.0750     3.3830     1.9300 N.ar  1 <1>  -0.6200 
 22 C        5.3570     4.3570     0.6290 C.ar  1 <1>  -0.1500 
 23 C        7.6910     1.1120     1.5830 C.ar  1 <1>  -0.1500 
 24 C        7.8170     2.3580     2.2090 C.ar  1 <1>   0.1600 
 25 H        0.0870    -1.2900    -2.2880 H     1 <1>   0.4000 
 26 H       -0.4580    -1.2960    -0.1450 H     1 <1>   0.0800 
 27 H       -0.0280    -2.9090    -0.6330 H     1 <1>   0.0800 
 28 H        3.4170    -2.6160     1.0550 H     1 <1>   0.0800 
 29 H        2.3520    -0.4820     2.0010 H     1 <1>   0.0800 
 30 H        0.8180    -0.0080     1.3690 H     1 <1>   0.0800 
 31 H        1.2620    -2.3050     2.7840 H     1 <1>   0.0800 
 32 H       -0.1330    -2.7240     1.8700 H     1 <1>   0.0800 
 33 H        3.5530    -4.5050    -0.0730 H     1 <1>   0.4500 
 34 H        3.0960    -1.6120    -1.7510 H     1 <1>   0.0800 
 35 H        4.5850    -2.0690    -0.9710 H     1 <1>   0.0800 
 36 H        2.6150     1.3740     0.4800 H     1 <1>   0.0800 
 37 H        1.8360     0.4910    -0.8080 H     1 <1>   0.0800 
 38 H        0.6850    -4.8140     2.3960 H     1 <1>   0.0800 
 39 H        2.3360    -4.3080     2.4250 H     1 <1>   0.0800 
 40 H        0.6780    -4.7570    -0.0520 H     1 <1>   0.0800 
 41 H        1.9060    -5.8360     0.5450 H     1 <1>   0.0800 
 42 H        1.4960    -3.7430    -2.0560 H     1 <1>   0.0800 
 43 H        2.3480    -5.2680    -1.9970 H     1 <1>   0.0800 
 44 H        3.2220    -3.7980    -2.3430 H     1 <1>   0.0800 
 45 H        4.3600    -0.1920     0.5430 H     1 <1>   0.4500 
 46 H        5.3760     0.1560    -1.6510 H     1 <1>   0.0800 
 47 H        3.8370     0.8130    -2.1550 H     1 <1>   0.0800 
 48 H        3.3130     3.0570    -1.6820 H     1 <1>   0.1500 
 49 H        6.6540    -0.0190     0.1370 H     1 <1>   0.1500 
 50 H        3.7940     5.1610    -0.5720 H     1 <1>   0.1500 
 51 H        5.5730     5.2810     1.1360 H     1 <1>   0.1500 
 52 H        8.3670     0.3260     1.8700 H     1 <1>   0.1500 
 53 H        8.5780     2.4740     2.9630 H     1 <1>   0.1500 
@<TRIPOS>BOND
  1   1   2  1   
  2   1  25  1   
  3   2   3  1   
  4   2  26  1   
  5   2  27  1   
  6   3   4  1   
  7   3   5  1   
  8   3   6  1   
  9   4   7  1   
 10   4   8  1   
 11   4  28  1   
 12   5   9  1   
 13   5  29  1   
 14   5  30  1   
 15   6  10  1   
 16   6  31  1   
 17   6  32  1   
 18   7  11  1   
 19   7  12  1   
 20   7  33  1   
 21   8  13  1   
 22   8  34  1   
 23   8  35  1   
 24   9  13  1   
 25   9  36  1   
 26   9  37  1   
 27  10  11  1   
 28  10  38  1   
 29  10  39  1   
 30  11  40  1   
 31  11  41  1   
 32  12  42  1   
 33  12  43  1   
 34  12  44  1   
 35  13  14  1   
 36  13  45  1   
 37  14  15  1   
 38  14  46  1   
 39  14  47  1   
 40  15  16  ar  
 41  15  17  ar  
 42  16  18  ar  
 43  16  19  ar  
 44  17  20  ar  
 45  17  48  1   
 46  18  21  ar  
 47  18  22  ar  
 48  19  23  ar  
 49  19  49  1   
 50  20  22  ar  
 51  20  50  1   
 52  21  24  ar  
 53  22  51  1   
 54  23  24  ar  
 55  23  52  1   
 56  24  53  1   
@<TRIPOS>SUBSTRUCTURE
  1 ****  13 GROUP 4 **** **** 0

# MOE 2024.06 (io_trps.svl 2023.06)
