@<TRIPOS>MOLECULE
NONAME
45 47 1 0 0 
SMALL
USER_CHARGES


@<TRIPOS>ATOM
  1 F       -0.4170     2.4070     2.8630 F     1 <1>  -0.1900 
  2 C       -1.4870     2.7990     2.2300 C.ar  1 <1>   0.1900 
  3 C       -1.3840     3.7760     1.2760 C.ar  1 <1>  -0.1500 
  4 C       -2.6990     2.2000     2.5580 C.ar  1 <1>  -0.1500 
  5 C       -2.5310     4.2120     0.5830 C.ar  1 <1>   0.0000 
  6 C       -3.8310     2.6080     1.8970 C.ar  1 <1>  -0.1500 
  7 C       -3.7670     3.6100     0.9110 C.ar  1 <1>   0.3610 
  8 C       -2.5000     5.2270    -0.4230 C.ar  1 <1>   0.1000 
  9 N       -4.9070     4.0210     0.2560 N.ar  1 <1>  -0.1790 
 10 N       -1.3330     5.8090    -0.7730 N.pl3 1 <1>  -0.8690 
 11 C       -3.7060     5.5800    -1.0300 C.ar  1 <1>  -0.1500 
 12 C       -4.8910     4.9780    -0.6890 C.ar  1 <1>   0.2180 
 13 C       -1.0560     6.8870    -1.7410 C.3   1 <1>   0.3890 
 14 C       -6.2040     5.3620    -1.3540 C.3   1 <1>  -0.0970 
 15 C        0.2350     7.5350    -1.3030 C.2   1 <1>  -0.3320 
 16 N        0.4030     8.2650    -0.1780 N.pl3 1 <1>   0.0480 
 17 C        1.4320     7.5170    -1.9300 C.2   1 <1>   0.0770 
 18 C        1.7040     8.6330    -0.2050 C.2   1 <1>   0.0360 
 19 C       -0.5760     8.5930     0.8850 C.3   1 <1>   0.0960 
 20 N        2.3540     8.2070    -1.2380 N.2   1 <1>  -0.5650 
 21 C       -1.4990     9.7610     0.4900 C.3   1 <1>  -0.0800 
 22 C       -0.7180    11.0640     0.2610 C.3   1 <1>  -0.2400 
 23 C       -2.5550     9.9820     1.5790 C.3   1 <1>  -0.2400 
 24 H       -0.4180     4.1990     1.0680 H     1 <1>   0.1500 
 25 H       -2.7180     1.4350     3.3170 H     1 <1>   0.1500 
 26 H       -4.7730     2.1510     2.1430 H     1 <1>   0.1500 
 27 H       -5.7880     3.5690     0.5090 H     1 <1>   0.4570 
 28 H       -0.4430     5.5020    -0.3590 H     1 <1>   0.4000 
 29 H       -3.7020     6.3390    -1.7900 H     1 <1>   0.1500 
 30 H       -1.8520     7.6090    -1.7570 H     1 <1>   0.0800 
 31 H       -0.9400     6.4650    -2.7260 H     1 <1>   0.0800 
 32 H       -6.6340     4.5120    -1.8550 H     1 <1>   0.0800 
 33 H       -6.0470     6.1350    -2.0860 H     1 <1>   0.0800 
 34 H       -6.9030     5.7310    -0.6240 H     1 <1>   0.0800 
 35 H        1.6900     7.0360    -2.8600 H     1 <1>   0.1500 
 36 H        2.1420     9.2310     0.5750 H     1 <1>   0.1500 
 37 H       -0.0370     8.8430     1.7810 H     1 <1>   0.0800 
 38 H       -1.1630     7.7160     1.0870 H     1 <1>   0.0800 
 39 H       -2.0130     9.5050    -0.4210 H     1 <1>   0.0800 
 40 H       -0.1670    11.3400     1.1420 H     1 <1>   0.0800 
 41 H       -1.3940    11.8660     0.0170 H     1 <1>   0.0800 
 42 H       -0.0280    10.9570    -0.5570 H     1 <1>   0.0800 
 43 H       -2.0900    10.2540     2.5110 H     1 <1>   0.0800 
 44 H       -3.1340     9.0880     1.7320 H     1 <1>   0.0800 
 45 H       -3.2270    10.7720     1.2930 H     1 <1>   0.0800 
@<TRIPOS>BOND
  1   1   2  1   
  2   2   3  ar  
  3   2   4  ar  
  4   3   5  ar  
  5   3  24  1   
  6   4   6  ar  
  7   4  25  1   
  8   5   7  ar  
  9   5   8  ar  
 10   6   7  ar  
 11   6  26  1   
 12   7   9  ar  
 13   8  10  1   
 14   8  11  ar  
 15   9  12  ar  
 16   9  27  1   
 17  10  13  1   
 18  10  28  1   
 19  11  12  ar  
 20  11  29  1   
 21  12  14  1   
 22  13  15  1   
 23  13  30  1   
 24  13  31  1   
 25  14  32  1   
 26  14  33  1   
 27  14  34  1   
 28  15  16  1   
 29  15  17  2   
 30  16  18  1   
 31  16  19  1   
 32  17  20  1   
 33  17  35  1   
 34  18  20  2   
 35  18  36  1   
 36  19  21  1   
 37  19  37  1   
 38  19  38  1   
 39  21  22  1   
 40  21  23  1   
 41  21  39  1   
 42  22  40  1   
 43  22  41  1   
 44  22  42  1   
 45  23  43  1   
 46  23  44  1   
 47  23  45  1   
@<TRIPOS>SUBSTRUCTURE
  1 ****  10 GROUP 4 **** **** 0

# MOE 2024.06 (io_trps.svl 2023.06)
