@<TRIPOS>MOLECULE
NONAME
50 52 1 0 0 
SMALL
USER_CHARGES


@<TRIPOS>ATOM
  1 CL      -1.0760    -0.5950    -2.8590 Cl    1 <1>  -0.1770 
  2 C       -2.2440    -0.9570    -1.6020 C.ar  1 <1>   0.1770 
  3 C       -3.0730     0.0240    -1.0650 C.ar  1 <1>   0.0820 
  4 C       -2.3260    -2.2740    -1.1920 C.ar  1 <1>  -0.1500 
  5 O       -2.9150     1.3330    -1.3980 O.3   1 <1>  -0.3630 
  6 C       -4.0600    -0.3690    -0.1540 C.ar  1 <1>   0.0820 
  7 C       -3.2760    -2.6480    -0.2530 C.ar  1 <1>  -0.1440 
  8 C       -1.7100     1.9690    -0.9420 C.3   1 <1>   0.0140 
  9 O       -4.9840     0.4730     0.3730 O.3   1 <1>  -0.3630 
 10 C       -4.1450    -1.6910     0.2490 C.ar  1 <1>  -0.1500 
 11 C       -3.3610    -4.0790     0.2240 C.3   1 <1>   0.4860 
 12 C       -1.3490     1.6920     0.5180 C.2   1 <1>   0.9060 
 13 C       -4.5120     1.5330     1.1790 C.3   1 <1>   0.0400 
 14 N       -4.0340    -4.8820    -0.8350 N.4   1 <1>  -0.9590 
 15 O       -1.5680     2.5730     1.3600 O.co2 1 <1>  -0.9000 
 16 O       -0.8520     0.6000     0.8310 O.co2 1 <1>  -0.9000 
 17 C       -5.4620    -4.4650    -1.0460 C.3   1 <1>   0.3430 
 18 C       -4.0320    -6.3380    -0.5200 C.3   1 <1>   0.3430 
 19 C       -6.3240    -5.6950    -0.7350 C.3   1 <1>   0.2000 
 20 C       -5.4200    -6.6500     0.0350 C.3   1 <1>  -0.0800 
 21 O       -7.4360    -5.3750     0.0290 O.3   1 <1>  -0.6800 
 22 C       -5.8340    -8.1270    -0.1190 C.3   1 <1>  -0.0170 
 23 C       -4.9450    -9.0610     0.6910 C.ar  1 <1>   0.1670 
 24 N       -3.6590    -9.0800     0.3700 N.ar  1 <1>  -0.6200 
 25 C       -5.4970    -9.8440     1.7050 C.ar  1 <1>   0.1600 
 26 C       -2.9750    -9.9380     1.1130 C.ar  1 <1>   0.1600 
 27 N       -4.8090   -10.6840     2.4570 N.ar  1 <1>  -0.6200 
 28 C       -3.5310   -10.7120     2.1240 C.ar  1 <1>   0.1600 
 29 H       -1.6330    -2.9790    -1.6130 H     1 <1>   0.1500 
 30 H       -0.8950     1.6540    -1.5600 H     1 <1>   0.0800 
 31 H       -1.8420     3.0260    -1.0600 H     1 <1>   0.0800 
 32 H       -4.8980    -1.9400     0.9750 H     1 <1>   0.1500 
 33 H       -3.9150    -4.1280     1.1470 H     1 <1>   0.0800 
 34 H       -2.3650    -4.4530     0.4020 H     1 <1>   0.0800 
 35 H       -5.3310     1.9070     1.7650 H     1 <1>   0.0800 
 36 H       -4.1330     2.3170     0.5500 H     1 <1>   0.0800 
 37 H       -3.7340     1.1690     1.8280 H     1 <1>   0.0800 
 38 H       -3.5070    -4.7070    -1.7020 H     1 <1>   0.4500 
 39 H       -5.7260    -3.6550    -0.3860 H     1 <1>   0.0800 
 40 H       -5.6180    -4.1530    -2.0660 H     1 <1>   0.0800 
 41 H       -3.8780    -6.9060    -1.4240 H     1 <1>   0.0800 
 42 H       -3.2580    -6.6030     0.1840 H     1 <1>   0.0800 
 43 H       -6.6710    -6.1320    -1.6570 H     1 <1>   0.0800 
 44 H       -5.4170    -6.3920     1.0800 H     1 <1>   0.0800 
 45 H       -7.2110    -5.0960     0.9390 H     1 <1>   0.4000 
 46 H       -5.7840    -8.4210    -1.1530 H     1 <1>   0.0800 
 47 H       -6.8570    -8.2390     0.1960 H     1 <1>   0.0800 
 48 H       -6.5510    -9.7750     1.9070 H     1 <1>   0.1500 
 49 H       -1.9220   -10.0370     0.9170 H     1 <1>   0.1500 
 50 H       -2.8940   -11.3810     2.6770 H     1 <1>   0.1500 
@<TRIPOS>BOND
  1   1   2  1   
  2   2   3  ar  
  3   2   4  ar  
  4   3   5  1   
  5   3   6  ar  
  6   4   7  ar  
  7   4  29  1   
  8   5   8  1   
  9   6   9  1   
 10   6  10  ar  
 11   7  10  ar  
 12   7  11  1   
 13   8  12  1   
 14   8  30  1   
 15   8  31  1   
 16   9  13  1   
 17  10  32  1   
 18  11  14  1   
 19  11  33  1   
 20  11  34  1   
 21  12  15  ar  
 22  12  16  ar  
 23  13  35  1   
 24  13  36  1   
 25  13  37  1   
 26  14  17  1   
 27  14  18  1   
 28  14  38  1   
 29  17  19  1   
 30  17  39  1   
 31  17  40  1   
 32  18  20  1   
 33  18  41  1   
 34  18  42  1   
 35  19  20  1   
 36  19  21  1   
 37  19  43  1   
 38  20  22  1   
 39  20  44  1   
 40  21  45  1   
 41  22  23  1   
 42  22  46  1   
 43  22  47  1   
 44  23  24  ar  
 45  23  25  ar  
 46  24  26  ar  
 47  25  27  ar  
 48  25  48  1   
 49  26  28  ar  
 50  26  49  1   
 51  27  28  ar  
 52  28  50  1   
@<TRIPOS>SUBSTRUCTURE
  1 ****  11 GROUP 4 **** **** 0

# MOE 2024.06 (io_trps.svl 2023.06)
