@<TRIPOS>MOLECULE
NONAME
52 54 1 0 0 
SMALL
USER_CHARGES


@<TRIPOS>ATOM
  1 O       -0.2630     1.4900     2.6790 O.2   1 <1>  -0.5700 
  2 C        0.1250     0.5930     1.9690 C.2   1 <1>   0.5690 
  3 N        1.0840     0.7750     1.0250 N.am  1 <1>  -0.7300 
  4 C       -0.4770    -0.8070     2.1350 C.3   1 <1>   0.1710 
  5 C        1.7620     2.0480     0.6930 C.3   1 <1>   0.1400 
  6 N       -0.4600    -1.6430     0.8970 N.3   1 <1>  -0.8100 
  7 C        3.2300     1.9790     1.1100 C.3   1 <1>  -0.0170 
  8 C       -0.9300    -3.0190     1.1470 C.3   1 <1>   0.1100 
  9 C       -1.3400    -1.1120    -0.1610 C.3   1 <1>   0.1100 
 10 C        3.9620     3.2430     0.6770 C.ar  1 <1>  -0.1440 
 11 C       -1.3310    -3.5480    -0.2310 C.3   1 <1>   0.4240 
 12 C       -2.0060    -2.3220    -0.8300 C.3   1 <1>  -0.1600 
 13 C        4.3870     3.4130    -0.6400 C.ar  1 <1>   0.0820 
 14 C        4.2040     4.2410     1.6090 C.ar  1 <1>  -0.1500 
 15 O       -0.1580    -3.7370    -0.9330 O.3   1 <1>  -0.6800 
 16 C       -2.1810    -4.8240    -0.2990 C.ar  1 <1>  -0.1440 
 17 O        4.1210     2.4140    -1.5250 O.3   1 <1>  -0.3630 
 18 C        5.0540     4.5810    -1.0010 C.ar  1 <1>  -0.1500 
 19 C        4.8670     5.3990     1.2430 C.ar  1 <1>  -0.1500 
 20 C       -2.5470    -5.3230    -1.5430 C.ar  1 <1>  -0.1500 
 21 C       -2.6090    -5.5040     0.8380 C.ar  1 <1>  -0.1500 
 22 C        4.5460     2.4810    -2.8680 C.3   1 <1>   0.0400 
 23 C        5.2920     5.5690    -0.0620 C.ar  1 <1>  -0.1500 
 24 C       -3.3280    -6.4600    -1.6540 C.ar  1 <1>  -0.1500 
 25 C       -3.3890    -6.6420     0.7290 C.ar  1 <1>  -0.1500 
 26 C       -3.7510    -7.1210    -0.5160 C.ar  1 <1>  -0.1500 
 27 H        1.3170    -0.0400     0.4510 H     1 <1>   0.3700 
 28 H       -1.4870    -0.7010     2.4900 H     1 <1>   0.0800 
 29 H        0.0890    -1.3070     2.9000 H     1 <1>   0.0800 
 30 H        1.2810     2.8660     1.2040 H     1 <1>   0.0800 
 31 H        1.6890     2.2220    -0.3660 H     1 <1>   0.0800 
 32 H        3.6980     1.1230     0.6570 H     1 <1>   0.0800 
 33 H        3.2890     1.8660     2.1770 H     1 <1>   0.0800 
 34 H       -1.7970    -2.9930     1.7840 H     1 <1>   0.0800 
 35 H       -0.1660    -3.6280     1.5980 H     1 <1>   0.0800 
 36 H       -0.7520    -0.5570    -0.8730 H     1 <1>   0.0800 
 37 H       -2.0950    -0.4610     0.2490 H     1 <1>   0.0800 
 38 H       -1.9240    -2.2940    -1.9020 H     1 <1>   0.0800 
 39 H       -3.0490    -2.3280    -0.5710 H     1 <1>   0.0800 
 40 H        3.8760     4.1230     2.6270 H     1 <1>   0.1500 
 41 H        0.4070    -2.9740    -0.6960 H     1 <1>   0.4000 
 42 H        5.3950     4.7430    -2.0050 H     1 <1>   0.1500 
 43 H        5.0500     6.1680     1.9740 H     1 <1>   0.1500 
 44 H       -2.2140    -4.8230    -2.4360 H     1 <1>   0.1500 
 45 H       -2.3430    -5.1670     1.8220 H     1 <1>   0.1500 
 46 H        4.2380     1.5770    -3.3610 H     1 <1>   0.0800 
 47 H        5.6180     2.5620    -2.8900 H     1 <1>   0.0800 
 48 H        4.0830     3.3300    -3.3380 H     1 <1>   0.0800 
 49 H        5.8080     6.4700    -0.3450 H     1 <1>   0.1500 
 50 H       -3.6010    -6.8310    -2.6260 H     1 <1>   0.1500 
 51 H       -3.7140    -7.1600     1.6150 H     1 <1>   0.1500 
 52 H       -4.3570    -8.0060    -0.6000 H     1 <1>   0.1500 
@<TRIPOS>BOND
  1   1   2  2   
  2   2   3  am  
  3   2   4  1   
  4   3   5  1   
  5   3  27  1   
  6   4   6  1   
  7   4  28  1   
  8   4  29  1   
  9   5   7  1   
 10   5  30  1   
 11   5  31  1   
 12   6   8  1   
 13   6   9  1   
 14   7  10  1   
 15   7  32  1   
 16   7  33  1   
 17   8  11  1   
 18   8  34  1   
 19   8  35  1   
 20   9  12  1   
 21   9  36  1   
 22   9  37  1   
 23  10  13  ar  
 24  10  14  ar  
 25  11  12  1   
 26  11  15  1   
 27  11  16  1   
 28  12  38  1   
 29  12  39  1   
 30  13  17  1   
 31  13  18  ar  
 32  14  19  ar  
 33  14  40  1   
 34  15  41  1   
 35  16  20  ar  
 36  16  21  ar  
 37  17  22  1   
 38  18  23  ar  
 39  18  42  1   
 40  19  23  ar  
 41  19  43  1   
 42  20  24  ar  
 43  20  44  1   
 44  21  25  ar  
 45  21  45  1   
 46  22  46  1   
 47  22  47  1   
 48  22  48  1   
 49  23  49  1   
 50  24  26  ar  
 51  24  50  1   
 52  25  26  ar  
 53  25  51  1   
 54  26  52  1   
@<TRIPOS>SUBSTRUCTURE
  1 ****   3 GROUP 4 **** **** 0

# MOE 2024.06 (io_trps.svl 2023.06)
