@<TRIPOS>MOLECULE
NONAME
49 51 1 0 0 
SMALL
USER_CHARGES


@<TRIPOS>ATOM
  1 O        1.3620    -0.4440    -1.4180 O.2   1 <1>  -0.5700 
  2 C        1.8980    -0.8630    -0.4220 C.2   1 <1>   0.5690 
  3 N        2.7800    -0.0830     0.2830 N.am  1 <1>  -0.6600 
  4 C        1.5850    -2.2850     0.0140 C.3   1 <1>  -0.0990 
  5 C        3.7260    -0.5650     1.3420 C.3   1 <1>   0.1400 
  6 C        2.8250     1.3860     0.0350 C.3   1 <1>   0.1400 
  7 C        0.3630    -2.8610    -0.7200 C.3   1 <1>   0.0960 
  8 C        5.1960    -0.6130     0.8630 C.3   1 <1>   0.3430 
  9 C        3.8060     1.7160    -1.0940 C.3   1 <1>  -0.1600 
 10 N        0.0830    -4.2280    -0.2450 N.pl3 1 <1>   0.0480 
 11 N        5.6520     0.6300     0.1520 N.4   1 <1>  -0.9590 
 12 C        5.0110     0.7820    -1.1850 C.3   1 <1>   0.3430 
 13 C        0.4900    -5.3900    -0.7580 C.2   1 <1>   0.0360 
 14 C       -0.6140    -4.6120     0.8260 C.2   1 <1>   0.0360 
 15 C        7.1430     0.7570     0.1070 C.3   1 <1>   0.3430 
 16 N        0.0850    -6.3920    -0.0580 N.2   1 <1>  -0.3380 
 17 N       -0.6230    -5.8930     0.9580 N.2   1 <1>  -0.3380 
 18 C        7.5600     2.2230     0.3450 C.3   1 <1>   0.2000 
 19 O        6.5990     2.8270     1.1830 O.3   1 <1>  -0.5600 
 20 C        7.6770     3.0290    -0.9640 C.3   1 <1>   0.1200 
 21 C        6.8880     4.1700     1.4750 C.3   1 <1>   0.1200 
 22 O        7.9730     4.3590    -0.6700 O.3   1 <1>  -0.5600 
 23 C        7.0460     4.9800     0.1750 C.3   1 <1>   0.1200 
 24 H        1.3820    -2.2820     1.0690 H     1 <1>   0.0800 
 25 H        2.4420    -2.9010    -0.1840 H     1 <1>   0.0800 
 26 H        3.4480    -1.5460     1.6800 H     1 <1>   0.0800 
 27 H        3.6560     0.0860     2.1970 H     1 <1>   0.0800 
 28 H        3.1150     1.8960     0.9380 H     1 <1>   0.0800 
 29 H        1.8410     1.7420    -0.2290 H     1 <1>   0.0800 
 30 H        0.5430    -2.8910    -1.7810 H     1 <1>   0.0800 
 31 H       -0.5020    -2.2460    -0.5420 H     1 <1>   0.0800 
 32 H        5.3190    -1.4610     0.2090 H     1 <1>   0.0800 
 33 H        5.8200    -0.7790     1.7260 H     1 <1>   0.0800 
 34 H        4.1360     2.7350    -0.9910 H     1 <1>   0.0800 
 35 H        3.2730     1.6570    -2.0270 H     1 <1>   0.0800 
 36 H        5.3800     1.4560     0.7210 H     1 <1>   0.4500 
 37 H        5.7120     1.1830    -1.8980 H     1 <1>   0.0800 
 38 H        4.6850    -0.1810    -1.5440 H     1 <1>   0.0800 
 39 H        1.0860    -5.4690    -1.6490 H     1 <1>   0.1500 
 40 H       -1.1030    -3.9250     1.4920 H     1 <1>   0.1500 
 41 H        7.5400     0.3930    -0.8260 H     1 <1>   0.0800 
 42 H        7.5750     0.1670     0.8980 H     1 <1>   0.0800 
 43 H        8.5140     2.2390     0.8450 H     1 <1>   0.0800 
 44 H        6.7630     3.0050    -1.5290 H     1 <1>   0.0800 
 45 H        8.4770     2.6490    -1.5760 H     1 <1>   0.0800 
 46 H        7.7950     4.2140     2.0540 H     1 <1>   0.0800 
 47 H        6.0830     4.5680     2.0670 H     1 <1>   0.0800 
 48 H        7.4080     5.9700     0.3910 H     1 <1>   0.0800 
 49 H        6.1060     5.0620    -0.3420 H     1 <1>   0.0800 
@<TRIPOS>BOND
  1   1   2  2   
  2   2   3  am  
  3   2   4  1   
  4   3   5  1   
  5   3   6  1   
  6   4   7  1   
  7   4  24  1   
  8   4  25  1   
  9   5   8  1   
 10   5  26  1   
 11   5  27  1   
 12   6   9  1   
 13   6  28  1   
 14   6  29  1   
 15   7  10  1   
 16   7  30  1   
 17   7  31  1   
 18   8  11  1   
 19   8  32  1   
 20   8  33  1   
 21   9  12  1   
 22   9  34  1   
 23   9  35  1   
 24  10  13  1   
 25  10  14  1   
 26  11  12  1   
 27  11  15  1   
 28  11  36  1   
 29  12  37  1   
 30  12  38  1   
 31  13  16  2   
 32  13  39  1   
 33  14  17  2   
 34  14  40  1   
 35  15  18  1   
 36  15  41  1   
 37  15  42  1   
 38  16  17  1   
 39  18  19  1   
 40  18  20  1   
 41  18  43  1   
 42  19  21  1   
 43  20  22  1   
 44  20  44  1   
 45  20  45  1   
 46  21  23  1   
 47  21  46  1   
 48  21  47  1   
 49  22  23  1   
 50  23  48  1   
 51  23  49  1   
@<TRIPOS>SUBSTRUCTURE
  1 ****   3 GROUP 4 **** **** 0

# MOE 2024.06 (io_trps.svl 2023.06)
