@<TRIPOS>MOLECULE
NONAME
51 53 1 0 0 
SMALL
USER_CHARGES


@<TRIPOS>ATOM
  1 O       -2.4510     0.7550    -1.8540 O.2   1 <1>  -0.5700 
  2 C       -2.2540     0.6220    -0.6710 C.2   1 <1>   0.5690 
  3 N       -2.1580    -0.6080    -0.1020 N.am  1 <1>  -0.7300 
  4 C       -2.0790     1.8910     0.1820 C.3   1 <1>   0.4040 
  5 C       -2.2380    -1.8960    -0.8390 C.3   1 <1>   0.2200 
  6 N       -0.7320     2.5770     0.0310 N.4   1 <1>  -0.9590 
  7 C       -3.5370    -2.6330    -0.5240 C.3   1 <1>  -0.0800 
  8 C       -1.2310    -2.8530    -0.2200 C.3   1 <1>   0.1200 
  9 C       -0.5490     3.6410     1.0650 C.3   1 <1>   0.4230 
 10 C       -0.5280     3.0390    -1.3870 C.3   1 <1>   0.2630 
 11 C       -3.2080    -3.3840     0.7740 C.3   1 <1>   0.1200 
 12 C       -4.8070    -1.7660    -0.4530 C.3   1 <1>  -0.0170 
 13 O       -1.8310    -3.2380     0.9760 O.3   1 <1>  -0.5600 
 14 C       -1.4940     4.8380     0.8650 C.3   1 <1>  -0.1600 
 15 C        0.8700     4.2140     1.0180 C.3   1 <1>  -0.1600 
 16 C       -6.0430    -2.6310    -0.2600 C.ar  1 <1>  -0.1430 
 17 C       -0.6180     6.0800     0.6590 C.3   1 <1>  -0.1600 
 18 C        0.7710     5.5610     0.3030 C.3   1 <1>  -0.1600 
 19 C       -6.6160    -2.8320     0.9790 C.ar  1 <1>  -0.1500 
 20 C       -6.6540    -3.2630    -1.3240 C.ar  1 <1>  -0.1500 
 21 C       -7.7380    -3.6370     1.0920 C.ar  1 <1>   0.1600 
 22 C       -7.7740    -4.0480    -1.1030 C.ar  1 <1>   0.1600 
 23 N       -8.3290    -4.2510     0.0800 N.ar  1 <1>  -0.6200 
 24 H       -2.0230    -0.7630     0.9030 H     1 <1>   0.3700 
 25 H       -2.2310     1.6210     1.2120 H     1 <1>   0.0800 
 26 H       -2.8610     2.5780    -0.0950 H     1 <1>   0.0800 
 27 H       -2.0810    -1.7550    -1.8960 H     1 <1>   0.0800 
 28 H       -0.0120     1.8650     0.2120 H     1 <1>   0.4500 
 29 H       -3.6850    -3.3740    -1.2900 H     1 <1>   0.0800 
 30 H       -0.2770    -2.3960    -0.0210 H     1 <1>   0.0800 
 31 H       -1.1000    -3.7310    -0.8290 H     1 <1>   0.0800 
 32 H       -0.7130     3.2160     2.0430 H     1 <1>   0.0800 
 33 H       -1.2590     3.7840    -1.6540 H     1 <1>   0.0800 
 34 H       -0.6240     2.2110    -2.0730 H     1 <1>   0.0800 
 35 H        0.4550     3.4620    -1.5080 H     1 <1>   0.0800 
 36 H       -3.4380    -4.4330     0.6930 H     1 <1>   0.0800 
 37 H       -3.7120    -2.9680     1.6280 H     1 <1>   0.0800 
 38 H       -4.9090    -1.2060    -1.3670 H     1 <1>   0.0800 
 39 H       -4.7400    -1.0610     0.3560 H     1 <1>   0.0800 
 40 H       -2.1480     4.7130     0.0210 H     1 <1>   0.0800 
 41 H       -2.1010     4.9760     1.7430 H     1 <1>   0.0800 
 42 H        1.1850     4.4000     2.0310 H     1 <1>   0.0800 
 43 H        1.5870     3.5570     0.5600 H     1 <1>   0.0800 
 44 H       -1.0080     6.7320    -0.1040 H     1 <1>   0.0800 
 45 H       -0.5600     6.6340     1.5830 H     1 <1>   0.0800 
 46 H        1.5440     6.2430     0.6220 H     1 <1>   0.0800 
 47 H        0.8500     5.4330    -0.7620 H     1 <1>   0.0800 
 48 H       -6.2070    -2.3740     1.8600 H     1 <1>   0.1500 
 49 H       -6.2730    -3.1540    -2.3230 H     1 <1>   0.1500 
 50 H       -8.1730    -3.7840     2.0660 H     1 <1>   0.1500 
 51 H       -8.2380    -4.5330    -1.9450 H     1 <1>   0.1500 
@<TRIPOS>BOND
  1   1   2  2   
  2   2   3  am  
  3   2   4  1   
  4   3   5  1   
  5   3  24  1   
  6   4   6  1   
  7   4  25  1   
  8   4  26  1   
  9   5   7  1   
 10   5   8  1   
 11   5  27  1   
 12   6   9  1   
 13   6  10  1   
 14   6  28  1   
 15   7  11  1   
 16   7  12  1   
 17   7  29  1   
 18   8  13  1   
 19   8  30  1   
 20   8  31  1   
 21   9  14  1   
 22   9  15  1   
 23   9  32  1   
 24  10  33  1   
 25  10  34  1   
 26  10  35  1   
 27  11  13  1   
 28  11  36  1   
 29  11  37  1   
 30  12  16  1   
 31  12  38  1   
 32  12  39  1   
 33  14  17  1   
 34  14  40  1   
 35  14  41  1   
 36  15  18  1   
 37  15  42  1   
 38  15  43  1   
 39  16  19  ar  
 40  16  20  ar  
 41  17  18  1   
 42  17  44  1   
 43  17  45  1   
 44  18  46  1   
 45  18  47  1   
 46  19  21  ar  
 47  19  48  1   
 48  20  22  ar  
 49  20  49  1   
 50  21  23  ar  
 51  21  50  1   
 52  22  23  ar  
 53  22  51  1   
@<TRIPOS>SUBSTRUCTURE
  1 ****   3 GROUP 4 **** **** 0

# MOE 2024.06 (io_trps.svl 2023.06)
