@<TRIPOS>MOLECULE
NONAME
30 31 1 0 0 
SMALL
USER_CHARGES


@<TRIPOS>ATOM
  1 O       -5.0540     2.1900     0.4230 O.2   1 <1>  -0.5700 
  2 C       -5.9480     1.4330     0.1630 C.2   1 <1>   0.6590 
  3 O       -7.0980     1.8440    -0.3590 O.3   1 <1>  -0.4300 
  4 C       -5.8680    -0.0540     0.4660 C.3   1 <1>   0.0610 
  5 C       -7.3060     3.2010    -0.6910 C.3   1 <1>   0.1200 
  6 C       -6.2900    -0.9570    -0.7060 C.3   1 <1>  -0.0800 
  7 C       -6.8720    -0.3570     1.5700 C.3   1 <1>   0.3430 
  8 C       -4.4680    -0.5420     0.8390 C.3   1 <1>   0.1100 
  9 C       -8.7180     3.3420    -1.2510 C.3   1 <1>  -0.2400 
 10 C       -7.6390    -1.5680    -0.3190 C.3   1 <1>   0.3430 
 11 C       -5.1850    -2.0110    -0.8230 C.3   1 <1>   0.1100 
 12 N       -8.1010    -0.8090     0.8690 N.4   1 <1>  -0.9060 
 13 N       -4.4390    -1.9400     0.4240 N.3   1 <1>  -0.9000 
 14 H       -6.5700     3.4920    -1.4240 H     1 <1>   0.0800 
 15 H       -7.1800     3.7990     0.1970 H     1 <1>   0.0800 
 16 H       -6.3770    -0.4210    -1.6360 H     1 <1>   0.0800 
 17 H       -7.0570     0.5070     2.1890 H     1 <1>   0.0800 
 18 H       -6.4920    -1.1580     2.1840 H     1 <1>   0.0800 
 19 H       -4.2440    -0.4330     1.8870 H     1 <1>   0.0800 
 20 H       -3.7240    -0.0030     0.2720 H     1 <1>   0.0800 
 21 H       -8.8340     2.7390    -2.1330 H     1 <1>   0.0800 
 22 H       -8.8940     4.3690    -1.5210 H     1 <1>   0.0800 
 23 H       -9.4470     3.0590    -0.5130 H     1 <1>   0.0800 
 24 H       -7.5010    -2.6060    -0.0560 H     1 <1>   0.0800 
 25 H       -8.3480    -1.5000    -1.1290 H     1 <1>   0.0800 
 26 H       -4.5200    -1.7480    -1.6310 H     1 <1>   0.0800 
 27 H       -5.5560    -3.0080    -0.9980 H     1 <1>   0.0800 
 28 H       -8.6230     0.0220     0.5480 H     1 <1>   0.4500 
 29 H       -8.7230    -1.3630     1.4730 H     1 <1>   0.4500 
 30 H       -4.8400    -2.5600     1.1400 H     1 <1>   0.3600 
@<TRIPOS>BOND
  1   1   2  2   
  2   2   3  1   
  3   2   4  1   
  4   3   5  1   
  5   4   6  1   
  6   4   7  1   
  7   4   8  1   
  8   5   9  1   
  9   5  14  1   
 10   5  15  1   
 11   6  10  1   
 12   6  11  1   
 13   6  16  1   
 14   7  12  1   
 15   7  17  1   
 16   7  18  1   
 17   8  13  1   
 18   8  19  1   
 19   8  20  1   
 20   9  21  1   
 21   9  22  1   
 22   9  23  1   
 23  10  12  1   
 24  10  24  1   
 25  10  25  1   
 26  11  13  1   
 27  11  26  1   
 28  11  27  1   
 29  12  28  1   
 30  12  29  1   
 31  13  30  1   
@<TRIPOS>SUBSTRUCTURE
  1 ****   4 GROUP 4 **** **** 0

# MOE 2024.06 (io_trps.svl 2023.06)
