@<TRIPOS>MOLECULE
NONAME
53 55 1 0 0 
SMALL
USER_CHARGES


@<TRIPOS>ATOM
  1 O        0.2400     1.2310     0.4730 O.2   1 <1>  -0.5700 
  2 C        0.0480     2.3510     0.0610 C.2   1 <1>   0.5690 
  3 N       -0.8380     3.2110     0.6520 N.am  1 <1>  -0.6600 
  4 C        0.8130     2.8040    -1.1820 C.3   1 <1>   0.1810 
  5 C       -1.0940     4.5780     0.0860 C.3   1 <1>   0.3640 
  6 C       -1.5680     2.8690     1.9060 C.3   1 <1>   0.0600 
  7 O        0.9500     4.2010    -1.2460 O.3   1 <1>  -0.5600 
  8 C       -2.6000     4.8120    -0.1200 C.ar  1 <1>  -0.1440 
  9 C       -0.2820     4.9100    -1.1950 C.3   1 <1>   0.2610 
 10 C       -3.4530     3.9550    -0.8250 C.ar  1 <1>  -0.1440 
 11 C       -3.1320     5.9670     0.4430 C.ar  1 <1>  -0.1500 
 12 C       -0.0180     6.4190    -1.2500 C.2   1 <1>   0.5690 
 13 C       -4.8000     4.2710    -0.9340 C.ar  1 <1>  -0.1500 
 14 C       -2.9950     2.6610    -1.4880 C.3   1 <1>  -0.0960 
 15 C       -4.4740     6.2720     0.3260 C.ar  1 <1>  -0.1500 
 16 O       -0.9230     7.1790    -1.4980 O.2   1 <1>  -0.5700 
 17 N        1.2380     6.8780    -0.9970 N.am  1 <1>  -0.7300 
 18 C       -5.3120     5.4210    -0.3640 C.ar  1 <1>  -0.1500 
 19 C        1.6610     8.2970    -1.0250 C.3   1 <1>   0.1400 
 20 C        1.6440     8.8710     0.3910 C.3   1 <1>  -0.0170 
 21 C        2.1070    10.3180     0.3770 C.ar  1 <1>  -0.1440 
 22 C        3.4230    10.6410     0.6720 C.ar  1 <1>  -0.1500 
 23 C        1.2130    11.3300     0.0630 C.ar  1 <1>  -0.1500 
 24 C        3.8480    11.9590     0.6550 C.ar  1 <1>  -0.1440 
 25 C        1.6310    12.6480     0.0460 C.ar  1 <1>  -0.1500 
 26 C        2.9450    12.9620     0.3420 C.ar  1 <1>  -0.1500 
 27 C        5.2900    12.3030     0.9820 C.3   1 <1>  -0.0970 
 28 H        0.3080     2.4640    -2.0670 H     1 <1>   0.0800 
 29 H        1.8010     2.3790    -1.1620 H     1 <1>   0.0800 
 30 H       -0.7590     5.2700     0.8390 H     1 <1>   0.0800 
 31 H       -1.4040     3.6320     2.6460 H     1 <1>   0.0800 
 32 H       -1.2260     1.9280     2.3020 H     1 <1>   0.0800 
 33 H       -2.6230     2.7920     1.7080 H     1 <1>   0.0800 
 34 H       -0.8490     4.6480    -2.0680 H     1 <1>   0.0800 
 35 H       -2.4990     6.6540     0.9780 H     1 <1>   0.1500 
 36 H       -5.4690     3.6200    -1.4680 H     1 <1>   0.1500 
 37 H       -3.7540     2.2770    -2.1470 H     1 <1>   0.0800 
 38 H       -2.7980     1.9130    -0.7420 H     1 <1>   0.0800 
 39 H       -2.1110     2.8180    -2.0730 H     1 <1>   0.0800 
 40 H       -4.8630     7.1730     0.7670 H     1 <1>   0.1500 
 41 H        1.9710     6.1730    -0.8630 H     1 <1>   0.3700 
 42 H       -6.3580     5.6520    -0.4590 H     1 <1>   0.1500 
 43 H        2.6500     8.3700    -1.4420 H     1 <1>   0.0800 
 44 H        0.9900     8.8630    -1.6500 H     1 <1>   0.0800 
 45 H        0.6440     8.8210     0.7840 H     1 <1>   0.0800 
 46 H        2.2880     8.2900     1.0260 H     1 <1>   0.0800 
 47 H        4.1220     9.8620     0.9180 H     1 <1>   0.1500 
 48 H        0.1890    11.0950    -0.1700 H     1 <1>   0.1500 
 49 H        0.9330    13.4300    -0.1970 H     1 <1>   0.1500 
 50 H        3.2610    13.9900     0.3290 H     1 <1>   0.1500 
 51 H        5.5920    13.1920     0.4590 H     1 <1>   0.0800 
 52 H        5.9430    11.5000     0.6910 H     1 <1>   0.0800 
 53 H        5.3920    12.4700     2.0400 H     1 <1>   0.0800 
@<TRIPOS>BOND
  1   1   2  2   
  2   2   3  am  
  3   2   4  1   
  4   3   5  1   
  5   3   6  1   
  6   4   7  1   
  7   4  28  1   
  8   4  29  1   
  9   5   8  1   
 10   5   9  1   
 11   5  30  1   
 12   6  31  1   
 13   6  32  1   
 14   6  33  1   
 15   7   9  1   
 16   8  10  ar  
 17   8  11  ar  
 18   9  12  1   
 19   9  34  1   
 20  10  13  ar  
 21  10  14  1   
 22  11  15  ar  
 23  11  35  1   
 24  12  16  2   
 25  12  17  am  
 26  13  18  ar  
 27  13  36  1   
 28  14  37  1   
 29  14  38  1   
 30  14  39  1   
 31  15  18  ar  
 32  15  40  1   
 33  17  19  1   
 34  17  41  1   
 35  18  42  1   
 36  19  20  1   
 37  19  43  1   
 38  19  44  1   
 39  20  21  1   
 40  20  45  1   
 41  20  46  1   
 42  21  22  ar  
 43  21  23  ar  
 44  22  24  ar  
 45  22  47  1   
 46  23  25  ar  
 47  23  48  1   
 48  24  26  ar  
 49  24  27  1   
 50  25  26  ar  
 51  25  49  1   
 52  26  50  1   
 53  27  51  1   
 54  27  52  1   
 55  27  53  1   
@<TRIPOS>SUBSTRUCTURE
  1 ****  12 GROUP 4 **** **** 0

# MOE 2024.06 (io_trps.svl 2023.06)
