@<TRIPOS>MOLECULE
NONAME
49 51 1 0 0 
SMALL
USER_CHARGES


@<TRIPOS>ATOM
  1 S        0.2220    -0.4510     0.8990 S.3   1 <1>  -0.0800 
  2 C       -0.4430     1.1680     0.9200 C.ar  1 <1>   0.0400 
  3 C       -1.3790    -1.0870     0.5380 C.2   1 <1>   0.1980 
  4 C       -1.7970     1.0780     0.6540 C.ar  1 <1>   0.2270 
  5 C        0.2120     2.3640     1.1520 C.ar  1 <1>  -0.1500 
  6 N       -2.2950    -0.2090     0.4450 N.2   1 <1>  -0.5650 
  7 C       -1.4870    -2.5930     0.3820 C.3   1 <1>   0.0200 
  8 C       -2.5370     2.2510     0.6180 C.ar  1 <1>  -0.1500 
  9 C       -0.5430     3.5240     1.1120 C.ar  1 <1>  -0.1500 
 10 C       -2.9120    -3.0050    -0.0220 C.3   1 <1>  -0.0990 
 11 C       -1.9100     3.4660     0.8470 C.ar  1 <1>  -0.1500 
 12 C       -3.0990    -4.5040    -0.1730 C.2   1 <1>   0.5690 
 13 O       -2.3310    -5.2480     0.3880 O.2   1 <1>  -0.5700 
 14 N       -4.1630    -4.9940    -0.8830 N.am  1 <1>  -0.6600 
 15 C       -4.2100    -6.4420    -1.2240 C.3   1 <1>   0.3200 
 16 C       -5.4450    -4.2480    -1.0780 C.3   1 <1>   0.1400 
 17 C       -5.1140    -7.0910    -0.2050 C.2   1 <1>  -0.3320 
 18 C       -6.1830    -4.0940     0.2710 C.3   1 <1>   0.3430 
 19 N       -4.7620    -7.2290     1.0860 N.pl3 1 <1>   0.0330 
 20 C       -6.3620    -7.5920    -0.3230 C.2   1 <1>   0.0770 
 21 N       -7.6550    -3.8320     0.1330 N.4   1 <1>  -0.9590 
 22 C       -5.8470    -7.7630     1.6840 C.2   1 <1>   0.0360 
 23 N       -6.8370    -7.9730     0.8750 N.2   1 <1>  -0.5650 
 24 C       -8.1930    -3.2660     1.4080 C.3   1 <1>   0.2630 
 25 C       -8.3930    -5.0970    -0.1920 C.3   1 <1>   0.2630 
 26 H        1.2680     2.3820     1.3540 H     1 <1>   0.1500 
 27 H       -1.2210    -3.0540     1.3170 H     1 <1>   0.0800 
 28 H       -0.7880    -2.9210    -0.3660 H     1 <1>   0.0800 
 29 H       -3.5900     2.1990     0.4130 H     1 <1>   0.1500 
 30 H       -0.0740     4.4770     1.2880 H     1 <1>   0.1500 
 31 H       -3.1440    -2.5270    -0.9560 H     1 <1>   0.0800 
 32 H       -3.5940    -2.6470     0.7250 H     1 <1>   0.0800 
 33 H       -2.4830     4.3770     0.8200 H     1 <1>   0.1500 
 34 H       -3.2260    -6.8820    -1.1910 H     1 <1>   0.0800 
 35 H       -4.6000    -6.5720    -2.2190 H     1 <1>   0.0800 
 36 H       -6.0600    -4.7930    -1.7720 H     1 <1>   0.0800 
 37 H       -5.2440    -3.2790    -1.5000 H     1 <1>   0.0800 
 38 H       -5.7250    -3.2850     0.8140 H     1 <1>   0.0800 
 39 H       -6.0470    -4.9960     0.8450 H     1 <1>   0.0800 
 40 H       -3.8560    -6.9770     1.5060 H     1 <1>   0.2700 
 41 H       -6.9590    -7.6880    -1.2160 H     1 <1>   0.1500 
 42 H       -7.8130    -3.1430    -0.6180 H     1 <1>   0.4500 
 43 H       -5.8660    -7.9890     2.7380 H     1 <1>   0.1500 
 44 H       -8.0520    -3.9650     2.2170 H     1 <1>   0.0800 
 45 H       -9.2480    -3.0630     1.3120 H     1 <1>   0.0800 
 46 H       -7.6890    -2.3460     1.6550 H     1 <1>   0.0800 
 47 H       -8.2320    -5.8350     0.5780 H     1 <1>   0.0800 
 48 H       -8.0520    -5.5050    -1.1290 H     1 <1>   0.0800 
 49 H       -9.4520    -4.9060    -0.2680 H     1 <1>   0.0800 
@<TRIPOS>BOND
  1   1   2  1   
  2   1   3  1   
  3   2   4  ar  
  4   2   5  ar  
  5   3   6  2   
  6   3   7  1   
  7   4   6  1   
  8   4   8  ar  
  9   5   9  ar  
 10   5  26  1   
 11   7  10  1   
 12   7  27  1   
 13   7  28  1   
 14   8  11  ar  
 15   8  29  1   
 16   9  11  ar  
 17   9  30  1   
 18  10  12  1   
 19  10  31  1   
 20  10  32  1   
 21  11  33  1   
 22  12  13  2   
 23  12  14  am  
 24  14  15  1   
 25  14  16  1   
 26  15  17  1   
 27  15  34  1   
 28  15  35  1   
 29  16  18  1   
 30  16  36  1   
 31  16  37  1   
 32  17  19  1   
 33  17  20  2   
 34  18  21  1   
 35  18  38  1   
 36  18  39  1   
 37  19  22  1   
 38  19  40  1   
 39  20  23  1   
 40  20  41  1   
 41  21  24  1   
 42  21  25  1   
 43  21  42  1   
 44  22  23  2   
 45  22  43  1   
 46  24  44  1   
 47  24  45  1   
 48  24  46  1   
 49  25  47  1   
 50  25  48  1   
 51  25  49  1   
@<TRIPOS>SUBSTRUCTURE
  1 ****  10 GROUP 4 **** **** 0

# MOE 2024.06 (io_trps.svl 2023.06)
