@<TRIPOS>MOLECULE
NONAME
52 54 1 0 0 
SMALL
USER_CHARGES


@<TRIPOS>ATOM
  1 O        0.1820     1.6840    -3.2030 O.2   1 <1>  -0.5700 
  2 C       -0.2010     1.2940    -2.1250 C.2   1 <1>   0.5690 
  3 N        0.1000     1.9370    -0.9720 N.am  1 <1>  -0.7300 
  4 C       -1.0240     0.0060    -2.0350 C.3   1 <1>   0.1710 
  5 C        1.0640     3.0400    -0.8400 C.3   1 <1>   0.2840 
  6 N       -0.7330    -0.8120    -0.8180 N.3   1 <1>  -0.8100 
  7 C        2.3080     2.4940    -0.1620 C.ar  1 <1>  -0.1440 
  8 C       -1.6180    -1.9970    -0.6990 C.3   1 <1>   0.1100 
  9 C        0.6600    -1.2950    -0.7730 C.3   1 <1>   0.1100 
 10 C        2.5530     2.7350     1.1810 C.ar  1 <1>  -0.1500 
 11 C        3.2090     1.7330    -0.8910 C.ar  1 <1>  -0.1500 
 12 C       -0.7480    -3.2490    -0.8670 C.3   1 <1>   0.4240 
 13 C        0.5880    -2.7540    -0.3310 C.3   1 <1>  -0.1600 
 14 C        3.6910     2.2270     1.7830 C.ar  1 <1>  -0.1500 
 15 C        4.3440     1.2250    -0.2860 C.ar  1 <1>  -0.1500 
 16 O       -0.5850    -3.4750    -2.2220 O.3   1 <1>  -0.6800 
 17 C       -1.3400    -4.5140    -0.2290 C.ar  1 <1>  -0.1440 
 18 C        4.6020     1.4730     1.0560 C.ar  1 <1>   0.1170 
 19 C       -0.6240    -5.3100     0.6590 C.ar  1 <1>  -0.1500 
 20 C       -2.6400    -4.8900    -0.5490 C.ar  1 <1>  -0.1500 
 21 N        5.7440     0.9710     1.6870 N.am  1 <1>  -0.5470 
 22 C       -1.1990    -6.4360     1.2240 C.ar  1 <1>  -0.1500 
 23 C       -3.2170    -6.0140     0.0140 C.ar  1 <1>  -0.1500 
 24 C        7.0540     1.0530     1.3420 C.2   1 <1>   0.5690 
 25 C       -2.4970    -6.7880     0.9050 C.ar  1 <1>  -0.1500 
 26 O        7.8880     0.5150     2.0230 O.2   1 <1>  -0.5700 
 27 C        7.4970     1.8280     0.1230 C.3   1 <1>  -0.1790 
 28 H       -0.1250     1.4330    -0.1090 H     1 <1>   0.3700 
 29 H       -0.8460    -0.5760    -2.9210 H     1 <1>   0.0800 
 30 H       -2.0610     0.2870    -2.0280 H     1 <1>   0.0800 
 31 H        0.6260     3.8300    -0.2560 H     1 <1>   0.0800 
 32 H        1.3140     3.4340    -1.8110 H     1 <1>   0.0800 
 33 H       -2.4300    -1.9830    -1.4050 H     1 <1>   0.0800 
 34 H       -2.0320    -2.0030     0.2950 H     1 <1>   0.0800 
 35 H        1.2440    -0.7040    -0.0850 H     1 <1>   0.0800 
 36 H        1.1140    -1.2360    -1.7490 H     1 <1>   0.0800 
 37 H        1.8610     3.3190     1.7630 H     1 <1>   0.1500 
 38 H        3.0200     1.5340    -1.9330 H     1 <1>   0.1500 
 39 H        0.5770    -2.7730     0.7430 H     1 <1>   0.0800 
 40 H        1.4180    -3.3390    -0.6840 H     1 <1>   0.0800 
 41 H        3.8760     2.4230     2.8240 H     1 <1>   0.1500 
 42 H        5.0290     0.6270    -0.8590 H     1 <1>   0.1500 
 43 H       -0.2620    -2.6500    -2.6210 H     1 <1>   0.4000 
 44 H        0.3900    -5.0740     0.9210 H     1 <1>   0.1500 
 45 H       -3.2100    -4.3080    -1.2520 H     1 <1>   0.1500 
 46 H        5.6070     0.5170     2.5900 H     1 <1>   0.3700 
 47 H       -0.6330    -7.0410     1.9110 H     1 <1>   0.1500 
 48 H       -4.2250    -6.2900    -0.2440 H     1 <1>   0.1500 
 49 H       -2.9430    -7.6630     1.3440 H     1 <1>   0.1500 
 50 H        6.9010     2.7140     0.0060 H     1 <1>   0.0800 
 51 H        7.4040     1.2120    -0.7510 H     1 <1>   0.0800 
 52 H        8.5260     2.1160     0.2360 H     1 <1>   0.0800 
@<TRIPOS>BOND
  1   1   2  2   
  2   2   3  am  
  3   2   4  1   
  4   3   5  1   
  5   3  28  1   
  6   4   6  1   
  7   4  29  1   
  8   4  30  1   
  9   5   7  1   
 10   5  31  1   
 11   5  32  1   
 12   6   8  1   
 13   6   9  1   
 14   7  10  ar  
 15   7  11  ar  
 16   8  12  1   
 17   8  33  1   
 18   8  34  1   
 19   9  13  1   
 20   9  35  1   
 21   9  36  1   
 22  10  14  ar  
 23  10  37  1   
 24  11  15  ar  
 25  11  38  1   
 26  12  13  1   
 27  12  16  1   
 28  12  17  1   
 29  13  39  1   
 30  13  40  1   
 31  14  18  ar  
 32  14  41  1   
 33  15  18  ar  
 34  15  42  1   
 35  16  43  1   
 36  17  19  ar  
 37  17  20  ar  
 38  18  21  1   
 39  19  22  ar  
 40  19  44  1   
 41  20  23  ar  
 42  20  45  1   
 43  21  24  am  
 44  21  46  1   
 45  22  25  ar  
 46  22  47  1   
 47  23  25  ar  
 48  23  48  1   
 49  24  26  2   
 50  24  27  1   
 51  25  49  1   
 52  27  50  1   
 53  27  51  1   
 54  27  52  1   
@<TRIPOS>SUBSTRUCTURE
  1 ****   9 GROUP 4 **** **** 0

# MOE 2024.06 (io_trps.svl 2023.06)
