@<TRIPOS>MOLECULE
NONAME
45 47 1 0 0 
SMALL
USER_CHARGES


@<TRIPOS>ATOM
  1 O       -2.2570     0.6470     2.4830 O.2   1 <1>  -0.5700 
  2 C       -2.6210     0.9690     1.3680 C.2   1 <1>   0.5440 
  3 N       -3.5920     0.2160     0.7520 N.am  1 <1>  -0.6600 
  4 C       -2.0390     2.1220     0.7210 C.ar  1 <1>   0.0860 
  5 C       -4.1860     0.5160    -0.5760 C.3   1 <1>   0.1400 
  6 C       -3.9010    -1.1750     1.1580 C.3   1 <1>   0.1400 
  7 C       -1.2240     2.0300    -0.4190 C.ar  1 <1>   0.0830 
  8 C       -2.3140     3.3940     1.2230 C.ar  1 <1>  -0.1500 
  9 C       -5.1380    -0.6510    -0.8410 C.3   1 <1>   0.2000 
 10 C       -4.5120    -1.8300    -0.0910 C.3   1 <1>  -0.0800 
 11 O       -0.8510     0.8560    -0.9790 O.3   1 <1>  -0.3630 
 12 C       -0.7620     3.1790    -1.0410 C.ar  1 <1>  -0.1500 
 13 C       -1.8380     4.5400     0.6100 C.ar  1 <1>  -0.1440 
 14 O       -6.3580    -0.3680    -0.2490 O.3   1 <1>  -0.6800 
 15 C       -3.4490    -2.5240    -0.9690 C.3   1 <1>  -0.0170 
 16 C       -0.2580    -0.1490    -0.1780 C.3   1 <1>   0.0400 
 17 C       -1.0640     4.4270    -0.5320 C.ar  1 <1>  -0.1500 
 18 C       -2.1560     5.9140     1.1730 C.3   1 <1>  -0.0970 
 19 C       -2.7860    -3.6970    -0.2640 C.ar  1 <1>   0.1670 
 20 N       -1.5770    -3.4870     0.2310 N.ar  1 <1>  -0.6200 
 21 C       -3.4550    -4.9160    -0.1680 C.ar  1 <1>   0.1600 
 22 C       -1.0910    -4.5620     0.8290 C.ar  1 <1>   0.1600 
 23 N       -2.9700    -5.9920     0.4280 N.ar  1 <1>  -0.6200 
 24 C       -1.7650    -5.7730     0.9240 C.ar  1 <1>   0.1600 
 25 H       -4.6990     1.4630    -0.5770 H     1 <1>   0.0800 
 26 H       -3.4100     0.5270    -1.3200 H     1 <1>   0.0800 
 27 H       -3.0150    -1.6790     1.5060 H     1 <1>   0.0800 
 28 H       -4.6190    -1.1500     1.9590 H     1 <1>   0.0800 
 29 H       -2.9170     3.4680     2.1100 H     1 <1>   0.1500 
 30 H       -5.3050    -0.8340    -1.8880 H     1 <1>   0.0800 
 31 H       -5.2600    -2.5530     0.1850 H     1 <1>   0.0800 
 32 H       -0.1550     3.0870    -1.9240 H     1 <1>   0.1500 
 33 H       -6.1960    -0.0360     0.6580 H     1 <1>   0.4000 
 34 H       -2.6900    -1.8190    -1.2620 H     1 <1>   0.0800 
 35 H       -3.9130    -2.8850    -1.8690 H     1 <1>   0.0800 
 36 H        0.3580    -0.7630    -0.8090 H     1 <1>   0.0800 
 37 H       -1.0260    -0.7540     0.2660 H     1 <1>   0.0800 
 38 H        0.3430     0.3130     0.5860 H     1 <1>   0.0800 
 39 H       -0.6930     5.3090    -1.0240 H     1 <1>   0.1500 
 40 H       -2.7660     6.4620     0.4780 H     1 <1>   0.0800 
 41 H       -1.2450     6.4600     1.3420 H     1 <1>   0.0800 
 42 H       -2.6840     5.8360     2.1060 H     1 <1>   0.0800 
 43 H       -4.4350    -5.0040    -0.6020 H     1 <1>   0.1500 
 44 H       -0.1110    -4.4810     1.2660 H     1 <1>   0.1500 
 45 H       -1.2860    -6.5920     1.4310 H     1 <1>   0.1500 
@<TRIPOS>BOND
  1   1   2  2   
  2   2   3  am  
  3   2   4  1   
  4   3   5  1   
  5   3   6  1   
  6   4   7  ar  
  7   4   8  ar  
  8   5   9  1   
  9   5  25  1   
 10   5  26  1   
 11   6  10  1   
 12   6  27  1   
 13   6  28  1   
 14   7  11  1   
 15   7  12  ar  
 16   8  13  ar  
 17   8  29  1   
 18   9  10  1   
 19   9  14  1   
 20   9  30  1   
 21  10  15  1   
 22  10  31  1   
 23  11  16  1   
 24  12  17  ar  
 25  12  32  1   
 26  13  17  ar  
 27  13  18  1   
 28  14  33  1   
 29  15  19  1   
 30  15  34  1   
 31  15  35  1   
 32  16  36  1   
 33  16  37  1   
 34  16  38  1   
 35  17  39  1   
 36  18  40  1   
 37  18  41  1   
 38  18  42  1   
 39  19  20  ar  
 40  19  21  ar  
 41  20  22  ar  
 42  21  23  ar  
 43  21  43  1   
 44  22  24  ar  
 45  22  44  1   
 46  23  24  ar  
 47  24  45  1   
@<TRIPOS>SUBSTRUCTURE
  1 ****   3 GROUP 4 **** **** 0

# MOE 2024.06 (io_trps.svl 2023.06)
