@<TRIPOS>MOLECULE
NONAME
58 60 1 0 0 
SMALL
USER_CHARGES


@<TRIPOS>ATOM
  1 O        3.9100    -0.4110     1.2650 O.2   1 <1>  -0.5700 
  2 C        3.1130    -0.7320     0.4010 C.2   1 <1>   0.7160 
  3 N        2.6660     0.2740    -0.4200 N.am  1 <1>  -0.6600 
  4 C        2.8060    -2.1160     0.1420 C.2   1 <1>  -0.0860 
  5 C        3.2250     0.3630    -1.8030 C.3   1 <1>   0.1400 
  6 C        2.1130     1.5410     0.1380 C.3   1 <1>   0.1400 
  7 C        1.6920    -2.6660    -0.5070 C.2   1 <1>   0.1080 
  8 C        3.5420    -3.2160     0.4660 C.2   1 <1>  -0.3020 
  9 C        4.7280     0.7280    -1.7840 C.3   1 <1>   0.3430 
 10 C        3.2050     2.5210     0.6040 C.3   1 <1>  -0.1600 
 11 N        1.7530    -3.9530    -0.5970 N.2   1 <1>  -0.7070 
 12 C        0.4960    -1.9140    -1.0520 C.3   1 <1>  -0.0590 
 13 N        2.8940    -4.2990     0.0170 N.pl3 1 <1>   0.3140 
 14 N        5.1150     1.4740    -0.5400 N.4   1 <1>  -0.9590 
 15 C        4.3620     2.7460    -0.3740 C.3   1 <1>   0.3430 
 16 C        3.3090    -5.7090     0.1540 C.3   1 <1>   0.0960 
 17 C        6.5930     1.6150    -0.4090 C.3   1 <1>   0.3430 
 18 C        2.9270    -6.2590     1.5360 C.3   1 <1>  -0.1600 
 19 C        7.0020     1.8850     1.0400 C.3   1 <1>  -0.0170 
 20 C        3.3500    -7.7250     1.6890 C.3   1 <1>  -0.2400 
 21 C        8.5160     1.9160     1.1130 C.ar  1 <1>  -0.1430 
 22 C        9.2230     0.7420     1.3350 C.ar  1 <1>  -0.1500 
 23 C        9.2040     3.1100     0.9470 C.ar  1 <1>  -0.1500 
 24 C       10.6060     0.7610     1.3810 C.ar  1 <1>  -0.1500 
 25 C       10.5880     3.1320     0.9930 C.ar  1 <1>  -0.1500 
 26 C       11.2830     1.9540     1.2070 C.ar  1 <1>   0.0820 
 27 O       12.6230     1.9560     1.2510 O.3   1 <1>  -0.5330 
 28 H        2.6820     1.1040    -2.3650 H     1 <1>   0.0800 
 29 H        3.0960    -0.5790    -2.3090 H     1 <1>   0.0800 
 30 H        1.4770     1.3030     0.9750 H     1 <1>   0.0800 
 31 H        1.4950     2.0110    -0.6080 H     1 <1>   0.0800 
 32 H        4.4770    -3.2660     0.9940 H     1 <1>   0.1500 
 33 H        4.9730     1.3030    -2.6620 H     1 <1>   0.0800 
 34 H        5.2910    -0.1890    -1.8290 H     1 <1>   0.0800 
 35 H        3.5970     2.1940     1.5510 H     1 <1>   0.0800 
 36 H        2.7330     3.4700     0.7880 H     1 <1>   0.0800 
 37 H        0.2020    -1.1350    -0.3740 H     1 <1>   0.0800 
 38 H       -0.3320    -2.5900    -1.1710 H     1 <1>   0.0800 
 39 H        0.7310    -1.4900    -2.0100 H     1 <1>   0.0800 
 40 H        4.7890     0.8620     0.2420 H     1 <1>   0.4500 
 41 H        5.0110     3.5070     0.0280 H     1 <1>   0.0800 
 42 H        3.9880     3.0910    -1.3240 H     1 <1>   0.0800 
 43 H        4.3720    -5.7680     0.0080 H     1 <1>   0.0800 
 44 H        2.8230    -6.2780    -0.6170 H     1 <1>   0.0800 
 45 H        6.9510     2.4110    -1.0420 H     1 <1>   0.0800 
 46 H        7.0710     0.7010    -0.7230 H     1 <1>   0.0800 
 47 H        1.8600    -6.1840     1.6600 H     1 <1>   0.0800 
 48 H        3.4020    -5.6720     2.3030 H     1 <1>   0.0800 
 49 H        6.6290     1.1040     1.6790 H     1 <1>   0.0800 
 50 H        6.6090     2.8250     1.3810 H     1 <1>   0.0800 
 51 H        2.8690    -8.3350     0.9450 H     1 <1>   0.0800 
 52 H        3.0670    -8.0870     2.6620 H     1 <1>   0.0800 
 53 H        4.4160    -7.8250     1.5860 H     1 <1>   0.0800 
 54 H        8.7110    -0.1940     1.4770 H     1 <1>   0.1500 
 55 H        8.6750     4.0320     0.7840 H     1 <1>   0.1500 
 56 H       11.1640    -0.1420     1.5520 H     1 <1>   0.1500 
 57 H       11.1150     4.0590     0.8650 H     1 <1>   0.1500 
 58 H       13.0130     2.8410     1.1390 H     1 <1>   0.4500 
@<TRIPOS>BOND
  1   1   2  2   
  2   2   3  am  
  3   2   4  1   
  4   3   5  1   
  5   3   6  1   
  6   4   7  1   
  7   4   8  2   
  8   5   9  1   
  9   5  28  1   
 10   5  29  1   
 11   6  10  1   
 12   6  30  1   
 13   6  31  1   
 14   7  11  2   
 15   7  12  1   
 16   8  13  1   
 17   8  32  1   
 18   9  14  1   
 19   9  33  1   
 20   9  34  1   
 21  10  15  1   
 22  10  35  1   
 23  10  36  1   
 24  11  13  1   
 25  12  37  1   
 26  12  38  1   
 27  12  39  1   
 28  13  16  1   
 29  14  15  1   
 30  14  17  1   
 31  14  40  1   
 32  15  41  1   
 33  15  42  1   
 34  16  18  1   
 35  16  43  1   
 36  16  44  1   
 37  17  19  1   
 38  17  45  1   
 39  17  46  1   
 40  18  20  1   
 41  18  47  1   
 42  18  48  1   
 43  19  21  1   
 44  19  49  1   
 45  19  50  1   
 46  20  51  1   
 47  20  52  1   
 48  20  53  1   
 49  21  22  ar  
 50  21  23  ar  
 51  22  24  ar  
 52  22  54  1   
 53  23  25  ar  
 54  23  55  1   
 55  24  26  ar  
 56  24  56  1   
 57  25  26  ar  
 58  25  57  1   
 59  26  27  1   
 60  27  58  1   
@<TRIPOS>SUBSTRUCTURE
  1 ****   1 GROUP 4 **** **** 0

# MOE 2024.06 (io_trps.svl 2023.06)
