@<TRIPOS>MOLECULE
NONAME
50 52 1 0 0 
SMALL
USER_CHARGES


@<TRIPOS>ATOM
  1 S        3.4040    -0.8320     0.0780 S.3   1 <1>  -0.0800 
  2 C        2.1040     0.3210    -0.1840 C.2   1 <1>  -0.1400 
  3 C        2.3440    -1.8930     0.9880 C.2   1 <1>  -0.1100 
  4 C        0.9700    -0.1150     0.3960 C.2   1 <1>  -0.1500 
  5 C        2.4010     1.5820    -0.9830 C.3   1 <1>   0.0810 
  6 C        1.1060    -1.3740     1.0630 C.2   1 <1>  -0.1500 
  7 C        3.2660     2.5810    -0.2220 C.2   1 <1>   0.5690 
  8 O        2.6820     3.3910     0.4610 O.2   1 <1>  -0.5700 
  9 N        4.6380     2.6030    -0.3270 N.am  1 <1>  -0.6600 
 10 C        5.4780     1.7110    -1.1940 C.3   1 <1>   0.1400 
 11 C        5.4360     3.5550     0.4950 C.3   1 <1>   0.1400 
 12 C        6.0280     2.4400    -2.4320 C.3   1 <1>   0.1400 
 13 C        5.5890     4.9080    -0.2120 C.3   1 <1>  -0.1600 
 14 N        6.7610     3.6940    -2.0680 N.am  1 <1>  -0.6600 
 15 C        5.8560     4.8290    -1.7210 C.3   1 <1>   0.1400 
 16 C        8.1320     3.7030    -2.0020 C.2   1 <1>   0.5690 
 17 O        8.7860     2.7310    -2.2960 O.2   1 <1>  -0.5700 
 18 C        8.9080     4.9150    -1.5170 C.3   1 <1>  -0.0990 
 19 C        9.3740     4.7150    -0.0660 C.3   1 <1>  -0.0990 
 20 C        9.9810     5.9820     0.5080 C.2   1 <1>   0.3280 
 21 N        9.3310     6.6960     1.3310 N.2   1 <1>  -0.5120 
 22 C       11.3800     6.3370    -0.0030 C.3   1 <1>  -0.0990 
 23 N        9.9180     7.8520     1.8320 N.am  1 <1>  -0.3680 
 24 C       12.1450     7.2580     0.9700 C.3   1 <1>  -0.0990 
 25 C       11.2190     8.2340     1.6680 C.2   1 <1>   0.5690 
 26 O       11.6350     9.2890     2.0760 O.2   1 <1>  -0.5700 
 27 H        2.7670    -2.8030     1.3750 H     1 <1>   0.1500 
 28 H        0.0250     0.4020     0.3900 H     1 <1>   0.1500 
 29 H        1.4680     2.0670    -1.2020 H     1 <1>   0.0800 
 30 H        2.8460     1.3290    -1.9250 H     1 <1>   0.0800 
 31 H        0.2680    -1.8250     1.5660 H     1 <1>   0.1500 
 32 H        4.9170     0.8570    -1.5220 H     1 <1>   0.0800 
 33 H        6.3050     1.3330    -0.6190 H     1 <1>   0.0800 
 34 H        6.4090     3.1350     0.6820 H     1 <1>   0.0800 
 35 H        4.9600     3.7000     1.4500 H     1 <1>   0.0800 
 36 H        5.2180     2.6770    -3.0980 H     1 <1>   0.0800 
 37 H        6.6850     1.7720    -2.9620 H     1 <1>   0.0800 
 38 H        6.3790     5.4600     0.2640 H     1 <1>   0.0800 
 39 H        4.6880     5.4740    -0.0590 H     1 <1>   0.0800 
 40 H        6.2560     5.7600    -2.0800 H     1 <1>   0.0800 
 41 H        4.9140     4.6860    -2.2230 H     1 <1>   0.0800 
 42 H        8.3230     5.8090    -1.5900 H     1 <1>   0.0800 
 43 H        9.7640     5.0390    -2.1560 H     1 <1>   0.0800 
 44 H       10.0850     3.9100    -0.0150 H     1 <1>   0.0800 
 45 H        8.5320     4.4350     0.5400 H     1 <1>   0.0800 
 46 H       11.2690     6.8390    -0.9470 H     1 <1>   0.0800 
 47 H       11.9560     5.4430    -0.1650 H     1 <1>   0.0800 
 48 H        9.3430     8.4890     2.3920 H     1 <1>   0.3700 
 49 H       12.9140     7.7990     0.4490 H     1 <1>   0.0800 
 50 H       12.6120     6.6620     1.7330 H     1 <1>   0.0800 
@<TRIPOS>BOND
  1   1   2  1   
  2   1   3  1   
  3   2   4  2   
  4   2   5  1   
  5   3   6  2   
  6   3  27  1   
  7   4   6  1   
  8   4  28  1   
  9   5   7  1   
 10   5  29  1   
 11   5  30  1   
 12   6  31  1   
 13   7   8  2   
 14   7   9  am  
 15   9  10  1   
 16   9  11  1   
 17  10  12  1   
 18  10  32  1   
 19  10  33  1   
 20  11  13  1   
 21  11  34  1   
 22  11  35  1   
 23  12  14  1   
 24  12  36  1   
 25  12  37  1   
 26  13  15  1   
 27  13  38  1   
 28  13  39  1   
 29  14  15  1   
 30  14  16  am  
 31  15  40  1   
 32  15  41  1   
 33  16  17  2   
 34  16  18  1   
 35  18  19  1   
 36  18  42  1   
 37  18  43  1   
 38  19  20  1   
 39  19  44  1   
 40  19  45  1   
 41  20  21  2   
 42  20  22  1   
 43  21  23  1   
 44  22  24  1   
 45  22  46  1   
 46  22  47  1   
 47  23  25  am  
 48  23  48  1   
 49  24  25  1   
 50  24  49  1   
 51  24  50  1   
 52  25  26  2   
@<TRIPOS>SUBSTRUCTURE
  1 ****  11 GROUP 4 **** **** 0

# MOE 2024.06 (io_trps.svl 2023.06)
