@<TRIPOS>MOLECULE
NONAME
60 63 1 0 0 
SMALL
USER_CHARGES


@<TRIPOS>ATOM
  1 O       -0.6330    -0.4810    -1.3000 O.co2 1 <1>  -0.9000 
  2 C       -1.2990    -0.4500    -0.2480 C.2   1 <1>   0.9790 
  3 O       -0.9900    -1.2190     0.6800 O.co2 1 <1>  -0.9000 
  4 C       -2.4460     0.4000    -0.1270 C.ar  1 <1>  -0.1790 
  5 C       -2.3850     1.7540     0.1840 C.ar  1 <1>   0.1000 
  6 C       -3.6980    -0.1960    -0.3350 C.ar  1 <1>   0.1600 
  7 N       -1.2050     2.4300     0.4440 N.pl3 1 <1>  -0.8380 
  8 C       -3.6190     2.4230     0.2390 C.ar  1 <1>   0.0000 
  9 N       -4.8640     0.4050    -0.2800 N.ar  1 <1>  -0.5670 
 10 C       -0.5160     2.1220     1.7290 C.3   1 <1>   0.2090 
 11 C       -0.2590     2.6030    -0.6870 C.3   1 <1>   0.2090 
 12 C       -4.7780     1.7190     0.0080 C.ar  1 <1>   0.1050 
 13 C       -4.0670     3.7360     0.4850 C.2   1 <1>   0.1080 
 14 C        0.7750     2.9490     1.8800 C.3   1 <1>  -0.1600 
 15 C        0.5690     3.8760    -0.4630 C.3   1 <1>  -0.1600 
 16 N       -5.7960     2.6140     0.1310 N.pl3 1 <1>   0.3140 
 17 N       -5.3520     3.8600     0.4260 N.2   1 <1>  -0.7070 
 18 C       -3.1500     4.8970     0.7870 C.3   1 <1>  -0.0590 
 19 C        0.7280     4.2370     1.0340 C.3   1 <1>  -0.0190 
 20 C       -7.2210     2.3100    -0.0300 C.3   1 <1>   0.0160 
 21 C        1.9360     5.1500     1.2790 C.2   1 <1>   0.5690 
 22 O        3.0310     4.6860     1.0490 O.2   1 <1>  -0.5700 
 23 N        1.8000     6.4440     1.7330 N.am  1 <1>  -0.6600 
 24 C        3.0090     7.3090     1.8840 C.3   1 <1>   0.2840 
 25 C        0.5200     7.0890     2.1380 C.3   1 <1>   0.1400 
 26 C        3.0400     8.3720     0.7960 C.ar  1 <1>  -0.1430 
 27 C       -0.2340     7.6130     0.9160 C.3   1 <1>  -0.2400 
 28 C        3.2280     7.9970    -0.5260 C.ar  1 <1>  -0.1500 
 29 C        2.8820     9.7150     1.1060 C.ar  1 <1>  -0.1500 
 30 C        3.2540     8.9510    -1.5280 C.ar  1 <1>  -0.1500 
 31 C        2.9080    10.6700     0.1040 C.ar  1 <1>  -0.1500 
 32 C        3.0930    10.2880    -1.2130 C.ar  1 <1>  -0.1500 
 33 H       -3.6930    -1.2500    -0.5590 H     1 <1>   0.1500 
 34 H       -0.2860     1.0700     1.7810 H     1 <1>   0.0800 
 35 H       -1.1920     2.3540     2.5340 H     1 <1>   0.0800 
 36 H       -0.7950     2.6490    -1.6200 H     1 <1>   0.0800 
 37 H        0.3970     1.7480    -0.7250 H     1 <1>   0.0800 
 38 H        1.6090     2.3470     1.5620 H     1 <1>   0.0800 
 39 H        0.9260     3.1840     2.9180 H     1 <1>   0.0800 
 40 H        0.1030     4.6950    -0.9790 H     1 <1>   0.0800 
 41 H        1.5340     3.7200    -0.9110 H     1 <1>   0.0800 
 42 H       -2.4370     5.0030    -0.0080 H     1 <1>   0.0800 
 43 H       -2.6280     4.7080     1.7060 H     1 <1>   0.0800 
 44 H       -3.7180     5.8040     0.8790 H     1 <1>   0.0800 
 45 H       -0.1690     4.7430     1.3230 H     1 <1>   0.0800 
 46 H       -7.3840     1.9280    -1.0200 H     1 <1>   0.0800 
 47 H       -7.7930     3.2060     0.1170 H     1 <1>   0.0800 
 48 H       -7.5020     1.5700     0.6950 H     1 <1>   0.0800 
 49 H        3.9110     6.7240     1.8210 H     1 <1>   0.0800 
 50 H        2.9990     7.7700     2.8550 H     1 <1>   0.0800 
 51 H        0.7230     7.9090     2.8060 H     1 <1>   0.0800 
 52 H       -0.0900     6.3850     2.6780 H     1 <1>   0.0800 
 53 H        0.3360     8.3770     0.4190 H     1 <1>   0.0800 
 54 H       -1.1700     8.0420     1.2250 H     1 <1>   0.0800 
 55 H       -0.4380     6.8230     0.2190 H     1 <1>   0.0800 
 56 H        3.3510     6.9550    -0.7720 H     1 <1>   0.1500 
 57 H        2.7370    10.0240     2.1260 H     1 <1>   0.1500 
 58 H        3.3990     8.6500    -2.5510 H     1 <1>   0.1500 
 59 H        2.7850    11.7100     0.3490 H     1 <1>   0.1500 
 60 H        3.1140    11.0310    -1.9920 H     1 <1>   0.1500 
@<TRIPOS>BOND
  1   1   2  ar  
  2   2   3  ar  
  3   2   4  1   
  4   4   5  ar  
  5   4   6  ar  
  6   5   7  1   
  7   5   8  ar  
  8   6   9  ar  
  9   6  33  1   
 10   7  10  1   
 11   7  11  1   
 12   8  12  ar  
 13   8  13  1   
 14   9  12  ar  
 15  10  14  1   
 16  10  34  1   
 17  10  35  1   
 18  11  15  1   
 19  11  36  1   
 20  11  37  1   
 21  12  16  1   
 22  13  17  2   
 23  13  18  1   
 24  14  19  1   
 25  14  38  1   
 26  14  39  1   
 27  15  19  1   
 28  15  40  1   
 29  15  41  1   
 30  16  17  1   
 31  16  20  1   
 32  18  42  1   
 33  18  43  1   
 34  18  44  1   
 35  19  21  1   
 36  19  45  1   
 37  20  46  1   
 38  20  47  1   
 39  20  48  1   
 40  21  22  2   
 41  21  23  am  
 42  23  24  1   
 43  23  25  1   
 44  24  26  1   
 45  24  49  1   
 46  24  50  1   
 47  25  27  1   
 48  25  51  1   
 49  25  52  1   
 50  26  28  ar  
 51  26  29  ar  
 52  27  53  1   
 53  27  54  1   
 54  27  55  1   
 55  28  30  ar  
 56  28  56  1   
 57  29  31  ar  
 58  29  57  1   
 59  30  32  ar  
 60  30  58  1   
 61  31  32  ar  
 62  31  59  1   
 63  32  60  1   
@<TRIPOS>SUBSTRUCTURE
  1 ****  15 GROUP 4 **** **** 0

# MOE 2024.06 (io_trps.svl 2023.06)
