@<TRIPOS>MOLECULE
NONAME
48 50 1 0 0 
SMALL
USER_CHARGES


@<TRIPOS>ATOM
  1 F       -0.3780     0.0660     0.6100 F     1 <1>  -0.1900 
  2 C       -1.6480     0.3760     0.5560 C.ar  1 <1>   0.1900 
  3 C       -2.1080     1.5050    -0.1310 C.ar  1 <1>   0.0830 
  4 C       -2.5150    -0.4710     1.2200 C.ar  1 <1>  -0.1500 
  5 O       -1.3570     2.4120    -0.8190 O.3   1 <1>  -0.3630 
  6 C       -3.4720     1.7470    -0.1260 C.ar  1 <1>  -0.1500 
  7 C       -3.8710    -0.1980     1.2050 C.ar  1 <1>  -0.1500 
  8 C        0.0420     2.3000    -0.9620 C.3   1 <1>   0.0400 
  9 C       -4.3790     0.9110     0.5280 C.ar  1 <1>   0.0530 
 10 C       -5.7880     1.2110     0.5080 C.2   1 <1>   0.0870 
 11 O       -6.1820     2.4320     0.7710 O.3   1 <1>  -0.0190 
 12 C       -6.9070     0.4800     0.2480 C.2   1 <1>  -0.0860 
 13 N       -7.4780     2.5730     0.7200 N.2   1 <1>  -0.4100 
 14 C       -7.9400     1.4130     0.4120 C.2   1 <1>   0.3720 
 15 C       -7.0730    -0.8910    -0.1370 C.2   1 <1>   0.7160 
 16 N       -9.3140     1.1460     0.2840 N.pl3 1 <1>  -0.8210 
 17 O       -6.2010    -1.7200     0.0360 O.2   1 <1>  -0.5700 
 18 N       -8.2450    -1.2980    -0.6890 N.am  1 <1>  -0.7300 
 19 C      -10.0980     2.2330    -0.3690 C.3   1 <1>   0.1290 
 20 C       -9.9480     0.7020     1.5590 C.3   1 <1>   0.1290 
 21 C       -8.6910    -2.6810    -0.9090 C.3   1 <1>   0.2350 
 22 C       -9.9460    -2.9140    -0.0590 C.3   1 <1>  -0.1900 
 23 C      -11.2290    -2.3010    -0.5390 C.3   1 <1>  -0.2000 
 24 C      -11.0290    -3.7930    -0.6090 C.3   1 <1>  -0.2000 
 25 C       -9.5880    -2.9830     1.4410 C.3   1 <1>   0.2150 
 26 O      -10.7320    -2.9360     2.2170 O.3   1 <1>  -0.6800 
 27 H       -2.1340    -1.3310     1.7390 H     1 <1>   0.1500 
 28 H       -3.8410     2.6120    -0.6480 H     1 <1>   0.1500 
 29 H       -4.5460    -0.8550     1.7250 H     1 <1>   0.1500 
 30 H        0.3830     3.1250    -1.5620 H     1 <1>   0.0800 
 31 H        0.2710     1.3720    -1.4550 H     1 <1>   0.0800 
 32 H        0.4990     2.3450     0.0110 H     1 <1>   0.0800 
 33 H       -8.9960    -0.5920    -0.6570 H     1 <1>   0.3700 
 34 H       -9.5990     2.5520    -1.2680 H     1 <1>   0.0800 
 35 H      -10.1880     3.0770     0.2940 H     1 <1>   0.0800 
 36 H      -11.0800     1.8750    -0.6250 H     1 <1>   0.0800 
 37 H       -9.2670     0.0870     2.1210 H     1 <1>   0.0800 
 38 H      -10.8340     0.1270     1.3480 H     1 <1>   0.0800 
 39 H      -10.2140     1.5550     2.1600 H     1 <1>   0.0800 
 40 H       -7.9150    -3.3800    -0.6430 H     1 <1>   0.0800 
 41 H       -8.9170    -2.8090    -1.9540 H     1 <1>   0.0800 
 42 H      -11.2280    -1.7400    -1.4590 H     1 <1>   0.1000 
 43 H      -11.9340    -1.9040     0.1710 H     1 <1>   0.1000 
 44 H      -11.6060    -4.4170     0.0510 H     1 <1>   0.1000 
 45 H      -10.9010    -4.2440    -1.5780 H     1 <1>   0.1000 
 46 H       -8.9670    -2.1550     1.7340 H     1 <1>   0.0800 
 47 H       -9.0670    -3.8990     1.6620 H     1 <1>   0.0800 
 48 H      -11.3980    -3.5350     1.8300 H     1 <1>   0.4000 
@<TRIPOS>BOND
  1   1   2  1   
  2   2   3  ar  
  3   2   4  ar  
  4   3   5  1   
  5   3   6  ar  
  6   4   7  ar  
  7   4  27  1   
  8   5   8  1   
  9   6   9  ar  
 10   6  28  1   
 11   7   9  ar  
 12   7  29  1   
 13   8  30  1   
 14   8  31  1   
 15   8  32  1   
 16   9  10  1   
 17  10  11  1   
 18  10  12  2   
 19  11  13  1   
 20  12  14  1   
 21  12  15  1   
 22  13  14  2   
 23  14  16  1   
 24  15  17  2   
 25  15  18  am  
 26  16  19  1   
 27  16  20  1   
 28  18  21  1   
 29  18  33  1   
 30  19  34  1   
 31  19  35  1   
 32  19  36  1   
 33  20  37  1   
 34  20  38  1   
 35  20  39  1   
 36  21  22  1   
 37  21  40  1   
 38  21  41  1   
 39  22  23  1   
 40  22  24  1   
 41  22  25  1   
 42  23  24  1   
 43  23  42  1   
 44  23  43  1   
 45  24  44  1   
 46  24  45  1   
 47  25  26  1   
 48  25  46  1   
 49  25  47  1   
 50  26  48  1   
@<TRIPOS>SUBSTRUCTURE
  1 ****  12 GROUP 4 **** **** 0

# MOE 2024.06 (io_trps.svl 2023.06)
