@<TRIPOS>MOLECULE
NONAME
62 65 1 0 0 
SMALL
USER_CHARGES


@<TRIPOS>ATOM
  1 O        0.8840    -0.4640    -1.0430 O.2   1 <1>  -0.5700 
  2 C        1.0650    -1.5240    -0.4980 C.2   1 <1>   0.5690 
  3 N        1.8320    -1.6000     0.6380 N.am  1 <1>  -0.6600 
  4 C        0.4240    -2.7310    -1.1660 C.3   1 <1>  -0.0990 
  5 C        2.1760    -2.8580     1.3630 C.3   1 <1>   0.1400 
  6 C        2.3480    -0.3430     1.3040 C.3   1 <1>   0.2010 
  7 C        0.3070    -4.0140    -0.3390 C.3   1 <1>   0.1200 
  8 C        2.6190    -4.0430     0.4510 C.3   1 <1>   0.2800 
  9 C        3.8720    -0.1700     1.1930 C.2   1 <1>   0.5690 
 10 O        1.5400    -4.6650    -0.1820 O.3   1 <1>  -0.5600 
 11 C        3.6200    -3.6780    -0.6540 C.3   1 <1>  -0.1600 
 12 C        3.2840    -5.1330     1.2990 C.3   1 <1>  -0.1600 
 13 O        4.5630    -0.7340     2.0190 O.2   1 <1>  -0.5700 
 14 N        4.4450     0.5340     0.1600 N.am  1 <1>  -0.6600 
 15 C        4.9080    -3.1250    -0.0720 C.3   1 <1>   0.3430 
 16 C        4.5850    -4.6380     1.9340 C.3   1 <1>   0.3430 
 17 C        5.8940     0.8870     0.1390 C.3   1 <1>   0.0600 
 18 C        3.6660     1.0730    -0.9940 C.3   1 <1>   0.0600 
 19 N        5.5230    -4.0560     0.9260 N.4   1 <1>  -0.9590 
 20 C        6.6500    -3.3570     1.6360 C.3   1 <1>   0.3430 
 21 C        7.7800    -2.9290     0.6850 C.3   1 <1>   0.2000 
 22 O        8.0080    -3.9800    -0.2420 O.3   1 <1>  -0.3630 
 23 C        9.0790    -2.5930     1.4340 C.3   1 <1>   0.1200 
 24 C        9.1590    -3.9220    -0.9600 C.ar  1 <1>   0.0820 
 25 O       10.0900    -2.2660     0.5040 O.3   1 <1>  -0.3620 
 26 C       10.1920    -3.0550    -0.5960 C.ar  1 <1>   0.0820 
 27 C        9.3000    -4.7350    -2.0720 C.ar  1 <1>  -0.1500 
 28 C       11.3450    -2.9930    -1.3580 C.ar  1 <1>  -0.1500 
 29 C       10.4590    -4.6750    -2.8280 C.ar  1 <1>  -0.1500 
 30 C       11.4780    -3.8040    -2.4740 C.ar  1 <1>  -0.1500 
 31 H        0.9390    -2.9430    -2.0840 H     1 <1>   0.0800 
 32 H       -0.5730    -2.4350    -1.4360 H     1 <1>   0.0800 
 33 H        1.3460    -3.1560     1.9800 H     1 <1>   0.0800 
 34 H        2.9720    -2.6300     2.0430 H     1 <1>   0.0800 
 35 H        2.0920    -0.3770     2.3470 H     1 <1>   0.0800 
 36 H        1.8580     0.5250     0.9030 H     1 <1>   0.0800 
 37 H       -0.3330    -4.7040    -0.8610 H     1 <1>   0.0800 
 38 H       -0.1360    -3.8300     0.6240 H     1 <1>   0.0800 
 39 H        3.2120    -2.9360    -1.3130 H     1 <1>   0.0800 
 40 H        3.8460    -4.5450    -1.2480 H     1 <1>   0.0800 
 41 H        3.4950    -5.9940     0.6900 H     1 <1>   0.0800 
 42 H        2.6100    -5.4420     2.0780 H     1 <1>   0.0800 
 43 H        4.6950    -2.1870     0.3970 H     1 <1>   0.0800 
 44 H        5.6040    -2.9380    -0.8740 H     1 <1>   0.0800 
 45 H        5.0640    -5.4590     2.4450 H     1 <1>   0.0800 
 46 H        4.3520    -3.8890     2.6720 H     1 <1>   0.0800 
 47 H        6.3880     0.5440     1.0310 H     1 <1>   0.0800 
 48 H        6.0040     1.9570     0.0840 H     1 <1>   0.0800 
 49 H        6.3670     0.4430    -0.7190 H     1 <1>   0.0800 
 50 H        3.2700     0.2620    -1.5800 H     1 <1>   0.0800 
 51 H        4.2930     1.6760    -1.6280 H     1 <1>   0.0800 
 52 H        2.8520     1.6860    -0.6470 H     1 <1>   0.0800 
 53 H        5.9490    -4.8260     0.3820 H     1 <1>   0.4500 
 54 H        7.0690    -4.0200     2.3750 H     1 <1>   0.0800 
 55 H        6.2750    -2.4880     2.1530 H     1 <1>   0.0800 
 56 H        7.4730    -2.0610     0.1280 H     1 <1>   0.0800 
 57 H        9.4200    -3.4330     2.0130 H     1 <1>   0.0800 
 58 H        8.9470    -1.7450     2.0830 H     1 <1>   0.0800 
 59 H        8.5100    -5.4090    -2.3490 H     1 <1>   0.1500 
 60 H       12.1330    -2.3180    -1.0760 H     1 <1>   0.1500 
 61 H       10.5710    -5.3050    -3.6950 H     1 <1>   0.1500 
 62 H       12.3770    -3.7590    -3.0660 H     1 <1>   0.1500 
@<TRIPOS>BOND
  1   1   2  2   
  2   2   3  am  
  3   2   4  1   
  4   3   5  1   
  5   3   6  1   
  6   4   7  1   
  7   4  31  1   
  8   4  32  1   
  9   5   8  1   
 10   5  33  1   
 11   5  34  1   
 12   6   9  1   
 13   6  35  1   
 14   6  36  1   
 15   7  10  1   
 16   7  37  1   
 17   7  38  1   
 18   8  10  1   
 19   8  11  1   
 20   8  12  1   
 21   9  13  2   
 22   9  14  am  
 23  11  15  1   
 24  11  39  1   
 25  11  40  1   
 26  12  16  1   
 27  12  41  1   
 28  12  42  1   
 29  14  17  1   
 30  14  18  1   
 31  15  19  1   
 32  15  43  1   
 33  15  44  1   
 34  16  19  1   
 35  16  45  1   
 36  16  46  1   
 37  17  47  1   
 38  17  48  1   
 39  17  49  1   
 40  18  50  1   
 41  18  51  1   
 42  18  52  1   
 43  19  20  1   
 44  19  53  1   
 45  20  21  1   
 46  20  54  1   
 47  20  55  1   
 48  21  22  1   
 49  21  23  1   
 50  21  56  1   
 51  22  24  1   
 52  23  25  1   
 53  23  57  1   
 54  23  58  1   
 55  24  26  ar  
 56  24  27  ar  
 57  25  26  1   
 58  26  28  ar  
 59  27  29  ar  
 60  27  59  1   
 61  28  30  ar  
 62  28  60  1   
 63  29  30  ar  
 64  29  61  1   
 65  30  62  1   
@<TRIPOS>SUBSTRUCTURE
  1 ****  15 GROUP 4 **** **** 0

# MOE 2024.06 (io_trps.svl 2023.06)
