@<TRIPOS>MOLECULE
NONAME
41 42 1 0 0 
SMALL
USER_CHARGES


@<TRIPOS>ATOM
  1 O        0.5380     0.0500     0.0490 O.2   1 <1>  -0.5700 
  2 C        1.4310    -0.7620     0.1620 C.2   1 <1>   0.5690 
  3 N        1.1280    -2.0020     0.6180 N.am  1 <1>  -0.7300 
  4 C        2.8790    -0.3740    -0.2170 C.3   1 <1>   0.3500 
  5 C        2.0390    -3.1500     0.7920 C.3   1 <1>   0.1400 
  6 N        2.9720     1.0640    -0.6050 N.pl3 1 <1>  -0.8690 
  7 C        3.4140    -1.2090    -1.3890 C.3   1 <1>  -0.1600 
  8 C        2.6700    -3.5490    -0.5460 C.3   1 <1>  -0.1600 
  9 C        3.9380     1.9080    -0.1240 C.ar  1 <1>   0.4100 
 10 C        3.8250    -2.6390    -1.0000 C.3   1 <1>  -0.1600 
 11 N        5.0870     1.3660     0.2230 N.ar  1 <1>  -0.6200 
 12 C        3.7120     3.2750    -0.0150 C.ar  1 <1>  -0.1430 
 13 C        6.0030     2.1960     0.6730 C.ar  1 <1>   0.4770 
 14 C        4.7530     4.0260     0.4740 C.ar  1 <1>   0.1600 
 15 C        2.3590     3.8650    -0.4280 C.3   1 <1>  -0.0170 
 16 N        5.9100     3.5020     0.8250 N.ar  1 <1>  -0.6200 
 17 C        7.3250     1.5840     1.0680 C.3   1 <1>  -0.0970 
 18 C        2.2310     5.3880    -0.2750 C.3   1 <1>  -0.1600 
 19 C        0.8470     5.8760    -0.7170 C.3   1 <1>  -0.2400 
 20 H        0.1400    -2.1650     0.8270 H     1 <1>   0.3700 
 21 H        3.4970    -0.5410     0.6480 H     1 <1>   0.0800 
 22 H        1.4700    -3.9800     1.1770 H     1 <1>   0.0800 
 23 H        2.8020    -2.9060     1.5120 H     1 <1>   0.0800 
 24 H        2.0250     1.4500    -0.6790 H     1 <1>   0.4000 
 25 H        4.2890    -0.7160    -1.7760 H     1 <1>   0.0800 
 26 H        2.6780    -1.2370    -2.1720 H     1 <1>   0.0800 
 27 H        1.9110    -3.6000    -1.3080 H     1 <1>   0.0800 
 28 H        3.0690    -4.5410    -0.4310 H     1 <1>   0.0800 
 29 H        4.5760    -2.5960    -0.2280 H     1 <1>   0.0800 
 30 H        4.2870    -3.0930    -1.8600 H     1 <1>   0.0800 
 31 H        4.6600     5.0910     0.5910 H     1 <1>   0.1500 
 32 H        1.5910     3.3950     0.1640 H     1 <1>   0.0800 
 33 H        2.1800     3.6070    -1.4580 H     1 <1>   0.0800 
 34 H        7.3680     0.5530     0.7690 H     1 <1>   0.0800 
 35 H        7.4410     1.6490     2.1330 H     1 <1>   0.0800 
 36 H        8.1250     2.1200     0.5920 H     1 <1>   0.0800 
 37 H        2.9800     5.8750    -0.8760 H     1 <1>   0.0800 
 38 H        2.3840     5.6620     0.7550 H     1 <1>   0.0800 
 39 H        0.6730     5.6340    -1.7510 H     1 <1>   0.0800 
 40 H        0.7790     6.9440    -0.6000 H     1 <1>   0.0800 
 41 H        0.0770     5.4190    -0.1200 H     1 <1>   0.0800 
@<TRIPOS>BOND
  1   1   2  2   
  2   2   3  am  
  3   2   4  1   
  4   3   5  1   
  5   3  20  1   
  6   4   6  1   
  7   4   7  1   
  8   4  21  1   
  9   5   8  1   
 10   5  22  1   
 11   5  23  1   
 12   6   9  1   
 13   6  24  1   
 14   7  10  1   
 15   7  25  1   
 16   7  26  1   
 17   8  10  1   
 18   8  27  1   
 19   8  28  1   
 20   9  11  ar  
 21   9  12  ar  
 22  10  29  1   
 23  10  30  1   
 24  11  13  ar  
 25  12  14  ar  
 26  12  15  1   
 27  13  16  ar  
 28  13  17  1   
 29  14  16  ar  
 30  14  31  1   
 31  15  18  1   
 32  15  32  1   
 33  15  33  1   
 34  17  34  1   
 35  17  35  1   
 36  17  36  1   
 37  18  19  1   
 38  18  37  1   
 39  18  38  1   
 40  19  39  1   
 41  19  40  1   
 42  19  41  1   
@<TRIPOS>SUBSTRUCTURE
  1 ****   6 GROUP 4 **** **** 0

# MOE 2024.06 (io_trps.svl 2023.06)
