@<TRIPOS>MOLECULE
NONAME
60 64 1 0 0 
SMALL
USER_CHARGES


@<TRIPOS>ATOM
  1 O       -3.6710     0.9560    -2.2440 O.2   1 <1>  -0.5700 
  2 C       -2.9970     1.0390    -1.2350 C.2   1 <1>   0.5440 
  3 N       -2.7660    -0.1180    -0.5200 N.am  1 <1>  -0.6600 
  4 C       -2.5000     2.3310    -0.7950 C.ar  1 <1>   0.0860 
  5 C       -2.9500    -0.1730     0.9470 C.3   1 <1>   0.1400 
  6 C       -2.8000    -1.4340    -1.2000 C.3   1 <1>   0.1400 
  7 C       -3.1960     3.5080    -1.0300 C.ar  1 <1>  -0.1500 
  8 C       -1.2980     2.4910    -0.1190 C.ar  1 <1>  -0.1500 
  9 C       -4.3330    -0.7700     1.2230 C.3   1 <1>  -0.1600 
 10 C       -4.1770    -2.0580    -0.9730 C.3   1 <1>  -0.1600 
 11 C       -2.6990     4.7170    -0.5840 C.ar  1 <1>   0.1600 
 12 C       -0.8850     3.7460     0.2860 C.ar  1 <1>   0.1600 
 13 C       -4.5130    -2.1220     0.5220 C.3   1 <1>   0.4230 
 14 N       -1.5620     4.8620     0.0760 N.ar  1 <1>  -0.6200 
 15 N       -5.9220    -2.5310     0.6900 N.4   1 <1>  -0.9060 
 16 C       -6.2430    -3.9390     0.3290 C.3   1 <1>   0.4230 
 17 C       -7.7550    -4.1200     0.4280 C.3   1 <1>  -0.0800 
 18 C       -5.7770    -4.8470     1.4610 C.3   1 <1>   0.1200 
 19 C       -7.9650    -4.4580     1.9170 C.3   1 <1>   0.1200 
 20 C       -8.2630    -5.2460    -0.4970 C.3   1 <1>  -0.0170 
 21 O       -6.6850    -4.5600     2.4700 O.3   1 <1>  -0.5600 
 22 C       -9.7800    -5.3740    -0.4130 C.ar  1 <1>  -0.1440 
 23 C      -10.6560    -4.4580    -1.0450 C.ar  1 <1>   0.0000 
 24 C      -10.3420    -6.3930     0.3000 C.ar  1 <1>  -0.1500 
 25 C      -12.0480    -4.6390    -0.8490 C.ar  1 <1>   0.3100 
 26 C      -10.2400    -3.3810    -1.8630 C.ar  1 <1>  -0.1500 
 27 C      -11.7340    -6.4920     0.4150 C.ar  1 <1>   0.1600 
 28 N      -12.5660    -5.6570    -0.1190 N.ar  1 <1>  -0.6200 
 29 C      -12.9410    -3.7300    -1.4360 C.ar  1 <1>  -0.1500 
 30 C      -11.1380    -2.5160    -2.4260 C.ar  1 <1>  -0.1500 
 31 C      -12.5060    -2.6870    -2.2070 C.ar  1 <1>  -0.1500 
 32 H       -2.1740    -0.7790     1.3840 H     1 <1>   0.0800 
 33 H       -2.8890     0.8140     1.3760 H     1 <1>   0.0800 
 34 H       -2.6200    -1.3090    -2.2560 H     1 <1>   0.0800 
 35 H       -2.0210    -2.0620    -0.8020 H     1 <1>   0.0800 
 36 H       -4.1270     3.4770    -1.5670 H     1 <1>   0.1500 
 37 H       -0.6790     1.6370     0.0850 H     1 <1>   0.1500 
 38 H       -5.0700    -0.0670     0.8740 H     1 <1>   0.0800 
 39 H       -4.4480    -0.8880     2.2850 H     1 <1>   0.0800 
 40 H       -4.1720    -3.0420    -1.4050 H     1 <1>   0.0800 
 41 H       -4.9000    -1.4570    -1.4980 H     1 <1>   0.0800 
 42 H       -3.2630     5.6130    -0.7810 H     1 <1>   0.1500 
 43 H        0.0520     3.8420     0.8090 H     1 <1>   0.1500 
 44 H       -3.8600    -2.8380     0.9960 H     1 <1>   0.0800 
 45 H       -6.5190    -1.8800     0.1710 H     1 <1>   0.4500 
 46 H       -6.1760    -2.4520     1.6870 H     1 <1>   0.4500 
 47 H       -5.8470    -4.2120    -0.6360 H     1 <1>   0.0800 
 48 H       -8.2790    -3.2140     0.1790 H     1 <1>   0.0800 
 49 H       -4.7780    -4.6450     1.8030 H     1 <1>   0.0800 
 50 H       -5.8720    -5.8890     1.2040 H     1 <1>   0.0800 
 51 H       -8.4700    -5.3980     2.0630 H     1 <1>   0.0800 
 52 H       -8.5020    -3.6830     2.4390 H     1 <1>   0.0800 
 53 H       -7.8120    -6.1850    -0.2200 H     1 <1>   0.0800 
 54 H       -7.9810    -5.0570    -1.5190 H     1 <1>   0.0800 
 55 H       -9.7490    -7.1410     0.7950 H     1 <1>   0.1500 
 56 H       -9.1970    -3.2340    -2.0620 H     1 <1>   0.1500 
 57 H      -12.1370    -7.3100     0.9870 H     1 <1>   0.1500 
 58 H      -13.9900    -3.8850    -1.2600 H     1 <1>   0.1500 
 59 H      -10.8110    -1.6980    -3.0460 H     1 <1>   0.1500 
 60 H      -13.2050    -1.9990    -2.6510 H     1 <1>   0.1500 
@<TRIPOS>BOND
  1   1   2  2   
  2   2   3  am  
  3   2   4  1   
  4   3   5  1   
  5   3   6  1   
  6   4   7  ar  
  7   4   8  ar  
  8   5   9  1   
  9   5  32  1   
 10   5  33  1   
 11   6  10  1   
 12   6  34  1   
 13   6  35  1   
 14   7  11  ar  
 15   7  36  1   
 16   8  12  ar  
 17   8  37  1   
 18   9  13  1   
 19   9  38  1   
 20   9  39  1   
 21  10  13  1   
 22  10  40  1   
 23  10  41  1   
 24  11  14  ar  
 25  11  42  1   
 26  12  14  ar  
 27  12  43  1   
 28  13  15  1   
 29  13  44  1   
 30  15  16  1   
 31  15  45  1   
 32  15  46  1   
 33  16  17  1   
 34  16  18  1   
 35  16  47  1   
 36  17  19  1   
 37  17  20  1   
 38  17  48  1   
 39  18  21  1   
 40  18  49  1   
 41  18  50  1   
 42  19  21  1   
 43  19  51  1   
 44  19  52  1   
 45  20  22  1   
 46  20  53  1   
 47  20  54  1   
 48  22  23  ar  
 49  22  24  ar  
 50  23  25  ar  
 51  23  26  ar  
 52  24  27  ar  
 53  24  55  1   
 54  25  28  ar  
 55  25  29  ar  
 56  26  30  ar  
 57  26  56  1   
 58  27  28  ar  
 59  27  57  1   
 60  29  31  ar  
 61  29  58  1   
 62  30  31  ar  
 63  30  59  1   
 64  31  60  1   
@<TRIPOS>SUBSTRUCTURE
  1 ****  15 GROUP 4 **** **** 0

# MOE 2024.06 (io_trps.svl 2023.06)
