@<TRIPOS>MOLECULE
NONAME
50 53 1 0 0 
SMALL
USER_CHARGES


@<TRIPOS>ATOM
  1 O       -1.0430    -0.7210    -0.5200 O.2   1 <1>  -0.5700 
  2 C       -2.0800    -0.4710     0.0440 C.2   1 <1>   0.5690 
  3 N       -3.0730    -1.3550     0.3610 N.am  1 <1>  -0.4770 
  4 C       -2.4240     0.9260     0.4830 C.3   1 <1>  -0.0990 
  5 C       -3.1500    -2.7130     0.0140 C.ar  1 <1>   0.1170 
  6 C       -4.2000    -0.6640     1.0210 C.3   1 <1>   0.1400 
  7 C       -3.6760     0.7400     1.3470 C.3   1 <1>  -0.1600 
  8 C       -3.6550    -3.6600     0.9010 C.ar  1 <1>  -0.1500 
  9 C       -2.7330    -3.1600    -1.2350 C.ar  1 <1>  -0.1500 
 10 C       -3.7420    -4.9940     0.5510 C.ar  1 <1>  -0.1500 
 11 C       -2.8200    -4.4940    -1.5830 C.ar  1 <1>  -0.1500 
 12 C       -3.3230    -5.4520    -0.7020 C.ar  1 <1>   0.0860 
 13 C       -3.3990    -6.8510    -1.0820 C.2   1 <1>   0.5440 
 14 O       -3.4540    -7.1820    -2.2510 O.2   1 <1>  -0.5700 
 15 N       -3.4140    -7.8380    -0.1390 N.am  1 <1>  -0.7300 
 16 C       -3.4260    -9.2940    -0.4200 C.3   1 <1>   0.2200 
 17 C       -4.8010    -9.8950    -0.1650 C.3   1 <1>  -0.0800 
 18 C       -2.6100   -10.0040     0.6510 C.3   1 <1>   0.1200 
 19 C       -4.7870   -10.1640     1.3450 C.3   1 <1>   0.1200 
 20 C       -6.0000    -9.0610    -0.6520 C.3   1 <1>  -0.0170 
 21 O       -3.4540   -10.0730     1.7600 O.3   1 <1>  -0.5600 
 22 C       -7.3060    -9.8100    -0.4330 C.ar  1 <1>  -0.1430 
 23 C       -8.1200    -9.5660     0.6550 C.ar  1 <1>  -0.1500 
 24 C       -7.7420   -10.7770    -1.3160 C.ar  1 <1>  -0.1500 
 25 C       -9.2940   -10.2850     0.8050 C.ar  1 <1>   0.1600 
 26 C       -8.9340   -11.4390    -1.0730 C.ar  1 <1>   0.1600 
 27 N       -9.7200   -11.2180    -0.0310 N.ar  1 <1>  -0.6200 
 28 H       -1.6120     1.3600     1.0370 H     1 <1>   0.0800 
 29 H       -2.6350     1.5210    -0.3870 H     1 <1>   0.0800 
 30 H       -5.0290    -0.6130     0.3350 H     1 <1>   0.0800 
 31 H       -4.5010    -1.1780     1.9170 H     1 <1>   0.0800 
 32 H       -4.4190     1.4940     1.1540 H     1 <1>   0.0800 
 33 H       -3.4070     0.7790     2.3880 H     1 <1>   0.0800 
 34 H       -3.9740    -3.3510     1.8790 H     1 <1>   0.1500 
 35 H       -2.3330    -2.4530    -1.9410 H     1 <1>   0.1500 
 36 H       -4.1450    -5.6910     1.2630 H     1 <1>   0.1500 
 37 H       -2.4900    -4.8080    -2.5590 H     1 <1>   0.1500 
 38 H       -3.3180    -7.6120     0.8530 H     1 <1>   0.3700 
 39 H       -3.0600    -9.4950    -1.4130 H     1 <1>   0.0800 
 40 H       -4.8360   -10.8500    -0.6600 H     1 <1>   0.0800 
 41 H       -1.7080    -9.4770     0.9090 H     1 <1>   0.0800 
 42 H       -2.3760   -11.0100     0.3490 H     1 <1>   0.0800 
 43 H       -5.1620   -11.1460     1.5780 H     1 <1>   0.0800 
 44 H       -5.3470    -9.4220     1.8870 H     1 <1>   0.0800 
 45 H       -5.8830    -8.8470    -1.7000 H     1 <1>   0.0800 
 46 H       -6.0390    -8.1190    -0.1350 H     1 <1>   0.0800 
 47 H       -7.8550    -8.8250     1.3860 H     1 <1>   0.1500 
 48 H       -7.1670   -11.0200    -2.1900 H     1 <1>   0.1500 
 49 H       -9.9170   -10.0830     1.6600 H     1 <1>   0.1500 
 50 H       -9.2580   -12.1900    -1.7730 H     1 <1>   0.1500 
@<TRIPOS>BOND
  1   1   2  2   
  2   2   3  am  
  3   2   4  1   
  4   3   5  1   
  5   3   6  1   
  6   4   7  1   
  7   4  28  1   
  8   4  29  1   
  9   5   8  ar  
 10   5   9  ar  
 11   6   7  1   
 12   6  30  1   
 13   6  31  1   
 14   7  32  1   
 15   7  33  1   
 16   8  10  ar  
 17   8  34  1   
 18   9  11  ar  
 19   9  35  1   
 20  10  12  ar  
 21  10  36  1   
 22  11  12  ar  
 23  11  37  1   
 24  12  13  1   
 25  13  14  2   
 26  13  15  am  
 27  15  16  1   
 28  15  38  1   
 29  16  17  1   
 30  16  18  1   
 31  16  39  1   
 32  17  19  1   
 33  17  20  1   
 34  17  40  1   
 35  18  21  1   
 36  18  41  1   
 37  18  42  1   
 38  19  21  1   
 39  19  43  1   
 40  19  44  1   
 41  20  22  1   
 42  20  45  1   
 43  20  46  1   
 44  22  23  ar  
 45  22  24  ar  
 46  23  25  ar  
 47  23  47  1   
 48  24  26  ar  
 49  24  48  1   
 50  25  27  ar  
 51  25  49  1   
 52  26  27  ar  
 53  26  50  1   
@<TRIPOS>SUBSTRUCTURE
  1 ****  12 GROUP 4 **** **** 0

# MOE 2024.06 (io_trps.svl 2023.06)
