@<TRIPOS>MOLECULE
NONAME
34 35 1 0 0 
SMALL
USER_CHARGES


@<TRIPOS>ATOM
  1 O        0.2170    -0.0320    -0.1090 O.2   1 <1>  -0.5700 
  2 C        1.3070    -0.5640    -0.0580 C.2   1 <1>   0.7150 
  3 N        2.4440     0.1910     0.0230 N.am  1 <1>  -0.4940 
  4 C        1.4490    -1.9930    -0.0680 C.2   1 <1>  -0.2370 
  5 C        2.6170     1.5780    -0.0160 C.2   1 <1>   0.2040 
  6 N        0.4190    -2.8830    -0.0030 N.pl3 1 <1>   0.3140 
  7 C        2.5730    -2.7630    -0.1400 C.2   1 <1>  -0.1500 
  8 O        1.6300     2.4070    -0.2620 O.3   1 <1>  -0.0190 
  9 C        3.7330     2.3140     0.1560 C.2   1 <1>  -0.1810 
 10 N        0.8470    -4.1530    -0.0250 N.2   1 <1>  -0.7070 
 11 C       -1.0250    -2.6040     0.0890 C.3   1 <1>   0.0160 
 12 C        2.1360    -4.0720    -0.1090 C.2   1 <1>   0.1080 
 13 N        2.0300     3.6540    -0.2660 N.2   1 <1>  -0.4100 
 14 C        3.2890     3.6240    -0.0180 C.2   1 <1>   0.1080 
 15 C        5.1480     1.8550     0.4660 C.3   1 <1>   0.0210 
 16 C        3.0110    -5.3020    -0.1640 C.3   1 <1>  -0.0590 
 17 C        4.1440     4.8710     0.0690 C.3   1 <1>  -0.0590 
 18 C        5.9550     1.6920    -0.8240 C.3   1 <1>  -0.2400 
 19 H        3.2930    -0.3520     0.1240 H     1 <1>   0.3700 
 20 H        3.6010    -2.4600    -0.2130 H     1 <1>   0.1500 
 21 H       -1.2170    -2.0100     0.9630 H     1 <1>   0.0800 
 22 H       -1.5620    -3.5320     0.1590 H     1 <1>   0.0800 
 23 H       -1.3380    -2.0710    -0.7880 H     1 <1>   0.0800 
 24 H        5.1160     0.9160     0.9890 H     1 <1>   0.0800 
 25 H        5.6280     2.5710     1.1110 H     1 <1>   0.0800 
 26 H        4.0470    -5.0280    -0.2360 H     1 <1>   0.0800 
 27 H        2.7420    -5.8940    -1.0200 H     1 <1>   0.0800 
 28 H        2.8600    -5.8890     0.7230 H     1 <1>   0.0800 
 29 H        4.9340     4.8260    -0.6570 H     1 <1>   0.0800 
 30 H        4.5660     4.9570     1.0530 H     1 <1>   0.0800 
 31 H        3.5430     5.7400    -0.1280 H     1 <1>   0.0800 
 32 H        5.4860     0.9700    -1.4690 H     1 <1>   0.0800 
 33 H        6.9530     1.3600    -0.5980 H     1 <1>   0.0800 
 34 H        6.0150     2.6300    -1.3480 H     1 <1>   0.0800 
@<TRIPOS>BOND
  1   1   2  2   
  2   2   3  am  
  3   2   4  1   
  4   3   5  1   
  5   3  19  1   
  6   4   6  1   
  7   4   7  2   
  8   5   8  1   
  9   5   9  2   
 10   6  10  1   
 11   6  11  1   
 12   7  12  1   
 13   7  20  1   
 14   8  13  1   
 15   9  14  1   
 16   9  15  1   
 17  10  12  2   
 18  11  21  1   
 19  11  22  1   
 20  11  23  1   
 21  12  16  1   
 22  13  14  2   
 23  14  17  1   
 24  15  18  1   
 25  15  24  1   
 26  15  25  1   
 27  16  26  1   
 28  16  27  1   
 29  16  28  1   
 30  17  29  1   
 31  17  30  1   
 32  17  31  1   
 33  18  32  1   
 34  18  33  1   
 35  18  34  1   
@<TRIPOS>SUBSTRUCTURE
  1 ****   3 GROUP 4 **** **** 0

# MOE 2024.06 (io_trps.svl 2023.06)
