@<TRIPOS>MOLECULE
NONAME
43 45 1 0 0 
SMALL
USER_CHARGES


@<TRIPOS>ATOM
  1 CL       0.3490     0.4470     1.3530 Cl    1 <1>  -0.1770 
  2 C        1.3090    -0.8240     0.6110 C.ar  1 <1>   0.1770 
  3 C        0.8590    -2.1400     0.5260 C.ar  1 <1>   0.4100 
  4 C        2.5430    -0.5270     0.1030 C.ar  1 <1>   0.1600 
  5 N        1.6230    -3.0660    -0.0310 N.ar  1 <1>  -0.6200 
  6 N       -0.3780    -2.5520     0.9940 N.pl3 1 <1>  -0.8380 
  7 N        3.3080    -1.4470    -0.4600 N.ar  1 <1>  -0.6200 
  8 C        2.7950    -2.6660    -0.4890 C.ar  1 <1>   0.4770 
  9 C       -0.5520    -3.9300     1.5570 C.3   1 <1>   0.2090 
 10 C       -1.6210    -2.0110     0.3610 C.3   1 <1>   0.2090 
 11 C        3.6500    -3.7370    -1.1240 C.3   1 <1>  -0.0960 
 12 C       -1.1520    -4.9060     0.5250 C.3   1 <1>   0.2090 
 13 C       -2.2140    -2.9990    -0.6640 C.3   1 <1>   0.2090 
 14 N       -2.4230    -4.3680    -0.0760 N.pl3 1 <1>  -0.8380 
 15 C       -3.6030    -5.0430    -0.0950 C.ar  1 <1>   0.1000 
 16 C       -4.8330    -4.3860     0.0490 C.ar  1 <1>  -0.1500 
 17 C       -3.6510    -6.4330    -0.2600 C.ar  1 <1>  -0.1500 
 18 C       -6.0160    -5.0780     0.0240 C.ar  1 <1>   0.2180 
 19 C       -4.8440    -7.1080    -0.2810 C.ar  1 <1>   0.2180 
 20 N       -6.0050    -6.4230    -0.1400 N.ar  1 <1>  -0.1790 
 21 C       -7.3570    -4.3820     0.1810 C.3   1 <1>  -0.0970 
 22 C       -4.9120    -8.6140    -0.4650 C.3   1 <1>  -0.0970 
 23 H        2.9160     0.4800     0.1580 H     1 <1>   0.1500 
 24 H       -1.2050    -3.8770     2.4100 H     1 <1>   0.0800 
 25 H        0.3970    -4.3080     1.8970 H     1 <1>   0.0800 
 26 H       -1.4060    -1.0820    -0.1370 H     1 <1>   0.0800 
 27 H       -2.3480    -1.8140     1.1290 H     1 <1>   0.0800 
 28 H        3.1170    -4.1810    -1.9430 H     1 <1>   0.0800 
 29 H        3.8720    -4.4940    -0.3960 H     1 <1>   0.0800 
 30 H        4.5700    -3.3200    -1.4890 H     1 <1>   0.0800 
 31 H       -1.3370    -5.8460     1.0130 H     1 <1>   0.0800 
 32 H       -0.4300    -5.0690    -0.2570 H     1 <1>   0.0800 
 33 H       -1.5280    -3.0810    -1.4890 H     1 <1>   0.0800 
 34 H       -3.1360    -2.6070    -1.0510 H     1 <1>   0.0800 
 35 H       -4.8280    -3.3220     0.1940 H     1 <1>   0.1500 
 36 H       -2.7240    -6.9620    -0.3870 H     1 <1>   0.1500 
 37 H       -6.8920    -6.9330    -0.1580 H     1 <1>   0.4570 
 38 H       -7.2200    -3.3210     0.3060 H     1 <1>   0.0800 
 39 H       -7.8760    -4.7550     1.0460 H     1 <1>   0.0800 
 40 H       -7.9670    -4.5390    -0.6910 H     1 <1>   0.0800 
 41 H       -3.9240    -9.0270    -0.5660 H     1 <1>   0.0800 
 42 H       -5.4690    -8.8600    -1.3520 H     1 <1>   0.0800 
 43 H       -5.3820    -9.0760     0.3860 H     1 <1>   0.0800 
@<TRIPOS>BOND
  1   1   2  1   
  2   2   3  ar  
  3   2   4  ar  
  4   3   5  ar  
  5   3   6  1   
  6   4   7  ar  
  7   4  23  1   
  8   5   8  ar  
  9   6   9  1   
 10   6  10  1   
 11   7   8  ar  
 12   8  11  1   
 13   9  12  1   
 14   9  24  1   
 15   9  25  1   
 16  10  13  1   
 17  10  26  1   
 18  10  27  1   
 19  11  28  1   
 20  11  29  1   
 21  11  30  1   
 22  12  14  1   
 23  12  31  1   
 24  12  32  1   
 25  13  14  1   
 26  13  33  1   
 27  13  34  1   
 28  14  15  1   
 29  15  16  ar  
 30  15  17  ar  
 31  16  18  ar  
 32  16  35  1   
 33  17  19  ar  
 34  17  36  1   
 35  18  20  ar  
 36  18  21  1   
 37  19  20  ar  
 38  19  22  1   
 39  20  37  1   
 40  21  38  1   
 41  21  39  1   
 42  21  40  1   
 43  22  41  1   
 44  22  42  1   
 45  22  43  1   
@<TRIPOS>SUBSTRUCTURE
  1 ****  14 GROUP 4 **** **** 0

# MOE 2024.06 (io_trps.svl 2023.06)
