@<TRIPOS>MOLECULE
NONAME
51 55 1 0 0 
SMALL
USER_CHARGES


@<TRIPOS>ATOM
  1 S        0.8280     0.4870    -0.7740 S.3   1 <1>  -0.0800 
  2 C       -0.0090    -0.9560    -0.2440 C.ar  1 <1>   0.0400 
  3 C       -0.2520     1.4630     0.2210 C.2   1 <1>   0.1980 
  4 C       -1.0130    -0.5720     0.6250 C.ar  1 <1>   0.2270 
  5 C        0.2370    -2.2710    -0.5910 C.ar  1 <1>  -0.1500 
  6 N       -1.1230     0.7960     0.8660 N.2   1 <1>  -0.5650 
  7 C       -0.0250     2.9670     0.2040 C.3   1 <1>   0.1000 
  8 C       -1.8160    -1.5590     1.1780 C.ar  1 <1>  -0.1500 
  9 C       -0.5740    -3.2440    -0.0300 C.ar  1 <1>  -0.1500 
 10 C       -0.7450     3.6270     1.3900 C.3   1 <1>   0.2090 
 11 C       -0.4970     3.5830    -1.1270 C.3   1 <1>  -0.1600 
 12 C       -1.5940    -2.8880     0.8500 C.ar  1 <1>  -0.1500 
 13 N       -0.5620     5.1090     1.3590 N.pl3 1 <1>  -0.8380 
 14 C       -0.3250     5.1110    -1.1120 C.3   1 <1>  -0.1600 
 15 C        0.4440     5.6740     2.1300 C.ar  1 <1>   0.4100 
 16 C       -1.0140     5.7580     0.0960 C.3   1 <1>   0.2090 
 17 N        1.3800     6.3480     1.4850 N.ar  1 <1>  -0.6200 
 18 C        0.4600     5.5150     3.5250 C.ar  1 <1>   0.1600 
 19 C        2.3420     6.8530     2.2760 C.ar  1 <1>   0.3960 
 20 N        1.3860     5.9880     4.3320 N.ar  1 <1>  -0.6200 
 21 C        3.4580     7.6230     1.7190 C.2   1 <1>   0.5440 
 22 C        2.3170     6.6520     3.6610 C.ar  1 <1>   0.1600 
 23 O        4.5190     7.6450     2.3230 O.2   1 <1>  -0.5700 
 24 N        3.3920     8.3600     0.5490 N.am  1 <1>  -0.6600 
 25 C        2.1870     8.5790    -0.2830 C.3   1 <1>   0.1400 
 26 C        4.5510     9.1010     0.0030 C.3   1 <1>   0.1400 
 27 C        2.5660     9.7140    -1.2270 C.3   1 <1>  -0.1600 
 28 C        4.0840     9.6180    -1.3530 C.3   1 <1>  -0.1600 
 29 H        1.0310    -2.5210    -1.2720 H     1 <1>   0.1500 
 30 H        1.0290     3.1440     0.3220 H     1 <1>   0.0800 
 31 H       -2.6000    -1.2730     1.8550 H     1 <1>   0.1500 
 32 H       -0.4170    -4.2810    -0.2730 H     1 <1>   0.1500 
 33 H       -0.3580     3.2190     2.3080 H     1 <1>   0.0800 
 34 H       -1.7970     3.4030     1.3460 H     1 <1>   0.0800 
 35 H       -1.5340     3.3400    -1.2800 H     1 <1>   0.0800 
 36 H        0.0670     3.1670    -1.9440 H     1 <1>   0.0800 
 37 H       -2.2170    -3.6540     1.2780 H     1 <1>   0.1500 
 38 H       -0.7310     5.5290    -2.0150 H     1 <1>   0.0800 
 39 H        0.7220     5.3560    -1.0810 H     1 <1>   0.0800 
 40 H       -0.7950     6.8130     0.1240 H     1 <1>   0.0800 
 41 H       -2.0820     5.6450     0.0110 H     1 <1>   0.0800 
 42 H       -0.3510     4.9660     3.9660 H     1 <1>   0.1500 
 43 H        3.1190     7.0700     4.2440 H     1 <1>   0.1500 
 44 H        1.3360     8.8370     0.3240 H     1 <1>   0.0800 
 45 H        1.9790     7.6820    -0.8400 H     1 <1>   0.0800 
 46 H        5.4080     8.4560    -0.0880 H     1 <1>   0.0800 
 47 H        4.7840     9.9190     0.6630 H     1 <1>   0.0800 
 48 H        2.2960    10.6510    -0.7720 H     1 <1>   0.0800 
 49 H        2.0680     9.6280    -2.1760 H     1 <1>   0.0800 
 50 H        4.3440     8.8970    -2.1080 H     1 <1>   0.0800 
 51 H        4.5380    10.5610    -1.5980 H     1 <1>   0.0800 
@<TRIPOS>BOND
  1   1   2  1   
  2   1   3  1   
  3   2   4  ar  
  4   2   5  ar  
  5   3   6  2   
  6   3   7  1   
  7   4   6  1   
  8   4   8  ar  
  9   5   9  ar  
 10   5  29  1   
 11   7  10  1   
 12   7  11  1   
 13   7  30  1   
 14   8  12  ar  
 15   8  31  1   
 16   9  12  ar  
 17   9  32  1   
 18  10  13  1   
 19  10  33  1   
 20  10  34  1   
 21  11  14  1   
 22  11  35  1   
 23  11  36  1   
 24  12  37  1   
 25  13  15  1   
 26  13  16  1   
 27  14  16  1   
 28  14  38  1   
 29  14  39  1   
 30  15  17  ar  
 31  15  18  ar  
 32  16  40  1   
 33  16  41  1   
 34  17  19  ar  
 35  18  20  ar  
 36  18  42  1   
 37  19  21  1   
 38  19  22  ar  
 39  20  22  ar  
 40  21  23  2   
 41  21  24  am  
 42  22  43  1   
 43  24  25  1   
 44  24  26  1   
 45  25  27  1   
 46  25  44  1   
 47  25  45  1   
 48  26  28  1   
 49  26  46  1   
 50  26  47  1   
 51  27  28  1   
 52  27  48  1   
 53  27  49  1   
 54  28  50  1   
 55  28  51  1   
@<TRIPOS>SUBSTRUCTURE
  1 ****   7 GROUP 4 **** **** 0

# MOE 2024.06 (io_trps.svl 2023.06)
