@<TRIPOS>MOLECULE
NONAME
51 53 1 0 0 
SMALL
USER_CHARGES


@<TRIPOS>ATOM
  1 O        0.0820     1.2010    -0.1230 O.2   1 <1>  -0.5700 
  2 C       -0.1820     2.3730    -0.2490 C.2   1 <1>   0.5690 
  3 N       -1.1010     3.0110     0.5380 N.am  1 <1>  -0.6600 
  4 C        0.5260     3.1570    -1.3510 C.3   1 <1>   0.1810 
  5 C       -1.4380     4.4590     0.3340 C.3   1 <1>   0.3640 
  6 C       -1.8130     2.3220     1.6540 C.3   1 <1>   0.0600 
  7 O        0.6200     4.5280    -1.0540 O.3   1 <1>  -0.5600 
  8 C       -2.9560     4.6380     0.1390 C.ar  1 <1>  -0.1430 
  9 C       -0.6260     5.1670    -0.7890 C.3   1 <1>   0.2610 
 10 C       -3.7280     3.9590    -0.8110 C.ar  1 <1>  -0.1430 
 11 C       -3.5870     5.5460     0.9830 C.ar  1 <1>  -0.1500 
 12 C       -0.3710     6.6350    -0.4150 C.2   1 <1>   0.5690 
 13 C       -5.0920     4.2040    -0.8830 C.ar  1 <1>  -0.1500 
 14 C       -3.1630     2.9360    -1.7900 C.3   1 <1>  -0.0960 
 15 C       -4.9450     5.7820     0.9010 C.ar  1 <1>  -0.1500 
 16 O       -1.2870     7.3270    -0.0450 O.2   1 <1>  -0.5700 
 17 N        0.9010     7.1080    -0.5170 N.am  1 <1>  -0.7300 
 18 C       -5.7020     5.1080    -0.0350 C.ar  1 <1>  -0.1500 
 19 C        1.4660     8.4750    -0.2850 C.3   1 <1>   0.3610 
 20 C        3.0240     8.4010    -0.2540 C.2   1 <1>   0.5690 
 21 C        0.9300     9.4200    -1.3830 C.3   1 <1>  -0.1600 
 22 C        0.9610     9.0740     1.0480 C.3   1 <1>  -0.1600 
 23 O        3.7120     9.2980    -0.6780 O.2   1 <1>  -0.5700 
 24 N        3.6370     7.3120     0.2690 N.am  1 <1>  -0.8000 
 25 C        0.4930    10.6990    -0.6700 C.3   1 <1>  -0.1600 
 26 C        0.0090    10.2180     0.6910 C.3   1 <1>  -0.1600 
 27 H        0.0030     3.0380    -2.2810 H     1 <1>   0.0800 
 28 H        1.5260     2.7790    -1.4650 H     1 <1>   0.0800 
 29 H       -1.1700     4.9510     1.2530 H     1 <1>   0.0800 
 30 H       -1.6900     2.8780     2.5660 H     1 <1>   0.0800 
 31 H       -1.4230     1.3290     1.8000 H     1 <1>   0.0800 
 32 H       -2.8630     2.2460     1.4270 H     1 <1>   0.0800 
 33 H       -1.1940     5.1620    -1.7000 H     1 <1>   0.0800 
 34 H       -3.0200     6.0940     1.7160 H     1 <1>   0.1500 
 35 H       -5.7000     3.6880    -1.6050 H     1 <1>   0.1500 
 36 H       -3.8980     2.6580    -2.5230 H     1 <1>   0.0800 
 37 H       -2.8710     2.0440    -1.2660 H     1 <1>   0.0800 
 38 H       -2.3190     3.3350    -2.3170 H     1 <1>   0.0800 
 39 H       -5.4110     6.4920     1.5620 H     1 <1>   0.1500 
 40 H        1.5790     6.4500    -0.9140 H     1 <1>   0.3700 
 41 H       -6.7600     5.2880    -0.1050 H     1 <1>   0.1500 
 42 H        1.6630     9.6320    -2.1410 H     1 <1>   0.0800 
 43 H        0.0650     8.9910    -1.8570 H     1 <1>   0.0800 
 44 H        0.4860     8.3450     1.6790 H     1 <1>   0.0800 
 45 H        1.7920     9.4960     1.5870 H     1 <1>   0.0800 
 46 H        4.6570     7.2850     0.3100 H     1 <1>   0.3700 
 47 H        3.1340     6.5510     0.7270 H     1 <1>   0.3700 
 48 H        1.3440    11.3480    -0.5430 H     1 <1>   0.0800 
 49 H       -0.2770    11.2220    -1.2110 H     1 <1>   0.0800 
 50 H       -0.9950     9.8390     0.6000 H     1 <1>   0.0800 
 51 H        0.0230    11.0030     1.4270 H     1 <1>   0.0800 
@<TRIPOS>BOND
  1   1   2  2   
  2   2   3  am  
  3   2   4  1   
  4   3   5  1   
  5   3   6  1   
  6   4   7  1   
  7   4  27  1   
  8   4  28  1   
  9   5   8  1   
 10   5   9  1   
 11   5  29  1   
 12   6  30  1   
 13   6  31  1   
 14   6  32  1   
 15   7   9  1   
 16   8  10  ar  
 17   8  11  ar  
 18   9  12  1   
 19   9  33  1   
 20  10  13  ar  
 21  10  14  1   
 22  11  15  ar  
 23  11  34  1   
 24  12  16  2   
 25  12  17  am  
 26  13  18  ar  
 27  13  35  1   
 28  14  36  1   
 29  14  37  1   
 30  14  38  1   
 31  15  18  ar  
 32  15  39  1   
 33  17  19  1   
 34  17  40  1   
 35  18  41  1   
 36  19  20  1   
 37  19  21  1   
 38  19  22  1   
 39  20  23  2   
 40  20  24  am  
 41  21  25  1   
 42  21  42  1   
 43  21  43  1   
 44  22  26  1   
 45  22  44  1   
 46  22  45  1   
 47  24  46  1   
 48  24  47  1   
 49  25  26  1   
 50  25  48  1   
 51  25  49  1   
 52  26  50  1   
 53  26  51  1   
@<TRIPOS>SUBSTRUCTURE
  1 ****  12 GROUP 4 **** **** 0

# MOE 2024.06 (io_trps.svl 2023.06)
