@<TRIPOS>MOLECULE
NONAME
50 52 1 0 0 
SMALL
USER_CHARGES


@<TRIPOS>ATOM
  1 O        0.2600     1.3420    -2.4320 O.2   1 <1>  -0.5700 
  2 C        0.5960     1.3120    -1.2730 C.2   1 <1>   0.5690 
  3 N        0.1440     2.1230    -0.2910 N.am  1 <1>  -0.6600 
  4 C        1.6030     0.3340    -0.7350 C.3   1 <1>  -0.0990 
  5 C        0.7580     1.8380     1.0160 C.3   1 <1>   0.1400 
  6 C       -0.8640     3.1910    -0.4640 C.3   1 <1>   0.1400 
  7 C        1.8820     0.8440     0.6900 C.3   1 <1>  -0.1600 
  8 C       -2.1320     2.8530     0.3230 C.3   1 <1>  -0.1600 
  9 C       -3.2630     3.8580     0.0280 C.3   1 <1>  -0.0990 
 10 C       -4.5510     3.6030     0.8060 C.2   1 <1>   0.5690 
 11 O       -4.5340     2.7800     1.6930 O.2   1 <1>  -0.5700 
 12 N       -5.6930     4.2990     0.4960 N.am  1 <1>  -0.6600 
 13 C       -6.9910     3.9870     1.1660 C.3   1 <1>   0.1400 
 14 C       -5.8160     5.3610    -0.5410 C.3   1 <1>   0.1400 
 15 C       -8.0390     3.4940     0.1350 C.3   1 <1>   0.0000 
 16 C       -6.8250     4.9200    -1.6070 C.3   1 <1>  -0.1600 
 17 C       -9.3990     3.1780     0.7910 C.3   1 <1>   0.2000 
 18 C       -8.1840     4.5480    -0.9860 C.3   1 <1>  -0.1600 
 19 C       -7.6370     2.1140    -0.4180 C.3   1 <1>  -0.1600 
 20 O       -9.7250     4.0520     1.8140 O.3   1 <1>  -0.6800 
 21 C       -9.3120     1.7470     1.3270 C.3   1 <1>  -0.1600 
 22 C       -8.1040     1.1050     0.6340 C.3   1 <1>  -0.1600 
 23 H        1.1610    -0.6440    -0.7190 H     1 <1>   0.0800 
 24 H        2.4890     0.3310    -1.3430 H     1 <1>   0.0800 
 25 H        1.1440     2.7390     1.4620 H     1 <1>   0.0800 
 26 H        0.0260     1.3880     1.6670 H     1 <1>   0.0800 
 27 H       -0.4520     4.1280    -0.1300 H     1 <1>   0.0800 
 28 H       -1.1010     3.2820    -1.5120 H     1 <1>   0.0800 
 29 H        2.8230     1.3660     0.7090 H     1 <1>   0.0800 
 30 H        1.9160     0.0420     1.4050 H     1 <1>   0.0800 
 31 H       -2.4650     1.8660     0.0540 H     1 <1>   0.0800 
 32 H       -1.9150     2.8660     1.3770 H     1 <1>   0.0800 
 33 H       -3.4880     3.8100    -1.0210 H     1 <1>   0.0800 
 34 H       -2.9260     4.8500     0.2630 H     1 <1>   0.0800 
 35 H       -6.8530     3.2460     1.9330 H     1 <1>   0.0800 
 36 H       -7.3440     4.8850     1.6410 H     1 <1>   0.0800 
 37 H       -6.1630     6.2650    -0.0690 H     1 <1>   0.0800 
 38 H       -4.8700     5.5760    -1.0020 H     1 <1>   0.0800 
 39 H       -6.9620     5.7190    -2.3140 H     1 <1>   0.0800 
 40 H       -6.4230     4.0780    -2.1420 H     1 <1>   0.0800 
 41 H      -10.1790     3.2350     0.0500 H     1 <1>   0.0800 
 42 H       -8.8440     4.1860    -1.7550 H     1 <1>   0.0800 
 43 H       -8.6300     5.4350    -0.5680 H     1 <1>   0.0800 
 44 H       -8.1640     1.9240    -1.3360 H     1 <1>   0.0800 
 45 H       -6.5820     2.0250    -0.6070 H     1 <1>   0.0800 
 46 H       -9.1700     3.8700     2.5950 H     1 <1>   0.4000 
 47 H       -9.1720     1.7270     2.3940 H     1 <1>   0.0800 
 48 H      -10.2130     1.2150     1.0770 H     1 <1>   0.0800 
 49 H       -7.3160     0.9490     1.3520 H     1 <1>   0.0800 
 50 H       -8.3540     0.1590     0.1860 H     1 <1>   0.0800 
@<TRIPOS>BOND
  1   1   2  2   
  2   2   3  am  
  3   2   4  1   
  4   3   5  1   
  5   3   6  1   
  6   4   7  1   
  7   4  23  1   
  8   4  24  1   
  9   5   7  1   
 10   5  25  1   
 11   5  26  1   
 12   6   8  1   
 13   6  27  1   
 14   6  28  1   
 15   7  29  1   
 16   7  30  1   
 17   8   9  1   
 18   8  31  1   
 19   8  32  1   
 20   9  10  1   
 21   9  33  1   
 22   9  34  1   
 23  10  11  2   
 24  10  12  am  
 25  12  13  1   
 26  12  14  1   
 27  13  15  1   
 28  13  35  1   
 29  13  36  1   
 30  14  16  1   
 31  14  37  1   
 32  14  38  1   
 33  15  17  1   
 34  15  18  1   
 35  15  19  1   
 36  16  18  1   
 37  16  39  1   
 38  16  40  1   
 39  17  20  1   
 40  17  21  1   
 41  17  41  1   
 42  18  42  1   
 43  18  43  1   
 44  19  22  1   
 45  19  44  1   
 46  19  45  1   
 47  20  46  1   
 48  21  22  1   
 49  21  47  1   
 50  21  48  1   
 51  22  49  1   
 52  22  50  1   
@<TRIPOS>SUBSTRUCTURE
  1 ****  10 GROUP 4 **** **** 0

# MOE 2024.06 (io_trps.svl 2023.06)
