@<TRIPOS>MOLECULE
NONAME
50 52 1 0 0 
SMALL
USER_CHARGES


@<TRIPOS>ATOM
  1 O       -0.7400     0.6980     0.7460 O.3   1 <1>  -0.3630 
  2 C       -1.6180     0.9300    -0.2580 C.ar  1 <1>   0.0830 
  3 C        0.5830     1.1810     0.6940 C.3   1 <1>   0.2580 
  4 C       -2.8890     0.4050    -0.0940 C.ar  1 <1>  -0.1500 
  5 C       -1.3150     1.6500    -1.4100 C.ar  1 <1>  -0.1500 
  6 C        1.2810     0.7700     1.9750 C.2   1 <1>  -0.2880 
  7 C       -3.8660     0.6010    -1.0580 C.ar  1 <1>  -0.1430 
  8 C       -2.2850     1.8370    -2.3790 C.ar  1 <1>  -0.1500 
  9 C        1.8420     1.6040     2.8570 C.2   1 <1>  -0.3000 
 10 C       -3.5560     1.3160    -2.2060 C.ar  1 <1>  -0.1500 
 11 C       -5.2620     0.0470    -0.8480 C.3   1 <1>   0.4860 
 12 N       -5.9210     0.8210     0.2380 N.4   1 <1>  -0.9590 
 13 C       -7.2170     0.1740     0.6540 C.3   1 <1>   0.3430 
 14 C       -6.0230     2.2730    -0.1180 C.3   1 <1>   0.3430 
 15 C       -8.4680     0.8660     0.0700 C.3   1 <1>   0.0000 
 16 C       -7.0950     2.9580     0.7280 C.3   1 <1>  -0.1600 
 17 C       -9.7520     0.1520     0.5370 C.3   1 <1>   0.2000 
 18 C       -8.4970     2.3580     0.5030 C.3   1 <1>  -0.1600 
 19 C       -8.5560     0.7370    -1.4680 C.3   1 <1>  -0.1600 
 20 O       -9.5400    -1.2180     0.5140 O.3   1 <1>  -0.6800 
 21 C      -10.8070     0.4910    -0.5130 C.3   1 <1>  -0.1600 
 22 C      -10.0480     0.7350    -1.8230 C.3   1 <1>  -0.1600 
 23 H        1.0730     0.7470    -0.1590 H     1 <1>   0.0800 
 24 H        0.5540     2.2530     0.6030 H     1 <1>   0.0800 
 25 H       -3.0850    -0.1570     0.8010 H     1 <1>   0.1500 
 26 H       -0.3390     2.0670    -1.5710 H     1 <1>   0.1500 
 27 H        1.2770    -0.2990     2.1100 H     1 <1>   0.1500 
 28 H       -2.0460     2.3910    -3.2720 H     1 <1>   0.1500 
 29 H        2.3290     1.2800     3.7600 H     1 <1>   0.1500 
 30 H        1.8610     2.6760     2.7550 H     1 <1>   0.1500 
 31 H       -4.2910     1.4750    -2.9770 H     1 <1>   0.1500 
 32 H       -5.1940    -0.9930    -0.5740 H     1 <1>   0.0800 
 33 H       -5.8320     0.1240    -1.7590 H     1 <1>   0.0800 
 34 H       -5.2820     0.7650     1.0400 H     1 <1>   0.4500 
 35 H       -7.2190    -0.8660     0.3700 H     1 <1>   0.0800 
 36 H       -7.2980     0.2110     1.7270 H     1 <1>   0.0800 
 37 H       -5.0680     2.7530     0.0320 H     1 <1>   0.0800 
 38 H       -6.2850     2.3760    -1.1580 H     1 <1>   0.0800 
 39 H       -6.8210     2.8750     1.7660 H     1 <1>   0.0800 
 40 H       -7.1170     4.0080     0.4900 H     1 <1>   0.0800 
 41 H      -10.0590     0.4260     1.5330 H     1 <1>   0.0800 
 42 H       -9.0210     2.9400    -0.2380 H     1 <1>   0.0800 
 43 H       -9.0480     2.4680     1.4220 H     1 <1>   0.0800 
 44 H       -8.0360     1.5180    -1.9930 H     1 <1>   0.0800 
 45 H       -8.1480    -0.2130    -1.7720 H     1 <1>   0.0800 
 46 H      -10.3920    -1.6900     0.6170 H     1 <1>   0.4000 
 47 H      -11.5540    -0.2770    -0.6120 H     1 <1>   0.0800 
 48 H      -11.2990     1.4040    -0.2260 H     1 <1>   0.0800 
 49 H      -10.2610    -0.0430    -2.5370 H     1 <1>   0.0800 
 50 H      -10.3410     1.6800    -2.2480 H     1 <1>   0.0800 
@<TRIPOS>BOND
  1   1   2  1   
  2   1   3  1   
  3   2   4  ar  
  4   2   5  ar  
  5   3   6  1   
  6   3  23  1   
  7   3  24  1   
  8   4   7  ar  
  9   4  25  1   
 10   5   8  ar  
 11   5  26  1   
 12   6   9  2   
 13   6  27  1   
 14   7  10  ar  
 15   7  11  1   
 16   8  10  ar  
 17   8  28  1   
 18   9  29  1   
 19   9  30  1   
 20  10  31  1   
 21  11  12  1   
 22  11  32  1   
 23  11  33  1   
 24  12  13  1   
 25  12  14  1   
 26  12  34  1   
 27  13  15  1   
 28  13  35  1   
 29  13  36  1   
 30  14  16  1   
 31  14  37  1   
 32  14  38  1   
 33  15  17  1   
 34  15  18  1   
 35  15  19  1   
 36  16  18  1   
 37  16  39  1   
 38  16  40  1   
 39  17  20  1   
 40  17  21  1   
 41  17  41  1   
 42  18  42  1   
 43  18  43  1   
 44  19  22  1   
 45  19  44  1   
 46  19  45  1   
 47  20  46  1   
 48  21  22  1   
 49  21  47  1   
 50  21  48  1   
 51  22  49  1   
 52  22  50  1   
@<TRIPOS>SUBSTRUCTURE
  1 ****  12 GROUP 4 **** **** 0

# MOE 2024.06 (io_trps.svl 2023.06)
