@<TRIPOS>MOLECULE
NONAME
46 49 1 0 0 
SMALL
USER_CHARGES


@<TRIPOS>ATOM
  1 O       -3.6780     0.3420    -2.9880 O.2   1 <1>  -0.5700 
  2 C       -2.9400     0.8660    -2.1780 C.2   1 <1>   0.7800 
  3 O       -1.6190     0.6950    -2.1730 O.3   1 <1>  -0.2330 
  4 N       -3.3420     1.6240    -1.1170 N.am  1 <1>  -0.4770 
  5 C       -1.1490     1.3520    -1.0930 C.ar  1 <1>   0.0830 
  6 C       -2.1950     1.9470    -0.4210 C.ar  1 <1>   0.1170 
  7 C       -4.7130     2.1460    -0.9070 C.3   1 <1>   0.1400 
  8 C        0.1580     1.4590    -0.6590 C.ar  1 <1>  -0.1500 
  9 C       -1.9560     2.6920     0.7250 C.ar  1 <1>  -0.1500 
 10 C       -5.4510     1.3600     0.1910 C.3   1 <1>   0.3430 
 11 C        0.3990     2.1960     0.4900 C.ar  1 <1>  -0.1500 
 12 C       -0.6500     2.8090     1.1740 C.ar  1 <1>  -0.1500 
 13 N       -5.3730    -0.1260     0.0110 N.4   1 <1>  -0.9590 
 14 C       -6.0850    -0.6630    -1.2000 C.3   1 <1>   0.3430 
 15 C       -5.8570    -0.8940     1.1900 C.3   1 <1>   0.3430 
 16 C       -6.8320    -1.9270    -0.7510 C.3   1 <1>   0.2000 
 17 C       -6.3290    -2.2480     0.6610 C.3   1 <1>  -0.0800 
 18 O       -8.1940    -1.6530    -0.6820 O.3   1 <1>  -0.6800 
 19 C       -5.2210    -3.3290     0.6980 C.3   1 <1>  -0.0170 
 20 C       -3.8710    -2.8960     0.1400 C.ar  1 <1>   0.1670 
 21 N       -3.8190    -2.6830    -1.1630 N.ar  1 <1>  -0.6200 
 22 C       -2.7730    -2.7420     0.9850 C.ar  1 <1>   0.1600 
 23 C       -2.6050    -2.3520    -1.5740 C.ar  1 <1>   0.1600 
 24 N       -1.5750    -2.3570     0.5850 N.ar  1 <1>  -0.6200 
 25 C       -1.5180    -2.1890    -0.7250 C.ar  1 <1>   0.1600 
 26 H       -4.6560     3.1850    -0.6320 H     1 <1>   0.0800 
 27 H       -5.2640     2.0840    -1.8300 H     1 <1>   0.0800 
 28 H        0.9590     0.9850    -1.1990 H     1 <1>   0.1500 
 29 H       -2.7580     3.1720     1.2530 H     1 <1>   0.1500 
 30 H       -6.4820     1.6710     0.2140 H     1 <1>   0.0800 
 31 H       -5.0100     1.6230     1.1380 H     1 <1>   0.0800 
 32 H        1.4060     2.2990     0.8580 H     1 <1>   0.1500 
 33 H       -0.4350     3.3800     2.0620 H     1 <1>   0.1500 
 34 H       -4.3810    -0.3840    -0.1420 H     1 <1>   0.4500 
 35 H       -6.7800     0.0510    -1.6080 H     1 <1>   0.0800 
 36 H       -5.3640    -0.9240    -1.9590 H     1 <1>   0.0800 
 37 H       -5.0830    -1.0040     1.9340 H     1 <1>   0.0800 
 38 H       -6.6960    -0.3810     1.6320 H     1 <1>   0.0800 
 39 H       -6.6950    -2.7380    -1.4480 H     1 <1>   0.0800 
 40 H       -7.1400    -2.6150     1.2660 H     1 <1>   0.0800 
 41 H       -8.4250    -1.0080     0.0110 H     1 <1>   0.4000 
 42 H       -5.5530    -4.1950     0.1500 H     1 <1>   0.0800 
 43 H       -5.0890    -3.6480     1.7170 H     1 <1>   0.0800 
 44 H       -2.8840    -2.9420     2.0360 H     1 <1>   0.1500 
 45 H       -2.4630    -2.1940    -2.6310 H     1 <1>   0.1500 
 46 H       -0.5680    -1.9070    -1.1460 H     1 <1>   0.1500 
@<TRIPOS>BOND
  1   1   2  2   
  2   2   3  1   
  3   2   4  am  
  4   3   5  1   
  5   4   6  1   
  6   4   7  1   
  7   5   6  ar  
  8   5   8  ar  
  9   6   9  ar  
 10   7  10  1   
 11   7  26  1   
 12   7  27  1   
 13   8  11  ar  
 14   8  28  1   
 15   9  12  ar  
 16   9  29  1   
 17  10  13  1   
 18  10  30  1   
 19  10  31  1   
 20  11  12  ar  
 21  11  32  1   
 22  12  33  1   
 23  13  14  1   
 24  13  15  1   
 25  13  34  1   
 26  14  16  1   
 27  14  35  1   
 28  14  36  1   
 29  15  17  1   
 30  15  37  1   
 31  15  38  1   
 32  16  17  1   
 33  16  18  1   
 34  16  39  1   
 35  17  19  1   
 36  17  40  1   
 37  18  41  1   
 38  19  20  1   
 39  19  42  1   
 40  19  43  1   
 41  20  21  ar  
 42  20  22  ar  
 43  21  23  ar  
 44  22  24  ar  
 45  22  44  1   
 46  23  25  ar  
 47  23  45  1   
 48  24  25  ar  
 49  25  46  1   
@<TRIPOS>SUBSTRUCTURE
  1 ****  13 GROUP 4 **** **** 0

# MOE 2024.06 (io_trps.svl 2023.06)
