@<TRIPOS>MOLECULE
NONAME
55 58 1 0 0 
SMALL
USER_CHARGES


@<TRIPOS>ATOM
  1 O       -1.6870     0.0640     1.5340 O.2   1 <1>  -0.5700 
  2 C       -1.7430     0.5520     0.4180 C.2   1 <1>   0.7160 
  3 N       -1.8780    -0.2960    -0.6610 N.am  1 <1>  -0.6600 
  4 C       -1.6680     1.9680     0.2590 C.2   1 <1>  -0.0860 
  5 C       -1.9730    -1.7600    -0.5010 C.3   1 <1>   0.1400 
  6 C       -2.7040     0.0530    -1.8280 C.3   1 <1>   0.1400 
  7 C       -2.7560     2.8360     0.1370 C.2   1 <1>   0.3720 
  8 C       -0.5900     2.7930     0.2020 C.2   1 <1>   0.0870 
  9 C       -3.4280    -2.0930    -0.8620 C.3   1 <1>  -0.0800 
 10 C       -3.9070    -0.8730    -1.6880 C.3   1 <1>  -0.1600 
 11 N       -2.3620     4.0550     0.0100 N.2   1 <1>  -0.4100 
 12 N       -4.1010     2.4440     0.1260 N.pl3 1 <1>  -0.8210 
 13 O       -1.0570     4.0080     0.0570 O.3   1 <1>  -0.0190 
 14 C        0.8340     2.5630     0.2670 C.ar  1 <1>   0.0530 
 15 C       -4.3170    -2.4330     0.3690 C.3   1 <1>   0.2800 
 16 C       -4.6210     1.9510     1.4390 C.3   1 <1>   0.2090 
 17 C       -5.0620     3.4220    -0.4700 C.3   1 <1>   0.2090 
 18 C        1.7020     3.5790     0.6710 C.ar  1 <1>  -0.1500 
 19 C        1.4050     1.3350    -0.0710 C.ar  1 <1>  -0.1500 
 20 O       -4.3160    -1.3720     1.2430 O.3   1 <1>  -0.6800 
 21 C       -5.7790    -2.6750    -0.0200 C.3   1 <1>  -0.2400 
 22 C       -3.8070    -3.6450     1.1540 C.3   1 <1>  -0.2400 
 23 C       -6.0590     1.4190     1.2950 C.3   1 <1>   0.1200 
 24 C       -6.4790     2.8250    -0.5350 C.3   1 <1>   0.1200 
 25 C        3.0690     3.3820     0.7390 C.ar  1 <1>  -0.1500 
 26 C        2.7710     1.1300    -0.0040 C.ar  1 <1>  -0.1500 
 27 O       -6.8990     2.3900     0.7280 O.3   1 <1>  -0.5600 
 28 C        3.6070     2.1530     0.4010 C.ar  1 <1>  -0.1500 
 29 H       -1.6880    -2.0740     0.4860 H     1 <1>   0.0800 
 30 H       -1.3050    -2.2240    -1.2060 H     1 <1>   0.0800 
 31 H       -2.1560    -0.1700    -2.7280 H     1 <1>   0.0800 
 32 H       -3.0010     1.0860    -1.8420 H     1 <1>   0.0800 
 33 H       -3.4160    -2.9590    -1.5000 H     1 <1>   0.0800 
 34 H       -4.2880    -1.1610    -2.6510 H     1 <1>   0.0800 
 35 H       -4.6720    -0.3250    -1.1680 H     1 <1>   0.0800 
 36 H       -4.6110     2.7540     2.1560 H     1 <1>   0.0800 
 37 H       -3.9950     1.1650     1.8170 H     1 <1>   0.0800 
 38 H       -4.7360     3.6840    -1.4610 H     1 <1>   0.0800 
 39 H       -5.0830     4.3200     0.1240 H     1 <1>   0.0800 
 40 H        1.2990     4.5400     0.9400 H     1 <1>   0.1500 
 41 H        0.7800     0.5250    -0.3970 H     1 <1>   0.1500 
 42 H       -3.3920    -1.0720     1.3990 H     1 <1>   0.4000 
 43 H       -6.2140    -1.8070    -0.4790 H     1 <1>   0.0800 
 44 H       -6.3600    -2.9220     0.8500 H     1 <1>   0.0800 
 45 H       -5.8450    -3.4930    -0.7130 H     1 <1>   0.0800 
 46 H       -2.8360    -3.4740     1.5780 H     1 <1>   0.0800 
 47 H       -3.7510    -4.5040     0.5110 H     1 <1>   0.0800 
 48 H       -4.4840    -3.8760     1.9580 H     1 <1>   0.0800 
 49 H       -6.4560     1.1610     2.2600 H     1 <1>   0.0800 
 50 H       -6.0740     0.5430     0.6730 H     1 <1>   0.0800 
 51 H       -6.5010     1.9880    -1.2110 H     1 <1>   0.0800 
 52 H       -7.1780     3.5660    -0.8760 H     1 <1>   0.0800 
 53 H        3.7140     4.1830     1.0550 H     1 <1>   0.1500 
 54 H        3.1850     0.1720    -0.2690 H     1 <1>   0.1500 
 55 H        4.6700     1.9960     0.4540 H     1 <1>   0.1500 
@<TRIPOS>BOND
  1   1   2  2   
  2   2   3  am  
  3   2   4  1   
  4   3   5  1   
  5   3   6  1   
  6   4   7  1   
  7   4   8  2   
  8   5   9  1   
  9   5  29  1   
 10   5  30  1   
 11   6  10  1   
 12   6  31  1   
 13   6  32  1   
 14   7  11  2   
 15   7  12  1   
 16   8  13  1   
 17   8  14  1   
 18   9  10  1   
 19   9  15  1   
 20   9  33  1   
 21  10  34  1   
 22  10  35  1   
 23  11  13  1   
 24  12  16  1   
 25  12  17  1   
 26  14  18  ar  
 27  14  19  ar  
 28  15  20  1   
 29  15  21  1   
 30  15  22  1   
 31  16  23  1   
 32  16  36  1   
 33  16  37  1   
 34  17  24  1   
 35  17  38  1   
 36  17  39  1   
 37  18  25  ar  
 38  18  40  1   
 39  19  26  ar  
 40  19  41  1   
 41  20  42  1   
 42  21  43  1   
 43  21  44  1   
 44  21  45  1   
 45  22  46  1   
 46  22  47  1   
 47  22  48  1   
 48  23  27  1   
 49  23  49  1   
 50  23  50  1   
 51  24  27  1   
 52  24  51  1   
 53  24  52  1   
 54  25  28  ar  
 55  25  53  1   
 56  26  28  ar  
 57  26  54  1   
 58  28  55  1   
@<TRIPOS>SUBSTRUCTURE
  1 ****   2 GROUP 4 **** **** 0

# MOE 2024.06 (io_trps.svl 2023.06)
