@<TRIPOS>MOLECULE
NONAME
58 61 1 0 0 
SMALL
USER_CHARGES


@<TRIPOS>ATOM
  1 O       -0.9310    -0.2250    -0.0840 O.3   1 <1>  -0.2800 
  2 C        0.2480    -0.7410     0.2130 C.2   1 <1>  -0.0400 
  3 C       -0.7250     0.8350    -0.8400 C.2   1 <1>  -0.0100 
  4 C        1.2360    -0.0170    -0.3590 C.2   1 <1>  -0.1500 
  5 C        0.3160    -1.9850     1.0790 C.3   1 <1>   0.5230 
  6 C        0.5950     1.0190    -1.0500 C.2   1 <1>  -0.1500 
  7 N       -0.5220    -3.0490     0.4400 N.4   1 <1>  -0.9590 
  8 C       -1.9470    -2.9080     0.8570 C.3   1 <1>   0.3430 
  9 C        0.0400    -4.4060     0.6740 C.3   1 <1>   0.3430 
 10 C       -2.8030    -3.9360     0.1170 C.3   1 <1>  -0.1600 
 11 C       -0.8050    -5.4510    -0.0590 C.3   1 <1>  -0.1600 
 12 C       -2.2810    -5.3560     0.3430 C.3   1 <1>   0.4230 
 13 N       -3.1090    -6.2880    -0.4530 N.4   1 <1>  -0.9060 
 14 C       -3.1660    -7.6800     0.0610 C.3   1 <1>   0.4230 
 15 C       -4.4830    -8.3460    -0.3250 C.3   1 <1>   0.2000 
 16 C       -2.1070    -8.6340    -0.4790 C.3   1 <1>  -0.1600 
 17 O       -5.5010    -7.7040     0.3830 O.3   1 <1>  -0.5600 
 18 C       -4.2230    -9.8090     0.0180 C.3   1 <1>  -0.1600 
 19 C       -2.7480   -10.0290    -0.3590 C.3   1 <1>  -0.1600 
 20 C       -6.7990    -8.2170     0.2170 C.3   1 <1>   0.2630 
 21 C       -7.0440    -9.3460     1.2060 C.ar  1 <1>  -0.1430 
 22 C       -6.8190    -9.1500     2.5610 C.ar  1 <1>  -0.1500 
 23 C       -7.4950   -10.5820     0.7650 C.ar  1 <1>  -0.1500 
 24 C       -7.0310   -10.1790     3.4620 C.ar  1 <1>  -0.1500 
 25 C       -7.7060   -11.6110     1.6660 C.ar  1 <1>  -0.1500 
 26 C       -7.4730   -11.4110     3.0140 C.ar  1 <1>  -0.1500 
 27 H       -1.5700     1.4080    -1.1860 H     1 <1>   0.1500 
 28 H        2.3040    -0.1540    -0.3250 H     1 <1>   0.1500 
 29 H       -0.0400    -1.7620     2.0720 H     1 <1>   0.0800 
 30 H        1.3440    -2.3020     1.1440 H     1 <1>   0.0800 
 31 H        1.0840     1.7910    -1.6200 H     1 <1>   0.1500 
 32 H       -0.4650    -2.8120    -0.5640 H     1 <1>   0.4500 
 33 H       -2.0340    -3.0570     1.9220 H     1 <1>   0.0800 
 34 H       -2.3060    -1.9150     0.6310 H     1 <1>   0.0800 
 35 H        1.0580    -4.4510     0.3170 H     1 <1>   0.0800 
 36 H        0.0480    -4.6200     1.7320 H     1 <1>   0.0800 
 37 H       -2.8070    -3.6910    -0.9310 H     1 <1>   0.0800 
 38 H       -3.8110    -3.8570     0.4850 H     1 <1>   0.0800 
 39 H       -0.4150    -6.4190     0.1950 H     1 <1>   0.0800 
 40 H       -0.6890    -5.3100    -1.1190 H     1 <1>   0.0800 
 41 H       -2.3830    -5.5960     1.3910 H     1 <1>   0.0800 
 42 H       -2.8670    -6.2870    -1.4490 H     1 <1>   0.4500 
 43 H       -4.0940    -5.9830    -0.3880 H     1 <1>   0.4500 
 44 H       -3.1190    -7.6860     1.1380 H     1 <1>   0.0800 
 45 H       -4.6670    -8.2450    -1.3820 H     1 <1>   0.0800 
 46 H       -1.8950    -8.4310    -1.5150 H     1 <1>   0.0800 
 47 H       -1.2000    -8.5940     0.0980 H     1 <1>   0.0800 
 48 H       -4.3500    -9.9720     1.0760 H     1 <1>   0.0800 
 49 H       -4.8690   -10.4740    -0.5290 H     1 <1>   0.0800 
 50 H       -2.2590   -10.6230     0.3970 H     1 <1>   0.0800 
 51 H       -2.6740   -10.5540    -1.2980 H     1 <1>   0.0800 
 52 H       -7.4930    -7.4190     0.4180 H     1 <1>   0.0800 
 53 H       -6.9330    -8.5420    -0.8010 H     1 <1>   0.0800 
 54 H       -6.4780    -8.1950     2.9180 H     1 <1>   0.1500 
 55 H       -7.6850   -10.7550    -0.2800 H     1 <1>   0.1500 
 56 H       -6.8540   -10.0210     4.5120 H     1 <1>   0.1500 
 57 H       -8.0540   -12.5690     1.3190 H     1 <1>   0.1500 
 58 H       -7.6370   -12.2110     3.7150 H     1 <1>   0.1500 
@<TRIPOS>BOND
  1   1   2  1   
  2   1   3  1   
  3   2   4  2   
  4   2   5  1   
  5   3   6  2   
  6   3  27  1   
  7   4   6  1   
  8   4  28  1   
  9   5   7  1   
 10   5  29  1   
 11   5  30  1   
 12   6  31  1   
 13   7   8  1   
 14   7   9  1   
 15   7  32  1   
 16   8  10  1   
 17   8  33  1   
 18   8  34  1   
 19   9  11  1   
 20   9  35  1   
 21   9  36  1   
 22  10  12  1   
 23  10  37  1   
 24  10  38  1   
 25  11  12  1   
 26  11  39  1   
 27  11  40  1   
 28  12  13  1   
 29  12  41  1   
 30  13  14  1   
 31  13  42  1   
 32  13  43  1   
 33  14  15  1   
 34  14  16  1   
 35  14  44  1   
 36  15  17  1   
 37  15  18  1   
 38  15  45  1   
 39  16  19  1   
 40  16  46  1   
 41  16  47  1   
 42  17  20  1   
 43  18  19  1   
 44  18  48  1   
 45  18  49  1   
 46  19  50  1   
 47  19  51  1   
 48  20  21  1   
 49  20  52  1   
 50  20  53  1   
 51  21  22  ar  
 52  21  23  ar  
 53  22  24  ar  
 54  22  54  1   
 55  23  25  ar  
 56  23  55  1   
 57  24  26  ar  
 58  24  56  1   
 59  25  26  ar  
 60  25  57  1   
 61  26  58  1   
@<TRIPOS>SUBSTRUCTURE
  1 ****  13 GROUP 4 **** **** 0

# MOE 2024.06 (io_trps.svl 2023.06)
