@<TRIPOS>MOLECULE
NONAME
42 44 1 0 0 
SMALL
USER_CHARGES


@<TRIPOS>ATOM
  1 S       -1.1550    -0.4310     0.4420 S.3   1 <1>  -0.2860 
  2 C       -0.3250     1.1470     0.6490 C.2   1 <1>   0.2420 
  3 C       -1.7930    -0.3250    -1.3030 C.3   1 <1>   0.1310 
  4 N       -0.2390     2.0380    -0.2740 N.2   1 <1>  -0.3380 
  5 N        0.2660     1.5010     1.7890 N.pl3 1 <1>   0.0480 
  6 C       -2.4620    -1.6240    -1.7220 C.2   1 <1>   0.5690 
  7 N        0.4470     3.0530     0.2650 N.2   1 <1>  -0.3380 
  8 C        0.7330     2.7150     1.4790 C.2   1 <1>   0.0360 
  9 C        0.3750     0.7530     3.0540 C.3   1 <1>   0.0160 
 10 O       -3.3560    -1.5860    -2.5310 O.2   1 <1>  -0.5700 
 11 N       -2.0440    -2.8000    -1.1870 N.am  1 <1>  -0.7300 
 12 C       -2.6220    -4.1270    -1.4900 C.3   1 <1>   0.2200 
 13 C       -3.5750    -4.5200    -0.3750 C.3   1 <1>  -0.0800 
 14 C       -1.5420    -5.1970    -1.3700 C.3   1 <1>   0.1200 
 15 C       -2.6200    -5.1120     0.6670 C.3   1 <1>   0.1200 
 16 C       -4.6200    -5.5430    -0.8600 C.3   1 <1>  -0.0160 
 17 O       -1.4770    -5.5380    -0.0170 O.3   1 <1>  -0.5600 
 18 C       -5.5910    -5.9160     0.2500 C.ar  1 <1>  -0.1430 
 19 C       -5.5260    -7.1290     0.9060 C.ar  1 <1>  -0.1500 
 20 C       -6.5900    -5.0560     0.6570 C.ar  1 <1>  -0.1500 
 21 C       -6.4360    -7.4130     1.9110 C.ar  1 <1>   0.1600 
 22 C       -7.4500    -5.4370     1.6740 C.ar  1 <1>   0.1600 
 23 N       -7.3960    -6.5950     2.3120 N.ar  1 <1>  -0.6200 
 24 H       -2.4930     0.4890    -1.3380 H     1 <1>   0.0800 
 25 H       -0.9550    -0.1120    -1.9400 H     1 <1>   0.0800 
 26 H        1.2830     3.3280     2.1700 H     1 <1>   0.1500 
 27 H        0.9070     1.3410     3.7800 H     1 <1>   0.0800 
 28 H        0.9040    -0.1670     2.8790 H     1 <1>   0.0800 
 29 H       -0.6100     0.5330     3.4230 H     1 <1>   0.0800 
 30 H       -1.3370    -2.7960    -0.4460 H     1 <1>   0.3700 
 31 H       -3.0840    -4.1180    -2.4640 H     1 <1>   0.0800 
 32 H       -4.0900    -3.6610     0.0170 H     1 <1>   0.0800 
 33 H       -0.5780    -4.8540    -1.7040 H     1 <1>   0.0800 
 34 H       -1.8210    -6.0810    -1.9150 H     1 <1>   0.0800 
 35 H       -3.0390    -5.9450     1.2030 H     1 <1>   0.0800 
 36 H       -2.3130    -4.3560     1.3690 H     1 <1>   0.0800 
 37 H       -4.1330    -6.4310    -1.2260 H     1 <1>   0.0800 
 38 H       -5.1790    -5.1200    -1.6770 H     1 <1>   0.0800 
 39 H       -4.7780    -7.8560     0.6470 H     1 <1>   0.1500 
 40 H       -6.7090    -4.0940     0.1930 H     1 <1>   0.1500 
 41 H       -6.3700    -8.3630     2.4120 H     1 <1>   0.1500 
 42 H       -8.2230    -4.7520     1.9780 H     1 <1>   0.1500 
@<TRIPOS>BOND
  1   1   2  1   
  2   1   3  1   
  3   2   4  2   
  4   2   5  1   
  5   3   6  1   
  6   3  24  1   
  7   3  25  1   
  8   4   7  1   
  9   5   8  1   
 10   5   9  1   
 11   6  10  2   
 12   6  11  am  
 13   7   8  2   
 14   8  26  1   
 15   9  27  1   
 16   9  28  1   
 17   9  29  1   
 18  11  12  1   
 19  11  30  1   
 20  12  13  1   
 21  12  14  1   
 22  12  31  1   
 23  13  15  1   
 24  13  16  1   
 25  13  32  1   
 26  14  17  1   
 27  14  33  1   
 28  14  34  1   
 29  15  17  1   
 30  15  35  1   
 31  15  36  1   
 32  16  18  1   
 33  16  37  1   
 34  16  38  1   
 35  18  19  ar  
 36  18  20  ar  
 37  19  21  ar  
 38  19  39  1   
 39  20  22  ar  
 40  20  40  1   
 41  21  23  ar  
 42  21  41  1   
 43  22  23  ar  
 44  22  42  1   
@<TRIPOS>SUBSTRUCTURE
  1 ****  11 GROUP 4 **** **** 0

# MOE 2024.06 (io_trps.svl 2023.06)
