@<TRIPOS>MOLECULE
NONAME
59 62 1 0 0 
SMALL
USER_CHARGES


@<TRIPOS>ATOM
  1 O        1.5280     0.4040     2.3710 O.2   1 <1>  -0.5700 
  2 C        1.8920     0.4820     1.2080 C.2   1 <1>   0.5440 
  3 N        1.7650     1.6910     0.5600 N.am  1 <1>  -0.6600 
  4 C        2.4180    -0.6880     0.5450 C.ar  1 <1>   0.0860 
  5 C        1.7350     1.8560    -0.9130 C.3   1 <1>   0.1400 
  6 C        1.2340     2.9010     1.2310 C.3   1 <1>   0.1400 
  7 C        1.7270    -1.9140     0.5940 C.ar  1 <1>   0.4100 
  8 C        3.6190    -0.6510    -0.1510 C.ar  1 <1>  -0.1500 
  9 C        1.3240     3.3060    -1.1440 C.3   1 <1>  -0.1600 
 10 C        0.5690     3.7040     0.1200 C.3   1 <1>  -0.1600 
 11 N        2.1310    -3.0290    -0.0210 N.ar  1 <1>  -0.6200 
 12 N        0.5540    -2.0190     1.3090 N.pl3 1 <1>  -0.8690 
 13 C        4.0440    -1.8000    -0.7760 C.ar  1 <1>  -0.1500 
 14 C        3.2710    -2.9430    -0.6840 C.ar  1 <1>   0.1600 
 15 C        0.0190    -3.2930     1.8360 C.3   1 <1>   0.2090 
 16 C       -0.7170    -4.0460     0.7110 C.3   1 <1>   0.3430 
 17 N       -0.4840    -5.5320     0.7160 N.4   1 <1>  -0.9590 
 18 C        0.9350    -5.8290     0.3450 C.3   1 <1>   0.3430 
 19 C       -1.4400    -6.1990    -0.2140 C.3   1 <1>   0.3430 
 20 C        1.1840    -7.3340     0.4070 C.3   1 <1>  -0.1600 
 21 C       -1.2440    -7.7120    -0.1600 C.3   1 <1>  -0.1600 
 22 C        0.2030    -8.0960    -0.4940 C.3   1 <1>   0.0630 
 23 C        0.4130    -9.6030    -0.3920 C.ar  1 <1>  -0.1440 
 24 C        0.2400   -10.2800     0.8090 C.ar  1 <1>  -0.1500 
 25 C        0.7840   -10.3220    -1.5190 C.ar  1 <1>  -0.1500 
 26 C        0.4340   -11.6490     0.8790 C.ar  1 <1>  -0.1500 
 27 C        0.9790   -11.6900    -1.4500 C.ar  1 <1>  -0.1500 
 28 C        0.8040   -12.3550    -0.2500 C.ar  1 <1>  -0.1500 
 29 H        1.0000     1.1880    -1.3300 H     1 <1>   0.0800 
 30 H        2.6990     1.6590    -1.3490 H     1 <1>   0.0800 
 31 H        2.0560     3.4520     1.6570 H     1 <1>   0.0800 
 32 H        0.5310     2.6480     2.0070 H     1 <1>   0.0800 
 33 H        4.1990     0.2550    -0.1910 H     1 <1>   0.1500 
 34 H        0.7260     3.4170    -2.0310 H     1 <1>   0.0800 
 35 H        2.2100     3.9090    -1.2430 H     1 <1>   0.0800 
 36 H        0.6110     4.7610     0.3110 H     1 <1>   0.0800 
 37 H       -0.4610     3.4010     0.0420 H     1 <1>   0.0800 
 38 H        0.4280    -1.2160     1.9560 H     1 <1>   0.4000 
 39 H        4.9680    -1.8140    -1.3290 H     1 <1>   0.1500 
 40 H        3.6200    -3.8300    -1.1860 H     1 <1>   0.1500 
 41 H       -0.6650    -3.0820     2.6400 H     1 <1>   0.0800 
 42 H        0.8370    -3.8720     2.2270 H     1 <1>   0.0800 
 43 H       -0.3780    -3.6440    -0.2300 H     1 <1>   0.0800 
 44 H       -1.7700    -3.8390     0.7990 H     1 <1>   0.0800 
 45 H       -0.6500    -5.8980     1.6610 H     1 <1>   0.4500 
 46 H        1.6120    -5.3260     1.0160 H     1 <1>   0.0800 
 47 H        1.1330    -5.4670    -0.6510 H     1 <1>   0.0800 
 48 H       -1.2710    -5.8500    -1.2210 H     1 <1>   0.0800 
 49 H       -2.4540    -5.9580     0.0620 H     1 <1>   0.0800 
 50 H        1.1010    -7.6660     1.4260 H     1 <1>   0.0800 
 51 H        2.1900    -7.5380     0.0840 H     1 <1>   0.0800 
 52 H       -1.9040    -8.1790    -0.8700 H     1 <1>   0.0800 
 53 H       -1.5170    -8.0720     0.8160 H     1 <1>   0.0800 
 54 H        0.3950    -7.7970    -1.5120 H     1 <1>   0.0800 
 55 H       -0.0470    -9.7570     1.7020 H     1 <1>   0.1500 
 56 H        0.9270    -9.8280    -2.4640 H     1 <1>   0.1500 
 57 H        0.2980   -12.1670     1.8130 H     1 <1>   0.1500 
 58 H        1.2670   -12.2390    -2.3300 H     1 <1>   0.1500 
 59 H        0.9550   -13.4190    -0.1960 H     1 <1>   0.1500 
@<TRIPOS>BOND
  1   1   2  2   
  2   2   3  am  
  3   2   4  1   
  4   3   5  1   
  5   3   6  1   
  6   4   7  ar  
  7   4   8  ar  
  8   5   9  1   
  9   5  29  1   
 10   5  30  1   
 11   6  10  1   
 12   6  31  1   
 13   6  32  1   
 14   7  11  ar  
 15   7  12  1   
 16   8  13  ar  
 17   8  33  1   
 18   9  10  1   
 19   9  34  1   
 20   9  35  1   
 21  10  36  1   
 22  10  37  1   
 23  11  14  ar  
 24  12  15  1   
 25  12  38  1   
 26  13  14  ar  
 27  13  39  1   
 28  14  40  1   
 29  15  16  1   
 30  15  41  1   
 31  15  42  1   
 32  16  17  1   
 33  16  43  1   
 34  16  44  1   
 35  17  18  1   
 36  17  19  1   
 37  17  45  1   
 38  18  20  1   
 39  18  46  1   
 40  18  47  1   
 41  19  21  1   
 42  19  48  1   
 43  19  49  1   
 44  20  22  1   
 45  20  50  1   
 46  20  51  1   
 47  21  22  1   
 48  21  52  1   
 49  21  53  1   
 50  22  23  1   
 51  22  54  1   
 52  23  24  ar  
 53  23  25  ar  
 54  24  26  ar  
 55  24  55  1   
 56  25  27  ar  
 57  25  56  1   
 58  26  28  ar  
 59  26  57  1   
 60  27  28  ar  
 61  27  58  1   
 62  28  59  1   
@<TRIPOS>SUBSTRUCTURE
  1 ****  11 GROUP 4 **** **** 0

# MOE 2024.06 (io_trps.svl 2023.06)
