@<TRIPOS>MOLECULE
NONAME
50 53 1 0 0 
SMALL
USER_CHARGES


@<TRIPOS>ATOM
  1 O        1.0130    -0.0350    -0.8640 O.3   1 <1>  -0.6800 
  2 C        2.0090    -0.2230    -1.8200 C.3   1 <1>   0.2000 
  3 C        2.5560    -1.6470    -1.7210 C.3   1 <1>  -0.0800 
  4 C        3.2270     0.6150    -1.4200 C.3   1 <1>   0.3430 
  5 C        3.5070    -1.5980    -0.5180 C.3   1 <1>   0.3430 
  6 C        1.5110    -2.7800    -1.6550 C.3   1 <1>  -0.0170 
  7 N        3.9200    -0.1720    -0.3500 N.4   1 <1>  -0.9590 
  8 C        2.1990    -4.1060    -1.3460 C.ar  1 <1>  -0.1440 
  9 C        3.5490     0.3350     0.9950 C.3   1 <1>   0.5240 
 10 C        2.3460    -4.6160    -0.0310 C.ar  1 <1>   0.0000 
 11 C        2.7270    -4.8370    -2.3690 C.ar  1 <1>  -0.1500 
 12 C        4.1550     1.7120     1.1380 C.2   1 <1>  -0.1810 
 13 C        3.0790    -5.8190     0.1250 C.ar  1 <1>   0.3100 
 14 C        1.8170    -4.0130     1.1370 C.ar  1 <1>  -0.1500 
 15 C        3.4140    -6.0280    -2.1060 C.ar  1 <1>   0.1600 
 16 C        3.4620     2.9200     1.0960 C.2   1 <1>   0.1080 
 17 C        5.4520     2.0580     1.3180 C.2   1 <1>  -0.3320 
 18 N        3.6060    -6.5040    -0.9190 N.ar  1 <1>  -0.6200 
 19 C        3.2800    -6.3340     1.4150 C.ar  1 <1>  -0.1500 
 20 C        2.0280    -4.5440     2.3800 C.ar  1 <1>  -0.1500 
 21 N        4.2540     3.9330     1.2170 N.2   1 <1>  -0.7070 
 22 C        1.9700     3.1300     0.9360 C.3   1 <1>  -0.0590 
 23 N        5.4820     3.4080     1.3650 N.pl3 1 <1>   0.3000 
 24 C        6.7040     1.2080     1.4690 C.3   1 <1>  -0.0600 
 25 C        2.7730    -5.7160     2.5250 C.ar  1 <1>  -0.1500 
 26 H        0.1350    -0.3040    -1.2120 H     1 <1>   0.4000 
 27 H        1.6250     0.0400    -2.7920 H     1 <1>   0.0800 
 28 H        3.1690    -1.8250    -2.5880 H     1 <1>   0.0800 
 29 H        2.9380     1.5990    -1.0910 H     1 <1>   0.0800 
 30 H        3.8800     0.7110    -2.2720 H     1 <1>   0.0800 
 31 H        4.3580    -2.2410    -0.6790 H     1 <1>   0.0800 
 32 H        2.9840    -1.9300     0.3630 H     1 <1>   0.0800 
 33 H        1.0160    -2.8540    -2.6090 H     1 <1>   0.0800 
 34 H        0.7430    -2.5800    -0.9330 H     1 <1>   0.0800 
 35 H        4.9350    -0.0410    -0.4340 H     1 <1>   0.4500 
 36 H        2.4780     0.3770     1.1030 H     1 <1>   0.0800 
 37 H        3.9510    -0.3080     1.7600 H     1 <1>   0.0800 
 38 H        2.6400    -4.5270    -3.3950 H     1 <1>   0.1500 
 39 H        1.2240    -3.1230     1.0630 H     1 <1>   0.1500 
 40 H        3.8140    -6.5780    -2.9420 H     1 <1>   0.1500 
 41 H        3.8480    -7.2420     1.5010 H     1 <1>   0.1500 
 42 H        1.6200    -4.0780     3.2620 H     1 <1>   0.1500 
 43 H        1.4380     2.2020     0.8600 H     1 <1>   0.0800 
 44 H        1.7840     3.7150     0.0540 H     1 <1>   0.0800 
 45 H        1.5980     3.6740     1.7850 H     1 <1>   0.0800 
 46 H        6.3120     4.0000     1.5030 H     1 <1>   0.2700 
 47 H        6.4660     0.1600     1.4600 H     1 <1>   0.0800 
 48 H        7.1890     1.4330     2.4040 H     1 <1>   0.0800 
 49 H        7.3940     1.4140     0.6690 H     1 <1>   0.0800 
 50 H        2.9340    -6.1250     3.5080 H     1 <1>   0.1500 
@<TRIPOS>BOND
  1   1   2  1   
  2   1  26  1   
  3   2   3  1   
  4   2   4  1   
  5   2  27  1   
  6   3   5  1   
  7   3   6  1   
  8   3  28  1   
  9   4   7  1   
 10   4  29  1   
 11   4  30  1   
 12   5   7  1   
 13   5  31  1   
 14   5  32  1   
 15   6   8  1   
 16   6  33  1   
 17   6  34  1   
 18   7   9  1   
 19   7  35  1   
 20   8  10  ar  
 21   8  11  ar  
 22   9  12  1   
 23   9  36  1   
 24   9  37  1   
 25  10  13  ar  
 26  10  14  ar  
 27  11  15  ar  
 28  11  38  1   
 29  12  16  1   
 30  12  17  2   
 31  13  18  ar  
 32  13  19  ar  
 33  14  20  ar  
 34  14  39  1   
 35  15  18  ar  
 36  15  40  1   
 37  16  21  2   
 38  16  22  1   
 39  17  23  1   
 40  17  24  1   
 41  19  25  ar  
 42  19  41  1   
 43  20  25  ar  
 44  20  42  1   
 45  21  23  1   
 46  22  43  1   
 47  22  44  1   
 48  22  45  1   
 49  23  46  1   
 50  24  47  1   
 51  24  48  1   
 52  24  49  1   
 53  25  50  1   
@<TRIPOS>SUBSTRUCTURE
  1 ****   5 GROUP 4 **** **** 0

# MOE 2024.06 (io_trps.svl 2023.06)
