@<TRIPOS>MOLECULE
NONAME
54 57 1 0 0 
SMALL
USER_CHARGES


@<TRIPOS>ATOM
  1 O       -0.1110     1.0770    -0.4440 O.3   1 <1>  -0.0190 
  2 N        0.4280    -0.0360    -0.0390 N.2   1 <1>  -0.4100 
  3 C        0.7790     2.0190    -0.6140 C.2   1 <1>  -0.0400 
  4 C        1.6880     0.1900     0.0510 C.2   1 <1>   0.1080 
  5 C        1.9810     1.5030    -0.3080 C.2   1 <1>  -0.1500 
  6 C        0.3120     3.3870    -1.0860 C.3   1 <1>   0.0200 
  7 C        2.7050    -0.8400     0.4890 C.3   1 <1>  -0.0590 
  8 C        1.4140     4.4610    -1.0020 C.3   1 <1>  -0.0800 
  9 C        1.0420     5.8200    -1.6020 C.3   1 <1>   0.2000 
 10 C        1.8510     4.7820     0.4390 C.3   1 <1>   0.1100 
 11 O       -0.2670     6.1280    -1.2810 O.3   1 <1>  -0.6800 
 12 C        1.9290     6.7740    -0.8140 C.3   1 <1>   0.1100 
 13 N        1.8680     6.2470     0.5560 N.3   1 <1>  -0.8100 
 14 C        2.9470     6.7620     1.4420 C.3   1 <1>   0.2530 
 15 C        2.9520     8.2870     1.6190 C.ar  1 <1>   0.4770 
 16 N        3.6850     8.9840     0.7860 N.ar  1 <1>  -0.6200 
 17 N        2.2360     8.7800     2.5930 N.ar  1 <1>  -0.6200 
 18 C        3.6340    10.2830     0.9780 C.ar  1 <1>   0.7200 
 19 C        2.2890    10.0810     2.6780 C.ar  1 <1>   0.7200 
 20 N        2.9500    10.8910     1.9110 N.ar  1 <1>  -0.6200 
 21 N        4.3980    11.0020     0.1080 N.pl3 1 <1>  -0.6000 
 22 N        1.5700    10.6370     3.6520 N.pl3 1 <1>  -0.9000 
 23 C        4.5550    12.3760    -0.1120 C.ar  1 <1>   0.1000 
 24 C        5.7860    12.8500    -0.5510 C.ar  1 <1>  -0.1500 
 25 C        3.5200    13.2880     0.0640 C.ar  1 <1>  -0.1500 
 26 C        5.9900    14.1960    -0.8030 C.ar  1 <1>  -0.1440 
 27 C        3.7140    14.6340    -0.1850 C.ar  1 <1>  -0.1500 
 28 C        4.9470    15.0880    -0.6180 C.ar  1 <1>  -0.1500 
 29 C        7.3410    14.7010    -1.2800 C.3   1 <1>  -0.0970 
 30 H        2.9560     1.9490    -0.3240 H     1 <1>   0.1500 
 31 H       -0.0300     3.3000    -2.1020 H     1 <1>   0.0800 
 32 H       -0.5300     3.6820    -0.4840 H     1 <1>   0.0800 
 33 H        3.4770    -0.9300    -0.2530 H     1 <1>   0.0800 
 34 H        2.2290    -1.7960     0.6110 H     1 <1>   0.0800 
 35 H        3.1420    -0.5470     1.4250 H     1 <1>   0.0800 
 36 H        2.2770     4.1030    -1.5340 H     1 <1>   0.0800 
 37 H        1.1680     5.8800    -2.6700 H     1 <1>   0.0800 
 38 H        2.8280     4.3670     0.6250 H     1 <1>   0.0800 
 39 H        1.1590     4.3780     1.1590 H     1 <1>   0.0800 
 40 H       -0.2750     6.3140    -0.3160 H     1 <1>   0.4000 
 41 H        1.5740     7.7900    -0.8680 H     1 <1>   0.0800 
 42 H        2.9380     6.7260    -1.1860 H     1 <1>   0.0800 
 43 H        2.8330     6.3170     2.4150 H     1 <1>   0.0800 
 44 H        3.9040     6.4610     1.0540 H     1 <1>   0.0800 
 45 H        4.9930    10.3920    -0.4430 H     1 <1>   0.4000 
 46 H        1.4200    11.6410     3.6120 H     1 <1>   0.4000 
 47 H        0.8550    10.0650     4.0950 H     1 <1>   0.4000 
 48 H        6.5920    12.1540    -0.6920 H     1 <1>   0.1500 
 49 H        2.5570    12.9440     0.3910 H     1 <1>   0.1500 
 50 H        2.9050    15.3290    -0.0420 H     1 <1>   0.1500 
 51 H        5.0900    16.1370    -0.8100 H     1 <1>   0.1500 
 52 H        7.6070    15.5990    -0.7510 H     1 <1>   0.0800 
 53 H        7.2980    14.9170    -2.3320 H     1 <1>   0.0800 
 54 H        8.1060    13.9660    -1.1080 H     1 <1>   0.0800 
@<TRIPOS>BOND
  1   1   2  1   
  2   1   3  1   
  3   2   4  2   
  4   3   5  2   
  5   3   6  1   
  6   4   5  1   
  7   4   7  1   
  8   5  30  1   
  9   6   8  1   
 10   6  31  1   
 11   6  32  1   
 12   7  33  1   
 13   7  34  1   
 14   7  35  1   
 15   8   9  1   
 16   8  10  1   
 17   8  36  1   
 18   9  11  1   
 19   9  12  1   
 20   9  37  1   
 21  10  13  1   
 22  10  38  1   
 23  10  39  1   
 24  11  40  1   
 25  12  13  1   
 26  12  41  1   
 27  12  42  1   
 28  13  14  1   
 29  14  15  1   
 30  14  43  1   
 31  14  44  1   
 32  15  16  ar  
 33  15  17  ar  
 34  16  18  ar  
 35  17  19  ar  
 36  18  20  ar  
 37  18  21  1   
 38  19  20  ar  
 39  19  22  1   
 40  21  23  1   
 41  21  45  1   
 42  22  46  1   
 43  22  47  1   
 44  23  24  ar  
 45  23  25  ar  
 46  24  26  ar  
 47  24  48  1   
 48  25  27  ar  
 49  25  49  1   
 50  26  28  ar  
 51  26  29  1   
 52  27  28  ar  
 53  27  50  1   
 54  28  51  1   
 55  29  52  1   
 56  29  53  1   
 57  29  54  1   
@<TRIPOS>SUBSTRUCTURE
  1 ****  15 GROUP 4 **** **** 0

# MOE 2024.06 (io_trps.svl 2023.06)
