@<TRIPOS>MOLECULE
NONAME
50 51 1 0 0 
SMALL
USER_CHARGES


@<TRIPOS>ATOM
  1 S        0.4790     0.7530    -0.7760 S.o2  1 <1>   1.3330 
  2 O        0.5050    -0.6040    -1.2740 O.2   1 <1>  -0.6500 
  3 O       -0.4950     1.6860    -1.2940 O.2   1 <1>  -0.6500 
  4 N        0.2530     0.6820     0.9060 N.am  1 <1>  -0.8490 
  5 C        2.1210     1.4480    -0.9710 C.3   1 <1>  -0.0550 
  6 C       -0.0010     1.9930     1.5170 C.3   1 <1>   0.1160 
  7 C       -0.8160    -0.2510     1.2710 C.3   1 <1>   0.1160 
  8 C        3.2750     0.5160    -0.5340 C.3   1 <1>  -0.0800 
  9 C        4.6690     1.0880    -0.7450 C.3   1 <1>   0.2200 
 10 C        3.2910     0.1510     0.9540 C.3   1 <1>   0.1200 
 11 N        4.7100     2.5010    -0.3050 N.am  1 <1>  -0.7300 
 12 C        5.4730     0.2400     0.2320 C.3   1 <1>   0.1200 
 13 O        4.6330     0.0310     1.3280 O.3   1 <1>  -0.5600 
 14 C        4.6950     3.5960    -1.1170 C.2   1 <1>   0.6160 
 15 O        4.8770     3.4200    -2.3060 O.2   1 <1>  -0.5700 
 16 C        4.4700     4.9220    -0.6030 C.2   1 <1>   0.0290 
 17 C        3.6810     5.1060     0.5800 C.2   1 <1>   0.6160 
 18 C        4.9750     6.0420    -1.2200 C.2   1 <1>  -0.1500 
 19 O        3.1390     4.2050     1.2090 O.2   1 <1>  -0.5700 
 20 N        3.4960     6.3760     1.0530 N.am  1 <1>  -0.5390 
 21 C        4.7460     7.3300    -0.6930 C.2   1 <1>  -0.1500 
 22 C        4.0070     7.4930     0.4430 C.2   1 <1>  -0.0290 
 23 C        3.6920     8.8350     1.1120 C.3   1 <1>   0.0580 
 24 C        3.9280    10.0450     0.1990 C.3   1 <1>  -0.2400 
 25 C        4.5140     8.9870     2.3960 C.3   1 <1>  -0.2400 
 26 H        2.2650     1.6860    -2.0070 H     1 <1>   0.0800 
 27 H        2.1680     2.3690    -0.4280 H     1 <1>   0.0800 
 28 H       -0.0790     1.8930     2.5860 H     1 <1>   0.0800 
 29 H       -0.9170     2.4160     1.1370 H     1 <1>   0.0800 
 30 H        0.8070     2.6710     1.3040 H     1 <1>   0.0800 
 31 H       -0.9220    -0.2970     2.3420 H     1 <1>   0.0800 
 32 H       -0.5800    -1.2400     0.9140 H     1 <1>   0.0800 
 33 H       -1.7500     0.0610     0.8340 H     1 <1>   0.0800 
 34 H        3.2000    -0.4020    -1.0920 H     1 <1>   0.0800 
 35 H        5.0190     0.9870    -1.7580 H     1 <1>   0.0800 
 36 H        2.7850    -0.7790     1.1480 H     1 <1>   0.0800 
 37 H        2.8610     0.9310     1.5580 H     1 <1>   0.0800 
 38 H        4.4450     2.6310     0.6800 H     1 <1>   0.3700 
 39 H        6.3780     0.7230     0.5540 H     1 <1>   0.0800 
 40 H        5.6990    -0.7210    -0.1960 H     1 <1>   0.0800 
 41 H        5.5600     5.9520    -2.1200 H     1 <1>   0.1500 
 42 H        2.9390     6.4390     1.9060 H     1 <1>   0.3700 
 43 H        5.1760     8.1640    -1.2190 H     1 <1>   0.1500 
 44 H        2.6470     8.8340     1.3750 H     1 <1>   0.0800 
 45 H        4.9720    10.1520    -0.0350 H     1 <1>   0.0800 
 46 H        3.5960    10.9450     0.6850 H     1 <1>   0.0800 
 47 H        3.3730     9.9330    -0.7160 H     1 <1>   0.0800 
 48 H        5.5660     8.9790     2.1690 H     1 <1>   0.0800 
 49 H        4.3070     8.1800     3.0750 H     1 <1>   0.0800 
 50 H        4.2750     9.9130     2.8880 H     1 <1>   0.0800 
@<TRIPOS>BOND
  1   1   2  2   
  2   1   3  2   
  3   1   4  am  
  4   1   5  1   
  5   4   6  1   
  6   4   7  1   
  7   5   8  1   
  8   5  26  1   
  9   5  27  1   
 10   6  28  1   
 11   6  29  1   
 12   6  30  1   
 13   7  31  1   
 14   7  32  1   
 15   7  33  1   
 16   8   9  1   
 17   8  10  1   
 18   8  34  1   
 19   9  11  1   
 20   9  12  1   
 21   9  35  1   
 22  10  13  1   
 23  10  36  1   
 24  10  37  1   
 25  11  14  am  
 26  11  38  1   
 27  12  13  1   
 28  12  39  1   
 29  12  40  1   
 30  14  15  2   
 31  14  16  1   
 32  16  17  1   
 33  16  18  2   
 34  17  19  2   
 35  17  20  am  
 36  18  21  1   
 37  18  41  1   
 38  20  22  1   
 39  20  42  1   
 40  21  22  2   
 41  21  43  1   
 42  22  23  1   
 43  23  24  1   
 44  23  25  1   
 45  23  44  1   
 46  24  45  1   
 47  24  46  1   
 48  24  47  1   
 49  25  48  1   
 50  25  49  1   
 51  25  50  1   
@<TRIPOS>SUBSTRUCTURE
  1 ****  19 GROUP 4 **** **** 0

# MOE 2024.06 (io_trps.svl 2023.06)
