@<TRIPOS>MOLECULE
NONAME
47 50 1 0 0 
SMALL
USER_CHARGES


@<TRIPOS>ATOM
  1 S       -1.1380    -1.0670    -1.1420 S.3   1 <1>  -0.1120 
  2 C       -0.6860     0.4950    -0.3640 C.2   1 <1>   0.2420 
  3 C       -1.2300    -2.3060     0.1630 C.2   1 <1>   0.1960 
  4 N       -0.6610     0.7140     0.9030 N.2   1 <1>  -0.3380 
  5 N       -0.3520     1.5620    -1.0890 N.pl3 1 <1>   0.0480 
  6 O       -1.8470    -3.4280    -0.1430 O.3   1 <1>  -0.2800 
  7 C       -0.7670    -2.3200     1.4300 C.2   1 <1>  -0.1500 
  8 N       -0.2860     1.9890     1.0490 N.2   1 <1>  -0.3380 
  9 C       -0.1100     2.4690    -0.1370 C.2   1 <1>   0.0360 
 10 C       -0.2670     1.7130    -2.5540 C.3   1 <1>   0.0160 
 11 C       -1.8070    -4.1940     0.9360 C.2   1 <1>  -0.0400 
 12 C       -1.1510    -3.5680     1.9400 C.2   1 <1>  -0.1500 
 13 C       -2.4610    -5.5640     0.8920 C.3   1 <1>   0.5230 
 14 N       -3.9410    -5.4090     0.7350 N.4   1 <1>  -0.9590 
 15 C       -4.3140    -4.9230    -0.6390 C.3   1 <1>   0.3430 
 16 C       -4.6440    -6.7070     0.9500 C.3   1 <1>   0.3430 
 17 C       -5.3320    -5.9280    -1.1960 C.3   1 <1>   0.2000 
 18 C       -5.0330    -7.2200    -0.4400 C.3   1 <1>  -0.0800 
 19 O       -6.6240    -5.5180    -0.8890 O.3   1 <1>  -0.6800 
 20 C       -3.9100    -8.0160    -1.1490 C.3   1 <1>  -0.0170 
 21 C       -3.2670    -9.0700    -0.2620 C.ar  1 <1>   0.1670 
 22 N       -2.3210    -8.6420     0.5640 N.ar  1 <1>  -0.6200 
 23 C       -3.6720   -10.4010    -0.3510 C.ar  1 <1>   0.1600 
 24 C       -1.8010    -9.6360     1.2730 C.ar  1 <1>   0.1600 
 25 N       -3.1660   -11.3830     0.3730 N.ar  1 <1>  -0.6200 
 26 C       -2.2110   -10.9610     1.1810 C.ar  1 <1>   0.1600 
 27 H       -0.2190    -1.5660     1.9670 H     1 <1>   0.1500 
 28 H        0.1950     3.4780    -0.3480 H     1 <1>   0.1500 
 29 H        0.0460     2.7120    -2.7990 H     1 <1>   0.0800 
 30 H       -1.2320     1.5230    -2.9890 H     1 <1>   0.0800 
 31 H        0.4470     1.0100    -2.9440 H     1 <1>   0.0800 
 32 H       -0.9370    -3.9050     2.9410 H     1 <1>   0.1500 
 33 H       -2.2430    -6.0860     1.8100 H     1 <1>   0.0800 
 34 H       -2.0510    -6.1380     0.0770 H     1 <1>   0.0800 
 35 H       -4.2350    -4.7100     1.4300 H     1 <1>   0.4500 
 36 H       -4.7260    -3.9270    -0.6170 H     1 <1>   0.0800 
 37 H       -3.4400    -4.9200    -1.2710 H     1 <1>   0.0800 
 38 H       -4.0410    -7.4110     1.4990 H     1 <1>   0.0800 
 39 H       -5.5450    -6.5310     1.5150 H     1 <1>   0.0800 
 40 H       -5.2670    -6.0300    -2.2670 H     1 <1>   0.0800 
 41 H       -5.9050    -7.8500    -0.3740 H     1 <1>   0.0800 
 42 H       -6.7670    -5.3450     0.0610 H     1 <1>   0.4000 
 43 H       -3.1310    -7.3570    -1.4920 H     1 <1>   0.0800 
 44 H       -4.3190    -8.4890    -2.0250 H     1 <1>   0.0800 
 45 H       -4.4470   -10.6700    -1.0480 H     1 <1>   0.1500 
 46 H       -1.0090    -9.3980     1.9620 H     1 <1>   0.1500 
 47 H       -1.7300   -11.6990     1.8000 H     1 <1>   0.1500 
@<TRIPOS>BOND
  1   1   2  1   
  2   1   3  1   
  3   2   4  2   
  4   2   5  1   
  5   3   6  1   
  6   3   7  2   
  7   4   8  1   
  8   5   9  1   
  9   5  10  1   
 10   6  11  1   
 11   7  12  1   
 12   7  27  1   
 13   8   9  2   
 14   9  28  1   
 15  10  29  1   
 16  10  30  1   
 17  10  31  1   
 18  11  12  2   
 19  11  13  1   
 20  12  32  1   
 21  13  14  1   
 22  13  33  1   
 23  13  34  1   
 24  14  15  1   
 25  14  16  1   
 26  14  35  1   
 27  15  17  1   
 28  15  36  1   
 29  15  37  1   
 30  16  18  1   
 31  16  38  1   
 32  16  39  1   
 33  17  18  1   
 34  17  19  1   
 35  17  40  1   
 36  18  20  1   
 37  18  41  1   
 38  19  42  1   
 39  20  21  1   
 40  20  43  1   
 41  20  44  1   
 42  21  22  ar  
 43  21  23  ar  
 44  22  24  ar  
 45  23  25  ar  
 46  23  45  1   
 47  24  26  ar  
 48  24  46  1   
 49  25  26  ar  
 50  26  47  1   
@<TRIPOS>SUBSTRUCTURE
  1 ****  11 GROUP 4 **** **** 0

# MOE 2024.06 (io_trps.svl 2023.06)
