@<TRIPOS>MOLECULE
NONAME
51 54 1 0 0 
SMALL
USER_CHARGES


@<TRIPOS>ATOM
  1 O       -1.8270    -1.3950     1.7950 O.co2 1 <1>  -0.9000 
  2 C       -1.7140    -0.8390     0.6990 C.2   1 <1>   0.9060 
  3 O       -1.1370     0.2370     0.5230 O.co2 1 <1>  -0.9000 
  4 C       -2.4790    -1.4440    -0.4830 C.3   1 <1>   0.2370 
  5 N       -3.9520    -1.0620    -0.5480 N.4   1 <1>  -0.9590 
  6 C       -4.6260    -1.4980     0.7220 C.3   1 <1>   0.3430 
  7 C       -4.0630     0.4190    -0.7040 C.3   1 <1>   0.3430 
  8 C       -6.1700    -1.4520     0.6360 C.3   1 <1>   0.2200 
  9 C       -5.5010     0.8820    -1.0080 C.3   1 <1>  -0.0800 
 10 N       -6.6840    -1.4030    -0.7900 N.am  1 <1>  -0.6600 
 11 C       -6.7500    -0.3110     1.4850 C.3   1 <1>   0.1200 
 12 C       -6.1640     1.5810     0.1880 C.3   1 <1>   0.1200 
 13 C       -6.4080    -0.1920    -1.6340 C.3   1 <1>   0.1400 
 14 C       -7.5400    -2.3510    -1.3080 C.2   1 <1>   0.5690 
 15 O       -5.9960     0.8560     1.3590 O.3   1 <1>  -0.5600 
 16 O       -7.8450    -2.3190    -2.4770 O.2   1 <1>  -0.5700 
 17 C       -8.1550    -3.4770    -0.4560 C.3   1 <1>   0.1710 
 18 N       -8.9090    -3.0160     0.7500 N.3   1 <1>  -0.8100 
 19 C       -9.3850    -4.1920     1.5220 C.3   1 <1>   0.2530 
 20 C      -10.1380    -2.2960     0.3210 C.3   1 <1>   0.2530 
 21 C      -10.7730    -4.4520     0.9980 C.ar  1 <1>  -0.1430 
 22 C      -11.2080    -3.3560     0.3050 C.ar  1 <1>  -0.1430 
 23 C      -11.5730    -5.5720     1.1310 C.ar  1 <1>  -0.1500 
 24 C      -12.4580    -3.3390    -0.2860 C.ar  1 <1>  -0.1500 
 25 C      -12.8300    -5.5670     0.5450 C.ar  1 <1>  -0.1500 
 26 C      -13.2700    -4.4560    -0.1600 C.ar  1 <1>  -0.1500 
 27 H       -2.3830    -2.5110    -0.4030 H     1 <1>   0.0800 
 28 H       -1.9790    -1.1240    -1.3780 H     1 <1>   0.0800 
 29 H       -4.4350    -1.5280    -1.3250 H     1 <1>   0.4500 
 30 H       -4.3290    -2.5080     0.9460 H     1 <1>   0.0800 
 31 H       -4.2870    -0.8880     1.5460 H     1 <1>   0.0800 
 32 H       -3.7020     0.9070     0.1890 H     1 <1>   0.0800 
 33 H       -3.4230     0.7260    -1.5150 H     1 <1>   0.0800 
 34 H       -6.5110    -2.3550     1.1040 H     1 <1>   0.0800 
 35 H       -5.4060     1.6510    -1.7540 H     1 <1>   0.0800 
 36 H       -6.7050    -0.5910     2.5230 H     1 <1>   0.0800 
 37 H       -7.7790    -0.1160     1.2340 H     1 <1>   0.0800 
 38 H       -7.2150     1.7490     0.0230 H     1 <1>   0.0800 
 39 H       -5.6930     2.5360     0.3520 H     1 <1>   0.0800 
 40 H       -5.9710    -0.5190    -2.5630 H     1 <1>   0.0800 
 41 H       -7.3540     0.2600    -1.8840 H     1 <1>   0.0800 
 42 H       -7.3540    -4.1240    -0.1490 H     1 <1>   0.0800 
 43 H       -8.8100    -4.0560    -1.0860 H     1 <1>   0.0800 
 44 H       -8.7450    -5.0490     1.3960 H     1 <1>   0.0800 
 45 H       -9.4420    -3.9390     2.5670 H     1 <1>   0.0800 
 46 H      -10.3910    -1.5480     1.0530 H     1 <1>   0.0800 
 47 H      -10.0310    -1.8290    -0.6430 H     1 <1>   0.0800 
 48 H      -11.2300    -6.4330     1.6780 H     1 <1>   0.1500 
 49 H      -12.7960    -2.4770    -0.8330 H     1 <1>   0.1500 
 50 H      -13.4670    -6.4290     0.6370 H     1 <1>   0.1500 
 51 H      -14.2460    -4.4610    -0.6130 H     1 <1>   0.1500 
@<TRIPOS>BOND
  1   1   2  ar  
  2   2   3  ar  
  3   2   4  1   
  4   4   5  1   
  5   4  27  1   
  6   4  28  1   
  7   5   6  1   
  8   5   7  1   
  9   5  29  1   
 10   6   8  1   
 11   6  30  1   
 12   6  31  1   
 13   7   9  1   
 14   7  32  1   
 15   7  33  1   
 16   8  10  1   
 17   8  11  1   
 18   8  34  1   
 19   9  12  1   
 20   9  13  1   
 21   9  35  1   
 22  10  13  1   
 23  10  14  am  
 24  11  15  1   
 25  11  36  1   
 26  11  37  1   
 27  12  15  1   
 28  12  38  1   
 29  12  39  1   
 30  13  40  1   
 31  13  41  1   
 32  14  16  2   
 33  14  17  1   
 34  17  18  1   
 35  17  42  1   
 36  17  43  1   
 37  18  19  1   
 38  18  20  1   
 39  19  21  1   
 40  19  44  1   
 41  19  45  1   
 42  20  22  1   
 43  20  46  1   
 44  20  47  1   
 45  21  22  ar  
 46  21  23  ar  
 47  22  24  ar  
 48  23  25  ar  
 49  23  48  1   
 50  24  26  ar  
 51  24  49  1   
 52  25  26  ar  
 53  25  50  1   
 54  26  51  1   
@<TRIPOS>SUBSTRUCTURE
  1 ****  10 GROUP 4 **** **** 0

# MOE 2024.06 (io_trps.svl 2023.06)
