@<TRIPOS>MOLECULE
NONAME
50 52 1 0 0 
SMALL
USER_CHARGES


@<TRIPOS>ATOM
  1 F       -0.1840    -0.6660    -0.6320 F     1 <1>  -0.3400 
  2 C        0.6210    -1.7030    -0.8260 C.3   1 <1>   0.8800 
  3 F        1.2100    -1.4920    -1.9940 F     1 <1>  -0.3400 
  4 O       -0.1640    -2.8680    -0.9400 O.3   1 <1>  -0.3630 
  5 C       -0.6100    -3.5130     0.1640 C.ar  1 <1>   0.0830 
  6 C       -1.0610    -4.8090    -0.0160 C.ar  1 <1>  -0.1500 
  7 C       -0.6320    -2.9480     1.4360 C.ar  1 <1>  -0.1500 
  8 C       -1.5350    -5.5780     1.0460 C.ar  1 <1>   0.0860 
  9 C       -1.0890    -3.6950     2.5070 C.ar  1 <1>  -0.1500 
 10 C       -2.0080    -6.9400     0.8570 C.2   1 <1>   0.5440 
 11 C       -1.5290    -4.9910     2.3120 C.ar  1 <1>  -0.1500 
 12 O       -1.8700    -7.7700     1.7370 O.2   1 <1>  -0.5700 
 13 N       -2.6570    -7.3450    -0.2900 N.am  1 <1>  -0.6600 
 14 C       -2.7640    -8.7970    -0.5820 C.3   1 <1>   0.1400 
 15 C       -3.7780    -6.5440    -0.8520 C.3   1 <1>   0.1400 
 16 C       -4.0510    -9.3370     0.0800 C.3   1 <1>   0.4230 
 17 C       -5.0890    -7.0560    -0.2360 C.3   1 <1>  -0.1600 
 18 N       -4.1720   -10.8540     0.0600 N.4   1 <1>  -0.9590 
 19 C       -5.3230    -8.5860    -0.4210 C.3   1 <1>   0.0000 
 20 C       -5.5590   -11.3610     0.3130 C.3   1 <1>   0.3430 
 21 C       -3.5840   -11.5350    -1.1400 C.3   1 <1>   0.2630 
 22 C       -6.5440    -9.0150     0.4470 C.3   1 <1>  -0.1600 
 23 C       -5.5800    -8.9130    -1.9200 C.3   1 <1>   0.1200 
 24 C       -6.3580   -10.3700     1.1580 C.3   1 <1>  -0.1600 
 25 O       -6.5980    -8.1360    -2.4500 O.3   1 <1>  -0.6800 
 26 H        1.3590    -1.7610    -0.0460 H     1 <1>   0.0800 
 27 H       -1.0360    -5.2310    -1.0050 H     1 <1>   0.1500 
 28 H       -0.3120    -1.9380     1.6190 H     1 <1>   0.1500 
 29 H       -1.1030    -3.2670     3.4950 H     1 <1>   0.1500 
 30 H       -1.8760    -5.5650     3.1550 H     1 <1>   0.1500 
 31 H       -2.7700    -8.9390    -1.6460 H     1 <1>   0.0800 
 32 H       -1.9040    -9.3020    -0.1750 H     1 <1>   0.0800 
 33 H       -3.6530    -5.5000    -0.6160 H     1 <1>   0.0800 
 34 H       -3.7960    -6.6410    -1.9250 H     1 <1>   0.0800 
 35 H       -3.9560    -9.0610     1.1190 H     1 <1>   0.0800 
 36 H       -5.0570    -6.8180     0.8140 H     1 <1>   0.0800 
 37 H       -5.9080    -6.4930    -0.6490 H     1 <1>   0.0800 
 38 H       -3.6100   -11.1520     0.8730 H     1 <1>   0.4500 
 39 H       -6.0730   -11.5010    -0.6240 H     1 <1>   0.0800 
 40 H       -5.5150   -12.3160     0.8130 H     1 <1>   0.0800 
 41 H       -4.0970   -11.2310    -2.0370 H     1 <1>   0.0800 
 42 H       -3.6710   -12.6050    -1.0410 H     1 <1>   0.0800 
 43 H       -2.5380   -11.2910    -1.2390 H     1 <1>   0.0800 
 44 H       -6.7430    -8.2810     1.2100 H     1 <1>   0.0800 
 45 H       -7.4320    -9.0590    -0.1580 H     1 <1>   0.0800 
 46 H       -5.8600    -9.9420    -2.0580 H     1 <1>   0.0800 
 47 H       -4.7100    -8.7150    -2.5200 H     1 <1>   0.0800 
 48 H       -7.3260   -10.7890     1.3750 H     1 <1>   0.0800 
 49 H       -5.8590   -10.2290     2.1010 H     1 <1>   0.0800 
 50 H       -7.4530    -8.2880    -2.0010 H     1 <1>   0.4000 
@<TRIPOS>BOND
  1   1   2  1   
  2   2   3  1   
  3   2   4  1   
  4   2  26  1   
  5   4   5  1   
  6   5   6  ar  
  7   5   7  ar  
  8   6   8  ar  
  9   6  27  1   
 10   7   9  ar  
 11   7  28  1   
 12   8  10  1   
 13   8  11  ar  
 14   9  11  ar  
 15   9  29  1   
 16  10  12  2   
 17  10  13  am  
 18  11  30  1   
 19  13  14  1   
 20  13  15  1   
 21  14  16  1   
 22  14  31  1   
 23  14  32  1   
 24  15  17  1   
 25  15  33  1   
 26  15  34  1   
 27  16  18  1   
 28  16  19  1   
 29  16  35  1   
 30  17  19  1   
 31  17  36  1   
 32  17  37  1   
 33  18  20  1   
 34  18  21  1   
 35  18  38  1   
 36  19  22  1   
 37  19  23  1   
 38  20  24  1   
 39  20  39  1   
 40  20  40  1   
 41  21  41  1   
 42  21  42  1   
 43  21  43  1   
 44  22  24  1   
 45  22  44  1   
 46  22  45  1   
 47  23  25  1   
 48  23  46  1   
 49  23  47  1   
 50  24  48  1   
 51  24  49  1   
 52  25  50  1   
@<TRIPOS>SUBSTRUCTURE
  1 ****  13 GROUP 4 **** **** 0

# MOE 2024.06 (io_trps.svl 2023.06)
