@<TRIPOS>MOLECULE
NONAME
51 54 1 0 0 
SMALL
USER_CHARGES


@<TRIPOS>ATOM
  1 S       -0.2990     0.5820     1.7230 S.3   1 <1>  -0.0800 
  2 C        0.1640     0.0520     0.1380 C.2   1 <1>  -0.1400 
  3 C       -1.3000     1.8120     0.9750 C.2   1 <1>   0.1980 
  4 C       -0.4490     0.8070    -0.7780 C.2   1 <1>   0.0460 
  5 C        1.0980    -1.1170    -0.0810 C.3   1 <1>   0.0200 
  6 N       -1.2590     1.8280    -0.3030 N.2   1 <1>  -0.5650 
  7 C       -2.0940     2.7100     1.9040 C.3   1 <1>   0.0200 
  8 C       -0.2930     0.5490    -2.2660 C.3   1 <1>   0.0210 
  9 C        1.5180    -1.1420    -1.5640 C.3   1 <1>  -0.1600 
 10 C       -2.3340     4.1010     1.3050 C.3   1 <1>   0.2090 
 11 C        0.3380    -0.8390    -2.5150 C.3   1 <1>  -0.1600 
 12 N       -1.1180     4.9590     1.3910 N.pl3 1 <1>  -0.8690 
 13 C       -0.0550     5.1010     0.5890 C.ar  1 <1>   0.7710 
 14 N        0.7370     6.1160     0.8640 N.ar  1 <1>  -0.6200 
 15 N        0.1750     4.2480    -0.4210 N.ar  1 <1>  -0.1790 
 16 C        1.7890     6.3110     0.0880 C.ar  1 <1>   0.4100 
 17 C        1.2550     4.3890    -1.2200 C.ar  1 <1>   0.2110 
 18 N        2.5780     7.3880     0.3470 N.pl3 1 <1>  -0.8380 
 19 C        2.0840     5.4310    -0.9740 C.ar  1 <1>  -0.1500 
 20 C        3.3130     8.1640    -0.7080 C.3   1 <1>   0.2090 
 21 C        2.6510     8.0260     1.6990 C.3   1 <1>   0.2090 
 22 C        2.7920     9.6120    -0.7780 C.3   1 <1>   0.2000 
 23 C        2.0810     9.4470     1.6330 C.3   1 <1>  -0.1600 
 24 O        3.5790    10.3450    -1.6490 O.3   1 <1>  -0.6800 
 25 C        2.8110    10.3070     0.5880 C.3   1 <1>  -0.1600 
 26 H        0.5830    -2.0270     0.1730 H     1 <1>   0.0800 
 27 H        1.9660    -1.0280     0.5480 H     1 <1>   0.0800 
 28 H       -1.5980     2.8030     2.8530 H     1 <1>   0.0800 
 29 H       -3.0440     2.2370     2.0750 H     1 <1>   0.0800 
 30 H        0.3300     1.3130    -2.6930 H     1 <1>   0.0800 
 31 H       -1.2570     0.5910    -2.7420 H     1 <1>   0.0800 
 32 H        1.9370    -2.1060    -1.7970 H     1 <1>   0.0800 
 33 H        2.2880    -0.4070    -1.7210 H     1 <1>   0.0800 
 34 H       -3.1250     4.5820     1.8560 H     1 <1>   0.0800 
 35 H       -2.6640     4.0170     0.2820 H     1 <1>   0.0800 
 36 H        0.6680    -0.9050    -3.5380 H     1 <1>   0.0800 
 37 H       -0.4180    -1.5920    -2.3700 H     1 <1>   0.0800 
 38 H       -1.1480     5.6580     2.1430 H     1 <1>   0.4000 
 39 H       -0.4640     3.4480    -0.4990 H     1 <1>   0.4570 
 40 H        1.4230     3.6720    -2.0070 H     1 <1>   0.1500 
 41 H        2.9690     5.5900    -1.5590 H     1 <1>   0.1500 
 42 H        3.1810     7.7190    -1.6770 H     1 <1>   0.0800 
 43 H        4.3610     8.1680    -0.4670 H     1 <1>   0.0800 
 44 H        3.6800     8.0620     2.0140 H     1 <1>   0.0800 
 45 H        2.1090     7.4500     2.4290 H     1 <1>   0.0800 
 46 H        1.7920     9.6030    -1.1760 H     1 <1>   0.0800 
 47 H        2.1670     9.9080     2.6010 H     1 <1>   0.0800 
 48 H        1.0340     9.3870     1.3910 H     1 <1>   0.0800 
 49 H        4.4150    10.6060    -1.2180 H     1 <1>   0.4000 
 50 H        2.3280    11.2650     0.5110 H     1 <1>   0.0800 
 51 H        3.8270    10.4540     0.9100 H     1 <1>   0.0800 
@<TRIPOS>BOND
  1   1   2  1   
  2   1   3  1   
  3   2   4  2   
  4   2   5  1   
  5   3   6  2   
  6   3   7  1   
  7   4   6  1   
  8   4   8  1   
  9   5   9  1   
 10   5  26  1   
 11   5  27  1   
 12   7  10  1   
 13   7  28  1   
 14   7  29  1   
 15   8  11  1   
 16   8  30  1   
 17   8  31  1   
 18   9  11  1   
 19   9  32  1   
 20   9  33  1   
 21  10  12  1   
 22  10  34  1   
 23  10  35  1   
 24  11  36  1   
 25  11  37  1   
 26  12  13  1   
 27  12  38  1   
 28  13  14  ar  
 29  13  15  ar  
 30  14  16  ar  
 31  15  17  ar  
 32  15  39  1   
 33  16  18  1   
 34  16  19  ar  
 35  17  19  ar  
 36  17  40  1   
 37  18  20  1   
 38  18  21  1   
 39  19  41  1   
 40  20  22  1   
 41  20  42  1   
 42  20  43  1   
 43  21  23  1   
 44  21  44  1   
 45  21  45  1   
 46  22  24  1   
 47  22  25  1   
 48  22  46  1   
 49  23  25  1   
 50  23  47  1   
 51  23  48  1   
 52  24  49  1   
 53  25  50  1   
 54  25  51  1   
@<TRIPOS>SUBSTRUCTURE
  1 ****  15 GROUP 4 **** **** 0

# MOE 2024.06 (io_trps.svl 2023.06)
