@<TRIPOS>MOLECULE
NONAME
49 51 1 0 0 
SMALL
USER_CHARGES


@<TRIPOS>ATOM
  1 N       -1.8430    -0.5170     0.9140 N.ar  1 <1>  -0.1790 
  2 C       -3.0110    -1.2050     0.9560 C.ar  1 <1>   0.2110 
  3 C       -0.8280    -0.9330     0.1210 C.ar  1 <1>   0.2110 
  4 C       -3.1980    -2.3390     0.1980 C.ar  1 <1>  -0.1430 
  5 C       -0.9740    -2.0560    -0.6500 C.ar  1 <1>  -0.1500 
  6 C       -2.1620    -2.8020    -0.6390 C.ar  1 <1>   0.1000 
  7 C       -4.5240    -3.0870     0.2960 C.3   1 <1>  -0.0970 
  8 N       -2.2760    -3.9090    -1.4290 N.pl3 1 <1>  -0.8380 
  9 C       -3.0550    -3.8180    -2.7220 C.3   1 <1>   0.2090 
 10 C       -1.1940    -4.9480    -1.4480 C.3   1 <1>   0.2090 
 11 C       -4.1260    -4.9240    -2.8680 C.3   1 <1>   0.3430 
 12 C       -1.7340    -6.3260    -1.0510 C.3   1 <1>  -0.1600 
 13 N       -4.0360    -5.9080    -1.7450 N.4   1 <1>  -0.9590 
 14 C       -2.8870    -6.8300    -1.9190 C.3   1 <1>   0.3430 
 15 C       -5.3540    -6.5830    -1.5000 C.3   1 <1>   0.3430 
 16 C       -5.4110    -7.3360    -0.1660 C.3   1 <1>   0.0960 
 17 N       -6.7850    -7.8120     0.0610 N.pl3 1 <1>   0.3140 
 18 N       -7.8180    -7.3390    -0.6620 N.2   1 <1>  -0.7070 
 19 C       -7.1970    -8.7190     0.9730 C.2   1 <1>  -0.3320 
 20 C       -8.8610    -7.9570    -0.1970 C.2   1 <1>   0.1390 
 21 C       -8.5340    -8.8350     0.8280 C.2   1 <1>  -0.1500 
 22 C       -6.3010    -9.4500     1.9610 C.3   1 <1>  -0.0600 
 23 H       -1.7270     0.3260     1.4900 H     1 <1>   0.4570 
 24 H       -3.7910    -0.8370     1.6040 H     1 <1>   0.1500 
 25 H        0.0890    -0.3640     0.1070 H     1 <1>   0.1500 
 26 H       -0.1680    -2.3720    -1.2870 H     1 <1>   0.1500 
 27 H       -5.1820    -2.6260     1.0120 H     1 <1>   0.0800 
 28 H       -4.3500    -4.0990     0.6130 H     1 <1>   0.0800 
 29 H       -5.0230    -3.0910    -0.6550 H     1 <1>   0.0800 
 30 H       -2.3760    -3.8750    -3.5560 H     1 <1>   0.0800 
 31 H       -3.5390    -2.8580    -2.7860 H     1 <1>   0.0800 
 32 H       -0.4170    -4.6780    -0.7510 H     1 <1>   0.0800 
 33 H       -0.7460    -4.9940    -2.4270 H     1 <1>   0.0800 
 34 H       -4.0210    -5.4200    -3.8190 H     1 <1>   0.0800 
 35 H       -5.0950    -4.4510    -2.8550 H     1 <1>   0.0800 
 36 H       -2.0290    -6.3110    -0.0180 H     1 <1>   0.0800 
 37 H       -0.9250    -7.0310    -1.1310 H     1 <1>   0.0800 
 38 H       -3.7640    -5.2990    -0.9500 H     1 <1>   0.4500 
 39 H       -3.1550    -7.8260    -1.6060 H     1 <1>   0.0800 
 40 H       -2.5870    -6.8720    -2.9540 H     1 <1>   0.0800 
 41 H       -5.5700    -7.2700    -2.3020 H     1 <1>   0.0800 
 42 H       -6.1320    -5.8350    -1.4910 H     1 <1>   0.0800 
 43 H       -5.1520    -6.6840     0.6470 H     1 <1>   0.0800 
 44 H       -4.7580    -8.1870    -0.1800 H     1 <1>   0.0800 
 45 H       -9.8610    -7.8020    -0.5660 H     1 <1>   0.1500 
 46 H       -9.2250    -9.4560     1.3700 H     1 <1>   0.1500 
 47 H       -5.7920    -8.7480     2.5980 H     1 <1>   0.0800 
 48 H       -5.5760   -10.0500     1.4410 H     1 <1>   0.0800 
 49 H       -6.8930   -10.1000     2.5820 H     1 <1>   0.0800 
@<TRIPOS>BOND
  1   1   2  ar  
  2   1   3  ar  
  3   1  23  1   
  4   2   4  ar  
  5   2  24  1   
  6   3   5  ar  
  7   3  25  1   
  8   4   6  ar  
  9   4   7  1   
 10   5   6  ar  
 11   5  26  1   
 12   6   8  1   
 13   7  27  1   
 14   7  28  1   
 15   7  29  1   
 16   8   9  1   
 17   8  10  1   
 18   9  11  1   
 19   9  30  1   
 20   9  31  1   
 21  10  12  1   
 22  10  32  1   
 23  10  33  1   
 24  11  13  1   
 25  11  34  1   
 26  11  35  1   
 27  12  14  1   
 28  12  36  1   
 29  12  37  1   
 30  13  14  1   
 31  13  15  1   
 32  13  38  1   
 33  14  39  1   
 34  14  40  1   
 35  15  16  1   
 36  15  41  1   
 37  15  42  1   
 38  16  17  1   
 39  16  43  1   
 40  16  44  1   
 41  17  18  1   
 42  17  19  1   
 43  18  20  2   
 44  19  21  2   
 45  19  22  1   
 46  20  21  1   
 47  20  45  1   
 48  21  46  1   
 49  22  47  1   
 50  22  48  1   
 51  22  49  1   
@<TRIPOS>SUBSTRUCTURE
  1 ****  13 GROUP 4 **** **** 0

# MOE 2024.06 (io_trps.svl 2023.06)
