@<TRIPOS>MOLECULE
NONAME
58 61 1 0 0 
SMALL
USER_CHARGES


@<TRIPOS>ATOM
  1 O       -1.0170    -1.1150    -1.8540 O.3   1 <1>  -0.3630 
  2 C       -0.7670    -2.2490    -1.1480 C.ar  1 <1>   0.0830 
  3 C        0.0340    -0.3170    -2.3490 C.3   1 <1>   0.0400 
  4 C       -1.8660    -2.9760    -0.7280 C.ar  1 <1>  -0.1500 
  5 C        0.5130    -2.7000    -0.8370 C.ar  1 <1>  -0.1500 
  6 C       -1.7200    -4.1490     0.0010 C.ar  1 <1>   0.1000 
  7 C        0.6730    -3.8680    -0.1110 C.ar  1 <1>  -0.1500 
  8 N       -2.8510    -4.8510     0.4120 N.pl3 1 <1>  -0.8380 
  9 C       -0.4340    -4.5850     0.3050 C.ar  1 <1>  -0.1500 
 10 C       -3.6730    -4.2530     1.4840 C.3   1 <1>   0.2090 
 11 C       -2.8680    -6.3280     0.3310 C.3   1 <1>   0.2090 
 12 C       -5.1240    -4.6480     1.2270 C.3   1 <1>  -0.1600 
 13 C       -4.3050    -6.7570     0.0540 C.3   1 <1>  -0.1600 
 14 C       -5.2470    -6.1710     1.1190 C.3   1 <1>   0.4230 
 15 N       -6.6730    -6.5320     0.8730 N.4   1 <1>  -0.9590 
 16 C       -7.2580    -6.1120    -0.4370 C.3   1 <1>   0.3430 
 17 C       -6.9740    -7.9910     1.0310 C.3   1 <1>   0.3430 
 18 C       -8.4300    -7.0700    -0.6550 C.3   1 <1>   0.2000 
 19 C       -7.8840    -8.3980    -0.1390 C.3   1 <1>  -0.0800 
 20 O       -9.4690    -6.6750     0.1800 O.3   1 <1>  -0.6800 
 21 C       -7.1010    -9.1450    -1.2370 C.3   1 <1>   0.0210 
 22 C       -6.4730   -10.4170    -0.7050 C.2   1 <1>   0.1080 
 23 N       -5.3740   -10.4220    -0.0160 N.2   1 <1>  -0.7070 
 24 C       -6.9860   -11.6950    -0.8920 C.2   1 <1>  -0.1500 
 25 N       -5.1460   -11.7280     0.2470 N.pl3 1 <1>   0.3000 
 26 C       -6.1140   -12.5140    -0.2690 C.2   1 <1>  -0.3320 
 27 C       -6.1430   -14.0260    -0.1390 C.3   1 <1>  -0.0600 
 28 H       -0.3990     0.5130    -2.8780 H     1 <1>   0.0800 
 29 H        0.6320    -0.9070    -3.0210 H     1 <1>   0.0800 
 30 H        0.6190     0.0420    -1.5220 H     1 <1>   0.0800 
 31 H       -2.8490    -2.6290    -0.9760 H     1 <1>   0.1500 
 32 H        1.3880    -2.1610    -1.1480 H     1 <1>   0.1500 
 33 H        1.6610    -4.2180     0.1310 H     1 <1>   0.1500 
 34 H       -0.2990    -5.4840     0.8750 H     1 <1>   0.1500 
 35 H       -3.3370    -4.6170     2.4400 H     1 <1>   0.0800 
 36 H       -3.5690    -3.1800     1.4730 H     1 <1>   0.0800 
 37 H       -2.2240    -6.6570    -0.4690 H     1 <1>   0.0800 
 38 H       -2.5120    -6.7480     1.2570 H     1 <1>   0.0800 
 39 H       -5.4350    -4.1720     0.3150 H     1 <1>   0.0800 
 40 H       -5.7280    -4.2810     2.0360 H     1 <1>   0.0800 
 41 H       -4.3400    -7.8300     0.0590 H     1 <1>   0.0800 
 42 H       -4.5570    -6.4060    -0.9280 H     1 <1>   0.0800 
 43 H       -4.9520    -6.5840     2.0700 H     1 <1>   0.0800 
 44 H       -7.2530    -6.0580     1.5790 H     1 <1>   0.4500 
 45 H       -7.5880    -5.0870    -0.4230 H     1 <1>   0.0800 
 46 H       -6.5410    -6.2470    -1.2280 H     1 <1>   0.0800 
 47 H       -6.0690    -8.5710     1.0470 H     1 <1>   0.0800 
 48 H       -7.4930    -8.1520     1.9620 H     1 <1>   0.0800 
 49 H       -8.7800    -7.0890    -1.6740 H     1 <1>   0.0800 
 50 H       -8.6720    -9.0430     0.2080 H     1 <1>   0.0800 
 51 H      -10.2930    -7.1730    -0.0150 H     1 <1>   0.4000 
 52 H       -6.3160    -8.5300    -1.6400 H     1 <1>   0.0800 
 53 H       -7.7630    -9.4010    -2.0450 H     1 <1>   0.0800 
 54 H       -7.8830   -11.9550    -1.4260 H     1 <1>   0.1500 
 55 H       -4.3260   -12.0560     0.7720 H     1 <1>   0.2700 
 56 H       -7.0100   -14.4250    -0.6350 H     1 <1>   0.0800 
 57 H       -6.1820   -14.3130     0.8980 H     1 <1>   0.0800 
 58 H       -5.2660   -14.4570    -0.5880 H     1 <1>   0.0800 
@<TRIPOS>BOND
  1   1   2  1   
  2   1   3  1   
  3   2   4  ar  
  4   2   5  ar  
  5   3  28  1   
  6   3  29  1   
  7   3  30  1   
  8   4   6  ar  
  9   4  31  1   
 10   5   7  ar  
 11   5  32  1   
 12   6   8  1   
 13   6   9  ar  
 14   7   9  ar  
 15   7  33  1   
 16   8  10  1   
 17   8  11  1   
 18   9  34  1   
 19  10  12  1   
 20  10  35  1   
 21  10  36  1   
 22  11  13  1   
 23  11  37  1   
 24  11  38  1   
 25  12  14  1   
 26  12  39  1   
 27  12  40  1   
 28  13  14  1   
 29  13  41  1   
 30  13  42  1   
 31  14  15  1   
 32  14  43  1   
 33  15  16  1   
 34  15  17  1   
 35  15  44  1   
 36  16  18  1   
 37  16  45  1   
 38  16  46  1   
 39  17  19  1   
 40  17  47  1   
 41  17  48  1   
 42  18  19  1   
 43  18  20  1   
 44  18  49  1   
 45  19  21  1   
 46  19  50  1   
 47  20  51  1   
 48  21  22  1   
 49  21  52  1   
 50  21  53  1   
 51  22  23  2   
 52  22  24  1   
 53  23  25  1   
 54  24  26  2   
 55  24  54  1   
 56  25  26  1   
 57  25  55  1   
 58  26  27  1   
 59  27  56  1   
 60  27  57  1   
 61  27  58  1   
@<TRIPOS>SUBSTRUCTURE
  1 ****  13 GROUP 4 **** **** 0

# MOE 2024.06 (io_trps.svl 2023.06)
