@<TRIPOS>MOLECULE
NONAME
55 59 1 0 0 
SMALL
USER_CHARGES


@<TRIPOS>ATOM
  1 O        0.4550    -0.3310    -0.7050 O.3   1 <1>  -0.5600 
  2 C        1.6220    -0.8490    -0.1050 C.3   1 <1>   0.4240 
  3 C       -0.7630    -0.8950    -0.3340 C.3   1 <1>   0.1200 
  4 C        1.5510    -2.3860     0.0380 C.ar  1 <1>  -0.1440 
  5 C        2.7680    -0.4540    -1.0450 C.3   1 <1>  -0.1600 
  6 C        1.8060    -0.1710     1.2620 C.3   1 <1>  -0.1600 
  7 C       -0.8050    -2.3390    -0.8230 C.3   1 <1>  -0.0160 
  8 C        0.4050    -3.0920    -0.3050 C.ar  1 <1>  -0.1440 
  9 C        2.6400    -3.0990     0.5230 C.ar  1 <1>  -0.1500 
 10 C        2.9090     1.0640    -1.1630 C.3   1 <1>   0.2090 
 11 C        1.9610     1.3430     1.1250 C.3   1 <1>   0.2090 
 12 C        0.3580    -4.4700    -0.1720 C.ar  1 <1>  -0.1500 
 13 C        2.6140    -4.4770     0.6550 C.ar  1 <1>   0.0830 
 14 N        3.0830     1.6430     0.1940 N.pl3 1 <1>  -0.8380 
 15 C        1.4510    -5.1840     0.3130 C.ar  1 <1>   0.0830 
 16 O        3.7680    -5.0270     1.1290 O.3   1 <1>  -0.3630 
 17 C        4.3280     2.0090     0.6650 C.ar  1 <1>   0.4100 
 18 O        1.4000    -6.5390     0.4760 O.3   1 <1>  -0.3630 
 19 C        4.1890    -6.3080     0.7160 C.3   1 <1>   0.0400 
 20 N        4.6890     1.5870     1.8610 N.ar  1 <1>  -0.6200 
 21 C        5.1790     2.7900    -0.0910 C.ar  1 <1>  -0.1500 
 22 C        0.2080    -7.2730     0.3030 C.3   1 <1>   0.0400 
 23 C        5.8940     1.9470     2.2560 C.ar  1 <1>   0.4700 
 24 C        6.4060     3.1040     0.4270 C.ar  1 <1>   0.2780 
 25 N        6.7870     2.6780     1.6140 N.ar  1 <1>  -0.6200 
 26 C        7.3950     3.9570    -0.3500 C.3   1 <1>  -0.0680 
 27 C        7.6720     5.3640     0.0870 C.3   1 <1>  -0.2000 
 28 C        6.9620     5.1110    -1.2080 C.3   1 <1>  -0.2000 
 29 H       -1.5470    -0.3190    -0.7930 H     1 <1>   0.0800 
 30 H       -0.8680    -0.8440     0.7350 H     1 <1>   0.0800 
 31 H        2.5940    -0.8830    -2.0140 H     1 <1>   0.0800 
 32 H        3.6990    -0.8440    -0.6780 H     1 <1>   0.0800 
 33 H        2.6930    -0.5500     1.7350 H     1 <1>   0.0800 
 34 H        0.9820    -0.4010     1.9090 H     1 <1>   0.0800 
 35 H       -0.8070    -2.3530    -1.8980 H     1 <1>   0.0800 
 36 H       -1.7100    -2.8030    -0.4760 H     1 <1>   0.0800 
 37 H        3.5410    -2.5880     0.8090 H     1 <1>   0.1500 
 38 H        2.0280     1.4840    -1.6190 H     1 <1>   0.0800 
 39 H        3.7550     1.2950    -1.7860 H     1 <1>   0.0800 
 40 H        2.1480     1.7840     2.0900 H     1 <1>   0.0800 
 41 H        1.0550     1.7730     0.7340 H     1 <1>   0.0800 
 42 H       -0.5460    -4.9720    -0.4540 H     1 <1>   0.1500 
 43 H        5.2450    -6.3880     0.8950 H     1 <1>   0.0800 
 44 H        3.9820    -6.4250    -0.3330 H     1 <1>   0.0800 
 45 H        3.6660    -7.0480     1.2940 H     1 <1>   0.0800 
 46 H        4.8720     3.1420    -1.0530 H     1 <1>   0.1500 
 47 H        0.4090    -8.2990     0.5530 H     1 <1>   0.0800 
 48 H       -0.1010    -7.2030    -0.7250 H     1 <1>   0.0800 
 49 H       -0.5450    -6.8780     0.9620 H     1 <1>   0.0800 
 50 H        6.1890     1.5970     3.2310 H     1 <1>   0.1500 
 51 H        8.2420     3.3800    -0.6770 H     1 <1>   0.1000 
 52 H        8.6900     5.7100     0.0710 H     1 <1>   0.1000 
 53 H        7.1170     5.7510     0.9240 H     1 <1>   0.1000 
 54 H        5.9210     5.3770    -1.2660 H     1 <1>   0.1000 
 55 H        7.4870     5.2940    -2.1290 H     1 <1>   0.1000 
@<TRIPOS>BOND
  1   1   2  1   
  2   1   3  1   
  3   2   4  1   
  4   2   5  1   
  5   2   6  1   
  6   3   7  1   
  7   3  29  1   
  8   3  30  1   
  9   4   8  ar  
 10   4   9  ar  
 11   5  10  1   
 12   5  31  1   
 13   5  32  1   
 14   6  11  1   
 15   6  33  1   
 16   6  34  1   
 17   7   8  1   
 18   7  35  1   
 19   7  36  1   
 20   8  12  ar  
 21   9  13  ar  
 22   9  37  1   
 23  10  14  1   
 24  10  38  1   
 25  10  39  1   
 26  11  14  1   
 27  11  40  1   
 28  11  41  1   
 29  12  15  ar  
 30  12  42  1   
 31  13  15  ar  
 32  13  16  1   
 33  14  17  1   
 34  15  18  1   
 35  16  19  1   
 36  17  20  ar  
 37  17  21  ar  
 38  18  22  1   
 39  19  43  1   
 40  19  44  1   
 41  19  45  1   
 42  20  23  ar  
 43  21  24  ar  
 44  21  46  1   
 45  22  47  1   
 46  22  48  1   
 47  22  49  1   
 48  23  25  ar  
 49  23  50  1   
 50  24  25  ar  
 51  24  26  1   
 52  26  27  1   
 53  26  28  1   
 54  26  51  1   
 55  27  28  1   
 56  27  52  1   
 57  27  53  1   
 58  28  54  1   
 59  28  55  1   
@<TRIPOS>SUBSTRUCTURE
  1 ****   5 GROUP 4 **** **** 0

# MOE 2024.06 (io_trps.svl 2023.06)
