@<TRIPOS>MOLECULE
NONAME
48 49 1 0 0 
SMALL
USER_CHARGES


@<TRIPOS>ATOM
  1 S        0.7030    -0.2200    -0.2660 S.o2  1 <1>   1.3330 
  2 O        0.8790    -0.8380     1.0290 O.2   1 <1>  -0.6500 
  3 O        0.5720    -1.0550    -1.4390 O.2   1 <1>  -0.6500 
  4 N       -0.6640     0.7830    -0.1740 N.am  1 <1>  -0.8490 
  5 C        2.0390     0.9350    -0.5580 C.3   1 <1>  -0.0550 
  6 C       -0.8270     1.4250     1.1350 C.3   1 <1>   0.1160 
  7 C       -1.8940     0.0750    -0.5400 C.3   1 <1>   0.1160 
  8 C        3.4060     0.2490    -0.7510 C.3   1 <1>  -0.0800 
  9 C        4.5410     1.1900    -1.1200 C.3   1 <1>   0.2200 
 10 C        3.9450    -0.4620     0.4970 C.3   1 <1>   0.1200 
 11 N        4.4610     2.4410    -0.3310 N.am  1 <1>  -0.7300 
 12 C        5.7430     0.3840    -0.6530 C.3   1 <1>   0.1200 
 13 O        5.3280    -0.2520     0.5180 O.3   1 <1>  -0.5600 
 14 C        4.0560     3.6540    -0.8020 C.2   1 <1>   0.5440 
 15 O        3.6230     3.7040    -1.9380 O.2   1 <1>  -0.5700 
 16 C        4.0970     4.8270     0.0540 C.ar  1 <1>   0.0860 
 17 C        5.2840     5.1860     0.7140 C.ar  1 <1>   0.0820 
 18 C        2.9590     5.6260     0.2590 C.ar  1 <1>  -0.1440 
 19 O        6.3840     4.4120     0.5250 O.3   1 <1>  -0.3630 
 20 C        5.3220     6.3080     1.5380 C.ar  1 <1>  -0.1500 
 21 C        3.0180     6.7380     1.0800 C.ar  1 <1>  -0.1500 
 22 C        1.6270     5.2980    -0.4090 C.3   1 <1>  -0.0970 
 23 C        7.6590     4.7540     1.0230 C.3   1 <1>   0.0400 
 24 C        4.1940     7.0800     1.7190 C.ar  1 <1>  -0.1500 
 25 H        1.8170     1.5050    -1.4410 H     1 <1>   0.0800 
 26 H        2.0950     1.6200     0.2640 H     1 <1>   0.0800 
 27 H       -1.6570     2.1110     1.1090 H     1 <1>   0.0800 
 28 H        0.0600     1.9780     1.3910 H     1 <1>   0.0800 
 29 H       -1.0070     0.6860     1.8980 H     1 <1>   0.0800 
 30 H       -2.7390     0.7410    -0.4880 H     1 <1>   0.0800 
 31 H       -2.0570    -0.7590     0.1230 H     1 <1>   0.0800 
 32 H       -1.8200    -0.2950    -1.5490 H     1 <1>   0.0800 
 33 H        3.3130    -0.4850    -1.5330 H     1 <1>   0.0800 
 34 H        4.5790     1.4070    -2.1750 H     1 <1>   0.0800 
 35 H        3.7510    -1.5210     0.4720 H     1 <1>   0.0800 
 36 H        3.5400    -0.0420     1.4020 H     1 <1>   0.0800 
 37 H        4.9540     2.4090     0.5660 H     1 <1>   0.3700 
 38 H        6.6040     0.9970    -0.4520 H     1 <1>   0.0800 
 39 H        5.9920    -0.3780    -1.3710 H     1 <1>   0.0800 
 40 H        6.2200     6.5990     2.0500 H     1 <1>   0.1500 
 41 H        2.1460     7.3520     1.2300 H     1 <1>   0.1500 
 42 H        0.8290     5.8950    -0.0060 H     1 <1>   0.0800 
 43 H        1.3770     4.2620    -0.2640 H     1 <1>   0.0800 
 44 H        1.6930     5.4910    -1.4660 H     1 <1>   0.0800 
 45 H        8.3610     4.0130     0.6840 H     1 <1>   0.0800 
 46 H        7.6260     4.7600     2.0980 H     1 <1>   0.0800 
 47 H        7.9360     5.7200     0.6400 H     1 <1>   0.0800 
 48 H        4.2270     7.9490     2.3540 H     1 <1>   0.1500 
@<TRIPOS>BOND
  1   1   2  2   
  2   1   3  2   
  3   1   4  am  
  4   1   5  1   
  5   4   6  1   
  6   4   7  1   
  7   5   8  1   
  8   5  25  1   
  9   5  26  1   
 10   6  27  1   
 11   6  28  1   
 12   6  29  1   
 13   7  30  1   
 14   7  31  1   
 15   7  32  1   
 16   8   9  1   
 17   8  10  1   
 18   8  33  1   
 19   9  11  1   
 20   9  12  1   
 21   9  34  1   
 22  10  13  1   
 23  10  35  1   
 24  10  36  1   
 25  11  14  am  
 26  11  37  1   
 27  12  13  1   
 28  12  38  1   
 29  12  39  1   
 30  14  15  2   
 31  14  16  1   
 32  16  17  ar  
 33  16  18  ar  
 34  17  19  1   
 35  17  20  ar  
 36  18  21  ar  
 37  18  22  1   
 38  19  23  1   
 39  20  24  ar  
 40  20  40  1   
 41  21  24  ar  
 42  21  41  1   
 43  22  42  1   
 44  22  43  1   
 45  22  44  1   
 46  23  45  1   
 47  23  46  1   
 48  23  47  1   
 49  24  48  1   
@<TRIPOS>SUBSTRUCTURE
  1 ****  11 GROUP 4 **** **** 0

# MOE 2024.06 (io_trps.svl 2023.06)
