@<TRIPOS>MOLECULE
NONAME
43 45 1 0 0 
SMALL
USER_CHARGES


@<TRIPOS>ATOM
  1 CL       0.3160    -1.2990     1.5460 Cl    1 <1>  -0.1240 
  2 C       -0.7720    -2.1680     0.4960 C.2   1 <1>   0.2640 
  3 O       -1.0470    -3.4190     0.7730 O.3   1 <1>  -0.2800 
  4 C       -1.4110    -1.7430    -0.6110 C.2   1 <1>  -0.1500 
  5 C       -1.8900    -3.8670    -0.1570 C.2   1 <1>   0.0550 
  6 C       -2.1420    -2.8530    -1.0390 C.2   1 <1>  -0.1500 
  7 C       -2.3830    -5.2260    -0.1160 C.2   1 <1>   0.7150 
  8 O       -1.7960    -6.1040     0.4970 O.2   1 <1>  -0.5700 
  9 N       -3.5650    -5.5840    -0.7370 N.am  1 <1>  -0.6600 
 10 C       -3.8250    -7.0180    -1.0130 C.3   1 <1>   0.1400 
 11 C       -4.8150    -4.8230    -0.4480 C.3   1 <1>   0.1400 
 12 C       -4.6220    -7.5050     0.2070 C.3   1 <1>   0.4230 
 13 C       -5.7090    -5.5870     0.5670 C.3   1 <1>  -0.1600 
 14 N       -4.2940    -8.8770     0.7370 N.4   1 <1>  -0.9590 
 15 C       -6.1530    -7.0670     0.0660 C.3   1 <1>   0.0000 
 16 C       -4.4960    -9.9550    -0.2410 C.3   1 <1>   0.3430 
 17 C       -2.9140    -8.9070     1.3230 C.3   1 <1>   0.2630 
 18 C       -6.6150    -8.5070    -0.5060 C.3   1 <1>  -0.1600 
 19 C       -7.6820    -6.5870     0.0150 C.3   1 <1>   0.1200 
 20 C       -5.6650    -9.5670    -1.1240 C.3   1 <1>  -0.1600 
 21 O       -8.1620    -6.5660     1.3230 O.3   1 <1>  -0.6800 
 22 H       -1.3740    -0.7730    -1.0730 H     1 <1>   0.1500 
 23 H       -2.7740    -2.8790    -1.9100 H     1 <1>   0.1500 
 24 H       -4.3950    -7.1100    -1.9200 H     1 <1>   0.0800 
 25 H       -2.8980    -7.5520    -1.1230 H     1 <1>   0.0800 
 26 H       -4.5730    -3.8520    -0.0450 H     1 <1>   0.0800 
 27 H       -5.3540    -4.6700    -1.3690 H     1 <1>   0.0800 
 28 H       -4.1790    -6.9210     0.9910 H     1 <1>   0.0800 
 29 H       -5.2290    -5.6120     1.5340 H     1 <1>   0.0800 
 30 H       -6.4780    -4.8650     0.7920 H     1 <1>   0.0800 
 31 H       -4.9700    -9.0300     1.5000 H     1 <1>   0.4500 
 32 H       -3.6140   -10.0910    -0.8470 H     1 <1>   0.0800 
 33 H       -4.7070   -10.8780     0.2740 H     1 <1>   0.0800 
 34 H       -2.1740    -8.7320     0.5580 H     1 <1>   0.0800 
 35 H       -2.7180    -9.8610     1.7840 H     1 <1>   0.0800 
 36 H       -2.8070    -8.1350     2.0690 H     1 <1>   0.0800 
 37 H       -7.1820    -9.0080     0.2650 H     1 <1>   0.0800 
 38 H       -7.2630    -8.3910    -1.3620 H     1 <1>   0.0800 
 39 H       -8.4180    -7.1700    -0.5120 H     1 <1>   0.0800 
 40 H       -7.8140    -5.6120    -0.4280 H     1 <1>   0.0800 
 41 H       -5.2810    -9.2080    -2.0630 H     1 <1>   0.0800 
 42 H       -6.2230   -10.4590    -1.3550 H     1 <1>   0.0800 
 43 H       -9.0930    -6.2610     1.3560 H     1 <1>   0.4000 
@<TRIPOS>BOND
  1   1   2  1   
  2   2   3  1   
  3   2   4  2   
  4   3   5  1   
  5   4   6  1   
  6   4  22  1   
  7   5   6  2   
  8   5   7  1   
  9   6  23  1   
 10   7   8  2   
 11   7   9  am  
 12   9  10  1   
 13   9  11  1   
 14  10  12  1   
 15  10  24  1   
 16  10  25  1   
 17  11  13  1   
 18  11  26  1   
 19  11  27  1   
 20  12  14  1   
 21  12  15  1   
 22  12  28  1   
 23  13  15  1   
 24  13  29  1   
 25  13  30  1   
 26  14  16  1   
 27  14  17  1   
 28  14  31  1   
 29  15  18  1   
 30  15  19  1   
 31  16  20  1   
 32  16  32  1   
 33  16  33  1   
 34  17  34  1   
 35  17  35  1   
 36  17  36  1   
 37  18  20  1   
 38  18  37  1   
 39  18  38  1   
 40  19  21  1   
 41  19  39  1   
 42  19  40  1   
 43  20  41  1   
 44  20  42  1   
 45  21  43  1   
@<TRIPOS>SUBSTRUCTURE
  1 ****   9 GROUP 4 **** **** 0

# MOE 2024.06 (io_trps.svl 2023.06)
