@<TRIPOS>MOLECULE
NONAME
51 54 1 0 0 
SMALL
USER_CHARGES


@<TRIPOS>ATOM
  1 O        0.3000     0.4800     0.3760 O.3   1 <1>  -0.6800 
  2 C        1.3660     0.1230    -0.4410 C.3   1 <1>   0.2000 
  3 C        1.8810    -1.2350     0.0330 C.3   1 <1>  -0.0800 
  4 C        2.5380     1.0800    -0.1520 C.3   1 <1>   0.3430 
  5 C        2.6740    -0.8240     1.2740 C.3   1 <1>   0.3430 
  6 C        2.7470    -1.9060    -1.0660 C.3   1 <1>   0.0210 
  7 N        3.4220     0.3740     0.8320 N.4   1 <1>  -0.9590 
  8 C        4.0290    -2.5340    -0.5460 C.2   1 <1>   0.1080 
  9 C        3.9240     1.2250     1.9390 C.3   1 <1>   0.4860 
 10 N        5.0720    -1.8310    -0.2160 N.2   1 <1>  -0.7070 
 11 C        4.2330    -3.8970    -0.3770 C.2   1 <1>  -0.1500 
 12 C        4.5180     2.5030     1.3740 C.ar  1 <1>  -0.1440 
 13 N        5.9940    -2.7530     0.1490 N.pl3 1 <1>   0.3000 
 14 C        5.5000    -4.0050     0.0720 C.2   1 <1>  -0.3320 
 15 C        5.7470     2.4830     0.6640 C.ar  1 <1>   0.0000 
 16 C        3.8280     3.6720     1.5530 C.ar  1 <1>  -0.1500 
 17 C        6.2880    -5.2550     0.4230 C.3   1 <1>  -0.0600 
 18 C        6.2290     3.6910     0.0990 C.ar  1 <1>   0.0000 
 19 C        6.5220     1.3130     0.4900 C.ar  1 <1>  -0.1500 
 20 C        4.3130     4.8660     1.0200 C.ar  1 <1>  -0.1500 
 21 C        7.4360     3.6720    -0.6470 C.ar  1 <1>  -0.1440 
 22 C        5.4780     4.8700     0.3110 C.ar  1 <1>  -0.1500 
 23 C        7.6810     1.3210    -0.2290 C.ar  1 <1>  -0.1500 
 24 C        8.1370     2.5080    -0.8050 C.ar  1 <1>  -0.1500 
 25 C        7.9780     4.9430    -1.2880 C.3   1 <1>  -0.0970 
 26 H       -0.5280     0.0340     0.0990 H     1 <1>   0.4000 
 27 H        1.0430     0.1540    -1.4680 H     1 <1>   0.0800 
 28 H        1.0810    -1.9010     0.3060 H     1 <1>   0.0800 
 29 H        2.1610     2.0080     0.2450 H     1 <1>   0.0800 
 30 H        3.0940     1.2790    -1.0530 H     1 <1>   0.0800 
 31 H        3.3340    -1.6060     1.6170 H     1 <1>   0.0800 
 32 H        1.9870    -0.5580     2.0620 H     1 <1>   0.0800 
 33 H        3.0370    -1.1920    -1.8160 H     1 <1>   0.0800 
 34 H        2.1650    -2.6600    -1.5670 H     1 <1>   0.0800 
 35 H        4.2390    -0.0040     0.3090 H     1 <1>   0.4500 
 36 H        3.1090     1.4750     2.5980 H     1 <1>   0.0800 
 37 H        4.6700     0.6960     2.5090 H     1 <1>   0.0800 
 38 H        3.5240    -4.6830    -0.5760 H     1 <1>   0.1500 
 39 H        6.9510    -2.5080     0.4350 H     1 <1>   0.2700 
 40 H        2.9000     3.7080     2.0990 H     1 <1>   0.1500 
 41 H        5.6810    -6.1300     0.2740 H     1 <1>   0.0800 
 42 H        6.5970    -5.2270     1.4540 H     1 <1>   0.0800 
 43 H        7.1600    -5.3350    -0.2020 H     1 <1>   0.0800 
 44 H        6.2100     0.3880     0.9310 H     1 <1>   0.1500 
 45 H        3.7590     5.7770     1.1740 H     1 <1>   0.1500 
 46 H        5.8330     5.7990    -0.0940 H     1 <1>   0.1500 
 47 H        8.2620     0.4250    -0.3640 H     1 <1>   0.1500 
 48 H        9.0530     2.4800    -1.3690 H     1 <1>   0.1500 
 49 H        8.8880     4.7480    -1.8280 H     1 <1>   0.0800 
 50 H        8.1890     5.6770    -0.5310 H     1 <1>   0.0800 
 51 H        7.2590     5.3450    -1.9800 H     1 <1>   0.0800 
@<TRIPOS>BOND
  1   1   2  1   
  2   1  26  1   
  3   2   3  1   
  4   2   4  1   
  5   2  27  1   
  6   3   5  1   
  7   3   6  1   
  8   3  28  1   
  9   4   7  1   
 10   4  29  1   
 11   4  30  1   
 12   5   7  1   
 13   5  31  1   
 14   5  32  1   
 15   6   8  1   
 16   6  33  1   
 17   6  34  1   
 18   7   9  1   
 19   7  35  1   
 20   8  10  2   
 21   8  11  1   
 22   9  12  1   
 23   9  36  1   
 24   9  37  1   
 25  10  13  1   
 26  11  14  2   
 27  11  38  1   
 28  12  15  ar  
 29  12  16  ar  
 30  13  14  1   
 31  13  39  1   
 32  14  17  1   
 33  15  18  ar  
 34  15  19  ar  
 35  16  20  ar  
 36  16  40  1   
 37  17  41  1   
 38  17  42  1   
 39  17  43  1   
 40  18  21  ar  
 41  18  22  ar  
 42  19  23  ar  
 43  19  44  1   
 44  20  22  ar  
 45  20  45  1   
 46  21  24  ar  
 47  21  25  1   
 48  22  46  1   
 49  23  24  ar  
 50  23  47  1   
 51  24  48  1   
 52  25  49  1   
 53  25  50  1   
 54  25  51  1   
@<TRIPOS>SUBSTRUCTURE
  1 ****   7 GROUP 4 **** **** 0

# MOE 2024.06 (io_trps.svl 2023.06)
