@<TRIPOS>MOLECULE
NONAME
36 37 1 0 0 
SMALL
USER_CHARGES


@<TRIPOS>ATOM
  1 S       -0.1790    -0.7890    -1.6330 S.3   1 <1>  -0.0800 
  2 C       -1.2600    -0.2690    -0.3480 C.2   1 <1>  -0.1400 
  3 C        0.4990     0.8190    -1.7770 C.2   1 <1>  -0.1100 
  4 C       -1.0750     1.0390    -0.0730 C.2   1 <1>  -0.1810 
  5 C       -2.1760    -1.3200     0.2370 C.3   1 <1>   0.5230 
  6 C       -0.0760     1.6550    -0.8940 C.2   1 <1>  -0.1500 
  7 C       -1.7840     1.8770     0.9770 C.3   1 <1>  -0.0590 
  8 N       -3.4690    -1.2880    -0.5090 N.4   1 <1>  -0.9590 
  9 C       -4.5830    -1.9130     0.2750 C.3   1 <1>   0.4810 
 10 C       -3.3160    -1.8750    -1.8770 C.3   1 <1>   0.2630 
 11 C       -4.2560    -3.3530     0.6760 C.2   1 <1>  -0.0380 
 12 N       -4.4250    -4.3960    -0.2110 N.pl3 1 <1>  -0.5500 
 13 C       -3.7960    -3.6820     1.9070 C.2   1 <1>  -0.1360 
 14 C       -4.1190    -5.6820     0.1420 C.2   1 <1>   0.4390 
 15 C       -3.4860    -5.0310     2.2210 C.2   1 <1>   0.7670 
 16 N       -3.6620    -6.0120     1.2890 N.2   1 <1>  -0.6610 
 17 C       -4.3480    -6.7440    -0.9040 C.3   1 <1>  -0.1790 
 18 O       -3.0430    -5.3160     3.3190 O.2   1 <1>  -0.5700 
 19 H        1.2680     0.9740    -2.5150 H     1 <1>   0.1500 
 20 H       -2.3450    -1.0850     1.2750 H     1 <1>   0.0800 
 21 H       -1.7170    -2.2940     0.1770 H     1 <1>   0.0800 
 22 H        0.1710     2.6980    -0.7850 H     1 <1>   0.1500 
 23 H       -2.4950     1.2960     1.5320 H     1 <1>   0.0800 
 24 H       -2.2960     2.6980     0.5080 H     1 <1>   0.0800 
 25 H       -1.0610     2.2790     1.6670 H     1 <1>   0.0800 
 26 H       -3.6750    -0.2870    -0.6310 H     1 <1>   0.4500 
 27 H       -5.4960    -1.8960    -0.2980 H     1 <1>   0.0800 
 28 H       -4.7500    -1.3370     1.1710 H     1 <1>   0.0800 
 29 H       -2.9590    -2.8900    -1.8140 H     1 <1>   0.0800 
 30 H       -2.6090    -1.3000    -2.4540 H     1 <1>   0.0800 
 31 H       -4.2590    -1.8660    -2.3990 H     1 <1>   0.0800 
 32 H       -4.8510    -4.2810    -1.1350 H     1 <1>   0.4000 
 33 H       -3.6370    -2.9780     2.7000 H     1 <1>   0.1500 
 34 H       -3.7490    -6.5470    -1.7730 H     1 <1>   0.0800 
 35 H       -5.3860    -6.7760    -1.1800 H     1 <1>   0.0800 
 36 H       -4.0720    -7.7080    -0.5130 H     1 <1>   0.0800 
@<TRIPOS>BOND
  1   1   2  1   
  2   1   3  1   
  3   2   4  2   
  4   2   5  1   
  5   3   6  2   
  6   3  19  1   
  7   4   6  1   
  8   4   7  1   
  9   5   8  1   
 10   5  20  1   
 11   5  21  1   
 12   6  22  1   
 13   7  23  1   
 14   7  24  1   
 15   7  25  1   
 16   8   9  1   
 17   8  10  1   
 18   8  26  1   
 19   9  11  1   
 20   9  27  1   
 21   9  28  1   
 22  10  29  1   
 23  10  30  1   
 24  10  31  1   
 25  11  12  1   
 26  11  13  2   
 27  12  14  1   
 28  12  32  1   
 29  13  15  1   
 30  13  33  1   
 31  14  16  2   
 32  14  17  1   
 33  15  16  1   
 34  15  18  2   
 35  17  34  1   
 36  17  35  1   
 37  17  36  1   
@<TRIPOS>SUBSTRUCTURE
  1 ****   5 GROUP 4 **** **** 0

# MOE 2024.06 (io_trps.svl 2023.06)
