@<TRIPOS>MOLECULE
NONAME
64 68 1 0 0 
SMALL
USER_CHARGES


@<TRIPOS>ATOM
  1 N       -0.0570    -0.0950    -0.6970 N.ar  1 <1>  -0.1790 
  2 C       -0.1260    -1.4260    -0.7920 C.ar  1 <1>   0.4610 
  3 C        1.0750     0.6230    -0.3580 C.ar  1 <1>   0.3610 
  4 N       -1.2920    -2.0200    -1.1510 N.pl3 1 <1>  -0.8380 
  5 C        1.0720    -2.1330    -0.5000 C.ar  1 <1>  -0.1500 
  6 C        2.2660    -0.0780    -0.0820 C.ar  1 <1>   0.0000 
  7 C        1.0390     2.0210    -0.2960 C.ar  1 <1>  -0.1500 
  8 C       -1.3970    -3.4460    -1.5950 C.3   1 <1>   0.2090 
  9 C       -2.6440    -1.3760    -1.1540 C.3   1 <1>   0.2090 
 10 C        2.2310    -1.5030    -0.1610 C.ar  1 <1>  -0.1430 
 11 C        3.4100     0.6690     0.2540 C.ar  1 <1>  -0.1500 
 12 C        2.1760     2.7120     0.0370 C.ar  1 <1>  -0.1430 
 13 C       -2.2360    -4.2240    -0.5770 C.3   1 <1>  -0.1600 
 14 C       -3.5330    -2.1000    -0.1350 C.3   1 <1>  -0.1600 
 15 C        3.4870    -2.3130     0.1410 C.3   1 <1>  -0.0970 
 16 C        3.3490     2.0380     0.3080 C.ar  1 <1>  -0.1430 
 17 C        2.3670     4.2050     0.1610 C.3   1 <1>  -0.0170 
 18 C       -3.6460    -3.6120    -0.4200 C.3   1 <1>  -0.0800 
 19 C        4.4610     3.0020     0.6450 C.3   1 <1>  -0.0170 
 20 C        3.8950     4.3650     0.2150 C.3   1 <1>  -0.1600 
 21 C       -4.4820    -4.2880     0.6830 C.3   1 <1>   0.3430 
 22 N       -4.6670    -5.7350     0.3990 N.4   1 <1>  -0.9590 
 23 C       -6.0970    -6.1890     0.4170 C.3   1 <1>   0.3430 
 24 C       -3.8300    -6.6480     1.2480 C.3   1 <1>   0.3430 
 25 C       -6.2080    -7.6580    -0.0650 C.3   1 <1>   0.1100 
 26 C       -3.9650    -8.1160     0.7710 C.3   1 <1>   0.1100 
 27 N       -4.8830    -8.2430    -0.3850 N.3   1 <1>  -0.8100 
 28 C       -5.0070    -9.6410    -0.8190 C.3   1 <1>   0.0300 
 29 H       -0.8860     0.4300    -0.9400 H     1 <1>   0.4570 
 30 H        1.0550    -3.2030    -0.5350 H     1 <1>   0.1500 
 31 H        0.1340     2.5620    -0.5060 H     1 <1>   0.1500 
 32 H       -0.4350    -3.9080    -1.7180 H     1 <1>   0.0800 
 33 H       -1.8790    -3.4790    -2.5600 H     1 <1>   0.0800 
 34 H       -3.0770    -1.4510    -2.1390 H     1 <1>   0.0800 
 35 H       -2.5940    -0.3340    -0.8930 H     1 <1>   0.0800 
 36 H        4.3400     0.1760     0.4720 H     1 <1>   0.1500 
 37 H       -1.7180    -4.2210     0.3670 H     1 <1>   0.0800 
 38 H       -2.3060    -5.2430    -0.9150 H     1 <1>   0.0800 
 39 H       -4.5130    -1.6530    -0.1570 H     1 <1>   0.0800 
 40 H       -3.1240    -1.9380     0.8480 H     1 <1>   0.0800 
 41 H        3.3040    -3.3690     0.0470 H     1 <1>   0.0800 
 42 H        3.8210    -2.1210     1.1460 H     1 <1>   0.0800 
 43 H        4.2740    -2.0490    -0.5440 H     1 <1>   0.0800 
 44 H        1.9220     4.5520     1.0780 H     1 <1>   0.0800 
 45 H        1.9460     4.7380    -0.6740 H     1 <1>   0.0800 
 46 H       -4.1730    -3.7250    -1.3530 H     1 <1>   0.0800 
 47 H        5.3690     2.7660     0.1170 H     1 <1>   0.0800 
 48 H        4.6420     2.9860     1.7060 H     1 <1>   0.0800 
 49 H        4.1940     5.1530     0.8850 H     1 <1>   0.0800 
 50 H        4.2560     4.5930    -0.7730 H     1 <1>   0.0800 
 51 H       -5.4440    -3.8040     0.7320 H     1 <1>   0.0800 
 52 H       -3.9980    -4.1590     1.6380 H     1 <1>   0.0800 
 53 H       -4.3690    -5.9620    -0.5630 H     1 <1>   0.4500 
 54 H       -6.6910    -5.5650    -0.2300 H     1 <1>   0.0800 
 55 H       -6.4990    -6.1090     1.4130 H     1 <1>   0.0800 
 56 H       -4.1370    -6.5800     2.2790 H     1 <1>   0.0800 
 57 H       -2.7940    -6.3580     1.1940 H     1 <1>   0.0800 
 58 H       -6.8310    -7.6900    -0.9430 H     1 <1>   0.0800 
 59 H       -6.6940    -8.2440     0.6980 H     1 <1>   0.0800 
 60 H       -4.3170    -8.7230     1.5890 H     1 <1>   0.0800 
 61 H       -2.9910    -8.4830     0.4940 H     1 <1>   0.0800 
 62 H       -5.6440    -9.7030    -1.6860 H     1 <1>   0.0800 
 63 H       -5.4250   -10.2510    -0.0350 H     1 <1>   0.0800 
 64 H       -4.0400   -10.0320    -1.0870 H     1 <1>   0.0800 
@<TRIPOS>BOND
  1   1   2  ar  
  2   1   3  ar  
  3   1  29  1   
  4   2   4  1   
  5   2   5  ar  
  6   3   6  ar  
  7   3   7  ar  
  8   4   8  1   
  9   4   9  1   
 10   5  10  ar  
 11   5  30  1   
 12   6  10  ar  
 13   6  11  ar  
 14   7  12  ar  
 15   7  31  1   
 16   8  13  1   
 17   8  32  1   
 18   8  33  1   
 19   9  14  1   
 20   9  34  1   
 21   9  35  1   
 22  10  15  1   
 23  11  16  ar  
 24  11  36  1   
 25  12  16  ar  
 26  12  17  1   
 27  13  18  1   
 28  13  37  1   
 29  13  38  1   
 30  14  18  1   
 31  14  39  1   
 32  14  40  1   
 33  15  41  1   
 34  15  42  1   
 35  15  43  1   
 36  16  19  1   
 37  17  20  1   
 38  17  44  1   
 39  17  45  1   
 40  18  21  1   
 41  18  46  1   
 42  19  20  1   
 43  19  47  1   
 44  19  48  1   
 45  20  49  1   
 46  20  50  1   
 47  21  22  1   
 48  21  51  1   
 49  21  52  1   
 50  22  23  1   
 51  22  24  1   
 52  22  53  1   
 53  23  25  1   
 54  23  54  1   
 55  23  55  1   
 56  24  26  1   
 57  24  56  1   
 58  24  57  1   
 59  25  27  1   
 60  25  58  1   
 61  25  59  1   
 62  26  27  1   
 63  26  60  1   
 64  26  61  1   
 65  27  28  1   
 66  28  62  1   
 67  28  63  1   
 68  28  64  1   
@<TRIPOS>SUBSTRUCTURE
  1 ****   4 GROUP 4 **** **** 0

# MOE 2024.06 (io_trps.svl 2023.06)
