@<TRIPOS>MOLECULE
NONAME
42 44 1 0 0 
SMALL
USER_CHARGES


@<TRIPOS>ATOM
  1 O       -0.5660     0.2810     0.5710 O.2   1 <1>  -0.5700 
  2 C       -1.6670     0.7840     0.4230 C.2   1 <1>   0.7160 
  3 N       -2.7690     0.0260     0.7780 N.am  1 <1>  -0.6600 
  4 C       -1.7530     2.1320    -0.1160 C.2   1 <1>   0.1410 
  5 C       -2.7340    -1.4680     0.7600 C.3   1 <1>   0.1400 
  6 C       -4.1510     0.5520     0.9840 C.3   1 <1>   0.1400 
  7 N       -2.7790     2.5980    -0.8690 N.2   1 <1>  -0.2270 
  8 C       -0.8490     3.1350    -0.0100 C.2   1 <1>  -0.3020 
  9 C       -3.7800    -2.0200    -0.2290 C.3   1 <1>   0.3440 
 10 C       -5.1100    -0.0650    -0.0560 C.3   1 <1>   0.2000 
 11 N       -2.5400     3.8160    -1.1980 N.2   1 <1>  -0.4180 
 12 N       -1.3590     4.1590    -0.6840 N.pl3 1 <1>   0.3000 
 13 O       -5.0440    -1.4650     0.0380 O.3   1 <1>  -0.5600 
 14 C       -3.8620    -3.5410    -0.1340 C.ar  1 <1>  -0.1440 
 15 C       -6.5830     0.3670     0.1350 C.3   1 <1>  -0.0800 
 16 C       -4.6870    -4.1630     0.7930 C.ar  1 <1>  -0.1500 
 17 C       -3.0870    -4.3240    -0.9780 C.ar  1 <1>  -0.1500 
 18 C       -7.5070    -0.3210    -0.8830 C.3   1 <1>  -0.2400 
 19 C       -6.7580     1.8900     0.0050 C.3   1 <1>  -0.2400 
 20 C       -4.7370    -5.5440     0.8760 C.ar  1 <1>  -0.1500 
 21 C       -3.1360    -5.7060    -0.8970 C.ar  1 <1>  -0.1500 
 22 C       -3.9610    -6.3160     0.0310 C.ar  1 <1>  -0.1500 
 23 H       -1.7600    -1.8250     0.4740 H     1 <1>   0.0800 
 24 H       -2.9450    -1.8430     1.7460 H     1 <1>   0.0800 
 25 H       -4.4860     0.2810     1.9700 H     1 <1>   0.0800 
 26 H       -4.1650     1.6230     0.9270 H     1 <1>   0.0800 
 27 H        0.0990     3.1470     0.4960 H     1 <1>   0.1500 
 28 H       -3.5080    -1.7420    -1.2320 H     1 <1>   0.0800 
 29 H       -4.7920     0.2200    -1.0450 H     1 <1>   0.0800 
 30 H       -0.9460     5.0880    -0.8220 H     1 <1>   0.2700 
 31 H       -6.8930     0.0770     1.1250 H     1 <1>   0.0800 
 32 H       -5.2980    -3.5700     1.4510 H     1 <1>   0.1500 
 33 H       -2.4400    -3.8640    -1.7050 H     1 <1>   0.1500 
 34 H       -7.2150    -0.0730    -1.8880 H     1 <1>   0.0800 
 35 H       -8.5280    -0.0150    -0.7340 H     1 <1>   0.0800 
 36 H       -7.4620    -1.3910    -0.7700 H     1 <1>   0.0800 
 37 H       -6.3800     2.2350    -0.9420 H     1 <1>   0.0800 
 38 H       -6.2430     2.4110     0.7910 H     1 <1>   0.0800 
 39 H       -7.7990     2.1530     0.0710 H     1 <1>   0.0800 
 40 H       -5.3820    -6.0150     1.5960 H     1 <1>   0.1500 
 41 H       -2.5320    -6.3050    -1.5550 H     1 <1>   0.1500 
 42 H       -3.9990    -7.3900     0.0940 H     1 <1>   0.1500 
@<TRIPOS>BOND
  1   1   2  2   
  2   2   3  am  
  3   2   4  1   
  4   3   5  1   
  5   3   6  1   
  6   4   7  1   
  7   4   8  2   
  8   5   9  1   
  9   5  23  1   
 10   5  24  1   
 11   6  10  1   
 12   6  25  1   
 13   6  26  1   
 14   7  11  2   
 15   8  12  1   
 16   8  27  1   
 17   9  13  1   
 18   9  14  1   
 19   9  28  1   
 20  10  13  1   
 21  10  15  1   
 22  10  29  1   
 23  11  12  1   
 24  12  30  1   
 25  14  16  ar  
 26  14  17  ar  
 27  15  18  1   
 28  15  19  1   
 29  15  31  1   
 30  16  20  ar  
 31  16  32  1   
 32  17  21  ar  
 33  17  33  1   
 34  18  34  1   
 35  18  35  1   
 36  18  36  1   
 37  19  37  1   
 38  19  38  1   
 39  19  39  1   
 40  20  22  ar  
 41  20  40  1   
 42  21  22  ar  
 43  21  41  1   
 44  22  42  1   
@<TRIPOS>SUBSTRUCTURE
  1 ****   9 GROUP 4 **** **** 0

# MOE 2024.06 (io_trps.svl 2023.06)
