@<TRIPOS>MOLECULE
NONAME
46 48 1 0 0 
SMALL
USER_CHARGES


@<TRIPOS>ATOM
  1 CL       1.2070    -1.2450     4.1510 Cl    1 <1>  -0.1770 
  2 C        1.7160    -1.4690     2.4980 C.ar  1 <1>   0.1770 
  3 C        1.8110    -2.7480     1.9910 C.ar  1 <1>  -0.1500 
  4 C        2.0090    -0.3630     1.7240 C.ar  1 <1>  -0.1500 
  5 C        2.1850    -2.9540     0.6660 C.ar  1 <1>   0.0860 
  6 C        2.4140    -0.5440     0.4120 C.ar  1 <1>  -0.1440 
  7 C        2.2510    -4.2870     0.0980 C.2   1 <1>   0.5440 
  8 C        2.5030    -1.8290    -0.0980 C.ar  1 <1>  -0.1500 
  9 C        2.7540     0.6570    -0.4520 C.3   1 <1>  -0.0960 
 10 O        3.2960    -4.6560    -0.4050 O.2   1 <1>  -0.5700 
 11 N        1.1850    -5.1690     0.1250 N.am  1 <1>  -0.6600 
 12 C       -0.2360    -4.8450    -0.2080 C.3   1 <1>   0.2200 
 13 C        1.4670    -6.6330     0.1270 C.3   1 <1>   0.0600 
 14 C       -1.0670    -4.4770     1.0150 C.3   1 <1>  -0.1600 
 15 C       -0.4460    -3.6950    -1.1900 C.3   1 <1>  -0.1600 
 16 C       -2.2870    -3.7290     0.4590 C.3   1 <1>  -0.0800 
 17 C       -1.8920    -3.2430    -0.9560 C.3   1 <1>  -0.0800 
 18 C       -2.7830    -2.6220     1.4090 C.3   1 <1>   0.1400 
 19 C       -2.0910    -1.7300    -1.1700 C.3   1 <1>  -0.0990 
 20 N       -3.7120    -1.7170     0.6880 N.am  1 <1>  -0.6600 
 21 C       -3.4030    -1.2690    -0.5670 C.2   1 <1>   0.5690 
 22 C       -4.9430    -1.2990     1.4100 C.3   1 <1>   0.0600 
 23 O       -4.1140    -0.5280    -1.2030 O.2   1 <1>  -0.5700 
 24 H        1.5950    -3.5910     2.6220 H     1 <1>   0.1500 
 25 H        1.9240     0.6210     2.1490 H     1 <1>   0.1500 
 26 H        2.8230    -1.9840    -1.1150 H     1 <1>   0.1500 
 27 H        3.3700     0.3660    -1.2850 H     1 <1>   0.0800 
 28 H        3.2900     1.3910     0.1230 H     1 <1>   0.0800 
 29 H        1.8510     1.1030    -0.8300 H     1 <1>   0.0800 
 30 H       -0.6900    -5.7150    -0.6550 H     1 <1>   0.0800 
 31 H        0.7590    -7.1440     0.7560 H     1 <1>   0.0800 
 32 H        2.4580    -6.8220     0.5030 H     1 <1>   0.0800 
 33 H        1.4000    -7.0160    -0.8760 H     1 <1>   0.0800 
 34 H       -1.3580    -5.3520     1.5680 H     1 <1>   0.0800 
 35 H       -0.5090    -3.8240     1.6540 H     1 <1>   0.0800 
 36 H        0.2100    -2.8770    -0.9780 H     1 <1>   0.0800 
 37 H       -0.2920    -4.0160    -2.2050 H     1 <1>   0.0800 
 38 H       -3.0890    -4.4400     0.3460 H     1 <1>   0.0800 
 39 H       -2.5270    -3.7590    -1.6570 H     1 <1>   0.0800 
 40 H       -1.9520    -2.0370     1.7670 H     1 <1>   0.0800 
 41 H       -3.2770    -3.0640     2.2570 H     1 <1>   0.0800 
 42 H       -2.0760    -1.5000    -2.2190 H     1 <1>   0.0800 
 43 H       -1.3060    -1.1730    -0.6920 H     1 <1>   0.0800 
 44 H       -4.6770    -0.8030     2.3260 H     1 <1>   0.0800 
 45 H       -5.5450    -2.1630     1.6320 H     1 <1>   0.0800 
 46 H       -5.5230    -0.6210     0.8070 H     1 <1>   0.0800 
@<TRIPOS>BOND
  1   1   2  1   
  2   2   3  ar  
  3   2   4  ar  
  4   3   5  ar  
  5   3  24  1   
  6   4   6  ar  
  7   4  25  1   
  8   5   7  1   
  9   5   8  ar  
 10   6   8  ar  
 11   6   9  1   
 12   7  10  2   
 13   7  11  am  
 14   8  26  1   
 15   9  27  1   
 16   9  28  1   
 17   9  29  1   
 18  11  12  1   
 19  11  13  1   
 20  12  14  1   
 21  12  15  1   
 22  12  30  1   
 23  13  31  1   
 24  13  32  1   
 25  13  33  1   
 26  14  16  1   
 27  14  34  1   
 28  14  35  1   
 29  15  17  1   
 30  15  36  1   
 31  15  37  1   
 32  16  17  1   
 33  16  18  1   
 34  16  38  1   
 35  17  19  1   
 36  17  39  1   
 37  18  20  1   
 38  18  40  1   
 39  18  41  1   
 40  19  21  1   
 41  19  42  1   
 42  19  43  1   
 43  20  21  am  
 44  20  22  1   
 45  21  23  2   
 46  22  44  1   
 47  22  45  1   
 48  22  46  1   
@<TRIPOS>SUBSTRUCTURE
  1 ****  15 GROUP 4 **** **** 0

# MOE 2024.06 (io_trps.svl 2023.06)
