@<TRIPOS>MOLECULE
NONAME
53 56 1 0 0 
SMALL
USER_CHARGES


@<TRIPOS>ATOM
  1 O       -0.4880     0.4920    -1.7390 O.2   1 <1>  -0.5700 
  2 C       -1.5530     1.0400    -1.5690 C.2   1 <1>   0.5690 
  3 N       -2.7140     0.3070    -1.4910 N.am  1 <1>  -0.6600 
  4 C       -1.5880     2.5660    -1.4760 C.3   1 <1>   0.0440 
  5 C       -4.1120     0.8410    -1.4350 C.3   1 <1>   0.1400 
  6 C       -2.6830    -1.1890    -1.4390 C.3   1 <1>   0.1400 
  7 C       -0.2740     3.2330    -1.0700 C.ar  1 <1>  -0.1440 
  8 C       -4.8530     0.2920    -0.2010 C.3   1 <1>   0.1900 
  9 C       -3.4770    -1.7140    -0.2310 C.3   1 <1>   0.1100 
 10 C       -0.1310     3.7960     0.1890 C.ar  1 <1>  -0.1500 
 11 C        0.7870     3.2960    -1.9600 C.ar  1 <1>  -0.1500 
 12 N       -4.8640    -1.1910    -0.2180 N.3   1 <1>  -0.8100 
 13 C       -6.2930     0.8410    -0.1470 C.3   1 <1>   0.1200 
 14 C        1.0490     4.4200     0.5610 C.ar  1 <1>   0.0820 
 15 C        1.9710     3.9170    -1.5990 C.ar  1 <1>  -0.1500 
 16 C       -5.6360    -1.7050     0.9390 C.3   1 <1>   0.3330 
 17 O       -6.9620     0.3410     0.9730 O.3   1 <1>  -0.5600 
 18 O        1.0940     4.9430     1.8120 O.3   1 <1>  -0.3630 
 19 C        2.1060     4.4800    -0.3430 C.ar  1 <1>  -0.1500 
 20 C       -5.7800    -3.2250     0.8750 C.ar  1 <1>  -0.1430 
 21 C       -7.0390    -1.0610     0.9900 C.3   1 <1>   0.1200 
 22 C        2.2660     5.5500     2.3080 C.3   1 <1>   0.0400 
 23 C       -6.1650    -3.8550    -0.3010 C.ar  1 <1>  -0.1500 
 24 C       -5.5310    -3.9960     2.0020 C.ar  1 <1>  -0.1500 
 25 C       -6.2990    -5.2310    -0.3510 C.ar  1 <1>  -0.1500 
 26 C       -5.6640    -5.3730     1.9540 C.ar  1 <1>  -0.1500 
 27 C       -6.0490    -5.9910     0.7780 C.ar  1 <1>  -0.1500 
 28 H       -1.8880     2.9500    -2.4320 H     1 <1>   0.0800 
 29 H       -2.3310     2.8520    -0.7580 H     1 <1>   0.0800 
 30 H       -4.1220     1.9130    -1.4140 H     1 <1>   0.0800 
 31 H       -4.6360     0.5280    -2.3220 H     1 <1>   0.0800 
 32 H       -3.1120    -1.5830    -2.3430 H     1 <1>   0.0800 
 33 H       -1.6700    -1.5470    -1.3730 H     1 <1>   0.0800 
 34 H       -4.3370     0.6390     0.6780 H     1 <1>   0.0800 
 35 H       -2.9670    -1.4300     0.6740 H     1 <1>   0.0800 
 36 H       -3.4930    -2.7890    -0.2800 H     1 <1>   0.0800 
 37 H       -0.9320     3.7590     0.9040 H     1 <1>   0.1500 
 38 H        0.6960     2.8520    -2.9370 H     1 <1>   0.1500 
 39 H       -6.8410     0.5600    -1.0300 H     1 <1>   0.0800 
 40 H       -6.2830     1.9130    -0.0670 H     1 <1>   0.0800 
 41 H        2.7870     3.9560    -2.2980 H     1 <1>   0.1500 
 42 H       -5.1210    -1.4410     1.8470 H     1 <1>   0.0800 
 43 H        3.0340     4.9540    -0.0880 H     1 <1>   0.1500 
 44 H       -7.5440    -1.3530     1.8930 H     1 <1>   0.0800 
 45 H       -7.6270    -1.3830     0.1490 H     1 <1>   0.0800 
 46 H        2.0760     5.8670     3.3170 H     1 <1>   0.0800 
 47 H        2.5040     6.4000     1.6950 H     1 <1>   0.0800 
 48 H        3.0640     4.8280     2.2950 H     1 <1>   0.0800 
 49 H       -6.3540    -3.2670    -1.1830 H     1 <1>   0.1500 
 50 H       -5.2320    -3.5290     2.9240 H     1 <1>   0.1500 
 51 H       -6.5970    -5.7090    -1.2680 H     1 <1>   0.1500 
 52 H       -5.4700    -5.9630     2.8320 H     1 <1>   0.1500 
 53 H       -6.1530    -7.0620     0.7400 H     1 <1>   0.1500 
@<TRIPOS>BOND
  1   1   2  2   
  2   2   3  am  
  3   2   4  1   
  4   3   5  1   
  5   3   6  1   
  6   4   7  1   
  7   4  28  1   
  8   4  29  1   
  9   5   8  1   
 10   5  30  1   
 11   5  31  1   
 12   6   9  1   
 13   6  32  1   
 14   6  33  1   
 15   7  10  ar  
 16   7  11  ar  
 17   8  12  1   
 18   8  13  1   
 19   8  34  1   
 20   9  12  1   
 21   9  35  1   
 22   9  36  1   
 23  10  14  ar  
 24  10  37  1   
 25  11  15  ar  
 26  11  38  1   
 27  12  16  1   
 28  13  17  1   
 29  13  39  1   
 30  13  40  1   
 31  14  18  1   
 32  14  19  ar  
 33  15  19  ar  
 34  15  41  1   
 35  16  20  1   
 36  16  21  1   
 37  16  42  1   
 38  17  21  1   
 39  18  22  1   
 40  19  43  1   
 41  20  23  ar  
 42  20  24  ar  
 43  21  44  1   
 44  21  45  1   
 45  22  46  1   
 46  22  47  1   
 47  22  48  1   
 48  23  25  ar  
 49  23  49  1   
 50  24  26  ar  
 51  24  50  1   
 52  25  27  ar  
 53  25  51  1   
 54  26  27  ar  
 55  26  52  1   
 56  27  53  1   
@<TRIPOS>SUBSTRUCTURE
  1 ****   3 GROUP 4 **** **** 0

# MOE 2024.06 (io_trps.svl 2023.06)
