@<TRIPOS>MOLECULE
NONAME
45 47 1 0 0 
SMALL
USER_CHARGES


@<TRIPOS>ATOM
  1 F        0.6760    -0.9970     1.6900 F     1 <1>  -0.1900 
  2 C        1.1270    -2.0440     1.0530 C.ar  1 <1>   0.1900 
  3 C        0.2490    -3.0590     0.7320 C.ar  1 <1>  -0.1500 
  4 C        2.4650    -2.0990     0.7210 C.ar  1 <1>  -0.1500 
  5 C        0.7340    -4.1690     0.0580 C.ar  1 <1>  -0.1500 
  6 C        2.9360    -3.2130     0.0470 C.ar  1 <1>  -0.1500 
  7 C        2.0810    -4.2640    -0.2820 C.ar  1 <1>  -0.1080 
  8 C        2.6320    -5.4830    -1.0300 C.3   1 <1>   0.3330 
  9 N        2.0470    -6.8090    -0.6080 N.am  1 <1>  -0.5100 
 10 C        3.9970    -5.9810    -0.4930 C.3   1 <1>   0.0000 
 11 C        0.9670    -7.4170    -1.1700 C.2   1 <1>   0.5690 
 12 C        3.4200    -7.4070    -0.5220 C.3   1 <1>   0.2250 
 13 O        0.1830    -6.8300    -1.8780 O.2   1 <1>  -0.5700 
 14 C        0.6860    -8.8940    -0.8580 C.3   1 <1>   0.4040 
 15 N       -0.4120    -9.1290     0.1660 N.4   1 <1>  -0.9590 
 16 C       -0.5410   -10.5390     0.6450 C.3   1 <1>   0.4230 
 17 C       -1.7250    -8.6140    -0.3470 C.3   1 <1>   0.2630 
 18 C        0.7000   -10.9620     1.4290 C.3   1 <1>  -0.1600 
 19 C       -0.6350   -11.5580    -0.4930 C.3   1 <1>  -0.1600 
 20 C        1.6190   -11.7290     0.4690 C.3   1 <1>  -0.1600 
 21 C        0.7850   -12.0660    -0.7710 C.3   1 <1>  -0.1600 
 22 H       -0.7890    -2.9760     0.9990 H     1 <1>   0.1500 
 23 H        3.1180    -1.2860     0.9820 H     1 <1>   0.1500 
 24 H        0.0470    -4.9500    -0.2040 H     1 <1>   0.1500 
 25 H        3.9780    -3.2500    -0.2210 H     1 <1>   0.1500 
 26 H        2.6160    -5.3800    -2.1010 H     1 <1>   0.0000 
 27 H        4.2210    -5.6580     0.5090 H     1 <1>   0.0000 
 28 H        4.8150    -5.8300    -1.1760 H     1 <1>   0.0000 
 29 H        3.6650    -7.9570    -1.4140 H     1 <1>   0.0000 
 30 H        3.5650    -7.9540     0.3920 H     1 <1>   0.0000 
 31 H        1.6010    -9.3330    -0.5060 H     1 <1>   0.0800 
 32 H        0.4230    -9.3800    -1.7810 H     1 <1>   0.0800 
 33 H       -0.1700    -8.5620     0.9910 H     1 <1>   0.4500 
 34 H       -1.4110   -10.6150     1.2790 H     1 <1>   0.0800 
 35 H       -2.0110    -9.1380    -1.2440 H     1 <1>   0.0800 
 36 H       -1.6550    -7.5620    -0.5770 H     1 <1>   0.0800 
 37 H       -2.4970    -8.7490     0.3930 H     1 <1>   0.0800 
 38 H        0.3820   -11.6460     2.1970 H     1 <1>   0.0800 
 39 H        1.2000   -10.1390     1.9080 H     1 <1>   0.0800 
 40 H       -1.1170   -11.1780    -1.3760 H     1 <1>   0.0800 
 41 H       -1.2170   -12.3910    -0.1350 H     1 <1>   0.0800 
 42 H        1.9790   -12.6310     0.9380 H     1 <1>   0.0800 
 43 H        2.4750   -11.1360     0.1960 H     1 <1>   0.0800 
 44 H        1.1990   -11.5830    -1.6400 H     1 <1>   0.0800 
 45 H        0.7790   -13.1280    -0.9540 H     1 <1>   0.0800 
@<TRIPOS>BOND
  1   1   2  1   
  2   2   3  ar  
  3   2   4  ar  
  4   3   5  ar  
  5   3  22  1   
  6   4   6  ar  
  7   4  23  1   
  8   5   7  ar  
  9   5  24  1   
 10   6   7  ar  
 11   6  25  1   
 12   7   8  1   
 13   8   9  1   
 14   8  10  1   
 15   8  26  1   
 16   9  11  am  
 17   9  12  1   
 18  10  12  1   
 19  10  27  1   
 20  10  28  1   
 21  11  13  2   
 22  11  14  1   
 23  12  29  1   
 24  12  30  1   
 25  14  15  1   
 26  14  31  1   
 27  14  32  1   
 28  15  16  1   
 29  15  17  1   
 30  15  33  1   
 31  16  18  1   
 32  16  19  1   
 33  16  34  1   
 34  17  35  1   
 35  17  36  1   
 36  17  37  1   
 37  18  20  1   
 38  18  38  1   
 39  18  39  1   
 40  19  21  1   
 41  19  40  1   
 42  19  41  1   
 43  20  21  1   
 44  20  42  1   
 45  20  43  1   
 46  21  44  1   
 47  21  45  1   
@<TRIPOS>SUBSTRUCTURE
  1 ****   9 GROUP 4 **** **** 0

# MOE 2024.06 (io_trps.svl 2023.06)
