@<TRIPOS>MOLECULE
NONAME
44 45 1 0 0 
SMALL
USER_CHARGES


@<TRIPOS>ATOM
  1 O       -0.4600     0.6390     2.1240 O.2   1 <1>  -0.5700 
  2 C       -1.1050     0.8330     1.1230 C.2   1 <1>   0.5690 
  3 N       -1.8530    -0.1440     0.5570 N.am  1 <1>  -0.7300 
  4 C       -1.0920     2.2190     0.4850 C.3   1 <1>  -0.0190 
  5 C       -2.0740    -1.4790     1.1300 C.3   1 <1>   0.2840 
  6 C       -2.5130     2.8060     0.3560 C.3   1 <1>  -0.1600 
  7 C       -0.3560     2.2190    -0.8770 C.3   1 <1>  -0.1600 
  8 C       -3.5220    -1.8500     0.8710 C.ar  1 <1>  -0.1440 
  9 C       -2.4980     4.2630    -0.1490 C.3   1 <1>   0.2000 
 10 C       -0.7600     3.3840    -1.8020 C.3   1 <1>  -0.1600 
 11 C       -3.8730    -2.5590    -0.2680 C.ar  1 <1>  -0.1500 
 12 C       -4.5080    -1.4710     1.7670 C.ar  1 <1>  -0.1500 
 13 O       -3.6530     4.4630    -0.9270 O.3   1 <1>  -0.5600 
 14 C       -1.2450     4.5960    -1.0020 C.3   1 <1>   0.2000 
 15 C       -5.1960    -2.8890    -0.5170 C.ar  1 <1>  -0.1440 
 16 C       -5.8300    -1.7990     1.5270 C.ar  1 <1>  -0.1500 
 17 C       -4.8170     4.7190    -0.2040 C.3   1 <1>   0.0400 
 18 O       -1.5580     5.5990    -1.8960 O.3   1 <1>  -0.6800 
 19 C       -6.1740    -2.5060     0.3890 C.ar  1 <1>  -0.1500 
 20 C       -5.5660    -3.6640    -1.7690 C.3   1 <1>   0.2640 
 21 O       -5.0330    -4.9310    -1.6520 O.3   1 <1>  -0.6800 
 22 H       -2.4350     0.0620    -0.2560 H     1 <1>   0.3700 
 23 H       -0.5430     2.8600     1.1540 H     1 <1>   0.0800 
 24 H       -1.4130    -2.1860     0.6590 H     1 <1>   0.0800 
 25 H       -1.8690    -1.4710     2.1870 H     1 <1>   0.0800 
 26 H       -3.0010     2.7680     1.3130 H     1 <1>   0.0800 
 27 H       -3.0740     2.2000    -0.3340 H     1 <1>   0.0800 
 28 H        0.7030     2.2660    -0.6850 H     1 <1>   0.0800 
 29 H       -0.5390     1.2960    -1.4010 H     1 <1>   0.0800 
 30 H       -2.5160     4.9460     0.6840 H     1 <1>   0.0800 
 31 H       -1.5600     3.0590    -2.4450 H     1 <1>   0.0800 
 32 H        0.0770     3.6630    -2.4190 H     1 <1>   0.0800 
 33 H       -3.1140    -2.8610    -0.9710 H     1 <1>   0.1500 
 34 H       -4.2480    -0.9160     2.6520 H     1 <1>   0.1500 
 35 H       -0.4470     4.9510    -0.3730 H     1 <1>   0.0800 
 36 H       -6.5920    -1.5030     2.2280 H     1 <1>   0.1500 
 37 H       -5.6200     4.8670    -0.9040 H     1 <1>   0.0800 
 38 H       -4.6830     5.6120     0.3830 H     1 <1>   0.0800 
 39 H       -5.0420     3.8790     0.4290 H     1 <1>   0.0800 
 40 H       -2.5150     5.4860    -2.0970 H     1 <1>   0.4000 
 41 H       -7.2060    -2.7550     0.2140 H     1 <1>   0.1500 
 42 H       -5.1580    -3.2040    -2.6520 H     1 <1>   0.0800 
 43 H       -6.6340    -3.7560    -1.8730 H     1 <1>   0.0800 
 44 H       -5.0940    -5.2070    -0.7170 H     1 <1>   0.4000 
@<TRIPOS>BOND
  1   1   2  2   
  2   2   3  am  
  3   2   4  1   
  4   3   5  1   
  5   3  22  1   
  6   4   6  1   
  7   4   7  1   
  8   4  23  1   
  9   5   8  1   
 10   5  24  1   
 11   5  25  1   
 12   6   9  1   
 13   6  26  1   
 14   6  27  1   
 15   7  10  1   
 16   7  28  1   
 17   7  29  1   
 18   8  11  ar  
 19   8  12  ar  
 20   9  13  1   
 21   9  14  1   
 22   9  30  1   
 23  10  14  1   
 24  10  31  1   
 25  10  32  1   
 26  11  15  ar  
 27  11  33  1   
 28  12  16  ar  
 29  12  34  1   
 30  13  17  1   
 31  14  18  1   
 32  14  35  1   
 33  15  19  ar  
 34  15  20  1   
 35  16  19  ar  
 36  16  36  1   
 37  17  37  1   
 38  17  38  1   
 39  17  39  1   
 40  18  40  1   
 41  19  41  1   
 42  20  21  1   
 43  20  42  1   
 44  20  43  1   
 45  21  44  1   
@<TRIPOS>SUBSTRUCTURE
  1 ****   3 GROUP 4 **** **** 0

# MOE 2024.06 (io_trps.svl 2023.06)
