@<TRIPOS>MOLECULE
NONAME
50 52 1 0 0 
SMALL
USER_CHARGES


@<TRIPOS>ATOM
  1 CL      -0.4050    -0.4620     0.9910 Cl    1 <1>  -0.1770 
  2 C       -1.7100    -1.2580     0.1490 C.ar  1 <1>   0.1770 
  3 C       -1.7790    -2.6380     0.1600 C.ar  1 <1>  -0.1500 
  4 C       -2.6530    -0.4950    -0.5140 C.ar  1 <1>  -0.1500 
  5 C       -2.8140    -3.2770    -0.5060 C.ar  1 <1>  -0.1440 
  6 C       -3.6860    -1.1320    -1.1790 C.ar  1 <1>  -0.1500 
  7 C       -3.7640    -2.5160    -1.1740 C.ar  1 <1>  -0.1500 
  8 C       -2.9160    -4.7940    -0.5060 C.3   1 <1>  -0.0160 
  9 C       -3.8690    -5.2600     0.5950 C.3   1 <1>   0.1400 
 10 N       -3.9480    -6.7420     0.6080 N.am  1 <1>  -0.7300 
 11 C       -4.8840    -7.4630    -0.0700 C.2   1 <1>   0.5690 
 12 O       -5.7190    -6.9170    -0.7530 O.2   1 <1>  -0.5700 
 13 C       -4.8660    -9.0000     0.0480 C.3   1 <1>   0.1710 
 14 N       -6.2000    -9.6730     0.0290 N.3   1 <1>  -0.8100 
 15 C       -6.1260   -11.1450     0.0930 C.3   1 <1>   0.1100 
 16 C       -7.1350    -9.1380     1.0470 C.3   1 <1>   0.1100 
 17 C       -7.4930   -11.7750    -0.2860 C.3   1 <1>   0.4230 
 18 C       -8.4340    -9.9710     1.1640 C.3   1 <1>   0.3430 
 19 N       -8.6520   -10.8340    -0.0430 N.4   1 <1>  -0.9590 
 20 C       -7.7470   -13.1150     0.4130 C.3   1 <1>  -0.1600 
 21 C      -10.0080   -11.4660    -0.0280 C.3   1 <1>   0.3430 
 22 C       -9.0170   -13.8040    -0.1240 C.3   1 <1>  -0.1600 
 23 C      -10.0030   -12.8080    -0.7630 C.3   1 <1>  -0.1600 
 24 H       -1.0270    -3.1970     0.6860 H     1 <1>   0.1500 
 25 H       -2.5760     0.5770    -0.5070 H     1 <1>   0.1500 
 26 H       -4.4290    -0.5530    -1.7010 H     1 <1>   0.1500 
 27 H       -4.5730    -3.0010    -1.6950 H     1 <1>   0.1500 
 28 H       -1.9420    -5.2220    -0.3510 H     1 <1>   0.0800 
 29 H       -3.2850    -5.1270    -1.4610 H     1 <1>   0.0800 
 30 H       -4.8480    -4.8450     0.4170 H     1 <1>   0.0800 
 31 H       -3.5260    -4.9080     1.5530 H     1 <1>   0.0800 
 32 H       -3.2160    -7.2120     1.1420 H     1 <1>   0.3700 
 33 H       -4.3540    -9.2650     0.9550 H     1 <1>   0.0800 
 34 H       -4.2860    -9.3710    -0.7780 H     1 <1>   0.0800 
 35 H       -5.8370   -11.4500     1.0850 H     1 <1>   0.0800 
 36 H       -5.3790   -11.5080    -0.5920 H     1 <1>   0.0800 
 37 H       -7.4020    -8.1290     0.7790 H     1 <1>   0.0800 
 38 H       -6.6550    -9.0990     2.0100 H     1 <1>   0.0800 
 39 H       -7.4550   -11.9770    -1.3440 H     1 <1>   0.0800 
 40 H       -9.2660    -9.3010     1.3020 H     1 <1>   0.0800 
 41 H       -8.3670   -10.5940     2.0400 H     1 <1>   0.0800 
 42 H       -8.5820   -10.1770    -0.8340 H     1 <1>   0.4500 
 43 H       -7.8400   -12.9490     1.4720 H     1 <1>   0.0800 
 44 H       -6.9050   -13.7680     0.2620 H     1 <1>   0.0800 
 45 H      -10.7280   -10.8000    -0.4780 H     1 <1>   0.0800 
 46 H      -10.3090   -11.6430     0.9920 H     1 <1>   0.0800 
 47 H       -9.4990   -14.3250     0.6870 H     1 <1>   0.0800 
 48 H       -8.7490   -14.5420    -0.8610 H     1 <1>   0.0800 
 49 H       -9.7470   -12.6400    -1.7950 H     1 <1>   0.0800 
 50 H      -10.9940   -13.2280    -0.7460 H     1 <1>   0.0800 
@<TRIPOS>BOND
  1   1   2  1   
  2   2   3  ar  
  3   2   4  ar  
  4   3   5  ar  
  5   3  24  1   
  6   4   6  ar  
  7   4  25  1   
  8   5   7  ar  
  9   5   8  1   
 10   6   7  ar  
 11   6  26  1   
 12   7  27  1   
 13   8   9  1   
 14   8  28  1   
 15   8  29  1   
 16   9  10  1   
 17   9  30  1   
 18   9  31  1   
 19  10  11  am  
 20  10  32  1   
 21  11  12  2   
 22  11  13  1   
 23  13  14  1   
 24  13  33  1   
 25  13  34  1   
 26  14  15  1   
 27  14  16  1   
 28  15  17  1   
 29  15  35  1   
 30  15  36  1   
 31  16  18  1   
 32  16  37  1   
 33  16  38  1   
 34  17  19  1   
 35  17  20  1   
 36  17  39  1   
 37  18  19  1   
 38  18  40  1   
 39  18  41  1   
 40  19  21  1   
 41  19  42  1   
 42  20  22  1   
 43  20  43  1   
 44  20  44  1   
 45  21  23  1   
 46  21  45  1   
 47  21  46  1   
 48  22  23  1   
 49  22  47  1   
 50  22  48  1   
 51  23  49  1   
 52  23  50  1   
@<TRIPOS>SUBSTRUCTURE
  1 ****  11 GROUP 4 **** **** 0

# MOE 2024.06 (io_trps.svl 2023.06)
