@<TRIPOS>MOLECULE
NONAME
42 44 1 0 0 
SMALL
USER_CHARGES


@<TRIPOS>ATOM
  1 CL       1.3660     1.8440     0.0940 Cl    1 <1>  -0.1770 
  2 C        1.9750     0.2060     0.1610 C.ar  1 <1>   0.1770 
  3 C        3.2320    -0.1250    -0.3550 C.ar  1 <1>   0.0860 
  4 C        1.1460    -0.7390     0.7370 C.ar  1 <1>  -0.1500 
  5 C        4.1370     0.8430    -0.9410 C.2   1 <1>   0.5440 
  6 C        3.6050    -1.4690    -0.2810 C.ar  1 <1>  -0.1500 
  7 C        1.5510    -2.0590     0.8060 C.ar  1 <1>  -0.1500 
  8 O        4.8410     0.5470    -1.8890 O.2   1 <1>  -0.5700 
  9 N        4.3440     2.0820    -0.3960 N.am  1 <1>  -0.6600 
 10 C        2.7830    -2.4230     0.2920 C.ar  1 <1>  -0.1500 
 11 C        5.0370     2.1400     0.9390 C.3   1 <1>   0.2200 
 12 C        4.4370     3.2680    -1.3070 C.3   1 <1>   0.1400 
 13 C        4.7280     3.4350     1.7070 C.3   1 <1>   0.1200 
 14 C        6.5640     1.9210     0.7770 C.3   1 <1>   0.3430 
 15 C        5.6330     4.2050    -1.0470 C.3   1 <1>  -0.0800 
 16 O        5.6260     4.4480     1.3690 O.3   1 <1>  -0.5600 
 17 N        7.0180     2.0970    -0.6460 N.4   1 <1>  -0.9590 
 18 C        5.3990     5.1110     0.1720 C.3   1 <1>   0.1200 
 19 C        7.0260     3.5390    -1.0350 C.3   1 <1>   0.3430 
 20 C        8.4220     1.5330    -0.7900 C.3   1 <1>   0.2370 
 21 C        9.4590     2.1760     0.1350 C.2   1 <1>   0.9060 
 22 O        9.5800     1.7140     1.2730 O.co2 1 <1>  -0.9000 
 23 O       10.0270     3.2000    -0.2570 O.co2 1 <1>  -0.9000 
 24 H        0.1870    -0.4440     1.1240 H     1 <1>   0.1500 
 25 H        4.5580    -1.7710    -0.6840 H     1 <1>   0.1500 
 26 H        0.9100    -2.8010     1.2530 H     1 <1>   0.1500 
 27 H        3.0980    -3.4520     0.3370 H     1 <1>   0.1500 
 28 H        4.6570     1.3360     1.5440 H     1 <1>   0.0800 
 29 H        4.4880     2.9270    -2.3280 H     1 <1>   0.0800 
 30 H        3.5230     3.8300    -1.2180 H     1 <1>   0.0800 
 31 H        4.8610     3.2560     2.7600 H     1 <1>   0.0800 
 32 H        3.7170     3.7660     1.5440 H     1 <1>   0.0800 
 33 H        6.8020     0.9220     1.0990 H     1 <1>   0.0800 
 34 H        7.1070     2.5930     1.4240 H     1 <1>   0.0800 
 35 H        5.6490     4.8850    -1.8800 H     1 <1>   0.0800 
 36 H        6.3440     1.5850    -1.2490 H     1 <1>   0.4500 
 37 H        4.4000     5.5140     0.1820 H     1 <1>   0.0800 
 38 H        6.0910     5.9360     0.1440 H     1 <1>   0.0800 
 39 H        7.6790     4.0860    -0.3710 H     1 <1>   0.0800 
 40 H        7.4480     3.6160    -2.0240 H     1 <1>   0.0800 
 41 H        8.4130     0.4810    -0.5720 H     1 <1>   0.0800 
 42 H        8.7660     1.6670    -1.7990 H     1 <1>   0.0800 
@<TRIPOS>BOND
  1   1   2  1   
  2   2   3  ar  
  3   2   4  ar  
  4   3   5  1   
  5   3   6  ar  
  6   4   7  ar  
  7   4  24  1   
  8   5   8  2   
  9   5   9  am  
 10   6  10  ar  
 11   6  25  1   
 12   7  10  ar  
 13   7  26  1   
 14   9  11  1   
 15   9  12  1   
 16  10  27  1   
 17  11  13  1   
 18  11  14  1   
 19  11  28  1   
 20  12  15  1   
 21  12  29  1   
 22  12  30  1   
 23  13  16  1   
 24  13  31  1   
 25  13  32  1   
 26  14  17  1   
 27  14  33  1   
 28  14  34  1   
 29  15  18  1   
 30  15  19  1   
 31  15  35  1   
 32  16  18  1   
 33  17  19  1   
 34  17  20  1   
 35  17  36  1   
 36  18  37  1   
 37  18  38  1   
 38  19  39  1   
 39  19  40  1   
 40  20  21  1   
 41  20  41  1   
 42  20  42  1   
 43  21  22  ar  
 44  21  23  ar  
@<TRIPOS>SUBSTRUCTURE
  1 ****   9 GROUP 4 **** **** 0

# MOE 2024.06 (io_trps.svl 2023.06)
