@<TRIPOS>MOLECULE
NONAME
55 58 1 0 0 
SMALL
USER_CHARGES


@<TRIPOS>ATOM
  1 O       -0.3030     0.1080     0.9810 O.3   1 <1>  -0.2800 
  2 C        0.8660    -0.4430     0.7050 C.2   1 <1>   0.4250 
  3 C       -1.0870    -0.8500     1.3780 C.2   1 <1>  -0.0400 
  4 N        0.8800    -1.7240     0.9290 N.2   1 <1>  -0.5650 
  5 C        1.9630     0.3620     0.2260 C.ar  1 <1>   0.0530 
  6 C       -0.3740    -1.9850     1.3500 C.2   1 <1>   0.0460 
  7 C       -2.5190    -0.5130     1.7420 C.3   1 <1>  -0.0600 
  8 C        1.8270     1.2370    -0.8610 C.ar  1 <1>   0.0830 
  9 C        3.2090     0.2730     0.8470 C.ar  1 <1>  -0.1500 
 10 C       -0.7920    -3.4090     1.6670 C.3   1 <1>   0.5240 
 11 O        0.6220     1.2870    -1.4860 O.3   1 <1>  -0.3630 
 12 C        2.9110     2.0060    -1.2790 C.ar  1 <1>  -0.1500 
 13 C        4.2810     1.0350     0.4260 C.ar  1 <1>  -0.1500 
 14 N       -0.3260    -4.2750     0.5490 N.4   1 <1>  -0.9590 
 15 C        0.3380     2.2220    -2.5030 C.3   1 <1>   0.0400 
 16 C        4.1310     1.9060    -0.6370 C.ar  1 <1>  -0.1500 
 17 C       -1.1120    -4.0050    -0.6890 C.3   1 <1>   0.3430 
 18 C       -0.4740    -5.7260     0.8650 C.3   1 <1>   0.3430 
 19 C       -2.1860    -5.0940    -0.7230 C.3   1 <1>   0.2000 
 20 C       -1.4600    -6.3140    -0.1600 C.3   1 <1>  -0.0800 
 21 O       -3.2020    -4.7440     0.1630 O.3   1 <1>  -0.6800 
 22 C       -0.7270    -7.0960    -1.2670 C.3   1 <1>   0.0210 
 23 C       -0.0560    -8.3360    -0.7110 C.2   1 <1>   0.1080 
 24 N        0.9720    -8.2840     0.0780 N.2   1 <1>  -0.7070 
 25 C       -0.4510    -9.6430    -0.9760 C.2   1 <1>  -0.1500 
 26 N        1.2720    -9.5760     0.3310 N.pl3 1 <1>   0.3000 
 27 C        0.4200   -10.4140    -0.2930 C.2   1 <1>  -0.3320 
 28 C        0.4940   -11.9280    -0.2000 C.3   1 <1>  -0.0600 
 29 H       -3.0600    -1.3930     2.0340 H     1 <1>   0.0800 
 30 H       -3.0110    -0.0640     0.8980 H     1 <1>   0.0800 
 31 H       -2.5290     0.1900     2.5570 H     1 <1>   0.0800 
 32 H        3.3310    -0.4030     1.6750 H     1 <1>   0.1500 
 33 H       -1.8620    -3.4740     1.7790 H     1 <1>   0.0800 
 34 H       -0.3220    -3.7120     2.5870 H     1 <1>   0.0800 
 35 H        2.8280     2.6850    -2.1050 H     1 <1>   0.1500 
 36 H        5.2330     0.9530     0.9240 H     1 <1>   0.1500 
 37 H        0.6580    -3.9970     0.3980 H     1 <1>   0.4500 
 38 H       -0.6910     2.1020    -2.7890 H     1 <1>   0.0800 
 39 H        0.9760     2.0280    -3.3460 H     1 <1>   0.0800 
 40 H        0.4950     3.2150    -2.1180 H     1 <1>   0.0800 
 41 H        4.9660     2.5020    -0.9650 H     1 <1>   0.1500 
 42 H       -1.5470    -3.0180    -0.6960 H     1 <1>   0.0800 
 43 H       -0.4710    -4.1120    -1.5480 H     1 <1>   0.0800 
 44 H        0.4830    -6.2160     0.8180 H     1 <1>   0.0800 
 45 H       -0.8730    -5.8520     1.8580 H     1 <1>   0.0800 
 46 H       -2.6090    -5.2350    -1.7030 H     1 <1>   0.0800 
 47 H       -2.1450    -6.9880     0.3260 H     1 <1>   0.0800 
 48 H       -3.9740    -5.3430     0.0660 H     1 <1>   0.4000 
 49 H        0.0250    -6.4870    -1.7360 H     1 <1>   0.0800 
 50 H       -1.4280    -7.3990    -2.0240 H     1 <1>   0.0800 
 51 H       -1.2730    -9.9520    -1.5980 H     1 <1>   0.1500 
 52 H        2.0630    -9.8540     0.9260 H     1 <1>   0.2700 
 53 H       -0.2900   -12.3740    -0.7860 H     1 <1>   0.0800 
 54 H        0.3820   -12.2460     0.8210 H     1 <1>   0.0800 
 55 H        1.4400   -12.2780    -0.5750 H     1 <1>   0.0800 
@<TRIPOS>BOND
  1   1   2  1   
  2   1   3  1   
  3   2   4  2   
  4   2   5  1   
  5   3   6  2   
  6   3   7  1   
  7   4   6  1   
  8   5   8  ar  
  9   5   9  ar  
 10   6  10  1   
 11   7  29  1   
 12   7  30  1   
 13   7  31  1   
 14   8  11  1   
 15   8  12  ar  
 16   9  13  ar  
 17   9  32  1   
 18  10  14  1   
 19  10  33  1   
 20  10  34  1   
 21  11  15  1   
 22  12  16  ar  
 23  12  35  1   
 24  13  16  ar  
 25  13  36  1   
 26  14  17  1   
 27  14  18  1   
 28  14  37  1   
 29  15  38  1   
 30  15  39  1   
 31  15  40  1   
 32  16  41  1   
 33  17  19  1   
 34  17  42  1   
 35  17  43  1   
 36  18  20  1   
 37  18  44  1   
 38  18  45  1   
 39  19  20  1   
 40  19  21  1   
 41  19  46  1   
 42  20  22  1   
 43  20  47  1   
 44  21  48  1   
 45  22  23  1   
 46  22  49  1   
 47  22  50  1   
 48  23  24  2   
 49  23  25  1   
 50  24  26  1   
 51  25  27  2   
 52  25  51  1   
 53  26  27  1   
 54  26  52  1   
 55  27  28  1   
 56  28  53  1   
 57  28  54  1   
 58  28  55  1   
@<TRIPOS>SUBSTRUCTURE
  1 ****  14 GROUP 4 **** **** 0

# MOE 2024.06 (io_trps.svl 2023.06)
