@<TRIPOS>MOLECULE
NONAME
46 48 1 0 0 
SMALL
USER_CHARGES


@<TRIPOS>ATOM
  1 CL      -1.3100     3.3760     2.4650 Cl    1 <1>  -0.1770 
  2 C       -2.6060     2.8000     1.4490 C.ar  1 <1>   0.1770 
  3 C       -2.8110     3.3850     0.2140 C.ar  1 <1>  -0.1500 
  4 C       -3.4090     1.7670     1.8940 C.ar  1 <1>  -0.1500 
  5 C       -3.8420     2.9290    -0.5900 C.ar  1 <1>  -0.1500 
  6 C       -4.4380     1.3150     1.0860 C.ar  1 <1>  -0.1500 
  7 C       -4.6620     1.8950    -0.1560 C.ar  1 <1>  -0.1430 
  8 C       -5.8060     1.3950    -1.0370 C.3   1 <1>   0.0450 
  9 C       -7.1370     1.2720    -0.3030 C.2   1 <1>   0.5690 
 10 O       -7.6260     0.1670    -0.2370 O.2   1 <1>  -0.5700 
 11 N       -7.7540     2.3690     0.2460 N.am  1 <1>  -0.6600 
 12 C       -9.0660     2.2470     0.9470 C.3   1 <1>   0.1400 
 13 C       -7.1930     3.7550     0.2040 C.3   1 <1>   0.1400 
 14 C      -10.1460     3.0880     0.2310 C.3   1 <1>   0.0000 
 15 C       -8.2670     4.8240     0.4700 C.3   1 <1>  -0.1600 
 16 C      -11.3830     3.2170     1.1390 C.3   1 <1>   0.2000 
 17 C       -9.5870     4.4710    -0.2320 C.3   1 <1>  -0.1600 
 18 C      -10.7440     2.3450    -0.9750 C.3   1 <1>  -0.1600 
 19 O      -11.2230     4.2320     2.0860 O.3   1 <1>  -0.5600 
 20 C      -12.5590     3.4970     0.1970 C.3   1 <1>  -0.1600 
 21 C      -12.1340     2.9570    -1.1760 C.3   1 <1>  -0.1600 
 22 C      -12.1530     4.2210     3.1220 C.3   1 <1>   0.0400 
 23 H       -2.1690     4.1850    -0.1100 H     1 <1>   0.1500 
 24 H       -3.2300     1.3260     2.8580 H     1 <1>   0.1500 
 25 H       -3.9990     3.3830    -1.5530 H     1 <1>   0.1500 
 26 H       -5.0670     0.5090     1.4290 H     1 <1>   0.1500 
 27 H       -5.5390     0.4280    -1.4210 H     1 <1>   0.0800 
 28 H       -5.9460     2.0440    -1.8800 H     1 <1>   0.0800 
 29 H       -9.3760     1.2190     1.0110 H     1 <1>   0.0800 
 30 H       -8.9450     2.6060     1.9550 H     1 <1>   0.0800 
 31 H       -6.4070     3.8440     0.9340 H     1 <1>   0.0800 
 32 H       -6.7720     3.9320    -0.7690 H     1 <1>   0.0800 
 33 H       -8.4360     4.9080     1.5300 H     1 <1>   0.0800 
 34 H       -7.9110     5.7780     0.1270 H     1 <1>   0.0800 
 35 H      -11.5430     2.2830     1.6510 H     1 <1>   0.0800 
 36 H       -9.3940     4.4560    -1.2890 H     1 <1>   0.0800 
 37 H      -10.3050     5.2530    -0.0580 H     1 <1>   0.0800 
 38 H      -10.1310     2.4150    -1.8570 H     1 <1>   0.0800 
 39 H      -10.8580     1.3010    -0.7360 H     1 <1>   0.0800 
 40 H      -13.4460     2.9990     0.5460 H     1 <1>   0.0800 
 41 H      -12.7400     4.5560     0.1280 H     1 <1>   0.0800 
 42 H      -12.8290     2.2240    -1.5500 H     1 <1>   0.0800 
 43 H      -12.0750     3.7700    -1.8790 H     1 <1>   0.0800 
 44 H      -11.9140     5.0280     3.7920 H     1 <1>   0.0800 
 45 H      -12.0890     3.2840     3.6480 H     1 <1>   0.0800 
 46 H      -13.1400     4.3660     2.7210 H     1 <1>   0.0800 
@<TRIPOS>BOND
  1   1   2  1   
  2   2   3  ar  
  3   2   4  ar  
  4   3   5  ar  
  5   3  23  1   
  6   4   6  ar  
  7   4  24  1   
  8   5   7  ar  
  9   5  25  1   
 10   6   7  ar  
 11   6  26  1   
 12   7   8  1   
 13   8   9  1   
 14   8  27  1   
 15   8  28  1   
 16   9  10  2   
 17   9  11  am  
 18  11  12  1   
 19  11  13  1   
 20  12  14  1   
 21  12  29  1   
 22  12  30  1   
 23  13  15  1   
 24  13  31  1   
 25  13  32  1   
 26  14  16  1   
 27  14  17  1   
 28  14  18  1   
 29  15  17  1   
 30  15  33  1   
 31  15  34  1   
 32  16  19  1   
 33  16  20  1   
 34  16  35  1   
 35  17  36  1   
 36  17  37  1   
 37  18  21  1   
 38  18  38  1   
 39  18  39  1   
 40  19  22  1   
 41  20  21  1   
 42  20  40  1   
 43  20  41  1   
 44  21  42  1   
 45  21  43  1   
 46  22  44  1   
 47  22  45  1   
 48  22  46  1   
@<TRIPOS>SUBSTRUCTURE
  1 ****  11 GROUP 4 **** **** 0

# MOE 2024.06 (io_trps.svl 2023.06)
