@<TRIPOS>MOLECULE
NONAME
41 43 1 0 0 
SMALL
USER_CHARGES


@<TRIPOS>ATOM
  1 O       -0.4860     0.3360     0.0360 O.2   1 <1>  -0.5700 
  2 C       -1.4990     0.9270     0.3660 C.2   1 <1>   0.5440 
  3 N       -2.5290     0.2170     0.9290 N.am  1 <1>  -0.6600 
  4 C       -1.5770     2.3580     0.1500 C.ar  1 <1>   0.0860 
  5 C       -3.7700     0.7750     1.5400 C.3   1 <1>   0.2350 
  6 C       -2.7360    -1.2370     0.6770 C.3   1 <1>   0.2350 
  7 C       -0.6010     3.2150     0.6530 C.ar  1 <1>  -0.1500 
  8 C       -2.6090     2.9320    -0.5890 C.ar  1 <1>  -0.1500 
  9 C       -4.8850    -0.1230     1.0420 C.3   1 <1>  -0.2420 
 10 C       -4.2440    -1.3930     0.5330 C.3   1 <1>  -0.2420 
 11 C       -0.6440     4.5830     0.4480 C.ar  1 <1>   0.0820 
 12 C       -2.6810     4.2970    -0.7970 C.ar  1 <1>  -0.1500 
 13 C       -6.1670     0.1540     1.8280 C.2   1 <1>   0.9470 
 14 C       -5.0100    -0.5040    -0.4130 C.3   1 <1>  -0.2000 
 15 C       -4.6620    -2.8590     0.6830 C.2   1 <1>   0.9470 
 16 O        0.3880     5.2830     0.9970 O.3   1 <1>  -0.3630 
 17 C       -1.7080     5.1470    -0.2760 C.ar  1 <1>   0.0820 
 18 O       -7.1510     0.6130     1.2310 O.co2 1 <1>  -0.9000 
 19 O       -6.1400     0.0920     3.0640 O.co2 1 <1>  -0.9000 
 20 O       -4.2050    -3.5180     1.6270 O.co2 1 <1>  -0.9000 
 21 O       -5.3180    -3.4020    -0.2170 O.co2 1 <1>  -0.9000 
 22 C        0.9040     6.4290     0.3570 C.3   1 <1>   0.3200 
 23 O       -1.7800     6.4960    -0.4440 O.3   1 <1>  -0.3630 
 24 C        2.3010     6.6500     0.8300 C.1   1 <1>  -0.2000 
 25 C       -2.9250     7.1280    -0.9740 C.3   1 <1>   0.0400 
 26 C        3.4160     6.8270     1.2050 C.1   1 <1>  -0.1770 
 27 H       -3.6990     0.6990     2.6120 H     1 <1>   0.0800 
 28 H       -3.9540     1.7970     1.2700 H     1 <1>   0.0800 
 29 H       -2.2290    -1.5610    -0.2150 H     1 <1>   0.0800 
 30 H       -2.3790    -1.8000     1.5220 H     1 <1>   0.0800 
 31 H        0.2140     2.7940     1.2140 H     1 <1>   0.1500 
 32 H       -3.3680     2.2860    -1.0000 H     1 <1>   0.1500 
 33 H       -3.5090     4.6720    -1.3670 H     1 <1>   0.1500 
 34 H       -4.4770     0.0460    -1.1640 H     1 <1>   0.1000 
 35 H       -5.9700    -0.8500    -0.7590 H     1 <1>   0.1000 
 36 H        0.8880     6.2680    -0.7070 H     1 <1>   0.0800 
 37 H        0.2880     7.2700     0.6170 H     1 <1>   0.0800 
 38 H       -2.7760     8.1910    -0.9200 H     1 <1>   0.0800 
 39 H       -3.7830     6.8490    -0.3870 H     1 <1>   0.0800 
 40 H       -3.0470     6.8290    -2.0010 H     1 <1>   0.0800 
 41 H        4.4230     6.9800     1.5500 H     1 <1>   0.1770 
@<TRIPOS>BOND
  1   1   2  2   
  2   2   3  am  
  3   2   4  1   
  4   3   5  1   
  5   3   6  1   
  6   4   7  ar  
  7   4   8  ar  
  8   5   9  1   
  9   5  27  1   
 10   5  28  1   
 11   6  10  1   
 12   6  29  1   
 13   6  30  1   
 14   7  11  ar  
 15   7  31  1   
 16   8  12  ar  
 17   8  32  1   
 18   9  10  1   
 19   9  13  1   
 20   9  14  1   
 21  10  14  1   
 22  10  15  1   
 23  11  16  1   
 24  11  17  ar  
 25  12  17  ar  
 26  12  33  1   
 27  13  18  ar  
 28  13  19  ar  
 29  14  34  1   
 30  14  35  1   
 31  15  20  ar  
 32  15  21  ar  
 33  16  22  1   
 34  17  23  1   
 35  22  24  1   
 36  22  36  1   
 37  22  37  1   
 38  23  25  1   
 39  24  26  3   
 40  25  38  1   
 41  25  39  1   
 42  25  40  1   
 43  26  41  1   
@<TRIPOS>SUBSTRUCTURE
  1 ****   4 GROUP 4 **** **** 0

# MOE 2024.06 (io_trps.svl 2023.06)
