@<TRIPOS>MOLECULE
NONAME
53 56 1 0 0 
SMALL
USER_CHARGES


@<TRIPOS>ATOM
  1 F       -1.2670    -0.0290    -1.6700 F     1 <1>  -0.1900 
  2 C       -1.6850     0.4820    -0.5420 C.ar  1 <1>   0.1900 
  3 C       -2.3110    -0.3230     0.4110 C.ar  1 <1>  -0.1440 
  4 C       -1.4900     1.8410    -0.3760 C.ar  1 <1>  -0.1500 
  5 C       -2.7820     0.3280     1.5500 C.ar  1 <1>  -0.1500 
  6 C       -2.5190    -1.8440     0.2040 C.3   1 <1>   0.1440 
  7 C       -1.9480     2.4500     0.7760 C.ar  1 <1>  -0.1500 
  8 C       -2.5980     1.6900     1.7330 C.ar  1 <1>  -0.1500 
  9 C       -2.7590    -2.6010     1.5290 C.3   1 <1>  -0.1600 
 10 C       -1.2530    -2.5490    -0.3270 C.3   1 <1>  -0.1600 
 11 C       -3.7230    -1.9820    -0.7670 C.3   1 <1>   0.1400 
 12 C       -2.2500    -4.0340     1.3530 C.3   1 <1>  -0.1600 
 13 C       -1.2420    -3.9870     0.2060 C.3   1 <1>  -0.1600 
 14 N       -4.0710    -3.3840    -1.1190 N.am  1 <1>  -0.7300 
 15 C       -5.1990    -4.0470    -0.7540 C.2   1 <1>   0.5690 
 16 O       -6.0920    -3.4900    -0.1610 O.2   1 <1>  -0.5700 
 17 C       -5.3100    -5.5430    -1.0780 C.3   1 <1>   0.2610 
 18 O       -4.0190    -6.0640    -1.3900 O.3   1 <1>  -0.5600 
 19 C       -5.9870    -6.2970     0.1060 C.3   1 <1>   0.3640 
 20 C       -3.9840    -7.4420    -1.6820 C.3   1 <1>   0.1810 
 21 N       -5.5150    -7.6970     0.2490 N.am  1 <1>  -0.7300 
 22 C       -7.5050    -6.3350    -0.0580 C.ar  1 <1>  -0.1430 
 23 C       -4.6140    -8.2790    -0.5700 C.2   1 <1>   0.5690 
 24 C       -8.3060    -5.4610     0.6650 C.ar  1 <1>   0.1600 
 25 C       -8.1200    -7.2300    -0.9170 C.ar  1 <1>  -0.1500 
 26 O       -4.3310    -9.4430    -0.4500 O.2   1 <1>  -0.5700 
 27 N       -9.6280    -5.4200     0.6120 N.ar  1 <1>  -0.6200 
 28 C       -9.4950    -7.1950    -0.9890 C.ar  1 <1>  -0.1500 
 29 C      -10.1910    -6.2850    -0.2130 C.ar  1 <1>   0.1600 
 30 H       -0.9920     2.4090    -1.1410 H     1 <1>   0.1500 
 31 H       -3.3100    -0.2060     2.3190 H     1 <1>   0.1500 
 32 H       -1.8060     3.5060     0.9260 H     1 <1>   0.1500 
 33 H       -2.9660     2.1630     2.6280 H     1 <1>   0.1500 
 34 H       -2.1640    -2.1550     2.3060 H     1 <1>   0.0800 
 35 H       -3.7940    -2.5810     1.8270 H     1 <1>   0.0800 
 36 H       -1.1980    -2.5370    -1.4020 H     1 <1>   0.0800 
 37 H       -0.3860    -2.0420     0.0610 H     1 <1>   0.0800 
 38 H       -3.5030    -1.4540    -1.6770 H     1 <1>   0.0800 
 39 H       -4.5800    -1.5060    -0.3220 H     1 <1>   0.0800 
 40 H       -1.7950    -4.3950     2.2590 H     1 <1>   0.0800 
 41 H       -3.0630    -4.6900     1.0970 H     1 <1>   0.0800 
 42 H       -1.5320    -4.6800    -0.5650 H     1 <1>   0.0800 
 43 H       -0.2560    -4.2510     0.5500 H     1 <1>   0.0800 
 44 H       -3.3070    -3.9470    -1.5050 H     1 <1>   0.3700 
 45 H       -5.9170    -5.6430    -1.9580 H     1 <1>   0.0800 
 46 H       -5.7470    -5.7800     1.0200 H     1 <1>   0.0800 
 47 H       -4.5060    -7.6120    -2.6060 H     1 <1>   0.0800 
 48 H       -2.9550    -7.7270    -1.8030 H     1 <1>   0.0800 
 49 H       -5.9650    -8.2740     0.9630 H     1 <1>   0.3700 
 50 H       -7.8380    -4.7490     1.3260 H     1 <1>   0.1500 
 51 H       -7.5590    -7.9350    -1.5070 H     1 <1>   0.1500 
 52 H      -10.0280    -7.8670    -1.6370 H     1 <1>   0.1500 
 53 H      -11.2660    -6.2670    -0.2750 H     1 <1>   0.1500 
@<TRIPOS>BOND
  1   1   2  1   
  2   2   3  ar  
  3   2   4  ar  
  4   3   5  ar  
  5   3   6  1   
  6   4   7  ar  
  7   4  30  1   
  8   5   8  ar  
  9   5  31  1   
 10   6   9  1   
 11   6  10  1   
 12   6  11  1   
 13   7   8  ar  
 14   7  32  1   
 15   8  33  1   
 16   9  12  1   
 17   9  34  1   
 18   9  35  1   
 19  10  13  1   
 20  10  36  1   
 21  10  37  1   
 22  11  14  1   
 23  11  38  1   
 24  11  39  1   
 25  12  13  1   
 26  12  40  1   
 27  12  41  1   
 28  13  42  1   
 29  13  43  1   
 30  14  15  am  
 31  14  44  1   
 32  15  16  2   
 33  15  17  1   
 34  17  18  1   
 35  17  19  1   
 36  17  45  1   
 37  18  20  1   
 38  19  21  1   
 39  19  22  1   
 40  19  46  1   
 41  20  23  1   
 42  20  47  1   
 43  20  48  1   
 44  21  23  am  
 45  21  49  1   
 46  22  24  ar  
 47  22  25  ar  
 48  23  26  2   
 49  24  27  ar  
 50  24  50  1   
 51  25  28  ar  
 52  25  51  1   
 53  27  29  ar  
 54  28  29  ar  
 55  28  52  1   
 56  29  53  1   
@<TRIPOS>SUBSTRUCTURE
  1 ****  15 GROUP 4 **** **** 0

# MOE 2024.06 (io_trps.svl 2023.06)
