@<TRIPOS>MOLECULE
NONAME
53 56 1 0 0 
SMALL
USER_CHARGES


@<TRIPOS>ATOM
  1 O       -0.1520    -0.0350     1.3570 O.2   1 <1>  -0.5700 
  2 C       -1.1430     0.6560     1.2200 C.2   1 <1>   0.5440 
  3 N       -2.3160     0.0550     0.8260 N.am  1 <1>  -0.6600 
  4 C       -1.0670     2.0870     1.4510 C.ar  1 <1>   0.0860 
  5 C       -3.4520     0.7660     0.1860 C.3   1 <1>   0.1400 
  6 C       -2.4060    -1.4050     0.5680 C.3   1 <1>   0.1400 
  7 C       -0.0740     2.8570     0.8510 C.ar  1 <1>  -0.1500 
  8 C       -1.9820     2.7420     2.2760 C.ar  1 <1>  -0.1500 
  9 C       -4.0790    -0.2700    -0.7430 C.3   1 <1>   0.2000 
 10 C       -3.7640    -1.6180    -0.1040 C.3   1 <1>  -0.0800 
 11 C        0.0020     4.2330     1.0310 C.ar  1 <1>  -0.0230 
 12 C       -1.9170     4.1080     2.4790 C.ar  1 <1>  -0.1500 
 13 O       -5.4490    -0.0930    -0.8540 O.3   1 <1>  -0.6800 
 14 C       -3.7770    -2.7830    -1.1050 C.3   1 <1>   0.0210 
 15 N        1.0140     4.9900     0.3790 N.pl3 1 <1>   0.5930 
 16 C       -0.9300     4.8510     1.8580 C.ar  1 <1>  -0.1500 
 17 C       -3.3770    -4.0790    -0.4290 C.2   1 <1>   0.1080 
 18 N        2.3340     4.8180     0.6300 N.2   1 <1>  -0.7070 
 19 C        0.8440     5.9450    -0.5780 C.2   1 <1>  -0.3320 
 20 N       -4.0810    -4.6260     0.5130 N.2   1 <1>  -0.7070 
 21 C       -2.2310    -4.8110    -0.7220 C.2   1 <1>  -0.1500 
 22 C        2.9490     5.6490    -0.1450 C.2   1 <1>   0.1080 
 23 C        2.0700     6.3860    -0.9290 C.2   1 <1>  -0.1500 
 24 C       -0.5020     6.3870    -1.1290 C.3   1 <1>  -0.0600 
 25 N       -3.3960    -5.7360     0.8480 N.pl3 1 <1>   0.3000 
 26 C       -2.2700    -5.8680     0.1150 C.2   1 <1>  -0.3320 
 27 C        4.4540     5.7710    -0.1680 C.3   1 <1>  -0.0590 
 28 C       -1.2860    -7.0140     0.2630 C.3   1 <1>  -0.0600 
 29 H       -4.1510     1.0670     0.9450 H     1 <1>   0.0800 
 30 H       -3.1090     1.6210    -0.3700 H     1 <1>   0.0800 
 31 H       -1.6000    -1.6970    -0.0840 H     1 <1>   0.0800 
 32 H       -2.3320    -1.9590     1.4890 H     1 <1>   0.0800 
 33 H        0.6590     2.3660     0.2320 H     1 <1>   0.1500 
 34 H       -2.7460     2.1650     2.7670 H     1 <1>   0.1500 
 35 H       -3.6440    -0.1850    -1.7250 H     1 <1>   0.0800 
 36 H       -4.4730    -1.8220     0.6790 H     1 <1>   0.0800 
 37 H       -2.6300     4.5930     3.1230 H     1 <1>   0.1500 
 38 H       -5.8970    -0.3940    -0.0400 H     1 <1>   0.4000 
 39 H       -3.1040    -2.5820    -1.9180 H     1 <1>   0.0800 
 40 H       -4.7660    -2.8980    -1.5100 H     1 <1>   0.0800 
 41 H       -0.8740     5.9140     2.0220 H     1 <1>   0.1500 
 42 H       -1.4890    -4.5630    -1.4600 H     1 <1>   0.1500 
 43 H        2.3420     7.1340    -1.6510 H     1 <1>   0.1500 
 44 H       -0.3630     7.1020    -1.9210 H     1 <1>   0.0800 
 45 H       -1.0920     6.8460    -0.3560 H     1 <1>   0.0800 
 46 H       -1.0380     5.5410    -1.5220 H     1 <1>   0.0800 
 47 H       -3.7220    -6.3790     1.5790 H     1 <1>   0.2700 
 48 H        4.7620     6.5020    -0.8920 H     1 <1>   0.0800 
 49 H        4.8860     4.8200    -0.4190 H     1 <1>   0.0800 
 50 H        4.8040     6.0670     0.8040 H     1 <1>   0.0800 
 51 H       -0.4730    -6.8940    -0.4310 H     1 <1>   0.0800 
 52 H       -1.7730    -7.9520     0.0610 H     1 <1>   0.0800 
 53 H       -0.8840    -7.0330     1.2600 H     1 <1>   0.0800 
@<TRIPOS>BOND
  1   1   2  2   
  2   2   3  am  
  3   2   4  1   
  4   3   5  1   
  5   3   6  1   
  6   4   7  ar  
  7   4   8  ar  
  8   5   9  1   
  9   5  29  1   
 10   5  30  1   
 11   6  10  1   
 12   6  31  1   
 13   6  32  1   
 14   7  11  ar  
 15   7  33  1   
 16   8  12  ar  
 17   8  34  1   
 18   9  10  1   
 19   9  13  1   
 20   9  35  1   
 21  10  14  1   
 22  10  36  1   
 23  11  15  1   
 24  11  16  ar  
 25  12  16  ar  
 26  12  37  1   
 27  13  38  1   
 28  14  17  1   
 29  14  39  1   
 30  14  40  1   
 31  15  18  1   
 32  15  19  1   
 33  16  41  1   
 34  17  20  2   
 35  17  21  1   
 36  18  22  2   
 37  19  23  2   
 38  19  24  1   
 39  20  25  1   
 40  21  26  2   
 41  21  42  1   
 42  22  23  1   
 43  22  27  1   
 44  23  43  1   
 45  24  44  1   
 46  24  45  1   
 47  24  46  1   
 48  25  26  1   
 49  25  47  1   
 50  26  28  1   
 51  27  48  1   
 52  27  49  1   
 53  27  50  1   
 54  28  51  1   
 55  28  52  1   
 56  28  53  1   
@<TRIPOS>SUBSTRUCTURE
  1 ****   2 GROUP 4 **** **** 0

# MOE 2024.06 (io_trps.svl 2023.06)
