@<TRIPOS>MOLECULE
NONAME
51 53 1 0 0 
SMALL
USER_CHARGES


@<TRIPOS>ATOM
  1 O        0.4670     1.0890     0.1170 O.2   1 <1>  -0.5700 
  2 C        0.2120     2.2060    -0.2660 C.2   1 <1>   0.5690 
  3 N       -0.5610     3.0730     0.4580 N.am  1 <1>  -0.6600 
  4 C        0.7610     2.6470    -1.6240 C.3   1 <1>   0.1810 
  5 C       -0.9030     4.4370    -0.0680 C.3   1 <1>   0.3640 
  6 C       -1.0420     2.7580     1.8350 C.3   1 <1>   0.0600 
  7 O        0.8590     4.0440    -1.7380 O.3   1 <1>  -0.5600 
  8 C       -2.4150     4.7020     0.0170 C.ar  1 <1>  -0.1430 
  9 C       -0.3580     4.7310    -1.4900 C.3   1 <1>   0.2610 
 10 C       -3.4050     3.8470    -0.4810 C.ar  1 <1>  -0.1430 
 11 C       -2.8040     5.8850     0.6350 C.ar  1 <1>  -0.1500 
 12 C       -0.1550     6.2400    -1.6430 C.2   1 <1>   0.5690 
 13 C       -4.7410     4.1940    -0.3380 C.ar  1 <1>  -0.1500 
 14 C       -3.1080     2.5240    -1.1800 C.3   1 <1>  -0.0960 
 15 C       -4.1370     6.2210     0.7700 C.ar  1 <1>  -0.1500 
 16 O       -1.0740     6.9380    -1.9980 O.2   1 <1>  -0.5700 
 17 N        1.0580     6.7760    -1.3640 N.am  1 <1>  -0.7300 
 18 C       -5.1100     5.3710     0.2830 C.ar  1 <1>  -0.1500 
 19 C        1.4060     8.2250    -1.3990 C.3   1 <1>   0.2840 
 20 C        2.5700     8.5740    -0.4650 C.ar  1 <1>   0.4770 
 21 N        3.5190     7.6540    -0.3200 N.ar  1 <1>  -0.6200 
 22 N        2.5200     9.7680     0.1080 N.ar  1 <1>  -0.6200 
 23 C        4.5090     7.9720     0.4810 C.ar  1 <1>   0.1670 
 24 C        3.5200    10.0660     0.9050 C.ar  1 <1>   0.1670 
 25 C        4.5530     9.1860     1.1250 C.ar  1 <1>  -0.1500 
 26 C        5.6030     6.9410     0.6630 C.3   1 <1>  -0.0970 
 27 C        3.4850    11.4240     1.5710 C.3   1 <1>  -0.0970 
 28 H        0.1270     2.2800    -2.4090 H     1 <1>   0.0800 
 29 H        1.7470     2.2400    -1.7550 H     1 <1>   0.0800 
 30 H       -0.4130     5.1330     0.5910 H     1 <1>   0.0800 
 31 H       -0.7220     3.5240     2.5180 H     1 <1>   0.0800 
 32 H       -0.6490     1.8130     2.1680 H     1 <1>   0.0800 
 33 H       -2.1170     2.7040     1.8450 H     1 <1>   0.0800 
 34 H       -1.0700     4.4210    -2.2310 H     1 <1>   0.0800 
 35 H       -2.0660     6.5700     1.0170 H     1 <1>   0.1500 
 36 H       -5.5130     3.5450    -0.7110 H     1 <1>   0.1500 
 37 H       -3.9810     2.1540    -1.6870 H     1 <1>   0.0800 
 38 H       -2.8060     1.7860    -0.4590 H     1 <1>   0.0800 
 39 H       -2.3340     2.6360    -1.9120 H     1 <1>   0.0800 
 40 H       -4.4160     7.1430     1.2490 H     1 <1>   0.1500 
 41 H        1.8550     6.1640    -1.1480 H     1 <1>   0.3700 
 42 H       -6.1500     5.6260     0.3840 H     1 <1>   0.1500 
 43 H        1.6840     8.4920    -2.4010 H     1 <1>   0.0800 
 44 H        0.5430     8.8050    -1.1230 H     1 <1>   0.0800 
 45 H        5.3660     9.4380     1.7780 H     1 <1>   0.1500 
 46 H        6.3620     7.2970     1.3340 H     1 <1>   0.0800 
 47 H        6.0520     6.7230    -0.2880 H     1 <1>   0.0800 
 48 H        5.1810     6.0370     1.0620 H     1 <1>   0.0800 
 49 H        4.3420    11.5690     2.2020 H     1 <1>   0.0800 
 50 H        2.5950    11.5090     2.1670 H     1 <1>   0.0800 
 51 H        3.4720    12.1930     0.8200 H     1 <1>   0.0800 
@<TRIPOS>BOND
  1   1   2  2   
  2   2   3  am  
  3   2   4  1   
  4   3   5  1   
  5   3   6  1   
  6   4   7  1   
  7   4  28  1   
  8   4  29  1   
  9   5   8  1   
 10   5   9  1   
 11   5  30  1   
 12   6  31  1   
 13   6  32  1   
 14   6  33  1   
 15   7   9  1   
 16   8  10  ar  
 17   8  11  ar  
 18   9  12  1   
 19   9  34  1   
 20  10  13  ar  
 21  10  14  1   
 22  11  15  ar  
 23  11  35  1   
 24  12  16  2   
 25  12  17  am  
 26  13  18  ar  
 27  13  36  1   
 28  14  37  1   
 29  14  38  1   
 30  14  39  1   
 31  15  18  ar  
 32  15  40  1   
 33  17  19  1   
 34  17  41  1   
 35  18  42  1   
 36  19  20  1   
 37  19  43  1   
 38  19  44  1   
 39  20  21  ar  
 40  20  22  ar  
 41  21  23  ar  
 42  22  24  ar  
 43  23  25  ar  
 44  23  26  1   
 45  24  25  ar  
 46  24  27  1   
 47  25  45  1   
 48  26  46  1   
 49  26  47  1   
 50  26  48  1   
 51  27  49  1   
 52  27  50  1   
 53  27  51  1   
@<TRIPOS>SUBSTRUCTURE
  1 ****  12 GROUP 4 **** **** 0

# MOE 2024.06 (io_trps.svl 2023.06)
