@<TRIPOS>MOLECULE
NONAME
53 56 1 0 0 
SMALL
USER_CHARGES


@<TRIPOS>ATOM
  1 O       -0.9210     2.7710     1.0070 O.3   1 <1>  -0.5600 
  2 C        0.3450     2.5380     0.4540 C.3   1 <1>   0.2640 
  3 C       -1.1210     2.3290     2.3260 C.3   1 <1>   0.1200 
  4 C        0.3690     1.1360    -0.1320 C.ar  1 <1>  -0.1440 
  5 C       -1.5860     0.8580     2.3710 C.3   1 <1>   0.3430 
  6 C       -0.2690     0.8880    -1.3380 C.ar  1 <1>  -0.1500 
  7 C        1.0220     0.1000     0.5190 C.ar  1 <1>  -0.1500 
  8 N       -2.4150     0.5070     1.1820 N.4   1 <1>  -0.9590 
  9 C       -0.2690    -0.3850    -1.8800 C.ar  1 <1>  -0.1500 
 10 C        1.0160    -1.1760    -0.0190 C.ar  1 <1>  -0.1500 
 11 C       -3.7100     1.2660     1.1590 C.3   1 <1>   0.3430 
 12 C       -2.6070    -0.9630     1.0480 C.3   1 <1>   0.3430 
 13 C        0.3680    -1.4190    -1.2170 C.ar  1 <1>  -0.1500 
 14 C       -4.5110     1.0040    -0.1250 C.3   1 <1>   0.1430 
 15 C       -3.3960    -1.2900    -0.2250 C.3   1 <1>  -0.1600 
 16 C       -5.8420     1.7060    -0.0050 C.ar  1 <1>   0.1670 
 17 C       -4.7200    -0.5110    -0.3200 C.3   1 <1>  -0.1600 
 18 C       -3.8850     1.6810    -1.3750 C.3   1 <1>  -0.1600 
 19 N       -6.6270     1.6380     1.0460 N.ar  1 <1>  -0.6200 
 20 C       -6.1340     2.4370    -1.1150 C.ar  1 <1>  -0.1430 
 21 C       -5.0430     2.3380    -2.1520 C.3   1 <1>  -0.0170 
 22 C       -7.7490     2.3380     0.9280 C.ar  1 <1>   0.4770 
 23 C       -7.3200     3.1280    -1.1270 C.ar  1 <1>   0.1600 
 24 N       -8.1400     3.0820    -0.0980 N.ar  1 <1>  -0.6200 
 25 C       -8.6970     2.2910     2.1010 C.3   1 <1>  -0.0970 
 26 H        1.1080     2.6820     1.2010 H     1 <1>   0.0800 
 27 H        0.4960     3.2630    -0.3280 H     1 <1>   0.0800 
 28 H       -1.8880     2.9530     2.7510 H     1 <1>   0.0800 
 29 H       -0.2250     2.4740     2.9060 H     1 <1>   0.0800 
 30 H       -2.1350     0.6780     3.2810 H     1 <1>   0.0800 
 31 H       -0.7120     0.2290     2.3900 H     1 <1>   0.0800 
 32 H       -0.7590     1.6900    -1.8660 H     1 <1>   0.1500 
 33 H        1.5480     0.2780     1.4420 H     1 <1>   0.1500 
 34 H       -1.8520     0.8330     0.3740 H     1 <1>   0.4500 
 35 H       -0.7540    -0.5720    -2.8240 H     1 <1>   0.1500 
 36 H        1.5290    -1.9780     0.4860 H     1 <1>   0.1500 
 37 H       -3.5210     2.3240     1.2370 H     1 <1>   0.0800 
 38 H       -4.3150     0.9740     2.0020 H     1 <1>   0.0800 
 39 H       -3.1460    -1.3360     1.9040 H     1 <1>   0.0800 
 40 H       -1.6480    -1.4550     1.0080 H     1 <1>   0.0800 
 41 H        0.3740    -2.4090    -1.6410 H     1 <1>   0.1500 
 42 H       -3.6060    -2.3450    -0.2390 H     1 <1>   0.0800 
 43 H       -2.7840    -1.0830    -1.0830 H     1 <1>   0.0800 
 44 H       -5.1950    -0.7000    -1.2680 H     1 <1>   0.0800 
 45 H       -5.3880    -0.8700     0.4460 H     1 <1>   0.0800 
 46 H       -3.3440     0.9940    -2.0000 H     1 <1>   0.0800 
 47 H       -3.2100     2.4600    -1.0620 H     1 <1>   0.0800 
 48 H       -5.3700     1.7060    -2.9590 H     1 <1>   0.0800 
 49 H       -4.7680     3.3060    -2.5350 H     1 <1>   0.0800 
 50 H       -7.6020     3.7220    -1.9800 H     1 <1>   0.1500 
 51 H       -8.4430     1.4830     2.7620 H     1 <1>   0.0800 
 52 H       -9.7010     2.1490     1.7480 H     1 <1>   0.0800 
 53 H       -8.6430     3.2190     2.6390 H     1 <1>   0.0800 
@<TRIPOS>BOND
  1   1   2  1   
  2   1   3  1   
  3   2   4  1   
  4   2  26  1   
  5   2  27  1   
  6   3   5  1   
  7   3  28  1   
  8   3  29  1   
  9   4   6  ar  
 10   4   7  ar  
 11   5   8  1   
 12   5  30  1   
 13   5  31  1   
 14   6   9  ar  
 15   6  32  1   
 16   7  10  ar  
 17   7  33  1   
 18   8  11  1   
 19   8  12  1   
 20   8  34  1   
 21   9  13  ar  
 22   9  35  1   
 23  10  13  ar  
 24  10  36  1   
 25  11  14  1   
 26  11  37  1   
 27  11  38  1   
 28  12  15  1   
 29  12  39  1   
 30  12  40  1   
 31  13  41  1   
 32  14  16  1   
 33  14  17  1   
 34  14  18  1   
 35  15  17  1   
 36  15  42  1   
 37  15  43  1   
 38  16  19  ar  
 39  16  20  ar  
 40  17  44  1   
 41  17  45  1   
 42  18  21  1   
 43  18  46  1   
 44  18  47  1   
 45  19  22  ar  
 46  20  21  1   
 47  20  23  ar  
 48  21  48  1   
 49  21  49  1   
 50  22  24  ar  
 51  22  25  1   
 52  23  24  ar  
 53  23  50  1   
 54  25  51  1   
 55  25  52  1   
 56  25  53  1   
@<TRIPOS>SUBSTRUCTURE
  1 ****  11 GROUP 4 **** **** 0

# MOE 2024.06 (io_trps.svl 2023.06)
