@<TRIPOS>MOLECULE
NONAME
58 60 1 0 0 
SMALL
USER_CHARGES


@<TRIPOS>ATOM
  1 O        1.4260    -0.4860    -2.2670 O.2   1 <1>  -0.5700 
  2 C        2.1150    -1.0750    -1.4540 C.2   1 <1>   0.6160 
  3 N        3.1850    -0.3900    -0.8940 N.am  1 <1>  -0.6600 
  4 C        1.8120    -2.4500    -1.1780 C.2   1 <1>   0.0290 
  5 C        3.2520     1.1020    -1.0520 C.3   1 <1>   0.1400 
  6 C        4.3520    -1.1030    -0.2950 C.3   1 <1>   0.1400 
  7 C        1.4970    -2.8390     0.1580 C.2   1 <1>   0.6160 
  8 C        1.7840    -3.4130    -2.1600 C.2   1 <1>  -0.1500 
  9 C        3.6720     1.8490     0.2230 C.3   1 <1>   0.3430 
 10 C        4.4710    -0.7900     1.2020 C.3   1 <1>  -0.1600 
 11 O        1.4790    -2.0750     1.1130 O.2   1 <1>  -0.5700 
 12 N        1.2090    -4.1520     0.4090 N.am  1 <1>  -0.5390 
 13 C        1.4780    -4.7490    -1.8450 C.2   1 <1>  -0.1500 
 14 N        5.1070     1.5720     0.5680 N.4   1 <1>  -0.9590 
 15 C        5.2630     0.4700     1.5590 C.3   1 <1>   0.3430 
 16 C        1.1890    -5.1290    -0.5590 C.2   1 <1>   0.0810 
 17 C        5.8200     2.7940     1.0400 C.3   1 <1>   0.3430 
 18 C        0.8590    -6.4780    -0.1740 C.ar  1 <1>   0.0280 
 19 C        6.0920     3.7740    -0.1170 C.3   1 <1>  -0.0800 
 20 C       -0.0750    -7.2240    -0.8920 C.ar  1 <1>  -0.1500 
 21 C        1.4610    -7.0860     0.9270 C.ar  1 <1>  -0.1500 
 22 C        6.8720     3.1230    -1.2740 C.3   1 <1>  -0.2400 
 23 C        6.8830     4.9780     0.4110 C.3   1 <1>  -0.2400 
 24 C       -0.3980    -8.5200    -0.5320 C.ar  1 <1>  -0.1500 
 25 C        1.1430    -8.3800     1.2950 C.ar  1 <1>  -0.1500 
 26 C        0.2130    -9.1090     0.5710 C.ar  1 <1>   0.0830 
 27 O       -0.0420   -10.3680     0.9930 O.3   1 <1>  -0.3620 
 28 C       -0.9630   -11.2020     0.3270 C.3   1 <1>   0.0400 
 29 H        2.2790     1.4770    -1.3220 H     1 <1>   0.0800 
 30 H        3.9160     1.3460    -1.8620 H     1 <1>   0.0800 
 31 H        5.2540    -0.8390    -0.8200 H     1 <1>   0.0800 
 32 H        4.2230    -2.1660    -0.4120 H     1 <1>   0.0800 
 33 H        1.9920    -3.1540    -3.1850 H     1 <1>   0.1500 
 34 H        3.0220     1.5690     1.0360 H     1 <1>   0.0800 
 35 H        3.5400     2.9030     0.0460 H     1 <1>   0.0800 
 36 H        4.9600    -1.6180     1.6830 H     1 <1>   0.0800 
 37 H        3.4940    -0.7250     1.6430 H     1 <1>   0.0800 
 38 H        0.9380    -4.3670     1.3690 H     1 <1>   0.3700 
 39 H        1.4740    -5.4760    -2.6390 H     1 <1>   0.1500 
 40 H        5.5710     1.2770    -0.3000 H     1 <1>   0.4500 
 41 H        6.3080     0.2110     1.6240 H     1 <1>   0.0800 
 42 H        4.9500     0.8080     2.5340 H     1 <1>   0.0800 
 43 H        6.7670     2.5120     1.4700 H     1 <1>   0.0800 
 44 H        5.2420     3.2860     1.8060 H     1 <1>   0.0800 
 45 H        5.1570     4.1490    -0.4960 H     1 <1>   0.0800 
 46 H       -0.5600    -6.7780    -1.7430 H     1 <1>   0.1500 
 47 H        2.1920    -6.5420     1.4980 H     1 <1>   0.1500 
 48 H        7.7990     2.7030    -0.9230 H     1 <1>   0.0800 
 49 H        7.1070     3.8640    -2.0200 H     1 <1>   0.0800 
 50 H        6.2990     2.3540    -1.7580 H     1 <1>   0.0800 
 51 H        7.8450     4.6750     0.7880 H     1 <1>   0.0800 
 52 H        6.3450     5.4710     1.2020 H     1 <1>   0.0800 
 53 H        7.0420     5.6960    -0.3770 H     1 <1>   0.0800 
 54 H       -1.1240    -9.0550    -1.1140 H     1 <1>   0.1500 
 55 H        1.6140    -8.8390     2.1450 H     1 <1>   0.1500 
 56 H       -0.9920   -12.1450     0.8420 H     1 <1>   0.0800 
 57 H       -0.6320   -11.3490    -0.6860 H     1 <1>   0.0800 
 58 H       -1.9350   -10.7420     0.3530 H     1 <1>   0.0800 
@<TRIPOS>BOND
  1   1   2  2   
  2   2   3  am  
  3   2   4  1   
  4   3   5  1   
  5   3   6  1   
  6   4   7  1   
  7   4   8  2   
  8   5   9  1   
  9   5  29  1   
 10   5  30  1   
 11   6  10  1   
 12   6  31  1   
 13   6  32  1   
 14   7  11  2   
 15   7  12  am  
 16   8  13  1   
 17   8  33  1   
 18   9  14  1   
 19   9  34  1   
 20   9  35  1   
 21  10  15  1   
 22  10  36  1   
 23  10  37  1   
 24  12  16  1   
 25  12  38  1   
 26  13  16  2   
 27  13  39  1   
 28  14  15  1   
 29  14  17  1   
 30  14  40  1   
 31  15  41  1   
 32  15  42  1   
 33  16  18  1   
 34  17  19  1   
 35  17  43  1   
 36  17  44  1   
 37  18  20  ar  
 38  18  21  ar  
 39  19  22  1   
 40  19  23  1   
 41  19  45  1   
 42  20  24  ar  
 43  20  46  1   
 44  21  25  ar  
 45  21  47  1   
 46  22  48  1   
 47  22  49  1   
 48  22  50  1   
 49  23  51  1   
 50  23  52  1   
 51  23  53  1   
 52  24  26  ar  
 53  24  54  1   
 54  25  26  ar  
 55  25  55  1   
 56  26  27  1   
 57  27  28  1   
 58  28  56  1   
 59  28  57  1   
 60  28  58  1   
@<TRIPOS>SUBSTRUCTURE
  1 ****   7 GROUP 4 **** **** 0

# MOE 2024.06 (io_trps.svl 2023.06)
