@<TRIPOS>MOLECULE
NONAME
55 57 1 0 0 
SMALL
USER_CHARGES


@<TRIPOS>ATOM
  1 O        0.0460     0.8390    -0.5470 O.2   1 <1>  -0.5700 
  2 C       -0.7790     1.6710    -0.2620 C.2   1 <1>   0.5690 
  3 N       -2.1160     1.4830    -0.0590 N.am  1 <1>  -0.4770 
  4 C       -0.3940     3.1110    -0.0730 C.3   1 <1>  -0.0990 
  5 C       -2.8530     0.2810    -0.1000 C.ar  1 <1>   0.1170 
  6 C       -2.7690     2.7650     0.2780 C.3   1 <1>   0.1400 
  7 C       -1.6120     3.7030     0.6540 C.3   1 <1>  -0.0190 
  8 C       -2.2910    -0.9250     0.3040 C.ar  1 <1>  -0.1500 
  9 C       -4.1750     0.2670    -0.5350 C.ar  1 <1>  -0.1500 
 10 C       -1.8820     5.1680     0.3400 C.2   1 <1>   0.5690 
 11 C       -3.0210    -2.0990     0.2810 C.ar  1 <1>  -0.1500 
 12 C       -4.9080    -0.9060    -0.5570 C.ar  1 <1>  -0.1500 
 13 O       -3.0110     5.5070     0.0830 O.2   1 <1>  -0.5700 
 14 N       -0.8230     6.0350     0.3810 N.am  1 <1>  -0.4940 
 15 C       -4.3390    -2.1040    -0.1480 C.ar  1 <1>  -0.1430 
 16 C       -0.7940     7.4270     0.1110 C.2   1 <1>  -0.0880 
 17 C       -5.1320    -3.4090    -0.1670 C.3   1 <1>   0.0630 
 18 N        0.3190     8.2100     0.1520 N.pl3 1 <1>   0.3140 
 19 C       -1.8120     8.2500    -0.2360 C.2   1 <1>  -0.1500 
 20 C       -5.5660    -3.7650    -1.5920 C.3   1 <1>  -0.2400 
 21 C       -6.3440    -3.3270     0.7670 C.3   1 <1>  -0.2400 
 22 N        0.0370     9.4950    -0.1550 N.2   1 <1>  -0.7070 
 23 C        1.6970     7.8000     0.4910 C.3   1 <1>   0.0960 
 24 C       -1.2370     9.5050    -0.3850 C.2   1 <1>   0.1080 
 25 C        2.3610     7.0660    -0.6840 C.3   1 <1>  -0.1600 
 26 C       -1.9790    10.7630    -0.7700 C.3   1 <1>  -0.0590 
 27 C        3.7720     6.5930    -0.3190 C.3   1 <1>  -0.2400 
 28 H       -0.2580     3.5530    -1.0440 H     1 <1>   0.0800 
 29 H        0.5070     3.1910     0.5050 H     1 <1>   0.0800 
 30 H       -3.4600     2.6450     1.0960 H     1 <1>   0.0800 
 31 H       -3.2940     3.1250    -0.5910 H     1 <1>   0.0800 
 32 H       -1.4610     3.6140     1.7150 H     1 <1>   0.0800 
 33 H       -1.2700    -0.9480     0.6410 H     1 <1>   0.1500 
 34 H       -4.6410     1.1750    -0.8670 H     1 <1>   0.1500 
 35 H       -2.5510    -3.0120     0.6000 H     1 <1>   0.1500 
 36 H       -5.9270    -0.8820    -0.8980 H     1 <1>   0.1500 
 37 H        0.0730     5.6170     0.6230 H     1 <1>   0.3700 
 38 H       -4.4970    -4.2030     0.1900 H     1 <1>   0.0800 
 39 H       -2.8490     8.0060    -0.3720 H     1 <1>   0.1500 
 40 H       -6.2430    -3.0270    -1.9820 H     1 <1>   0.0800 
 41 H       -6.0540    -4.7220    -1.6060 H     1 <1>   0.0800 
 42 H       -4.7030    -3.8100    -2.2340 H     1 <1>   0.0800 
 43 H       -7.0380    -2.5790     0.4280 H     1 <1>   0.0800 
 44 H       -6.0220    -3.0700     1.7600 H     1 <1>   0.0800 
 45 H       -6.8500    -4.2740     0.8050 H     1 <1>   0.0800 
 46 H        1.6620     7.1740     1.3620 H     1 <1>   0.0800 
 47 H        2.2580     8.6850     0.7320 H     1 <1>   0.0800 
 48 H        2.4200     7.7370    -1.5250 H     1 <1>   0.0800 
 49 H        1.7680     6.2160    -0.9730 H     1 <1>   0.0800 
 50 H       -3.0230    10.5540    -0.9140 H     1 <1>   0.0800 
 51 H       -1.5680    11.1560    -1.6810 H     1 <1>   0.0800 
 52 H       -1.8690    11.4950     0.0080 H     1 <1>   0.0800 
 53 H        4.3940     7.4320    -0.0560 H     1 <1>   0.0800 
 54 H        4.2200     6.0920    -1.1600 H     1 <1>   0.0800 
 55 H        3.7440     5.9080     0.5100 H     1 <1>   0.0800 
@<TRIPOS>BOND
  1   1   2  2   
  2   2   3  am  
  3   2   4  1   
  4   3   5  1   
  5   3   6  1   
  6   4   7  1   
  7   4  28  1   
  8   4  29  1   
  9   5   8  ar  
 10   5   9  ar  
 11   6   7  1   
 12   6  30  1   
 13   6  31  1   
 14   7  10  1   
 15   7  32  1   
 16   8  11  ar  
 17   8  33  1   
 18   9  12  ar  
 19   9  34  1   
 20  10  13  2   
 21  10  14  am  
 22  11  15  ar  
 23  11  35  1   
 24  12  15  ar  
 25  12  36  1   
 26  14  16  1   
 27  14  37  1   
 28  15  17  1   
 29  16  18  1   
 30  16  19  2   
 31  17  20  1   
 32  17  21  1   
 33  17  38  1   
 34  18  22  1   
 35  18  23  1   
 36  19  24  1   
 37  19  39  1   
 38  20  40  1   
 39  20  41  1   
 40  20  42  1   
 41  21  43  1   
 42  21  44  1   
 43  21  45  1   
 44  22  24  2   
 45  23  25  1   
 46  23  46  1   
 47  23  47  1   
 48  24  26  1   
 49  25  27  1   
 50  25  48  1   
 51  25  49  1   
 52  26  50  1   
 53  26  51  1   
 54  26  52  1   
 55  27  53  1   
 56  27  54  1   
 57  27  55  1   
@<TRIPOS>SUBSTRUCTURE
  1 ****   7 GROUP 4 **** **** 0

# MOE 2024.06 (io_trps.svl 2023.06)
