@<TRIPOS>MOLECULE
NONAME
46 48 1 0 0 
SMALL
USER_CHARGES


@<TRIPOS>ATOM
  1 S       -2.2830     0.3200    -1.4650 S.3   1 <1>  -0.0800 
  2 C       -2.0550     0.3500     0.2780 C.2   1 <1>  -0.1400 
  3 C       -0.6880     1.0020    -1.7290 C.2   1 <1>  -0.1100 
  4 C       -0.8450     0.8520     0.5850 C.2   1 <1>  -0.1500 
  5 C       -3.1900    -0.1580     1.1460 C.3   1 <1>   0.0200 
  6 C       -0.0660     1.2220    -0.5570 C.2   1 <1>  -0.1500 
  7 C       -3.3250    -1.6810     1.0270 C.3   1 <1>  -0.1600 
  8 C       -4.5020    -2.2170     1.8590 C.3   1 <1>  -0.0990 
  9 C       -4.6260    -3.7290     1.7670 C.2   1 <1>   0.5690 
 10 O       -4.2560    -4.3830     2.7120 O.2   1 <1>  -0.5700 
 11 N       -5.1430    -4.3220     0.6490 N.am  1 <1>  -0.6600 
 12 C       -5.7170    -3.6590    -0.5510 C.3   1 <1>   0.1400 
 13 C       -5.2340    -5.7970     0.5030 C.3   1 <1>   0.1400 
 14 C       -6.6360    -4.7180    -1.1560 C.3   1 <1>   0.2000 
 15 C       -5.9060    -6.0290    -0.8560 C.3   1 <1>  -0.0800 
 16 O       -7.8370    -4.6840    -0.4620 O.3   1 <1>  -0.6800 
 17 C       -6.7710    -7.3010    -0.9130 C.3   1 <1>   0.0210 
 18 C       -5.9390    -8.5300    -0.6030 C.2   1 <1>   0.1080 
 19 N       -4.9450    -8.9120    -1.3440 N.2   1 <1>  -0.7070 
 20 C       -6.1290    -9.3650     0.4930 C.2   1 <1>  -0.1500 
 21 N       -4.4710   -10.0150    -0.7350 N.pl3 1 <1>   0.3000 
 22 C       -5.1710   -10.3090     0.3820 C.2   1 <1>  -0.3320 
 23 C       -4.8750   -11.4900     1.2870 C.3   1 <1>  -0.0600 
 24 H       -0.3830     1.1680    -2.7470 H     1 <1>   0.1500 
 25 H       -0.4550     0.9810     1.5800 H     1 <1>   0.1500 
 26 H       -2.9950     0.1060     2.1700 H     1 <1>   0.0800 
 27 H       -4.1040     0.3230     0.8440 H     1 <1>   0.0800 
 28 H        0.9210     1.6340    -0.4410 H     1 <1>   0.1500 
 29 H       -3.4630    -1.9470    -0.0050 H     1 <1>   0.0800 
 30 H       -2.4130    -2.1430     1.3640 H     1 <1>   0.0800 
 31 H       -5.4230    -1.7650     1.5460 H     1 <1>   0.0800 
 32 H       -4.3520    -1.9590     2.8920 H     1 <1>   0.0800 
 33 H       -6.2570    -2.7610    -0.3090 H     1 <1>   0.0800 
 34 H       -4.9220    -3.4320    -1.2400 H     1 <1>   0.0800 
 35 H       -4.2550    -6.2460     0.5370 H     1 <1>   0.0800 
 36 H       -5.8320    -6.1950     1.3060 H     1 <1>   0.0800 
 37 H       -6.8350    -4.5650    -2.2030 H     1 <1>   0.0800 
 38 H       -5.1180    -6.1360    -1.5820 H     1 <1>   0.0800 
 39 H       -7.6380    -4.7040     0.4960 H     1 <1>   0.4000 
 40 H       -7.1890    -7.4080    -1.8980 H     1 <1>   0.0800 
 41 H       -7.5830    -7.2420    -0.2120 H     1 <1>   0.0800 
 42 H       -6.8840    -9.2570     1.2500 H     1 <1>   0.1500 
 43 H       -3.6710   -10.5420    -1.1050 H     1 <1>   0.2700 
 44 H       -5.5700   -11.5080     2.1080 H     1 <1>   0.0800 
 45 H       -3.8790   -11.4140     1.6840 H     1 <1>   0.0800 
 46 H       -4.9680   -12.4110     0.7400 H     1 <1>   0.0800 
@<TRIPOS>BOND
  1   1   2  1   
  2   1   3  1   
  3   2   4  2   
  4   2   5  1   
  5   3   6  2   
  6   3  24  1   
  7   4   6  1   
  8   4  25  1   
  9   5   7  1   
 10   5  26  1   
 11   5  27  1   
 12   6  28  1   
 13   7   8  1   
 14   7  29  1   
 15   7  30  1   
 16   8   9  1   
 17   8  31  1   
 18   8  32  1   
 19   9  10  2   
 20   9  11  am  
 21  11  12  1   
 22  11  13  1   
 23  12  14  1   
 24  12  33  1   
 25  12  34  1   
 26  13  15  1   
 27  13  35  1   
 28  13  36  1   
 29  14  15  1   
 30  14  16  1   
 31  14  37  1   
 32  15  17  1   
 33  15  38  1   
 34  16  39  1   
 35  17  18  1   
 36  17  40  1   
 37  17  41  1   
 38  18  19  2   
 39  18  20  1   
 40  19  21  1   
 41  20  22  2   
 42  20  42  1   
 43  21  22  1   
 44  21  43  1   
 45  22  23  1   
 46  23  44  1   
 47  23  45  1   
 48  23  46  1   
@<TRIPOS>SUBSTRUCTURE
  1 ****  11 GROUP 4 **** **** 0

# MOE 2024.06 (io_trps.svl 2023.06)
