@<TRIPOS>MOLECULE
NONAME
36 37 1 0 0 
SMALL
USER_CHARGES


@<TRIPOS>ATOM
  1 O       -2.6600     0.9370    -1.6730 O.2   1 <1>  -0.5700 
  2 C       -2.3040     0.8200    -0.5270 C.2   1 <1>   0.5690 
  3 N       -2.2870    -0.3790     0.1010 N.am  1 <1>  -0.7300 
  4 C       -1.8570     2.0480     0.2280 C.3   1 <1>  -0.0990 
  5 C       -2.6790    -1.6620    -0.5220 C.3   1 <1>   0.2200 
  6 C       -0.4150     2.3790    -0.1400 C.3   1 <1>   0.1200 
  7 C       -4.0330    -2.0860     0.0180 C.3   1 <1>  -0.0800 
  8 C       -1.7770    -2.7770    -0.0050 C.3   1 <1>   0.1200 
  9 O       -0.0110     3.4750     0.6000 O.3   1 <1>  -0.6800 
 10 C       -3.6570    -2.7930     1.3260 C.3   1 <1>   0.1200 
 11 C       -4.7640    -3.0220    -0.9630 C.3   1 <1>  -0.0170 
 12 O       -2.3120    -3.1650     1.2240 O.3   1 <1>  -0.5600 
 13 C       -6.1330    -3.4240    -0.4350 C.ar  1 <1>  -0.1440 
 14 C       -7.1970    -2.5460    -0.4410 C.ar  1 <1>  -0.1500 
 15 C       -6.3840    -4.6820     0.0750 C.ar  1 <1>  -0.1500 
 16 C       -8.4250    -2.9540     0.0530 C.ar  1 <1>   0.1600 
 17 C       -7.6500    -4.9900     0.5460 C.ar  1 <1>   0.1600 
 18 N       -8.6760    -4.1550     0.5490 N.ar  1 <1>  -0.6200 
 19 H       -1.9920    -0.4580     1.0770 H     1 <1>   0.3700 
 20 H       -2.5010     2.8640    -0.0400 H     1 <1>   0.0800 
 21 H       -1.9350     1.8690     1.2840 H     1 <1>   0.0800 
 22 H       -2.6540    -1.5810    -1.5960 H     1 <1>   0.0800 
 23 H       -0.3210     2.6140    -1.1870 H     1 <1>   0.0800 
 24 H        0.2390     1.5570     0.1010 H     1 <1>   0.0800 
 25 H       -4.6590    -1.2320     0.2080 H     1 <1>   0.0800 
 26 H       -0.7570    -2.4600     0.1260 H     1 <1>   0.0800 
 27 H       -1.8110    -3.6300    -0.6600 H     1 <1>   0.0800 
 28 H       -0.4840     4.2810     0.3130 H     1 <1>   0.4000 
 29 H       -4.2480    -3.6710     1.5180 H     1 <1>   0.0800 
 30 H       -3.7430    -2.1180     2.1610 H     1 <1>   0.0800 
 31 H       -4.1760    -3.9040    -1.1470 H     1 <1>   0.0800 
 32 H       -4.8950    -2.5180    -1.9050 H     1 <1>   0.0800 
 33 H       -7.0850    -1.5490    -0.8270 H     1 <1>   0.1500 
 34 H       -5.6100    -5.4260     0.1130 H     1 <1>   0.1500 
 35 H       -9.2440    -2.2550     0.0400 H     1 <1>   0.1500 
 36 H       -7.8270    -5.9750     0.9410 H     1 <1>   0.1500 
@<TRIPOS>BOND
  1   1   2  2   
  2   2   3  am  
  3   2   4  1   
  4   3   5  1   
  5   3  19  1   
  6   4   6  1   
  7   4  20  1   
  8   4  21  1   
  9   5   7  1   
 10   5   8  1   
 11   5  22  1   
 12   6   9  1   
 13   6  23  1   
 14   6  24  1   
 15   7  10  1   
 16   7  11  1   
 17   7  25  1   
 18   8  12  1   
 19   8  26  1   
 20   8  27  1   
 21   9  28  1   
 22  10  12  1   
 23  10  29  1   
 24  10  30  1   
 25  11  13  1   
 26  11  31  1   
 27  11  32  1   
 28  13  14  ar  
 29  13  15  ar  
 30  14  16  ar  
 31  14  33  1   
 32  15  17  ar  
 33  15  34  1   
 34  16  18  ar  
 35  16  35  1   
 36  17  18  ar  
 37  17  36  1   
@<TRIPOS>SUBSTRUCTURE
  1 ****   7 GROUP 4 **** **** 0

# MOE 2024.06 (io_trps.svl 2023.06)
