@<TRIPOS>MOLECULE
NONAME
49 52 1 0 0 
SMALL
USER_CHARGES


@<TRIPOS>ATOM
  1 F        0.6340    -0.8690     1.5300 F     1 <1>  -0.1900 
  2 C        0.3700    -1.9040     0.7790 C.ar  1 <1>   0.1900 
  3 C        0.8550    -3.1390     1.1560 C.ar  1 <1>  -0.1500 
  4 C       -0.3830    -1.7180    -0.3630 C.ar  1 <1>  -0.1500 
  5 C        0.5710    -4.2420     0.3550 C.ar  1 <1>   0.0830 
  6 C       -0.6660    -2.8180    -1.1540 C.ar  1 <1>  -0.1500 
  7 O        1.0220    -5.4900     0.6500 O.3   1 <1>  -0.3630 
  8 C       -0.1990    -4.0790    -0.7990 C.ar  1 <1>  -0.1440 
  9 C        1.9600    -5.7110     1.6820 C.3   1 <1>   0.0400 
 10 C       -0.5310    -5.2730    -1.6850 C.3   1 <1>   0.2540 
 11 N       -1.5840    -6.1070    -1.0710 N.3   1 <1>  -0.8100 
 12 C       -2.8740    -5.4090    -0.8720 C.3   1 <1>   0.1100 
 13 C       -1.7720    -7.3890    -1.7800 C.3   1 <1>   0.1100 
 14 C       -3.8530    -6.2580    -0.0200 C.3   1 <1>   0.4230 
 15 C       -2.8770    -8.2580    -1.1310 C.3   1 <1>   0.3430 
 16 N       -3.3440    -7.6680     0.1710 N.4   1 <1>  -0.9590 
 17 C       -5.2790    -6.2570    -0.6160 C.3   1 <1>   0.1200 
 18 C       -4.3290    -8.4890     0.9380 C.3   1 <1>   0.5180 
 19 O       -6.1340    -7.0570     0.1510 O.3   1 <1>  -0.5600 
 20 C       -3.7900    -9.9260     1.0950 C.3   1 <1>  -0.1950 
 21 C       -5.7350    -8.3950     0.2940 C.3   1 <1>   0.1200 
 22 C       -4.0050   -11.0370     0.1080 C.3   1 <1>  -0.2000 
 23 C       -4.6640   -11.0890     1.4570 C.3   1 <1>  -0.2000 
 24 H        1.4360    -3.2100     2.0540 H     1 <1>   0.1500 
 25 H       -0.7360    -0.7350    -0.6210 H     1 <1>   0.1500 
 26 H       -1.2490    -2.6830    -2.0490 H     1 <1>   0.1500 
 27 H        2.2250    -6.7530     1.6770 H     1 <1>   0.0800 
 28 H        1.5120    -5.4530     2.6250 H     1 <1>   0.0800 
 29 H        2.8340    -5.1120     1.4940 H     1 <1>   0.0800 
 30 H        0.3630    -5.8610    -1.8130 H     1 <1>   0.0800 
 31 H       -0.8470    -4.9380    -2.6580 H     1 <1>   0.0800 
 32 H       -2.7160    -4.4770    -0.3570 H     1 <1>   0.0800 
 33 H       -3.3090    -5.1780    -1.8300 H     1 <1>   0.0800 
 34 H       -2.0200    -7.2100    -2.8120 H     1 <1>   0.0800 
 35 H       -0.8450    -7.9380    -1.7600 H     1 <1>   0.0800 
 36 H       -3.9190    -5.7870     0.9470 H     1 <1>   0.0800 
 37 H       -2.4830    -9.2480    -0.9720 H     1 <1>   0.0800 
 38 H       -3.7070    -8.3430    -1.8130 H     1 <1>   0.0800 
 39 H       -2.4800    -7.5490     0.7180 H     1 <1>   0.4500 
 40 H       -5.2810    -6.6220    -1.6280 H     1 <1>   0.0800 
 41 H       -5.6800    -5.2580    -0.6120 H     1 <1>   0.0800 
 42 H       -4.4180    -8.0740     1.9290 H     1 <1>   0.0800 
 43 H       -2.8450    -9.9110     1.6110 H     1 <1>   0.1000 
 44 H       -6.4610    -8.8780     0.9230 H     1 <1>   0.0800 
 45 H       -5.7560    -8.8640    -0.6730 H     1 <1>   0.0800 
 46 H       -4.6490   -10.9210    -0.7470 H     1 <1>   0.1000 
 47 H       -3.2040   -11.7320    -0.0840 H     1 <1>   0.1000 
 48 H       -4.3000   -11.8080     2.1730 H     1 <1>   0.1000 
 49 H       -5.7360   -10.9980     1.4950 H     1 <1>   0.1000 
@<TRIPOS>BOND
  1   1   2  1   
  2   2   3  ar  
  3   2   4  ar  
  4   3   5  ar  
  5   3  24  1   
  6   4   6  ar  
  7   4  25  1   
  8   5   7  1   
  9   5   8  ar  
 10   6   8  ar  
 11   6  26  1   
 12   7   9  1   
 13   8  10  1   
 14   9  27  1   
 15   9  28  1   
 16   9  29  1   
 17  10  11  1   
 18  10  30  1   
 19  10  31  1   
 20  11  12  1   
 21  11  13  1   
 22  12  14  1   
 23  12  32  1   
 24  12  33  1   
 25  13  15  1   
 26  13  34  1   
 27  13  35  1   
 28  14  16  1   
 29  14  17  1   
 30  14  36  1   
 31  15  16  1   
 32  15  37  1   
 33  15  38  1   
 34  16  18  1   
 35  16  39  1   
 36  17  19  1   
 37  17  40  1   
 38  17  41  1   
 39  18  20  1   
 40  18  21  1   
 41  18  42  1   
 42  19  21  1   
 43  20  22  1   
 44  20  23  1   
 45  20  43  1   
 46  21  44  1   
 47  21  45  1   
 48  22  23  1   
 49  22  46  1   
 50  22  47  1   
 51  23  48  1   
 52  23  49  1   
@<TRIPOS>SUBSTRUCTURE
  1 ****  11 GROUP 4 **** **** 0

# MOE 2024.06 (io_trps.svl 2023.06)
