@<TRIPOS>MOLECULE
NONAME
57 59 1 0 0 
SMALL
USER_CHARGES


@<TRIPOS>ATOM
  1 O        0.7910     0.3550    -1.0990 O.3   1 <1>  -0.6800 
  2 C        1.8460    -0.4240    -1.5630 C.3   1 <1>   0.2000 
  3 C        2.2240    -1.4150    -0.4600 C.3   1 <1>  -0.0800 
  4 C        3.0750     0.4760    -1.6700 C.3   1 <1>   0.3430 
  5 C        3.2750    -0.6730     0.3890 C.3   1 <1>   0.3430 
  6 C        2.7840    -2.7250    -1.0490 C.3   1 <1>  -0.0160 
  7 N        3.4950     0.6540    -0.2550 N.4   1 <1>  -0.9590 
  8 C        3.1580    -3.7220     0.0360 C.ar  1 <1>   0.1670 
  9 C        4.8750     1.1810    -0.0500 C.3   1 <1>   0.3430 
 10 N        4.2920    -3.4850     0.6790 N.ar  1 <1>  -0.6200 
 11 C        2.3280    -4.8030     0.2980 C.ar  1 <1>  -0.1500 
 12 C        5.0210     2.6070    -0.5850 C.3   1 <1>  -0.0220 
 13 C        4.6170    -4.3680     1.6130 C.ar  1 <1>   0.1600 
 14 C        2.6750    -5.7070     1.2780 C.ar  1 <1>  -0.1500 
 15 C        6.4370     3.1140    -0.3080 C.2   1 <1>  -0.2760 
 16 C        3.8560    -5.4740     1.9480 C.ar  1 <1>  -0.1500 
 17 C        7.4720     2.8130    -1.1150 C.2   1 <1>  -0.2760 
 18 C        6.5840     4.0090     0.9460 C.3   1 <1>   0.1380 
 19 C        8.8880     3.3440    -0.9040 C.3   1 <1>  -0.0220 
 20 C        7.4320     1.9140    -2.3500 C.3   1 <1>  -0.1020 
 21 C        8.0740     4.2050     1.3040 C.3   1 <1>  -0.1600 
 22 C        5.9120     3.3930     2.1860 C.3   1 <1>  -0.2400 
 23 C        5.9420     5.3780     0.6650 C.3   1 <1>  -0.2400 
 24 C        8.9390     4.5110     0.0810 C.3   1 <1>  -0.1600 
 25 H       -0.0580    -0.1350    -1.1320 H     1 <1>   0.4000 
 26 H        1.5660    -0.8730    -2.5020 H     1 <1>   0.0800 
 27 H        1.3710    -1.6600     0.1490 H     1 <1>   0.0800 
 28 H        2.8340     1.4130    -2.1440 H     1 <1>   0.0800 
 29 H        3.8500    -0.0280    -2.2240 H     1 <1>   0.0800 
 30 H        4.2000    -1.2240     0.3970 H     1 <1>   0.0800 
 31 H        2.9340    -0.5540     1.4040 H     1 <1>   0.0800 
 32 H        3.6580    -2.5300    -1.6470 H     1 <1>   0.0800 
 33 H        2.0470    -3.1710    -1.6940 H     1 <1>   0.0800 
 34 H        2.8000     1.2970     0.1560 H     1 <1>   0.4500 
 35 H        5.1050     1.1830     1.0030 H     1 <1>   0.0800 
 36 H        5.5920     0.5440    -0.5400 H     1 <1>   0.0800 
 37 H        1.4180    -4.9460    -0.2550 H     1 <1>   0.1500 
 38 H        4.8450     2.6250    -1.6440 H     1 <1>   0.0800 
 39 H        4.2860     3.2480    -0.1380 H     1 <1>   0.0800 
 40 H        5.5400    -4.2030     2.1430 H     1 <1>   0.1500 
 41 H        2.0560    -6.5570     1.5090 H     1 <1>   0.1500 
 42 H        4.1870    -6.1450     2.7210 H     1 <1>   0.1500 
 43 H        9.5070     2.5430    -0.5390 H     1 <1>   0.0800 
 44 H        9.3020     3.6780    -1.8400 H     1 <1>   0.0800 
 45 H        8.1730     1.1380    -2.2600 H     1 <1>   0.0800 
 46 H        7.6570     2.4940    -3.2280 H     1 <1>   0.0800 
 47 H        6.4840     1.4400    -2.5010 H     1 <1>   0.0800 
 48 H        8.1810     4.9960     2.0260 H     1 <1>   0.0800 
 49 H        8.4520     3.3050     1.7570 H     1 <1>   0.0800 
 50 H        6.1090     4.0020     3.0510 H     1 <1>   0.0800 
 51 H        6.3050     2.4110     2.3750 H     1 <1>   0.0800 
 52 H        4.8460     3.3300     2.0750 H     1 <1>   0.0800 
 53 H        6.1380     6.0620     1.4710 H     1 <1>   0.0800 
 54 H        4.8770     5.2980     0.5530 H     1 <1>   0.0800 
 55 H        6.3380     5.7990    -0.2420 H     1 <1>   0.0800 
 56 H        8.5900     5.4050    -0.4050 H     1 <1>   0.0800 
 57 H        9.9580     4.6800     0.3840 H     1 <1>   0.0800 
@<TRIPOS>BOND
  1   1   2  1   
  2   1  25  1   
  3   2   3  1   
  4   2   4  1   
  5   2  26  1   
  6   3   5  1   
  7   3   6  1   
  8   3  27  1   
  9   4   7  1   
 10   4  28  1   
 11   4  29  1   
 12   5   7  1   
 13   5  30  1   
 14   5  31  1   
 15   6   8  1   
 16   6  32  1   
 17   6  33  1   
 18   7   9  1   
 19   7  34  1   
 20   8  10  ar  
 21   8  11  ar  
 22   9  12  1   
 23   9  35  1   
 24   9  36  1   
 25  10  13  ar  
 26  11  14  ar  
 27  11  37  1   
 28  12  15  1   
 29  12  38  1   
 30  12  39  1   
 31  13  16  ar  
 32  13  40  1   
 33  14  16  ar  
 34  14  41  1   
 35  15  17  2   
 36  15  18  1   
 37  16  42  1   
 38  17  19  1   
 39  17  20  1   
 40  18  21  1   
 41  18  22  1   
 42  18  23  1   
 43  19  24  1   
 44  19  43  1   
 45  19  44  1   
 46  20  45  1   
 47  20  46  1   
 48  20  47  1   
 49  21  24  1   
 50  21  48  1   
 51  21  49  1   
 52  22  50  1   
 53  22  51  1   
 54  22  52  1   
 55  23  53  1   
 56  23  54  1   
 57  23  55  1   
 58  24  56  1   
 59  24  57  1   
@<TRIPOS>SUBSTRUCTURE
  1 ****   9 GROUP 4 **** **** 0

# MOE 2024.06 (io_trps.svl 2023.06)
