@<TRIPOS>MOLECULE
NONAME
50 53 1 0 0 
SMALL
USER_CHARGES


@<TRIPOS>ATOM
  1 O       -1.7750    -0.6330    -0.4850 O.3   1 <1>  -0.2800 
  2 C       -1.2980     0.3580     0.2700 C.ar  1 <1>   0.1400 
  3 C       -2.8460    -0.1640    -1.1250 C.2   1 <1>  -0.0400 
  4 C       -2.0740     1.4930     0.1190 C.ar  1 <1>   0.0000 
  5 C       -0.1920     0.3320     1.1090 C.ar  1 <1>  -0.1500 
  6 C       -3.0760     1.1240    -0.8010 C.2   1 <1>  -0.1500 
  7 C       -3.6140    -1.0770    -2.0760 C.3   1 <1>   0.2900 
  8 C       -1.7470     2.6480     0.8300 C.ar  1 <1>  -0.1500 
  9 C        0.1260     1.4780     1.8100 C.ar  1 <1>  -0.1500 
 10 N       -4.3960    -2.1180    -1.3700 N.3   1 <1>  -0.8100 
 11 C       -0.6510     2.6310     1.6700 C.ar  1 <1>  -0.1500 
 12 C       -3.5620    -3.2290    -0.8530 C.3   1 <1>   0.1100 
 13 C       -5.3430    -1.5470    -0.3910 C.3   1 <1>   0.1100 
 14 C       -4.2460    -3.9700     0.3210 C.3   1 <1>   0.4230 
 15 C       -6.3200    -2.6140     0.1540 C.3   1 <1>  -0.1600 
 16 N       -3.5780    -5.2500     0.8100 N.4   1 <1>  -0.9590 
 17 C       -5.7800    -4.0710     0.0940 C.3   1 <1>   0.0000 
 18 C       -4.3870    -6.4870     0.6180 C.3   1 <1>   0.3430 
 19 C       -2.1750    -5.4460     0.3230 C.3   1 <1>   0.2630 
 20 C       -6.3590    -4.9180     1.2500 C.3   1 <1>  -0.1600 
 21 C       -6.1480    -4.6690    -1.3000 C.3   1 <1>   0.1200 
 22 C       -5.7700    -6.3450     1.2740 C.3   1 <1>  -0.1600 
 23 O       -7.5090    -4.9240    -1.3960 O.3   1 <1>  -0.6800 
 24 H        0.3930    -0.5650     1.1960 H     1 <1>   0.1500 
 25 H       -3.8510     1.7840    -1.1440 H     1 <1>   0.1500 
 26 H       -2.9270    -1.5380    -2.7640 H     1 <1>   0.0800 
 27 H       -4.2940    -0.4750    -2.6550 H     1 <1>   0.0800 
 28 H       -2.3490     3.5320     0.7160 H     1 <1>   0.1500 
 29 H        0.9770     1.4910     2.4690 H     1 <1>   0.1500 
 30 H       -0.3850     3.5140     2.2250 H     1 <1>   0.1500 
 31 H       -3.3820    -3.9090    -1.6660 H     1 <1>   0.0800 
 32 H       -2.6190    -2.8510    -0.5060 H     1 <1>   0.0800 
 33 H       -4.7890    -1.1160     0.4280 H     1 <1>   0.0800 
 34 H       -5.9110    -0.7550    -0.8530 H     1 <1>   0.0800 
 35 H       -4.1440    -3.2810     1.1420 H     1 <1>   0.0800 
 36 H       -6.5540    -2.3420     1.1680 H     1 <1>   0.0800 
 37 H       -7.2450    -2.5410    -0.3920 H     1 <1>   0.0800 
 38 H       -3.5230    -5.1320     1.8310 H     1 <1>   0.4500 
 39 H       -4.5040    -6.6760    -0.4360 H     1 <1>   0.0800 
 40 H       -3.8780    -7.3360     1.0450 H     1 <1>   0.0800 
 41 H       -2.1660    -5.5970    -0.7450 H     1 <1>   0.0800 
 42 H       -1.7310    -6.3080     0.7950 H     1 <1>   0.0800 
 43 H       -1.5730    -4.5820     0.5550 H     1 <1>   0.0800 
 44 H       -6.1160    -4.4380     2.1840 H     1 <1>   0.0800 
 45 H       -7.4350    -4.9600     1.2030 H     1 <1>   0.0800 
 46 H       -5.6380    -5.5890    -1.5070 H     1 <1>   0.0800 
 47 H       -5.9100    -3.9820    -2.0940 H     1 <1>   0.0800 
 48 H       -6.4410    -7.0150     0.7650 H     1 <1>   0.0800 
 49 H       -5.7160    -6.6860     2.2940 H     1 <1>   0.0800 
 50 H       -7.8180    -5.5320    -0.6990 H     1 <1>   0.4000 
@<TRIPOS>BOND
  1   1   2  1   
  2   1   3  1   
  3   2   4  ar  
  4   2   5  ar  
  5   3   6  2   
  6   3   7  1   
  7   4   6  1   
  8   4   8  ar  
  9   5   9  ar  
 10   5  24  1   
 11   6  25  1   
 12   7  10  1   
 13   7  26  1   
 14   7  27  1   
 15   8  11  ar  
 16   8  28  1   
 17   9  11  ar  
 18   9  29  1   
 19  10  12  1   
 20  10  13  1   
 21  11  30  1   
 22  12  14  1   
 23  12  31  1   
 24  12  32  1   
 25  13  15  1   
 26  13  33  1   
 27  13  34  1   
 28  14  16  1   
 29  14  17  1   
 30  14  35  1   
 31  15  17  1   
 32  15  36  1   
 33  15  37  1   
 34  16  18  1   
 35  16  19  1   
 36  16  38  1   
 37  17  20  1   
 38  17  21  1   
 39  18  22  1   
 40  18  39  1   
 41  18  40  1   
 42  19  41  1   
 43  19  42  1   
 44  19  43  1   
 45  20  22  1   
 46  20  44  1   
 47  20  45  1   
 48  21  23  1   
 49  21  46  1   
 50  21  47  1   
 51  22  48  1   
 52  22  49  1   
 53  23  50  1   
@<TRIPOS>SUBSTRUCTURE
  1 ****  12 GROUP 4 **** **** 0

# MOE 2024.06 (io_trps.svl 2023.06)
