@<TRIPOS>MOLECULE
NONAME
51 52 1 0 0 
SMALL
USER_CHARGES


@<TRIPOS>ATOM
  1 CL      -0.2860    -3.5990    -0.5810 Cl    1 <1>  -0.1770 
  2 C       -1.9290    -3.0400    -0.3990 C.ar  1 <1>   0.1770 
  3 C       -2.8590    -3.8660     0.2010 C.ar  1 <1>  -0.1500 
  4 C       -2.2660    -1.7810    -0.8610 C.ar  1 <1>  -0.1500 
  5 C       -4.1700    -3.4170     0.3400 C.ar  1 <1>   0.0830 
  6 C       -3.5690    -1.3350    -0.7180 C.ar  1 <1>  -0.1500 
  7 O       -5.1670    -4.1510     0.8960 O.3   1 <1>  -0.3630 
  8 C       -4.5130    -2.1530    -0.1190 C.ar  1 <1>  -0.1500 
  9 C       -4.9000    -5.3460     1.6180 C.3   1 <1>   0.2610 
 10 C       -4.6190    -6.5720     0.7200 C.2   1 <1>   0.5690 
 11 C       -6.0910    -5.5890     2.5500 C.3   1 <1>  -0.2400 
 12 O       -3.7360    -7.3040     1.1030 O.2   1 <1>  -0.5700 
 13 N       -5.3310    -6.8800    -0.4230 N.am  1 <1>  -0.6600 
 14 C       -5.2400    -8.2820    -0.9450 C.3   1 <1>   0.3210 
 15 C       -5.9030    -5.8630    -1.3660 C.3   1 <1>   0.1400 
 16 C       -6.1580    -9.2090    -0.1490 C.2   1 <1>   0.0460 
 17 C       -7.2940    -5.3590    -0.9390 C.3   1 <1>   0.3430 
 18 N       -7.5010    -9.1770    -0.3060 N.2   1 <1>  -0.5650 
 19 C       -5.8060   -10.1460     0.7630 C.2   1 <1>  -0.3320 
 20 N       -8.2820    -6.4730    -0.8260 N.4   1 <1>  -0.9590 
 21 C       -7.9280   -10.0970     0.4990 C.2   1 <1>   0.0360 
 22 N       -6.9470   -10.7210     1.1810 N.pl3 1 <1>   0.0330 
 23 C       -4.4450   -10.5620     1.3000 C.3   1 <1>  -0.0600 
 24 C       -8.7950    -6.9370    -2.1480 C.3   1 <1>   0.2630 
 25 C       -9.4020    -6.1410     0.0980 C.3   1 <1>   0.2630 
 26 H       -2.5340    -4.8320     0.5370 H     1 <1>   0.1500 
 27 H       -1.5170    -1.1620    -1.3230 H     1 <1>   0.1500 
 28 H       -3.8440    -0.3540    -1.0690 H     1 <1>   0.1500 
 29 H       -5.5230    -1.8040    -0.0010 H     1 <1>   0.1500 
 30 H       -4.0350    -5.1640     2.2310 H     1 <1>   0.0800 
 31 H       -6.9790    -5.8080     1.9890 H     1 <1>   0.0800 
 32 H       -6.2540    -4.7300     3.1750 H     1 <1>   0.0800 
 33 H       -5.8790    -6.4330     3.1830 H     1 <1>   0.0800 
 34 H       -4.2250    -8.6310    -0.8750 H     1 <1>   0.0800 
 35 H       -5.5190    -8.3260    -1.9820 H     1 <1>   0.0800 
 36 H       -5.9660    -6.2730    -2.3590 H     1 <1>   0.0800 
 37 H       -5.2310    -5.0270    -1.4330 H     1 <1>   0.0800 
 38 H       -7.6460    -4.6290    -1.6480 H     1 <1>   0.0800 
 39 H       -7.1950    -4.8650     0.0120 H     1 <1>   0.0800 
 40 H       -7.7720    -7.2940    -0.4170 H     1 <1>   0.4500 
 41 H       -8.9630   -10.3650     0.6320 H     1 <1>   0.1500 
 42 H       -7.0480   -11.4770     1.8650 H     1 <1>   0.2700 
 43 H       -3.6570    -9.9980     0.8350 H     1 <1>   0.0800 
 44 H       -4.2720   -11.6060     1.1090 H     1 <1>   0.0800 
 45 H       -4.3970   -10.3880     2.3600 H     1 <1>   0.0800 
 46 H       -9.3430    -6.1500    -2.6390 H     1 <1>   0.0800 
 47 H       -9.4470    -7.7850    -2.0110 H     1 <1>   0.0800 
 48 H       -7.9770    -7.2430    -2.7780 H     1 <1>   0.0800 
 49 H       -9.9750    -5.3130    -0.2880 H     1 <1>   0.0800 
 50 H       -9.0190    -5.8760     1.0690 H     1 <1>   0.0800 
 51 H      -10.0530    -6.9930     0.2090 H     1 <1>   0.0800 
@<TRIPOS>BOND
  1   1   2  1   
  2   2   3  ar  
  3   2   4  ar  
  4   3   5  ar  
  5   3  26  1   
  6   4   6  ar  
  7   4  27  1   
  8   5   7  1   
  9   5   8  ar  
 10   6   8  ar  
 11   6  28  1   
 12   7   9  1   
 13   8  29  1   
 14   9  10  1   
 15   9  11  1   
 16   9  30  1   
 17  10  12  2   
 18  10  13  am  
 19  11  31  1   
 20  11  32  1   
 21  11  33  1   
 22  13  14  1   
 23  13  15  1   
 24  14  16  1   
 25  14  34  1   
 26  14  35  1   
 27  15  17  1   
 28  15  36  1   
 29  15  37  1   
 30  16  18  1   
 31  16  19  2   
 32  17  20  1   
 33  17  38  1   
 34  17  39  1   
 35  18  21  2   
 36  19  22  1   
 37  19  23  1   
 38  20  24  1   
 39  20  25  1   
 40  20  40  1   
 41  21  22  1   
 42  21  41  1   
 43  22  42  1   
 44  23  43  1   
 45  23  44  1   
 46  23  45  1   
 47  24  46  1   
 48  24  47  1   
 49  24  48  1   
 50  25  49  1   
 51  25  50  1   
 52  25  51  1   
@<TRIPOS>SUBSTRUCTURE
  1 ****  13 GROUP 4 **** **** 0

# MOE 2024.06 (io_trps.svl 2023.06)
