@<TRIPOS>MOLECULE
NONAME
40 42 1 0 0 
SMALL
USER_CHARGES


@<TRIPOS>ATOM
  1 S        0.5820     0.1240    -1.3680 S.o2  1 <1>   1.3330 
  2 O        0.9810    -1.1360    -1.9560 O.2   1 <1>  -0.6500 
  3 O       -0.2700     1.0220    -2.1140 O.2   1 <1>  -0.6500 
  4 N       -0.2060    -0.2150     0.0990 N.am  1 <1>  -0.8490 
  5 C        2.0680     0.9950    -0.8690 C.3   1 <1>  -0.0550 
  6 C       -1.0840    -1.3840    -0.0050 C.3   1 <1>   0.1160 
  7 C       -0.9630     0.9260     0.6260 C.3   1 <1>   0.1160 
  8 C        3.0940     0.1200    -0.1170 C.3   1 <1>  -0.0800 
  9 C        4.4270     0.7980     0.1520 C.3   1 <1>   0.2890 
 10 C        2.6610    -0.3380     1.2810 C.3   1 <1>   0.1200 
 11 N        4.2180     2.1950     0.6130 N.pl3 1 <1>  -0.8690 
 12 C        4.9330    -0.0370     1.3200 C.3   1 <1>   0.1200 
 13 O        3.8030    -0.3170     2.0900 O.3   1 <1>  -0.5600 
 14 C        4.4500     3.3270    -0.1220 C.ar  1 <1>   0.4100 
 15 N        4.6800     3.1800    -1.4130 N.ar  1 <1>  -0.6200 
 16 C        4.4270     4.5880     0.4690 C.ar  1 <1>   0.0000 
 17 C        4.8880     4.2950    -2.1050 C.ar  1 <1>   0.4700 
 18 C        4.6600     5.6340    -0.3880 C.ar  1 <1>   0.2970 
 19 C        4.2030     5.0120     1.8280 C.2   1 <1>  -0.1500 
 20 N        4.8950     5.5440    -1.6790 N.ar  1 <1>  -0.5670 
 21 S        4.6010     7.1660     0.4840 S.3   1 <1>  -0.0800 
 22 C        4.2610     6.3430     2.0090 C.2   1 <1>  -0.1100 
 23 H        2.5450     1.3740    -1.7520 H     1 <1>   0.0800 
 24 H        1.8010     1.8410    -0.2680 H     1 <1>   0.0800 
 25 H       -1.5590    -1.5810     0.9410 H     1 <1>   0.0800 
 26 H       -0.5100    -2.2540    -0.2790 H     1 <1>   0.0800 
 27 H       -1.8400    -1.2190    -0.7550 H     1 <1>   0.0800 
 28 H       -1.3680     0.6860     1.5940 H     1 <1>   0.0800 
 29 H       -1.7730     1.1820    -0.0380 H     1 <1>   0.0800 
 30 H       -0.3200     1.7830     0.7310 H     1 <1>   0.0800 
 31 H        3.2870    -0.7620    -0.7040 H     1 <1>   0.0800 
 32 H        5.0960     0.7620    -0.6920 H     1 <1>   0.0800 
 33 H        2.2550    -1.3360     1.2680 H     1 <1>   0.0800 
 34 H        1.9460     0.3380     1.7170 H     1 <1>   0.0800 
 35 H        4.0140     2.2640     1.6130 H     1 <1>   0.4000 
 36 H        5.6630     0.4810     1.9170 H     1 <1>   0.0800 
 37 H        5.3370    -0.9720     0.9730 H     1 <1>   0.0800 
 38 H        5.0760     4.1600    -3.1580 H     1 <1>   0.1500 
 39 H        4.0120     4.2890     2.6000 H     1 <1>   0.1500 
 40 H        4.1420     6.9620     2.8820 H     1 <1>   0.1500 
@<TRIPOS>BOND
  1   1   2  2   
  2   1   3  2   
  3   1   4  am  
  4   1   5  1   
  5   4   6  1   
  6   4   7  1   
  7   5   8  1   
  8   5  23  1   
  9   5  24  1   
 10   6  25  1   
 11   6  26  1   
 12   6  27  1   
 13   7  28  1   
 14   7  29  1   
 15   7  30  1   
 16   8   9  1   
 17   8  10  1   
 18   8  31  1   
 19   9  11  1   
 20   9  12  1   
 21   9  32  1   
 22  10  13  1   
 23  10  33  1   
 24  10  34  1   
 25  11  14  1   
 26  11  35  1   
 27  12  13  1   
 28  12  36  1   
 29  12  37  1   
 30  14  15  ar  
 31  14  16  ar  
 32  15  17  ar  
 33  16  18  ar  
 34  16  19  1   
 35  17  20  ar  
 36  17  38  1   
 37  18  20  ar  
 38  18  21  1   
 39  19  22  2   
 40  19  39  1   
 41  21  22  1   
 42  22  40  1   
@<TRIPOS>SUBSTRUCTURE
  1 ****  11 GROUP 4 **** **** 0

# MOE 2024.06 (io_trps.svl 2023.06)
