@<TRIPOS>MOLECULE
NONAME
49 52 1 0 0 
SMALL
USER_CHARGES


@<TRIPOS>ATOM
  1 O        1.7900    -0.1470     1.6140 O.2   1 <1>  -0.5700 
  2 C        2.7630     0.2740     1.0310 C.2   1 <1>   0.7150 
  3 N        3.8050    -0.5790     0.8600 N.am  1 <1>  -0.7300 
  4 C        2.8540     1.6270     0.5710 C.2   1 <1>  -0.2370 
  5 C        5.1900    -0.1060     0.6000 C.3   1 <1>   0.1400 
  6 N        3.5700     2.0110    -0.5140 N.pl3 1 <1>   0.3140 
  7 C        2.3230     2.7710     1.0730 C.2   1 <1>  -0.1500 
  8 C        5.3740     0.2900    -0.8770 C.3   1 <1>   0.2000 
  9 N        3.5450     3.3320    -0.7020 N.2   1 <1>  -0.7070 
 10 C        4.2220     1.1090    -1.4880 C.3   1 <1>   0.0960 
 11 C        2.7820     3.8110     0.2690 C.2   1 <1>   0.2030 
 12 O        5.4870    -0.8780    -1.6150 O.3   1 <1>  -0.6800 
 13 C        2.4810     5.2180     0.4760 C.2   1 <1>   0.7160 
 14 O        1.7990     5.6120     1.4060 O.2   1 <1>  -0.5700 
 15 N        3.0020     6.1370    -0.3830 N.am  1 <1>  -0.7300 
 16 C        3.1180     7.5880    -0.1030 C.3   1 <1>   0.3200 
 17 C        4.5430     7.9500     0.2830 C.2   1 <1>   0.2980 
 18 O        4.9940     7.5590     1.4480 O.3   1 <1>  -0.0190 
 19 N        5.3670     8.6050    -0.4340 N.2   1 <1>  -0.5650 
 20 N        6.2130     8.0050     1.4760 N.2   1 <1>  -0.4100 
 21 C        6.4200     8.6140     0.3750 C.2   1 <1>   0.3350 
 22 C        7.7170     9.3100    -0.0410 C.3   1 <1>   0.1010 
 23 C        8.9520     8.7510     0.6940 C.3   1 <1>  -0.1600 
 24 C        7.6060    10.8310     0.1730 C.3   1 <1>  -0.1600 
 25 C       10.2380     9.4760     0.2730 C.3   1 <1>  -0.1600 
 26 C        8.8920    11.5600    -0.2400 C.3   1 <1>  -0.1600 
 27 C       10.1150    10.9900     0.4910 C.3   1 <1>  -0.1600 
 28 H        3.6980    -1.4740     1.3440 H     1 <1>   0.3700 
 29 H        5.9010    -0.8700     0.8670 H     1 <1>   0.0800 
 30 H        5.3880     0.7510     1.2220 H     1 <1>   0.0800 
 31 H        1.6830     2.8810     1.9320 H     1 <1>   0.1500 
 32 H        6.3000     0.8280    -0.9930 H     1 <1>   0.0800 
 33 H        4.5950     1.6990    -2.3040 H     1 <1>   0.0800 
 34 H        3.4620     0.4500    -1.8640 H     1 <1>   0.0800 
 35 H        4.7410    -1.4780    -1.4060 H     1 <1>   0.4000 
 36 H        3.6380     5.7570    -1.0900 H     1 <1>   0.3700 
 37 H        2.4530     7.8720     0.6940 H     1 <1>   0.0800 
 38 H        2.8400     8.1380    -0.9840 H     1 <1>   0.0800 
 39 H        7.8500     9.1280    -1.0930 H     1 <1>   0.0800 
 40 H        9.0460     7.7000     0.4860 H     1 <1>   0.0800 
 41 H        8.8160     8.8650     1.7560 H     1 <1>   0.0800 
 42 H        7.4030    11.0250     1.2130 H     1 <1>   0.0800 
 43 H        6.7780    11.2120    -0.3990 H     1 <1>   0.0800 
 44 H       10.4370     9.2800    -0.7670 H     1 <1>   0.0800 
 45 H       11.0680     9.0970     0.8450 H     1 <1>   0.0800 
 46 H        8.7980    12.6100    -0.0190 H     1 <1>   0.0800 
 47 H        9.0340    11.4600    -1.3030 H     1 <1>   0.0800 
 48 H       11.0060    11.4790     0.1380 H     1 <1>   0.0800 
 49 H       10.0240    11.1910     1.5450 H     1 <1>   0.0800 
@<TRIPOS>BOND
  1   1   2  2   
  2   2   3  am  
  3   2   4  1   
  4   3   5  1   
  5   3  28  1   
  6   4   6  1   
  7   4   7  2   
  8   5   8  1   
  9   5  29  1   
 10   5  30  1   
 11   6   9  1   
 12   6  10  1   
 13   7  11  1   
 14   7  31  1   
 15   8  10  1   
 16   8  12  1   
 17   8  32  1   
 18   9  11  2   
 19  10  33  1   
 20  10  34  1   
 21  11  13  1   
 22  12  35  1   
 23  13  14  2   
 24  13  15  am  
 25  15  16  1   
 26  15  36  1   
 27  16  17  1   
 28  16  37  1   
 29  16  38  1   
 30  17  18  1   
 31  17  19  2   
 32  18  20  1   
 33  19  21  1   
 34  20  21  2   
 35  21  22  1   
 36  22  23  1   
 37  22  24  1   
 38  22  39  1   
 39  23  25  1   
 40  23  40  1   
 41  23  41  1   
 42  24  26  1   
 43  24  42  1   
 44  24  43  1   
 45  25  27  1   
 46  25  44  1   
 47  25  45  1   
 48  26  27  1   
 49  26  46  1   
 50  26  47  1   
 51  27  48  1   
 52  27  49  1   
@<TRIPOS>SUBSTRUCTURE
  1 ****  15 GROUP 4 **** **** 0

# MOE 2024.06 (io_trps.svl 2023.06)
