@<TRIPOS>MOLECULE
NONAME
34 36 1 0 0 
SMALL
USER_CHARGES


@<TRIPOS>ATOM
  1 CL      -1.4690     1.8350     2.6930 Cl    1 <1>  -0.1770 
  2 C       -0.8690     2.2990     1.1180 C.ar  1 <1>   0.1770 
  3 C       -1.6520     2.1370    -0.0180 C.ar  1 <1>  -0.1440 
  4 C        0.4080     2.8320     1.0540 C.ar  1 <1>  -0.1500 
  5 C       -1.0990     2.5280    -1.2310 C.ar  1 <1>   0.1770 
  6 C       -3.0590     1.5330     0.0660 C.3   1 <1>   0.0450 
  7 C        0.9350     3.2180    -0.1660 C.ar  1 <1>  -0.1500 
  8 CL      -1.9970     2.3650    -2.7230 Cl    1 <1>  -0.1770 
  9 C        0.1760     3.0630    -1.3130 C.ar  1 <1>  -0.1500 
 10 C       -3.0820     0.0100    -0.0100 C.2   1 <1>   0.5690 
 11 O       -2.0560    -0.5830    -0.2580 O.2   1 <1>  -0.5700 
 12 N       -4.2590    -0.6440     0.2030 N.am  1 <1>  -0.6600 
 13 C       -5.5930    -0.0190     0.4270 C.3   1 <1>   0.2350 
 14 C       -4.4070    -2.1250     0.1230 C.3   1 <1>   0.2350 
 15 C       -6.6050    -1.0490    -0.0310 C.3   1 <1>  -0.2420 
 16 C       -5.8740    -2.3600    -0.2010 C.3   1 <1>  -0.2420 
 17 C       -7.9960    -0.6880     0.4960 C.2   1 <1>   0.9470 
 18 C       -6.4990    -1.6870    -1.3950 C.3   1 <1>  -0.2000 
 19 C       -6.2930    -3.7870     0.1630 C.2   1 <1>   0.9470 
 20 O       -8.1150    -0.3660     1.6870 O.co2 1 <1>  -0.9000 
 21 O       -8.9330    -0.5370    -0.3000 O.co2 1 <1>  -0.9000 
 22 O       -6.0450    -4.2110     1.3010 O.co2 1 <1>  -0.9000 
 23 O       -6.7270    -4.5410    -0.7190 O.co2 1 <1>  -0.9000 
 24 H        0.9820     2.9400     1.9570 H     1 <1>   0.1500 
 25 H       -3.6720     1.9140    -0.7280 H     1 <1>   0.0800 
 26 H       -3.5260     1.8320     0.9850 H     1 <1>   0.0800 
 27 H        1.9280     3.6310    -0.2230 H     1 <1>   0.1500 
 28 H        0.5670     3.3520    -2.2720 H     1 <1>   0.1500 
 29 H       -5.7190     0.1780     1.4790 H     1 <1>   0.0800 
 30 H       -5.7140     0.8890    -0.1340 H     1 <1>   0.0800 
 31 H       -3.7720    -2.5410    -0.6390 H     1 <1>   0.0800 
 32 H       -4.1600    -2.5580     1.0770 H     1 <1>   0.0800 
 33 H       -5.8710    -1.2430    -2.1430 H     1 <1>   0.1000 
 34 H       -7.3860    -2.1360    -1.8130 H     1 <1>   0.1000 
@<TRIPOS>BOND
  1   1   2  1   
  2   2   3  ar  
  3   2   4  ar  
  4   3   5  ar  
  5   3   6  1   
  6   4   7  ar  
  7   4  24  1   
  8   5   8  1   
  9   5   9  ar  
 10   6  10  1   
 11   6  25  1   
 12   6  26  1   
 13   7   9  ar  
 14   7  27  1   
 15   9  28  1   
 16  10  11  2   
 17  10  12  am  
 18  12  13  1   
 19  12  14  1   
 20  13  15  1   
 21  13  29  1   
 22  13  30  1   
 23  14  16  1   
 24  14  31  1   
 25  14  32  1   
 26  15  16  1   
 27  15  17  1   
 28  15  18  1   
 29  16  18  1   
 30  16  19  1   
 31  17  20  ar  
 32  17  21  ar  
 33  18  33  1   
 34  18  34  1   
 35  19  22  ar  
 36  19  23  ar  
@<TRIPOS>SUBSTRUCTURE
  1 ****  12 GROUP 4 **** **** 0

# MOE 2024.06 (io_trps.svl 2023.06)
