@<TRIPOS>MOLECULE
NONAME
49 53 1 0 0 
SMALL
USER_CHARGES


@<TRIPOS>ATOM
  1 O       -3.2450     2.6610     1.6900 O.2   1 <1>  -0.5700 
  2 C       -3.1030     2.1370     0.6050 C.2   1 <1>   0.5690 
  3 N       -4.1230     1.3950     0.0480 N.am  1 <1>  -0.6600 
  4 C       -1.7620     2.3480    -0.1410 C.3   1 <1>   0.2610 
  5 C       -4.0450     0.6780    -1.2540 C.3   1 <1>   0.1400 
  6 C       -5.3660     1.0850     0.8040 C.3   1 <1>   0.1400 
  7 O       -1.1010     1.1390    -0.4400 O.3   1 <1>  -0.5600 
  8 C       -0.7130     3.1850     0.5880 C.3   1 <1>  -0.1600 
  9 C       -4.0340    -0.8260    -0.9810 C.3   1 <1>  -0.1600 
 10 C       -5.3840    -0.4130     1.1140 C.3   1 <1>  -0.1600 
 11 C        0.2860     1.2940    -0.4480 C.3   1 <1>   0.1200 
 12 C        0.5740     2.7430    -0.0760 C.3   1 <1>  -0.1600 
 13 C       -5.2570    -1.2550    -0.1640 C.3   1 <1>   0.4600 
 14 O       -6.3810    -1.0210    -0.9860 O.3   1 <1>  -0.5600 
 15 C       -5.1750    -2.7410     0.1650 C.2   1 <1>  -0.3320 
 16 C       -7.5700    -1.7200    -0.7000 C.3   1 <1>   0.1200 
 17 N       -4.1520    -3.3710     0.8180 N.pl3 1 <1>   0.0330 
 18 C       -6.1230    -3.6450    -0.1540 C.2   1 <1>  -0.1810 
 19 C       -7.3810    -3.2360    -0.8770 C.3   1 <1>   0.0210 
 20 C       -4.4640    -4.7060     0.9070 C.ar  1 <1>  -0.1520 
 21 C       -5.7010    -4.9120     0.2990 C.ar  1 <1>   0.0000 
 22 C       -3.7600    -5.7710     1.4740 C.ar  1 <1>  -0.1500 
 23 C       -6.2440    -6.1990     0.2540 C.ar  1 <1>  -0.1500 
 24 C       -4.3070    -7.0330     1.4240 C.ar  1 <1>  -0.1500 
 25 C       -5.5490    -7.2470     0.8140 C.ar  1 <1>  -0.1500 
 26 H       -1.9790     2.8190    -1.0830 H     1 <1>   0.0800 
 27 H       -4.9040     0.9350    -1.8500 H     1 <1>   0.0800 
 28 H       -3.1670     0.9550    -1.8080 H     1 <1>   0.0800 
 29 H       -5.4100     1.6480     1.7210 H     1 <1>   0.0800 
 30 H       -6.2210     1.3510     0.2060 H     1 <1>   0.0800 
 31 H       -0.9000     4.2400     0.4890 H     1 <1>   0.0800 
 32 H       -0.6990     2.9230     1.6320 H     1 <1>   0.0800 
 33 H       -3.1330    -1.0650    -0.4490 H     1 <1>   0.0800 
 34 H       -4.0210    -1.3690    -1.9080 H     1 <1>   0.0800 
 35 H       -6.2800    -0.6720     1.6430 H     1 <1>   0.0800 
 36 H       -4.5580    -0.6300     1.7650 H     1 <1>   0.0800 
 37 H        0.6930     0.6180     0.2850 H     1 <1>   0.0800 
 38 H        0.6610     1.0440    -1.4260 H     1 <1>   0.0800 
 39 H        1.4270     2.8300     0.5740 H     1 <1>   0.0800 
 40 H        0.7520     3.3130    -0.9720 H     1 <1>   0.0800 
 41 H       -7.8640    -1.4970     0.3100 H     1 <1>   0.0800 
 42 H       -8.3310    -1.3600    -1.3690 H     1 <1>   0.0800 
 43 H       -3.2950    -2.9370     1.1750 H     1 <1>   0.2700 
 44 H       -8.2280    -3.7570    -0.4710 H     1 <1>   0.0800 
 45 H       -7.2950    -3.4760    -1.9210 H     1 <1>   0.0800 
 46 H       -2.8070    -5.5970     1.9400 H     1 <1>   0.1500 
 47 H       -7.1970    -6.3480    -0.2180 H     1 <1>   0.1500 
 48 H       -3.7850    -7.8690     1.8540 H     1 <1>   0.1500 
 49 H       -5.9550    -8.2430     0.7870 H     1 <1>   0.1500 
@<TRIPOS>BOND
  1   1   2  2   
  2   2   3  am  
  3   2   4  1   
  4   3   5  1   
  5   3   6  1   
  6   4   7  1   
  7   4   8  1   
  8   4  26  1   
  9   5   9  1   
 10   5  27  1   
 11   5  28  1   
 12   6  10  1   
 13   6  29  1   
 14   6  30  1   
 15   7  11  1   
 16   8  12  1   
 17   8  31  1   
 18   8  32  1   
 19   9  13  1   
 20   9  33  1   
 21   9  34  1   
 22  10  13  1   
 23  10  35  1   
 24  10  36  1   
 25  11  12  1   
 26  11  37  1   
 27  11  38  1   
 28  12  39  1   
 29  12  40  1   
 30  13  14  1   
 31  13  15  1   
 32  14  16  1   
 33  15  17  1   
 34  15  18  2   
 35  16  19  1   
 36  16  41  1   
 37  16  42  1   
 38  17  20  1   
 39  17  43  1   
 40  18  19  1   
 41  18  21  1   
 42  19  44  1   
 43  19  45  1   
 44  20  21  ar  
 45  20  22  ar  
 46  21  23  ar  
 47  22  24  ar  
 48  22  46  1   
 49  23  25  ar  
 50  23  47  1   
 51  24  25  ar  
 52  24  48  1   
 53  25  49  1   
@<TRIPOS>SUBSTRUCTURE
  1 ****  13 GROUP 4 **** **** 0

# MOE 2024.06 (io_trps.svl 2023.06)
