@<TRIPOS>MOLECULE
NONAME
42 44 1 0 0 
SMALL
USER_CHARGES


@<TRIPOS>ATOM
  1 O       -1.6240     0.0770    -2.3520 O.2   1 <1>  -0.5700 
  2 C       -1.7450    -0.5560    -1.3260 C.2   1 <1>   0.5690 
  3 N       -1.9850     0.0430    -0.1170 N.am  1 <1>  -0.6600 
  4 C       -1.5830    -2.0680    -1.4000 C.3   1 <1>  -0.0190 
  5 C       -2.2580    -0.7810     1.1030 C.3   1 <1>   0.2200 
  6 C       -2.0950     1.5170     0.0330 C.3   1 <1>   0.0600 
  7 C       -0.3150    -2.5190    -0.6520 C.3   1 <1>   0.1200 
  8 C       -2.8320    -2.8940    -1.0140 C.3   1 <1>   0.1100 
  9 C       -1.1380    -1.7940     1.4660 C.3   1 <1>   0.1200 
 10 C       -3.6250    -1.4870     0.9830 C.3   1 <1>   0.1100 
 11 O       -0.0880    -1.8380     0.5460 O.3   1 <1>  -0.5600 
 12 N       -3.8930    -2.1420    -0.3190 N.3   1 <1>  -0.8100 
 13 C       -5.2520    -2.7040    -0.4540 C.3   1 <1>   0.2530 
 14 C       -5.5440    -4.0060     0.3010 C.ar  1 <1>  -0.1440 
 15 C       -6.8160    -4.5620     0.1460 C.ar  1 <1>   0.3930 
 16 C       -4.6440    -4.6640     1.1210 C.ar  1 <1>  -0.1500 
 17 O       -7.6930    -3.9110    -0.6550 O.3   1 <1>  -0.3630 
 18 N       -7.2300    -5.6850     0.7290 N.ar  1 <1>  -0.6200 
 19 C       -5.0630    -5.8280     1.7290 C.ar  1 <1>  -0.1500 
 20 C       -9.0020    -4.4040    -0.8650 C.3   1 <1>   0.0400 
 21 C       -6.3460    -6.2870     1.5020 C.ar  1 <1>   0.1600 
 22 H       -1.3980    -2.3050    -2.4310 H     1 <1>   0.0800 
 23 H       -2.3370    -0.1160     1.9440 H     1 <1>   0.0800 
 24 H       -1.3920     1.8590     0.7720 H     1 <1>   0.0800 
 25 H       -3.0940     1.7770     0.3360 H     1 <1>   0.0800 
 26 H       -1.8790     2.0090    -0.8990 H     1 <1>   0.0800 
 27 H        0.5410    -2.3180    -1.2730 H     1 <1>   0.0800 
 28 H       -0.3340    -3.5740    -0.4460 H     1 <1>   0.0800 
 29 H       -2.5420    -3.7480    -0.4320 H     1 <1>   0.0800 
 30 H       -3.2510    -3.2730    -1.9310 H     1 <1>   0.0800 
 31 H       -1.5280    -2.7880     1.5880 H     1 <1>   0.0800 
 32 H       -0.7070    -1.5010     2.4070 H     1 <1>   0.0800 
 33 H       -4.3820    -0.7370     1.1300 H     1 <1>   0.0800 
 34 H       -3.7330    -2.1920     1.7850 H     1 <1>   0.0800 
 35 H       -5.9590    -1.9590    -0.1300 H     1 <1>   0.0800 
 36 H       -5.4440    -2.8690    -1.5010 H     1 <1>   0.0800 
 37 H       -3.6500    -4.3040     1.2960 H     1 <1>   0.1500 
 38 H       -4.4010    -6.3760     2.3750 H     1 <1>   0.1500 
 39 H       -9.5150    -3.7330    -1.5290 H     1 <1>   0.0800 
 40 H       -9.5120    -4.4510     0.0810 H     1 <1>   0.0800 
 41 H       -8.9380    -5.3840    -1.3050 H     1 <1>   0.0800 
 42 H       -6.6620    -7.1970     1.9830 H     1 <1>   0.1500 
@<TRIPOS>BOND
  1   1   2  2   
  2   2   3  am  
  3   2   4  1   
  4   3   5  1   
  5   3   6  1   
  6   4   7  1   
  7   4   8  1   
  8   4  22  1   
  9   5   9  1   
 10   5  10  1   
 11   5  23  1   
 12   6  24  1   
 13   6  25  1   
 14   6  26  1   
 15   7  11  1   
 16   7  27  1   
 17   7  28  1   
 18   8  12  1   
 19   8  29  1   
 20   8  30  1   
 21   9  11  1   
 22   9  31  1   
 23   9  32  1   
 24  10  12  1   
 25  10  33  1   
 26  10  34  1   
 27  12  13  1   
 28  13  14  1   
 29  13  35  1   
 30  13  36  1   
 31  14  15  ar  
 32  14  16  ar  
 33  15  17  1   
 34  15  18  ar  
 35  16  19  ar  
 36  16  37  1   
 37  17  20  1   
 38  18  21  ar  
 39  19  21  ar  
 40  19  38  1   
 41  20  39  1   
 42  20  40  1   
 43  20  41  1   
 44  21  42  1   
@<TRIPOS>SUBSTRUCTURE
  1 ****  12 GROUP 4 **** **** 0

# MOE 2024.06 (io_trps.svl 2023.06)
