@<TRIPOS>MOLECULE
NONAME
44 46 1 0 0 
SMALL
USER_CHARGES


@<TRIPOS>ATOM
  1 O        2.6430     2.4160    -0.5560 O.3   1 <1>  -0.0190 
  2 N        3.2990     1.3200    -0.3240 N.2   1 <1>  -0.4100 
  3 C        1.4080     2.1800    -0.9110 C.2   1 <1>  -0.0400 
  4 C        2.4790     0.3570    -0.5490 C.2   1 <1>   0.1080 
  5 C        1.2350     0.8500    -0.9340 C.2   1 <1>  -0.1500 
  6 C        0.4730     3.3350    -1.2110 C.3   1 <1>   0.0200 
  7 C        2.8280    -1.1080    -0.4100 C.3   1 <1>  -0.0590 
  8 C        0.0390     4.0610     0.0790 C.3   1 <1>  -0.0800 
  9 C       -0.8880     5.2370    -0.2240 C.3   1 <1>   0.2000 
 10 C        1.2140     4.7290     0.8090 C.3   1 <1>   0.3430 
 11 O       -1.5650     5.5640     0.9470 O.3   1 <1>  -0.6800 
 12 C        0.0840     6.3740    -0.5500 C.3   1 <1>   0.3430 
 13 N        1.2770     6.1320     0.3110 N.4   1 <1>  -0.9590 
 14 C        1.3440     7.1350     1.4070 C.3   1 <1>   0.5240 
 15 C        1.9560     8.4050     0.8260 C.2   1 <1>   0.1080 
 16 N        2.7060     8.3980    -0.2420 N.2   1 <1>  -0.7070 
 17 C        1.7960     9.6850     1.3430 C.2   1 <1>  -0.1500 
 18 N        3.0580     9.6870    -0.4270 N.pl3 1 <1>   0.3140 
 19 C        2.5120    10.4770     0.5190 C.2   1 <1>  -0.3020 
 20 C        3.9360    10.1220    -1.5350 C.3   1 <1>   0.0960 
 21 C        5.3950    10.2270    -1.0740 C.3   1 <1>  -0.2400 
 22 H        0.3680     0.2650    -1.1810 H     1 <1>   0.1500 
 23 H        0.9660     4.0060    -1.8930 H     1 <1>   0.0800 
 24 H       -0.3970     2.9420    -1.7080 H     1 <1>   0.0800 
 25 H        2.1860    -1.5720     0.3160 H     1 <1>   0.0800 
 26 H        3.8490    -1.2150    -0.0900 H     1 <1>   0.0800 
 27 H        2.7080    -1.6030    -1.3570 H     1 <1>   0.0800 
 28 H       -0.4390     3.3420     0.7230 H     1 <1>   0.0800 
 29 H       -1.6060     5.0580    -1.0070 H     1 <1>   0.0800 
 30 H        2.1460     4.2150     0.6470 H     1 <1>   0.0800 
 31 H        1.0030     4.7320     1.8660 H     1 <1>   0.0800 
 32 H       -2.3210     4.9580     1.1030 H     1 <1>   0.4000 
 33 H       -0.3640     7.3380    -0.3700 H     1 <1>   0.0800 
 34 H        0.3750     6.3110    -1.5850 H     1 <1>   0.0800 
 35 H        2.1320     6.3440    -0.2390 H     1 <1>   0.4500 
 36 H        0.3620     7.3290     1.8060 H     1 <1>   0.0800 
 37 H        1.9830     6.7780     2.1960 H     1 <1>   0.0800 
 38 H        1.2280     9.9720     2.2120 H     1 <1>   0.1500 
 39 H        2.6650    11.5410     0.5540 H     1 <1>   0.1500 
 40 H        3.8540     9.4070    -2.3330 H     1 <1>   0.0800 
 41 H        3.5910    11.0750    -1.8920 H     1 <1>   0.0800 
 42 H        5.7430     9.2700    -0.7240 H     1 <1>   0.0800 
 43 H        5.4900    10.9510    -0.2840 H     1 <1>   0.0800 
 44 H        6.0160    10.5350    -1.8960 H     1 <1>   0.0800 
@<TRIPOS>BOND
  1   1   2  1   
  2   1   3  1   
  3   2   4  2   
  4   3   5  2   
  5   3   6  1   
  6   4   5  1   
  7   4   7  1   
  8   5  22  1   
  9   6   8  1   
 10   6  23  1   
 11   6  24  1   
 12   7  25  1   
 13   7  26  1   
 14   7  27  1   
 15   8   9  1   
 16   8  10  1   
 17   8  28  1   
 18   9  11  1   
 19   9  12  1   
 20   9  29  1   
 21  10  13  1   
 22  10  30  1   
 23  10  31  1   
 24  11  32  1   
 25  12  13  1   
 26  12  33  1   
 27  12  34  1   
 28  13  14  1   
 29  13  35  1   
 30  14  15  1   
 31  14  36  1   
 32  14  37  1   
 33  15  16  2   
 34  15  17  1   
 35  16  18  1   
 36  17  19  2   
 37  17  38  1   
 38  18  19  1   
 39  18  20  1   
 40  19  39  1   
 41  20  21  1   
 42  20  40  1   
 43  20  41  1   
 44  21  42  1   
 45  21  43  1   
 46  21  44  1   
@<TRIPOS>SUBSTRUCTURE
  1 ****  13 GROUP 4 **** **** 0

# MOE 2024.06 (io_trps.svl 2023.06)
