@<TRIPOS>MOLECULE
NONAME
48 50 1 0 0 
SMALL
USER_CHARGES


@<TRIPOS>ATOM
  1 O       -0.6200    -0.2140     0.7110 O.2   1 <1>  -0.5700 
  2 C       -1.4760     0.5250     0.2670 C.2   1 <1>   0.7160 
  3 N       -2.5710    -0.0160    -0.3310 N.am  1 <1>  -0.7300 
  4 C       -1.3770     1.9470     0.3960 C.2   1 <1>  -0.0860 
  5 C       -2.9750    -1.4260    -0.4580 C.3   1 <1>   0.3000 
  6 C       -2.4610     2.8340     0.4200 C.2   1 <1>   0.3720 
  7 C       -0.3000     2.7690     0.5330 C.2   1 <1>   0.0870 
  8 C       -2.9420    -2.1710     0.9030 C.3   1 <1>   0.1200 
  9 C       -2.0500    -2.1030    -1.4730 C.3   1 <1>  -0.2400 
 10 C       -4.4000    -1.4100    -1.0150 C.3   1 <1>  -0.2400 
 11 N       -2.0680     4.0500     0.5600 N.2   1 <1>  -0.4100 
 12 N       -3.8110     2.4640     0.3320 N.pl3 1 <1>  -0.8210 
 13 O       -0.7660     3.9890     0.6300 O.3   1 <1>  -0.0190 
 14 C        1.1260     2.5520     0.5700 C.ar  1 <1>   0.0530 
 15 O       -3.5090    -1.4100     1.9250 O.3   1 <1>  -0.6800 
 16 C       -4.6830     3.4360    -0.4000 C.3   1 <1>   0.2090 
 17 C       -4.4170     2.1540     1.6650 C.3   1 <1>   0.2090 
 18 C        1.7430     1.5470    -0.1740 C.ar  1 <1>  -0.1500 
 19 C        1.9480     3.3660     1.3510 C.ar  1 <1>  -0.1500 
 20 C       -6.1310     2.9190    -0.4760 C.3   1 <1>   0.1200 
 21 C       -5.8800     1.6990     1.5180 C.3   1 <1>   0.1200 
 22 C        3.1120     1.3570    -0.1360 C.ar  1 <1>  -0.1500 
 23 C        3.3180     3.1840     1.3920 C.ar  1 <1>  -0.1500 
 24 O       -6.6300     2.6440     0.8040 O.3   1 <1>  -0.5600 
 25 C        3.9040     2.1770     0.6480 C.ar  1 <1>  -0.1500 
 26 H       -3.3420     0.6530    -0.4550 H     1 <1>   0.3700 
 27 H       -1.9270    -2.3970     1.1840 H     1 <1>   0.0800 
 28 H       -3.4870    -3.0960     0.8360 H     1 <1>   0.0800 
 29 H       -1.0380    -2.1190    -1.1070 H     1 <1>   0.0800 
 30 H       -2.0720    -1.5790    -2.4110 H     1 <1>   0.0800 
 31 H       -2.3610    -3.1180    -1.6410 H     1 <1>   0.0800 
 32 H       -5.0700    -0.9410    -0.3170 H     1 <1>   0.0800 
 33 H       -4.7450    -2.4150    -1.1780 H     1 <1>   0.0800 
 34 H       -4.4380    -0.8840    -1.9520 H     1 <1>   0.0800 
 35 H       -2.8910    -0.6810     2.1310 H     1 <1>   0.4000 
 36 H       -4.2990     3.5810    -1.3950 H     1 <1>   0.0800 
 37 H       -4.6760     4.3890     0.1020 H     1 <1>   0.0800 
 38 H       -4.3800     3.0300     2.2920 H     1 <1>   0.0800 
 39 H       -3.8530     1.3760     2.1480 H     1 <1>   0.0800 
 40 H        1.1470     0.9020    -0.7940 H     1 <1>   0.1500 
 41 H        1.5050     4.1520     1.9360 H     1 <1>   0.1500 
 42 H       -6.1800     2.0210    -1.0650 H     1 <1>   0.0800 
 43 H       -6.7660     3.6630    -0.9220 H     1 <1>   0.0800 
 44 H       -6.3320     1.5870     2.4870 H     1 <1>   0.0800 
 45 H       -5.9320     0.7570     1.0040 H     1 <1>   0.0800 
 46 H        3.5630     0.5710    -0.7170 H     1 <1>   0.1500 
 47 H        3.9290     3.8250     2.0040 H     1 <1>   0.1500 
 48 H        4.9700     2.0310     0.6780 H     1 <1>   0.1500 
@<TRIPOS>BOND
  1   1   2  2   
  2   2   3  am  
  3   2   4  1   
  4   3   5  1   
  5   3  26  1   
  6   4   6  1   
  7   4   7  2   
  8   5   8  1   
  9   5   9  1   
 10   5  10  1   
 11   6  11  2   
 12   6  12  1   
 13   7  13  1   
 14   7  14  1   
 15   8  15  1   
 16   8  27  1   
 17   8  28  1   
 18   9  29  1   
 19   9  30  1   
 20   9  31  1   
 21  10  32  1   
 22  10  33  1   
 23  10  34  1   
 24  11  13  1   
 25  12  16  1   
 26  12  17  1   
 27  14  18  ar  
 28  14  19  ar  
 29  15  35  1   
 30  16  20  1   
 31  16  36  1   
 32  16  37  1   
 33  17  21  1   
 34  17  38  1   
 35  17  39  1   
 36  18  22  ar  
 37  18  40  1   
 38  19  23  ar  
 39  19  41  1   
 40  20  24  1   
 41  20  42  1   
 42  20  43  1   
 43  21  24  1   
 44  21  44  1   
 45  21  45  1   
 46  22  25  ar  
 47  22  46  1   
 48  23  25  ar  
 49  23  47  1   
 50  25  48  1   
@<TRIPOS>SUBSTRUCTURE
  1 ****   4 GROUP 4 **** **** 0

# MOE 2024.06 (io_trps.svl 2023.06)
