@<TRIPOS>MOLECULE
NONAME
44 46 1 0 0 
SMALL
USER_CHARGES


@<TRIPOS>ATOM
  1 CL      -0.3710     0.2080     0.9240 Cl    1 <1>  -0.1770 
  2 C       -1.7760     1.1600     0.4870 C.ar  1 <1>   0.1770 
  3 C       -1.6710     2.4760     0.0650 C.ar  1 <1>  -0.1790 
  4 C       -3.0150     0.5570     0.6020 C.ar  1 <1>   0.1600 
  5 C       -0.4300     3.1930    -0.1000 C.2   1 <1>   0.9790 
  6 C       -2.8920     3.0820    -0.1910 C.ar  1 <1>  -0.1500 
  7 N       -4.1790     1.1390     0.3530 N.ar  1 <1>  -0.6200 
  8 O       -0.3580     4.3790     0.2630 O.co2 1 <1>  -0.9000 
  9 O        0.5540     2.6680    -0.6440 O.co2 1 <1>  -0.9000 
 10 C       -4.1050     2.4130    -0.0300 C.ar  1 <1>   0.4100 
 11 N       -5.3030     3.0730    -0.2640 N.pl3 1 <1>  -0.8380 
 12 C       -6.5500     2.2900    -0.4950 C.3   1 <1>   0.2090 
 13 C       -5.4650     4.4830     0.1920 C.3   1 <1>   0.2090 
 14 C       -7.6400     3.2050    -1.0540 C.3   1 <1>  -0.1600 
 15 C       -6.8200     4.6600     0.8720 C.3   1 <1>  -0.1600 
 16 C       -7.9870     4.3810    -0.1020 C.3   1 <1>   0.2800 
 17 O       -8.1130     5.5100    -0.9430 O.3   1 <1>  -0.5600 
 18 C       -9.3110     4.1660     0.7010 C.3   1 <1>   0.2000 
 19 C       -8.8860     6.5820    -0.4860 C.3   1 <1>   0.1200 
 20 O       -9.4940     2.8420     1.1150 O.3   1 <1>  -0.6800 
 21 C      -10.5610     4.6920    -0.0540 C.3   1 <1>   0.2800 
 22 C      -10.3660     6.1760    -0.4200 C.3   1 <1>  -0.1600 
 23 O      -11.6440     4.6040     0.8050 O.3   1 <1>  -0.6800 
 24 C      -10.9540     3.8740    -1.2920 C.3   1 <1>  -0.2400 
 25 H       -3.0430    -0.4680     0.9240 H     1 <1>   0.1500 
 26 H       -2.8910     4.1020    -0.5260 H     1 <1>   0.1500 
 27 H       -6.3450     1.4970    -1.1940 H     1 <1>   0.0800 
 28 H       -6.8740     1.8490     0.4320 H     1 <1>   0.0800 
 29 H       -4.6820     4.7350     0.8890 H     1 <1>   0.0800 
 30 H       -5.3910     5.1400    -0.6580 H     1 <1>   0.0800 
 31 H       -8.5030     2.6020    -1.2520 H     1 <1>   0.0800 
 32 H       -7.2860     3.5850    -1.9960 H     1 <1>   0.0800 
 33 H       -6.8900     5.6480     1.2830 H     1 <1>   0.0800 
 34 H       -6.8630     3.9700     1.6960 H     1 <1>   0.0800 
 35 H       -9.2320     4.7420     1.6060 H     1 <1>   0.0800 
 36 H       -8.5250     6.8830     0.4810 H     1 <1>   0.0800 
 37 H       -8.7500     7.4010    -1.1710 H     1 <1>   0.0800 
 38 H      -10.4030     2.7770     1.4740 H     1 <1>   0.4000 
 39 H      -10.8160     6.3870    -1.3740 H     1 <1>   0.0800 
 40 H      -10.8430     6.8110     0.3060 H     1 <1>   0.0800 
 41 H      -12.4540     4.8660     0.3290 H     1 <1>   0.4000 
 42 H      -10.2020     3.9740    -2.0530 H     1 <1>   0.0800 
 43 H      -11.8830     4.2220    -1.7050 H     1 <1>   0.0800 
 44 H      -11.0480     2.8320    -1.0450 H     1 <1>   0.0800 
@<TRIPOS>BOND
  1   1   2  1   
  2   2   3  ar  
  3   2   4  ar  
  4   3   5  1   
  5   3   6  ar  
  6   4   7  ar  
  7   4  25  1   
  8   5   8  ar  
  9   5   9  ar  
 10   6  10  ar  
 11   6  26  1   
 12   7  10  ar  
 13  10  11  1   
 14  11  12  1   
 15  11  13  1   
 16  12  14  1   
 17  12  27  1   
 18  12  28  1   
 19  13  15  1   
 20  13  29  1   
 21  13  30  1   
 22  14  16  1   
 23  14  31  1   
 24  14  32  1   
 25  15  16  1   
 26  15  33  1   
 27  15  34  1   
 28  16  17  1   
 29  16  18  1   
 30  17  19  1   
 31  18  20  1   
 32  18  21  1   
 33  18  35  1   
 34  19  22  1   
 35  19  36  1   
 36  19  37  1   
 37  20  38  1   
 38  21  22  1   
 39  21  23  1   
 40  21  24  1   
 41  22  39  1   
 42  22  40  1   
 43  23  41  1   
 44  24  42  1   
 45  24  43  1   
 46  24  44  1   
@<TRIPOS>SUBSTRUCTURE
  1 ****  11 GROUP 4 **** **** 0

# MOE 2024.06 (io_trps.svl 2023.06)
