@<TRIPOS>MOLECULE
NONAME
49 51 1 0 0 
SMALL
USER_CHARGES


@<TRIPOS>ATOM
  1 S        1.1510    -0.5050    -0.6670 S.3   1 <1>  -0.3320 
  2 C        0.5150    -2.1440    -0.8270 C.ar  1 <1>   0.7720 
  3 C       -0.1230     0.3810     0.3400 C.3   1 <1>   0.2140 
  4 N       -0.6160    -2.4460    -0.2850 N.ar  1 <1>  -0.6200 
  5 N        1.2980    -2.9780    -1.5320 N.ar  1 <1>  -0.1790 
  6 C        0.3250     1.8270     0.4850 C.ar  1 <1>  -0.1430 
  7 C       -1.0420    -3.7150    -0.4510 C.ar  1 <1>   0.4100 
  8 C        0.9200    -4.2480    -1.7240 C.ar  1 <1>   0.4610 
  9 C       -0.0450     2.8150    -0.4250 C.ar  1 <1>  -0.1440 
 10 C        1.1290     2.1610     1.5660 C.ar  1 <1>  -0.1500 
 11 N       -2.2350    -4.0330     0.1150 N.pl3 1 <1>  -0.8380 
 12 C       -0.2850    -4.6270    -1.1680 C.ar  1 <1>  -0.1500 
 13 N        1.7050    -5.0890    -2.4310 N.pl3 1 <1>  -0.9000 
 14 C        0.3960     4.1160    -0.2350 C.ar  1 <1>  -0.1500 
 15 C       -0.9220     2.5120    -1.6330 C.3   1 <1>  -0.0970 
 16 C        1.5650     3.4610     1.7470 C.ar  1 <1>  -0.1500 
 17 C       -2.9360    -5.3420    -0.0050 C.3   1 <1>   0.2090 
 18 C       -3.0210    -3.1220     0.9890 C.3   1 <1>   0.2090 
 19 C        1.1960     4.4400     0.8450 C.ar  1 <1>  -0.1500 
 20 C       -4.2600    -5.1790     0.7460 C.3   1 <1>   0.2200 
 21 C       -4.0230    -4.0210     1.7050 C.3   1 <1>  -0.1600 
 22 N       -4.6210    -6.4020     1.4950 N.am  1 <1>  -0.7300 
 23 C       -5.5470    -7.3380     1.1970 C.2   1 <1>   0.5690 
 24 O       -5.6670    -8.3040     1.9030 O.2   1 <1>  -0.5700 
 25 C       -6.4340    -7.1990    -0.0160 C.3   1 <1>  -0.1790 
 26 H       -0.1810    -0.1100     1.2950 H     1 <1>   0.0800 
 27 H       -1.0670     0.2950    -0.1660 H     1 <1>   0.0800 
 28 H        2.1670    -2.6130    -1.9050 H     1 <1>   0.4570 
 29 H        1.4260     1.4100     2.2770 H     1 <1>   0.1500 
 30 H       -0.6280    -5.6340    -1.2940 H     1 <1>   0.1500 
 31 H        1.4420    -6.0710    -2.5910 H     1 <1>   0.4000 
 32 H        2.6080    -4.8690    -2.8690 H     1 <1>   0.4000 
 33 H        0.1190     4.8910    -0.9270 H     1 <1>   0.1500 
 34 H       -0.4940     1.7170    -2.2150 H     1 <1>   0.0800 
 35 H       -1.0130     3.3760    -2.2670 H     1 <1>   0.0800 
 36 H       -1.9070     2.2280    -1.3110 H     1 <1>   0.0800 
 37 H        2.1880     3.7110     2.5880 H     1 <1>   0.1500 
 38 H       -2.3390    -6.1090     0.4570 H     1 <1>   0.0800 
 39 H       -3.1180    -5.5830    -1.0380 H     1 <1>   0.0800 
 40 H       -3.5330    -2.4000     0.3760 H     1 <1>   0.0800 
 41 H       -2.3860    -2.6100     1.6940 H     1 <1>   0.0800 
 42 H        1.5320     5.4530     0.9820 H     1 <1>   0.1500 
 43 H       -5.0330    -4.9170     0.0440 H     1 <1>   0.0800 
 44 H       -4.9310    -3.4920     1.9320 H     1 <1>   0.0800 
 45 H       -3.5740    -4.3700     2.6180 H     1 <1>   0.0800 
 46 H       -4.0900    -6.5820     2.3500 H     1 <1>   0.3700 
 47 H       -5.8350    -7.1260    -0.9030 H     1 <1>   0.0800 
 48 H       -7.0500    -6.3250     0.0830 H     1 <1>   0.0800 
 49 H       -7.0690    -8.0610    -0.0970 H     1 <1>   0.0800 
@<TRIPOS>BOND
  1   1   2  1   
  2   1   3  1   
  3   2   4  ar  
  4   2   5  ar  
  5   3   6  1   
  6   3  26  1   
  7   3  27  1   
  8   4   7  ar  
  9   5   8  ar  
 10   5  28  1   
 11   6   9  ar  
 12   6  10  ar  
 13   7  11  1   
 14   7  12  ar  
 15   8  12  ar  
 16   8  13  1   
 17   9  14  ar  
 18   9  15  1   
 19  10  16  ar  
 20  10  29  1   
 21  11  17  1   
 22  11  18  1   
 23  12  30  1   
 24  13  31  1   
 25  13  32  1   
 26  14  19  ar  
 27  14  33  1   
 28  15  34  1   
 29  15  35  1   
 30  15  36  1   
 31  16  19  ar  
 32  16  37  1   
 33  17  20  1   
 34  17  38  1   
 35  17  39  1   
 36  18  21  1   
 37  18  40  1   
 38  18  41  1   
 39  19  42  1   
 40  20  21  1   
 41  20  22  1   
 42  20  43  1   
 43  21  44  1   
 44  21  45  1   
 45  22  23  am  
 46  22  46  1   
 47  23  24  2   
 48  23  25  1   
 49  25  47  1   
 50  25  48  1   
 51  25  49  1   
@<TRIPOS>SUBSTRUCTURE
  1 ****   4 GROUP 4 **** **** 0

# MOE 2024.06 (io_trps.svl 2023.06)
