@<TRIPOS>MOLECULE
NONAME
48 51 1 0 0 
SMALL
USER_CHARGES


@<TRIPOS>ATOM
  1 O       -3.5270     2.2300    -2.0520 O.2   1 <1>  -0.5700 
  2 C       -2.6530     2.3520    -1.2090 C.2   1 <1>   0.5440 
  3 N       -2.6640     1.4440    -0.1620 N.am  1 <1>  -0.6600 
  4 C       -1.6900     3.4500    -1.3480 C.ar  1 <1>   0.3960 
  5 C       -3.7190     0.4170    -0.0080 C.3   1 <1>   0.1400 
  6 C       -1.7640     1.4490     1.0130 C.3   1 <1>   0.1400 
  7 N       -0.4470     3.3640    -0.8430 N.ar  1 <1>  -0.6200 
  8 C       -2.1100     4.5930    -2.0350 C.ar  1 <1>   0.1600 
  9 C       -3.6780     0.0390     1.4660 C.3   1 <1>  -0.1600 
 10 C       -2.2320     0.2860     1.8830 C.3   1 <1>  -0.1600 
 11 C        0.3070     4.4280    -1.0600 C.ar  1 <1>   0.4100 
 12 N       -1.3800     5.6790    -2.2530 N.ar  1 <1>  -0.6200 
 13 N        1.6100     4.3770    -0.5710 N.pl3 1 <1>  -0.8380 
 14 C       -0.1720     5.5560    -1.7470 C.ar  1 <1>   0.1600 
 15 C        2.7220     4.7440    -1.5080 C.3   1 <1>   0.3890 
 16 C        1.9920     3.3500     0.4440 C.3   1 <1>   0.1290 
 17 C        3.3820     6.0440    -1.0770 C.2   1 <1>   0.0060 
 18 N        2.9790     6.7100     0.0330 N.pl3 1 <1>   0.0330 
 19 N        4.3520     6.6170    -1.7030 N.2   1 <1>  -0.5650 
 20 C        3.7680     7.8080     0.1240 C.ar  1 <1>  -0.1520 
 21 C        4.6170     7.7330    -0.9640 C.ar  1 <1>   0.2270 
 22 C        3.8440     8.8640     1.0340 C.ar  1 <1>  -0.1500 
 23 C        5.5710     8.7280    -1.1660 C.ar  1 <1>  -0.1500 
 24 C        4.7910     9.8460     0.8310 C.ar  1 <1>  -0.1430 
 25 C        5.6540     9.7730    -0.2720 C.ar  1 <1>  -0.1500 
 26 C        4.9200    11.0170     1.7880 C.3   1 <1>  -0.0970 
 27 H       -3.4740    -0.4300    -0.6260 H     1 <1>   0.0800 
 28 H       -4.6850     0.8030    -0.2920 H     1 <1>   0.0800 
 29 H       -1.8690     2.3830     1.5380 H     1 <1>   0.0800 
 30 H       -0.7390     1.3110     0.7120 H     1 <1>   0.0800 
 31 H       -3.1130     4.6070    -2.4260 H     1 <1>   0.1500 
 32 H       -3.9850    -0.9790     1.6260 H     1 <1>   0.0800 
 33 H       -4.3340     0.6940     2.0120 H     1 <1>   0.0800 
 34 H       -2.1390     0.5070     2.9310 H     1 <1>   0.0800 
 35 H       -1.6350    -0.5810     1.6550 H     1 <1>   0.0800 
 36 H        0.4960     6.3890    -1.8690 H     1 <1>   0.1500 
 37 H        2.3480     4.8570    -2.5110 H     1 <1>   0.0800 
 38 H        3.4640     3.9640    -1.5270 H     1 <1>   0.0800 
 39 H        1.2310     3.2800     1.2020 H     1 <1>   0.0800 
 40 H        2.9230     3.6180     0.9140 H     1 <1>   0.0800 
 41 H        2.0990     2.3890    -0.0310 H     1 <1>   0.0800 
 42 H        2.2220     6.4110     0.6550 H     1 <1>   0.2700 
 43 H        3.1710     8.8980     1.8720 H     1 <1>   0.1500 
 44 H        6.2210     8.6520    -2.0170 H     1 <1>   0.1500 
 45 H        6.3890    10.5460    -0.4190 H     1 <1>   0.1500 
 46 H        4.1950    10.9500     2.5790 H     1 <1>   0.0800 
 47 H        4.7660    11.9400     1.2590 H     1 <1>   0.0800 
 48 H        5.9030    11.0250     2.2250 H     1 <1>   0.0800 
@<TRIPOS>BOND
  1   1   2  2   
  2   2   3  am  
  3   2   4  1   
  4   3   5  1   
  5   3   6  1   
  6   4   7  ar  
  7   4   8  ar  
  8   5   9  1   
  9   5  27  1   
 10   5  28  1   
 11   6  10  1   
 12   6  29  1   
 13   6  30  1   
 14   7  11  ar  
 15   8  12  ar  
 16   8  31  1   
 17   9  10  1   
 18   9  32  1   
 19   9  33  1   
 20  10  34  1   
 21  10  35  1   
 22  11  13  1   
 23  11  14  ar  
 24  12  14  ar  
 25  13  15  1   
 26  13  16  1   
 27  14  36  1   
 28  15  17  1   
 29  15  37  1   
 30  15  38  1   
 31  16  39  1   
 32  16  40  1   
 33  16  41  1   
 34  17  18  1   
 35  17  19  2   
 36  18  20  1   
 37  18  42  1   
 38  19  21  1   
 39  20  21  ar  
 40  20  22  ar  
 41  21  23  ar  
 42  22  24  ar  
 43  22  43  1   
 44  23  25  ar  
 45  23  44  1   
 46  24  25  ar  
 47  24  26  1   
 48  25  45  1   
 49  26  46  1   
 50  26  47  1   
 51  26  48  1   
@<TRIPOS>SUBSTRUCTURE
  1 ****  13 GROUP 4 **** **** 0

# MOE 2024.06 (io_trps.svl 2023.06)
