@<TRIPOS>MOLECULE
NONAME
53 56 1 0 0 
SMALL
USER_CHARGES


@<TRIPOS>ATOM
  1 O       -2.6160     0.9110    -1.7470 O.2   1 <1>  -0.5700 
  2 C       -1.9930     0.8410    -0.7040 C.2   1 <1>   0.7150 
  3 N       -1.8360    -0.3830    -0.1230 N.am  1 <1>  -0.7300 
  4 C       -1.4480     2.0210    -0.0870 C.2   1 <1>   0.0550 
  5 C       -2.3800    -1.6530    -0.6530 C.3   1 <1>   0.2200 
  6 O       -0.7960     1.9580     1.0520 O.3   1 <1>  -0.0190 
  7 C       -1.4520     3.3250    -0.4450 C.2   1 <1>  -0.1500 
  8 C       -3.7460    -1.9040    -0.0400 C.3   1 <1>  -0.0800 
  9 C       -1.5720    -2.8330    -0.1200 C.3   1 <1>   0.1200 
 10 N       -0.3770     3.1160     1.4630 N.2   1 <1>  -0.4100 
 11 C       -0.7620     3.9640     0.5750 C.2   1 <1>   0.1080 
 12 C       -3.3800    -2.5660     1.2910 C.3   1 <1>   0.1200 
 13 C       -4.6050    -2.8210    -0.9330 C.3   1 <1>  -0.0160 
 14 O       -2.1330    -3.1740     1.1130 O.3   1 <1>  -0.5600 
 15 C       -0.4880     5.4560     0.6460 C.3   1 <1>   0.0210 
 16 C       -6.0130    -2.9920    -0.3700 C.ar  1 <1>  -0.1440 
 17 C       -1.7710     6.2880     0.8420 C.3   1 <1>  -0.0800 
 18 C       -6.9960    -1.9790    -0.4700 C.ar  1 <1>   0.0000 
 19 C       -6.3630    -4.1520     0.2560 C.ar  1 <1>  -0.1500 
 20 C       -1.4470     7.7870     0.8020 C.3   1 <1>  -0.2400 
 21 C       -2.4720     5.9460     2.1640 C.3   1 <1>  -0.2400 
 22 C       -8.2650    -2.2370     0.1040 C.ar  1 <1>   0.3100 
 23 C       -6.7990    -0.7310    -1.1060 C.ar  1 <1>  -0.1500 
 24 C       -7.6500    -4.3080     0.7850 C.ar  1 <1>   0.1600 
 25 N       -8.5750    -3.4030     0.7270 N.ar  1 <1>  -0.6200 
 26 C       -9.2590    -1.2480     0.0290 C.ar  1 <1>  -0.1500 
 27 C       -7.7900     0.2110    -1.1630 C.ar  1 <1>  -0.1500 
 28 C       -9.0360    -0.0470    -0.5870 C.ar  1 <1>  -0.1500 
 29 H       -1.3930    -0.4420     0.7970 H     1 <1>   0.3700 
 30 H       -2.3960    -1.6270    -1.7300 H     1 <1>   0.0800 
 31 H       -1.8870     3.7750    -1.3180 H     1 <1>   0.1500 
 32 H       -4.2720    -0.9810     0.1290 H     1 <1>   0.0800 
 33 H       -0.5300    -2.6000     0.0080 H     1 <1>   0.0800 
 34 H       -1.6760    -3.6850    -0.7680 H     1 <1>   0.0800 
 35 H       -4.0920    -3.3070     1.6080 H     1 <1>   0.0800 
 36 H       -3.2700    -1.8250     2.0630 H     1 <1>   0.0800 
 37 H       -4.1340    -3.7840    -1.0230 H     1 <1>   0.0800 
 38 H       -4.6720    -2.4120    -1.9260 H     1 <1>   0.0800 
 39 H        0.1930     5.6470     1.4570 H     1 <1>   0.0800 
 40 H       -0.0010     5.7530    -0.2650 H     1 <1>   0.0800 
 41 H       -2.4480     6.0700     0.0320 H     1 <1>   0.0800 
 42 H       -5.6710    -4.9670     0.3640 H     1 <1>   0.1500 
 43 H       -0.7750     8.0510     1.6010 H     1 <1>   0.0800 
 44 H       -2.3470     8.3660     0.9080 H     1 <1>   0.0800 
 45 H       -0.9880     8.0480    -0.1350 H     1 <1>   0.0800 
 46 H       -1.8190     6.1330     2.9990 H     1 <1>   0.0800 
 47 H       -2.7620     4.9100     2.1850 H     1 <1>   0.0800 
 48 H       -3.3590     6.5430     2.2830 H     1 <1>   0.0800 
 49 H       -5.8510    -0.5080    -1.5600 H     1 <1>   0.1500 
 50 H       -7.8840    -5.2390     1.2730 H     1 <1>   0.1500 
 51 H      -10.2100    -1.4700     0.4770 H     1 <1>   0.1500 
 52 H       -7.6240     1.1580    -1.6490 H     1 <1>   0.1500 
 53 H       -9.8080     0.7010    -0.6370 H     1 <1>   0.1500 
@<TRIPOS>BOND
  1   1   2  2   
  2   2   3  am  
  3   2   4  1   
  4   3   5  1   
  5   3  29  1   
  6   4   6  1   
  7   4   7  2   
  8   5   8  1   
  9   5   9  1   
 10   5  30  1   
 11   6  10  1   
 12   7  11  1   
 13   7  31  1   
 14   8  12  1   
 15   8  13  1   
 16   8  32  1   
 17   9  14  1   
 18   9  33  1   
 19   9  34  1   
 20  10  11  2   
 21  11  15  1   
 22  12  14  1   
 23  12  35  1   
 24  12  36  1   
 25  13  16  1   
 26  13  37  1   
 27  13  38  1   
 28  15  17  1   
 29  15  39  1   
 30  15  40  1   
 31  16  18  ar  
 32  16  19  ar  
 33  17  20  1   
 34  17  21  1   
 35  17  41  1   
 36  18  22  ar  
 37  18  23  ar  
 38  19  24  ar  
 39  19  42  1   
 40  20  43  1   
 41  20  44  1   
 42  20  45  1   
 43  21  46  1   
 44  21  47  1   
 45  21  48  1   
 46  22  25  ar  
 47  22  26  ar  
 48  23  27  ar  
 49  23  49  1   
 50  24  25  ar  
 51  24  50  1   
 52  26  28  ar  
 53  26  51  1   
 54  27  28  ar  
 55  27  52  1   
 56  28  53  1   
@<TRIPOS>SUBSTRUCTURE
  1 ****   8 GROUP 4 **** **** 0

# MOE 2024.06 (io_trps.svl 2023.06)
