@<TRIPOS>MOLECULE
NONAME
57 59 1 0 0 
SMALL
USER_CHARGES


@<TRIPOS>ATOM
  1 F       -0.6660     0.7780    -0.5240 F     1 <1>  -0.1900 
  2 C       -1.9540     0.9960    -0.5920 C.ar  1 <1>   0.1900 
  3 C       -2.5410     2.1510    -0.0620 C.ar  1 <1>   0.0830 
  4 C       -2.7100     0.0230    -1.2170 C.ar  1 <1>  -0.1500 
  5 O       -1.9070     3.1780     0.5720 O.3   1 <1>  -0.3630 
  6 C       -3.9150     2.2860    -0.1820 C.ar  1 <1>  -0.1500 
  7 C       -4.0780     0.1890    -1.3190 C.ar  1 <1>  -0.1500 
  8 C       -0.5100     3.2220     0.7590 C.3   1 <1>   0.0400 
  9 C       -4.7120     1.3190    -0.7990 C.ar  1 <1>   0.0530 
 10 C       -6.1390     1.4970    -0.8870 C.2   1 <1>   0.0870 
 11 O       -6.6500     2.6890    -1.0650 O.3   1 <1>  -0.0190 
 12 C       -7.1840     0.6350    -0.7930 C.2   1 <1>  -0.0860 
 13 N       -7.9570     2.6840    -1.1020 N.2   1 <1>  -0.4100 
 14 C       -8.3050     1.4540    -0.9490 C.2   1 <1>   0.3720 
 15 C       -7.2180    -0.7690    -0.5430 C.2   1 <1>   0.7160 
 16 N       -9.6380     1.0110    -0.9340 N.pl3 1 <1>  -0.8210 
 17 O       -6.9030    -1.5420    -1.4320 O.2   1 <1>  -0.5700 
 18 N       -7.6080    -1.2720     0.6830 N.am  1 <1>  -0.6600 
 19 C      -10.0180     0.1650    -2.0980 C.3   1 <1>   0.1290 
 20 C      -10.6610     2.0550    -0.6430 C.3   1 <1>   0.1290 
 21 C       -7.8710    -2.7210     0.8740 C.3   1 <1>   0.1400 
 22 C       -8.0220    -0.3870     1.8080 C.3   1 <1>   0.0600 
 23 C       -9.3300    -3.0190     0.5240 C.3   1 <1>  -0.1600 
 24 C       -9.6480    -4.5140     0.6840 C.3   1 <1>  -0.1600 
 25 C      -11.1110    -4.8300     0.3620 C.3   1 <1>   0.2000 
 26 O      -11.3250    -6.1820     0.5660 O.3   1 <1>  -0.5600 
 27 C      -11.5150    -4.6010    -1.0880 C.3   1 <1>  -0.1600 
 28 C      -12.4330    -6.6150    -0.1560 C.3   1 <1>   0.1200 
 29 C      -12.6280    -5.6140    -1.2930 C.3   1 <1>  -0.1600 
 30 H       -2.2310    -0.8530    -1.6180 H     1 <1>   0.1500 
 31 H       -4.3780     3.1690     0.2220 H     1 <1>   0.1500 
 32 H       -4.6590    -0.5670    -1.8180 H     1 <1>   0.1500 
 33 H       -0.2680     4.1380     1.2670 H     1 <1>   0.0800 
 34 H       -0.0270     3.2000    -0.2020 H     1 <1>   0.0800 
 35 H       -0.2100     2.3820     1.3610 H     1 <1>   0.0800 
 36 H       -9.2400    -0.5420    -2.3260 H     1 <1>   0.0800 
 37 H      -10.1850     0.7840    -2.9640 H     1 <1>   0.0800 
 38 H      -10.9180    -0.3800    -1.8730 H     1 <1>   0.0800 
 39 H      -10.3670     2.6210     0.2240 H     1 <1>   0.0800 
 40 H      -11.6130     1.5930    -0.4470 H     1 <1>   0.0800 
 41 H      -10.7540     2.7250    -1.4810 H     1 <1>   0.0800 
 42 H       -7.6650    -2.9980     1.8930 H     1 <1>   0.0800 
 43 H       -7.2190    -3.2980     0.2380 H     1 <1>   0.0800 
 44 H       -7.4480     0.5240     1.8040 H     1 <1>   0.0800 
 45 H       -7.8650    -0.8830     2.7500 H     1 <1>   0.0800 
 46 H       -9.0650    -0.1410     1.7060 H     1 <1>   0.0800 
 47 H       -9.5050    -2.7220    -0.4950 H     1 <1>   0.0800 
 48 H       -9.9770    -2.4470     1.1650 H     1 <1>   0.0800 
 49 H       -9.4550    -4.8100     1.7000 H     1 <1>   0.0800 
 50 H       -9.0120    -5.0900     0.0350 H     1 <1>   0.0800 
 51 H      -11.7730    -4.2970     1.0250 H     1 <1>   0.0800 
 52 H      -10.6860    -4.8280    -1.7360 H     1 <1>   0.0800 
 53 H      -11.8370    -3.5900    -1.2600 H     1 <1>   0.0800 
 54 H      -13.2820    -6.6300     0.5060 H     1 <1>   0.0800 
 55 H      -12.2310    -7.6080    -0.5210 H     1 <1>   0.0800 
 56 H      -12.5590    -6.0940    -2.2520 H     1 <1>   0.0800 
 57 H      -13.5950    -5.1500    -1.2000 H     1 <1>   0.0800 
@<TRIPOS>BOND
  1   1   2  1   
  2   2   3  ar  
  3   2   4  ar  
  4   3   5  1   
  5   3   6  ar  
  6   4   7  ar  
  7   4  30  1   
  8   5   8  1   
  9   6   9  ar  
 10   6  31  1   
 11   7   9  ar  
 12   7  32  1   
 13   8  33  1   
 14   8  34  1   
 15   8  35  1   
 16   9  10  1   
 17  10  11  1   
 18  10  12  2   
 19  11  13  1   
 20  12  14  1   
 21  12  15  1   
 22  13  14  2   
 23  14  16  1   
 24  15  17  2   
 25  15  18  am  
 26  16  19  1   
 27  16  20  1   
 28  18  21  1   
 29  18  22  1   
 30  19  36  1   
 31  19  37  1   
 32  19  38  1   
 33  20  39  1   
 34  20  40  1   
 35  20  41  1   
 36  21  23  1   
 37  21  42  1   
 38  21  43  1   
 39  22  44  1   
 40  22  45  1   
 41  22  46  1   
 42  23  24  1   
 43  23  47  1   
 44  23  48  1   
 45  24  25  1   
 46  24  49  1   
 47  24  50  1   
 48  25  26  1   
 49  25  27  1   
 50  25  51  1   
 51  26  28  1   
 52  27  29  1   
 53  27  52  1   
 54  27  53  1   
 55  28  29  1   
 56  28  54  1   
 57  28  55  1   
 58  29  56  1   
 59  29  57  1   
@<TRIPOS>SUBSTRUCTURE
  1 ****  15 GROUP 4 **** **** 0

# MOE 2024.06 (io_trps.svl 2023.06)
