@<TRIPOS>MOLECULE
NONAME
50 52 1 0 0 
SMALL
USER_CHARGES


@<TRIPOS>ATOM
  1 S        0.5620    -0.3030     2.5650 S.o2  1 <1>   1.4470 
  2 O        1.6270    -1.1840     2.9910 O.2   1 <1>  -0.6500 
  3 O       -0.0060     0.6250     3.5130 O.2   1 <1>  -0.6500 
  4 N       -0.7100    -1.3070     2.1350 N.am  1 <1>  -0.9140 
  5 C        0.9950     0.5060     0.9910 C.ar  1 <1>  -0.0090 
  6 C       -0.3120    -2.5410     1.4710 C.3   1 <1>   0.2760 
  7 C        0.1510     1.4000     0.3270 C.ar  1 <1>  -0.1440 
  8 C        2.2140     0.2000     0.3970 C.ar  1 <1>  -0.1500 
  9 C       -1.4790    -3.0950     0.6650 C.3   1 <1>  -0.0800 
 10 C       -0.1410    -3.6580     2.4990 C.3   1 <1>   0.1200 
 11 C        0.5310     1.9450    -0.8910 C.ar  1 <1>  -0.1500 
 12 C       -1.1980     1.8140     0.9040 C.3   1 <1>  -0.0970 
 13 C        2.5980     0.7460    -0.8220 C.ar  1 <1>   0.0820 
 14 C       -2.2820    -3.8760     1.7120 C.3   1 <1>   0.1200 
 15 C       -2.3030    -2.0570    -0.1200 C.3   1 <1>  -0.0160 
 16 O       -1.4390    -4.0560     2.8140 O.3   1 <1>  -0.5600 
 17 C        1.7430     1.6250    -1.4730 C.ar  1 <1>  -0.1440 
 18 O        3.7850     0.4590    -1.4170 O.3   1 <1>  -0.3630 
 19 C       -3.3680    -2.7380    -0.9630 C.ar  1 <1>  -0.1440 
 20 C        2.1320     2.2400    -2.8100 C.3   1 <1>  -0.0970 
 21 C        4.7940    -0.2750    -0.7580 C.3   1 <1>   0.0400 
 22 C       -4.6780    -2.8460    -0.5400 C.ar  1 <1>  -0.1500 
 23 C       -3.0770    -3.2850    -2.1960 C.ar  1 <1>  -0.1500 
 24 C       -5.6060    -3.4830    -1.3460 C.ar  1 <1>   0.1600 
 25 C       -4.0810    -3.9020    -2.9240 C.ar  1 <1>   0.1600 
 26 N       -5.3370    -4.0160    -2.5270 N.ar  1 <1>  -0.6200 
 27 H       -1.1300    -1.5900     3.0220 H     1 <1>   0.4200 
 28 H        0.5630    -2.3970     0.8590 H     1 <1>   0.0800 
 29 H        2.8670    -0.4830     0.9070 H     1 <1>   0.1500 
 30 H       -1.0850    -3.8110    -0.0350 H     1 <1>   0.0800 
 31 H        0.3700    -3.3470     3.3930 H     1 <1>   0.0800 
 32 H        0.3670    -4.5010     2.0650 H     1 <1>   0.0800 
 33 H       -0.1260     2.6330    -1.3950 H     1 <1>   0.1500 
 34 H       -1.7350     2.4470     0.2220 H     1 <1>   0.0800 
 35 H       -1.0560     2.3590     1.8200 H     1 <1>   0.0800 
 36 H       -1.8080     0.9530     1.1040 H     1 <1>   0.0800 
 37 H       -2.5900    -4.8390     1.3430 H     1 <1>   0.0800 
 38 H       -3.1410    -3.3230     2.0490 H     1 <1>   0.0800 
 39 H       -1.6500    -1.4890    -0.7600 H     1 <1>   0.0800 
 40 H       -2.7760    -1.3640     0.5540 H     1 <1>   0.0800 
 41 H        1.3600     2.8890    -3.1820 H     1 <1>   0.0800 
 42 H        2.3050     1.4630    -3.5320 H     1 <1>   0.0800 
 43 H        3.0360     2.8110    -2.6970 H     1 <1>   0.0800 
 44 H        5.6580    -0.3010    -1.3970 H     1 <1>   0.0800 
 45 H        4.4410    -1.2750    -0.5800 H     1 <1>   0.0800 
 46 H        5.0380     0.2200     0.1660 H     1 <1>   0.0800 
 47 H       -4.9870    -2.4410     0.4060 H     1 <1>   0.1500 
 48 H       -2.0820    -3.2370    -2.5990 H     1 <1>   0.1500 
 49 H       -6.6230    -3.5600    -1.0010 H     1 <1>   0.1500 
 50 H       -3.8380    -4.3230    -3.8850 H     1 <1>   0.1500 
@<TRIPOS>BOND
  1   1   2  2   
  2   1   3  2   
  3   1   4  am  
  4   1   5  1   
  5   4   6  1   
  6   4  27  1   
  7   5   7  ar  
  8   5   8  ar  
  9   6   9  1   
 10   6  10  1   
 11   6  28  1   
 12   7  11  ar  
 13   7  12  1   
 14   8  13  ar  
 15   8  29  1   
 16   9  14  1   
 17   9  15  1   
 18   9  30  1   
 19  10  16  1   
 20  10  31  1   
 21  10  32  1   
 22  11  17  ar  
 23  11  33  1   
 24  12  34  1   
 25  12  35  1   
 26  12  36  1   
 27  13  17  ar  
 28  13  18  1   
 29  14  16  1   
 30  14  37  1   
 31  14  38  1   
 32  15  19  1   
 33  15  39  1   
 34  15  40  1   
 35  17  20  1   
 36  18  21  1   
 37  19  22  ar  
 38  19  23  ar  
 39  20  41  1   
 40  20  42  1   
 41  20  43  1   
 42  21  44  1   
 43  21  45  1   
 44  21  46  1   
 45  22  24  ar  
 46  22  47  1   
 47  23  25  ar  
 48  23  48  1   
 49  24  26  ar  
 50  24  49  1   
 51  25  26  ar  
 52  25  50  1   
@<TRIPOS>SUBSTRUCTURE
  1 ****   6 GROUP 4 **** **** 0

# MOE 2024.06 (io_trps.svl 2023.06)
