@<TRIPOS>MOLECULE
NONAME
52 55 1 0 0 
SMALL
USER_CHARGES


@<TRIPOS>ATOM
  1 CL       1.5870     0.0240     0.6020 Cl    1 <1>  -0.1770 
  2 C        1.4150    -1.5340    -0.1750 C.ar  1 <1>   0.1770 
  3 C        1.4430    -1.6160    -1.5750 C.ar  1 <1>  -0.1440 
  4 C        1.2550    -2.6450     0.6260 C.ar  1 <1>  -0.1500 
  5 C        1.3050    -2.8560    -2.1730 C.ar  1 <1>  -0.1500 
  6 C        1.6230    -0.3680    -2.4260 C.3   1 <1>  -0.0960 
  7 C        1.1140    -3.8910     0.0170 C.ar  1 <1>   0.0000 
  8 C        1.1440    -3.9740    -1.3650 C.ar  1 <1>   0.1400 
  9 C        0.9280    -5.2200     0.4540 C.2   1 <1>  -0.1810 
 10 O        0.9950    -5.2400    -1.7570 O.3   1 <1>  -0.2800 
 11 C        0.8720    -5.9770    -0.6590 C.2   1 <1>  -0.0100 
 12 C        0.8030    -5.6430     1.9130 C.3   1 <1>   0.0820 
 13 C        0.1390    -7.0050     2.0840 C.2   1 <1>   0.5690 
 14 O        0.8410    -7.9040     2.4850 O.2   1 <1>  -0.5700 
 15 N       -1.1940    -7.2120     1.7960 N.am  1 <1>  -0.6600 
 16 C       -2.0980    -6.1500     1.2500 C.3   1 <1>   0.2200 
 17 C       -1.7530    -8.5920     1.9550 C.3   1 <1>   0.0600 
 18 C       -2.7740    -6.5330    -0.0630 C.3   1 <1>  -0.1600 
 19 C       -3.2470    -5.7940     2.1880 C.3   1 <1>  -0.1600 
 20 C       -3.9560    -5.5620    -0.1720 C.3   1 <1>  -0.0800 
 21 C       -4.2960    -5.1390     1.2770 C.3   1 <1>  -0.0800 
 22 C       -5.1320    -6.1430    -0.9820 C.3   1 <1>   0.1400 
 23 C       -5.7420    -5.4650     1.6880 C.3   1 <1>  -0.0990 
 24 N       -6.3770    -5.3880    -0.6940 N.am  1 <1>  -0.6600 
 25 C       -6.7050    -5.0580     0.5920 C.2   1 <1>   0.5690 
 26 C       -7.2530    -5.0680    -1.8530 C.3   1 <1>   0.0600 
 27 O       -7.7150    -4.4670     0.8910 O.2   1 <1>  -0.5700 
 28 H        1.2400    -2.5520     1.6950 H     1 <1>   0.1500 
 29 H        1.3200    -2.9810    -3.2410 H     1 <1>   0.1500 
 30 H        1.6230    -0.6110    -3.4730 H     1 <1>   0.0800 
 31 H        2.5580     0.1090    -2.1880 H     1 <1>   0.0800 
 32 H        0.8230     0.3260    -2.2370 H     1 <1>   0.0800 
 33 H        0.7440    -7.0410    -0.7720 H     1 <1>   0.1500 
 34 H        0.2320    -4.9160     2.4600 H     1 <1>   0.0800 
 35 H        1.7850    -5.6760     2.3490 H     1 <1>   0.0800 
 36 H       -1.5530    -5.2430     1.0670 H     1 <1>   0.0800 
 37 H       -2.8190    -8.5740     2.0860 H     1 <1>   0.0800 
 38 H       -1.3160    -9.0710     2.8160 H     1 <1>   0.0800 
 39 H       -1.5170    -9.1760     1.0830 H     1 <1>   0.0800 
 40 H       -2.1000    -6.4290    -0.8950 H     1 <1>   0.0800 
 41 H       -3.1410    -7.5420    -0.0200 H     1 <1>   0.0800 
 42 H       -3.6550    -6.6770     2.6420 H     1 <1>   0.0800 
 43 H       -2.9240    -5.1190     2.9600 H     1 <1>   0.0800 
 44 H       -3.6110    -4.6830    -0.6910 H     1 <1>   0.0800 
 45 H       -4.1760    -4.0690     1.3330 H     1 <1>   0.0800 
 46 H       -5.2960    -7.1720    -0.7140 H     1 <1>   0.0800 
 47 H       -4.9040    -6.0990    -2.0330 H     1 <1>   0.0800 
 48 H       -5.9940    -4.9500     2.5980 H     1 <1>   0.0800 
 49 H       -5.8630    -6.5200     1.8530 H     1 <1>   0.0800 
 50 H       -6.7220    -4.4410    -2.5470 H     1 <1>   0.0800 
 51 H       -8.1370    -4.5480    -1.5260 H     1 <1>   0.0800 
 52 H       -7.5510    -5.9770    -2.3460 H     1 <1>   0.0800 
@<TRIPOS>BOND
  1   1   2  1   
  2   2   3  ar  
  3   2   4  ar  
  4   3   5  ar  
  5   3   6  1   
  6   4   7  ar  
  7   4  28  1   
  8   5   8  ar  
  9   5  29  1   
 10   6  30  1   
 11   6  31  1   
 12   6  32  1   
 13   7   8  ar  
 14   7   9  1   
 15   8  10  1   
 16   9  11  2   
 17   9  12  1   
 18  10  11  1   
 19  11  33  1   
 20  12  13  1   
 21  12  34  1   
 22  12  35  1   
 23  13  14  2   
 24  13  15  am  
 25  15  16  1   
 26  15  17  1   
 27  16  18  1   
 28  16  19  1   
 29  16  36  1   
 30  17  37  1   
 31  17  38  1   
 32  17  39  1   
 33  18  20  1   
 34  18  40  1   
 35  18  41  1   
 36  19  21  1   
 37  19  42  1   
 38  19  43  1   
 39  20  21  1   
 40  20  22  1   
 41  20  44  1   
 42  21  23  1   
 43  21  45  1   
 44  22  24  1   
 45  22  46  1   
 46  22  47  1   
 47  23  25  1   
 48  23  48  1   
 49  23  49  1   
 50  24  25  am  
 51  24  26  1   
 52  25  27  2   
 53  26  50  1   
 54  26  51  1   
 55  26  52  1   
@<TRIPOS>SUBSTRUCTURE
  1 ****  16 GROUP 4 **** **** 0

# MOE 2024.06 (io_trps.svl 2023.06)
