@<TRIPOS>MOLECULE
NONAME
50 53 1 0 0 
SMALL
USER_CHARGES


@<TRIPOS>ATOM
  1 O        0.8540    -0.8790    -0.2620 O.2   1 <1>  -0.5700 
  2 C        1.9870    -0.4760    -0.1520 C.2   1 <1>   0.5690 
  3 N        2.3490     0.8000     0.1440 N.am  1 <1>  -0.6600 
  4 C        3.1910    -1.3560    -0.3310 C.3   1 <1>  -0.0990 
  5 C        3.8230     0.9750     0.1180 C.3   1 <1>   0.3000 
  6 C        1.3650     1.9060     0.3130 C.3   1 <1>   0.0600 
  7 C        4.2920    -0.4910     0.3030 C.3   1 <1>  -0.1860 
  8 C        4.1610     1.5880    -1.2630 C.3   1 <1>  -0.1600 
  9 C        4.3320     1.8910     1.2620 C.3   1 <1>  -0.1600 
 10 C        5.7000    -0.7220    -0.1690 C.2   1 <1>   0.9060 
 11 C        5.6350     1.9620    -1.4650 C.3   1 <1>   0.3430 
 12 C        5.4520     2.8500     0.8460 C.3   1 <1>   0.3430 
 13 O        5.9190    -0.9970    -1.3470 O.co2 1 <1>  -0.9000 
 14 O        6.6120    -0.3650     0.5860 O.co2 1 <1>  -0.9000 
 15 N        6.3210     2.2100    -0.1690 N.4   1 <1>  -0.9590 
 16 C        7.6740     2.7950    -0.3360 C.3   1 <1>   0.4860 
 17 C        7.6350     4.3150    -0.2160 C.ar  1 <1>  -0.1440 
 18 C        8.0820     4.9590     0.9460 C.ar  1 <1>  -0.1440 
 19 C        7.1420     5.0630    -1.2830 C.ar  1 <1>  -0.1500 
 20 C        8.0160     6.3460     1.0440 C.ar  1 <1>  -0.1500 
 21 C        8.6660     4.1850     2.1230 C.3   1 <1>  -0.0970 
 22 C        7.0880     6.4340    -1.1560 C.ar  1 <1>   0.0820 
 23 C        7.5110     7.0590    -0.0230 C.ar  1 <1>   0.0820 
 24 O        6.6490     7.3330    -2.0430 O.3   1 <1>  -0.3630 
 25 O        7.3580     8.3820    -0.1420 O.3   1 <1>  -0.3620 
 26 C        6.8230     8.6170    -1.4430 C.3   1 <1>   0.4000 
 27 H        3.3620    -1.5170    -1.3800 H     1 <1>   0.0800 
 28 H        3.0730    -2.2960     0.1750 H     1 <1>   0.0800 
 29 H        0.3990     1.5930    -0.0440 H     1 <1>   0.0800 
 30 H        1.6700     2.7740    -0.2430 H     1 <1>   0.0800 
 31 H        1.2760     2.1580     1.3550 H     1 <1>   0.0800 
 32 H        4.2870    -0.7250     1.3520 H     1 <1>   0.0800 
 33 H        3.5880     2.4850    -1.4020 H     1 <1>   0.0800 
 34 H        3.8800     0.9070    -2.0470 H     1 <1>   0.0800 
 35 H        4.7030     1.2940     2.0750 H     1 <1>   0.0800 
 36 H        3.5370     2.4880     1.6640 H     1 <1>   0.0800 
 37 H        5.6910     2.8340    -2.0920 H     1 <1>   0.0800 
 38 H        6.1370     1.1540    -1.9750 H     1 <1>   0.0800 
 39 H        6.0290     3.1210     1.7150 H     1 <1>   0.0800 
 40 H        5.0290     3.7500     0.4300 H     1 <1>   0.0800 
 41 H        6.5260     1.2430     0.1940 H     1 <1>   0.4500 
 42 H        8.0810     2.5090    -1.2920 H     1 <1>   0.0800 
 43 H        8.3240     2.3910     0.4220 H     1 <1>   0.0800 
 44 H        6.8070     4.6120    -2.1990 H     1 <1>   0.1500 
 45 H        8.3500     6.8750     1.9180 H     1 <1>   0.1500 
 46 H        7.9960     3.4120     2.4520 H     1 <1>   0.0800 
 47 H        8.8520     4.8380     2.9570 H     1 <1>   0.0800 
 48 H        9.6020     3.7370     1.8390 H     1 <1>   0.0800 
 49 H        5.8720     9.1110    -1.3590 H     1 <1>   0.0800 
 50 H        7.5230     9.1950    -2.0210 H     1 <1>   0.0800 
@<TRIPOS>BOND
  1   1   2  2   
  2   2   3  am  
  3   2   4  1   
  4   3   5  1   
  5   3   6  1   
  6   4   7  1   
  7   4  27  1   
  8   4  28  1   
  9   5   7  1   
 10   5   8  1   
 11   5   9  1   
 12   6  29  1   
 13   6  30  1   
 14   6  31  1   
 15   7  10  1   
 16   7  32  1   
 17   8  11  1   
 18   8  33  1   
 19   8  34  1   
 20   9  12  1   
 21   9  35  1   
 22   9  36  1   
 23  10  13  ar  
 24  10  14  ar  
 25  11  15  1   
 26  11  37  1   
 27  11  38  1   
 28  12  15  1   
 29  12  39  1   
 30  12  40  1   
 31  15  16  1   
 32  15  41  1   
 33  16  17  1   
 34  16  42  1   
 35  16  43  1   
 36  17  18  ar  
 37  17  19  ar  
 38  18  20  ar  
 39  18  21  1   
 40  19  22  ar  
 41  19  44  1   
 42  20  23  ar  
 43  20  45  1   
 44  21  46  1   
 45  21  47  1   
 46  21  48  1   
 47  22  23  ar  
 48  22  24  1   
 49  23  25  1   
 50  24  26  1   
 51  25  26  1   
 52  26  49  1   
 53  26  50  1   
@<TRIPOS>SUBSTRUCTURE
  1 ****  15 GROUP 4 **** **** 0

# MOE 2024.06 (io_trps.svl 2023.06)
