@<TRIPOS>MOLECULE
NONAME
54 56 1 0 0 
SMALL
USER_CHARGES


@<TRIPOS>ATOM
  1 O        0.2610     1.9380    -1.9350 O.2   1 <1>  -0.5700 
  2 C       -0.2190     3.0080    -1.6390 C.2   1 <1>   0.5690 
  3 N       -0.9120     3.2380    -0.4770 N.am  1 <1>  -0.6600 
  4 C       -0.0490     4.1540    -2.6310 C.3   1 <1>   0.1810 
  5 C       -1.5250     4.5840    -0.2070 C.3   1 <1>   0.3640 
  6 C       -1.0520     2.2570     0.6360 C.3   1 <1>   0.2200 
  7 O        0.0110     5.3980    -1.9840 O.3   1 <1>  -0.5600 
  8 C       -3.0480     4.4360    -0.1560 C.ar  1 <1>  -0.1440 
  9 C       -1.1430     5.7050    -1.2160 C.3   1 <1>   0.2610 
 10 C        0.3180     1.9380     1.2310 C.3   1 <1>  -0.2400 
 11 C       -1.7850     0.9940     0.1800 C.3   1 <1>  -0.2400 
 12 C       -3.7380     3.7360    -1.1380 C.ar  1 <1>  -0.1500 
 13 C       -3.7650     5.0140     0.8820 C.ar  1 <1>  -0.1500 
 14 C       -0.9480     7.0330    -0.4700 C.2   1 <1>   0.5690 
 15 C       -5.1150     3.6130    -1.0820 C.ar  1 <1>  -0.1500 
 16 C       -5.1430     4.8920     0.9410 C.ar  1 <1>  -0.1500 
 17 O       -1.7820     7.4040     0.3230 O.2   1 <1>  -0.5700 
 18 N        0.1690     7.7680    -0.7050 N.am  1 <1>  -0.7300 
 19 C       -5.8190     4.1910    -0.0410 C.ar  1 <1>  -0.1500 
 20 C        0.5390     9.0310    -0.0410 C.3   1 <1>   0.2840 
 21 C        1.9000     8.8580     0.6150 C.ar  1 <1>  -0.1440 
 22 C        3.0460     9.4440     0.0830 C.ar  1 <1>   0.0820 
 23 C        1.9910     8.0990     1.7710 C.ar  1 <1>  -0.1500 
 24 O        2.9160    10.1780    -1.0550 O.3   1 <1>  -0.3620 
 25 C        4.2710     9.2610     0.7230 C.ar  1 <1>  -0.1500 
 26 C        3.2090     7.9210     2.4020 C.ar  1 <1>  -0.1500 
 27 C        4.0140    10.8440    -1.6380 C.3   1 <1>   0.0400 
 28 C        4.3490     8.5030     1.8780 C.ar  1 <1>  -0.1500 
 29 H       -0.8660     4.1620    -3.3280 H     1 <1>   0.0800 
 30 H        0.8710     4.0220    -3.1700 H     1 <1>   0.0800 
 31 H       -1.1820     4.8950     0.7660 H     1 <1>   0.0800 
 32 H       -1.6480     2.7030     1.4150 H     1 <1>   0.0800 
 33 H       -1.9530     5.8460    -1.9080 H     1 <1>   0.0800 
 34 H        0.9350     1.4220     0.5180 H     1 <1>   0.0800 
 35 H        0.2030     1.3070     2.0930 H     1 <1>   0.0800 
 36 H        0.8110     2.8440     1.5350 H     1 <1>   0.0800 
 37 H       -1.2080     0.4460    -0.5420 H     1 <1>   0.0800 
 38 H       -2.7380     1.2500    -0.2460 H     1 <1>   0.0800 
 39 H       -1.9570     0.3520     1.0240 H     1 <1>   0.0800 
 40 H       -3.2060     3.2740    -1.9520 H     1 <1>   0.1500 
 41 H       -3.2570     5.5720     1.6510 H     1 <1>   0.1500 
 42 H       -5.6390     3.0660    -1.8460 H     1 <1>   0.1500 
 43 H       -5.6880     5.3470     1.7490 H     1 <1>   0.1500 
 44 H        0.8810     7.3760    -1.3290 H     1 <1>   0.3700 
 45 H       -6.8900     4.0970     0.0050 H     1 <1>   0.1500 
 46 H        0.5510     9.8240    -0.7680 H     1 <1>   0.0800 
 47 H       -0.1920     9.2840     0.7090 H     1 <1>   0.0800 
 48 H        1.1070     7.6430     2.1820 H     1 <1>   0.1500 
 49 H        5.1730     9.6980     0.3410 H     1 <1>   0.1500 
 50 H        3.2690     7.3300     3.3000 H     1 <1>   0.1500 
 51 H        3.6630    11.3680    -2.5090 H     1 <1>   0.0800 
 52 H        4.7540    10.1170    -1.9230 H     1 <1>   0.0800 
 53 H        4.4150    11.5450    -0.9280 H     1 <1>   0.0800 
 54 H        5.2960     8.3650     2.3690 H     1 <1>   0.1500 
@<TRIPOS>BOND
  1   1   2  2   
  2   2   3  am  
  3   2   4  1   
  4   3   5  1   
  5   3   6  1   
  6   4   7  1   
  7   4  29  1   
  8   4  30  1   
  9   5   8  1   
 10   5   9  1   
 11   5  31  1   
 12   6  10  1   
 13   6  11  1   
 14   6  32  1   
 15   7   9  1   
 16   8  12  ar  
 17   8  13  ar  
 18   9  14  1   
 19   9  33  1   
 20  10  34  1   
 21  10  35  1   
 22  10  36  1   
 23  11  37  1   
 24  11  38  1   
 25  11  39  1   
 26  12  15  ar  
 27  12  40  1   
 28  13  16  ar  
 29  13  41  1   
 30  14  17  2   
 31  14  18  am  
 32  15  19  ar  
 33  15  42  1   
 34  16  19  ar  
 35  16  43  1   
 36  18  20  1   
 37  18  44  1   
 38  19  45  1   
 39  20  21  1   
 40  20  46  1   
 41  20  47  1   
 42  21  22  ar  
 43  21  23  ar  
 44  22  24  1   
 45  22  25  ar  
 46  23  26  ar  
 47  23  48  1   
 48  24  27  1   
 49  25  28  ar  
 50  25  49  1   
 51  26  28  ar  
 52  26  50  1   
 53  27  51  1   
 54  27  52  1   
 55  27  53  1   
 56  28  54  1   
@<TRIPOS>SUBSTRUCTURE
  1 ****   9 GROUP 4 **** **** 0

# MOE 2024.06 (io_trps.svl 2023.06)
