@<TRIPOS>MOLECULE
NONAME
46 48 1 0 0 
SMALL
USER_CHARGES


@<TRIPOS>ATOM
  1 O       -0.1870     1.4090     1.3260 O.2   1 <1>  -0.5700 
  2 C       -0.0520     2.5000     0.8210 C.2   1 <1>   0.5690 
  3 N       -1.1180     3.3300     0.5920 N.am  1 <1>  -0.6600 
  4 C        1.3490     2.9300     0.4260 C.3   1 <1>  -0.0990 
  5 C       -2.5040     2.9450     1.0050 C.3   1 <1>   0.1400 
  6 C       -1.0630     4.6430    -0.1100 C.3   1 <1>   0.1400 
  7 C        2.4270     1.9620     0.9310 C.3   1 <1>   0.0960 
  8 C       -3.4430     2.8520    -0.2250 C.3   1 <1>   0.0000 
  9 C       -1.9560     4.5960    -1.3560 C.3   1 <1>  -0.1600 
 10 N        3.7630     2.3830     0.4690 N.pl3 1 <1>   0.3140 
 11 C       -4.8790     2.4960     0.1950 C.3   1 <1>   0.2000 
 12 C       -3.3970     4.1830    -1.0090 C.3   1 <1>  -0.1600 
 13 C       -3.0650     1.6430    -1.0990 C.3   1 <1>  -0.1600 
 14 N        4.2920     3.5780     0.7930 N.2   1 <1>  -0.7070 
 15 C        4.6030     1.6760    -0.3140 C.2   1 <1>  -0.3020 
 16 O       -5.2530     3.1710     1.3590 O.3   1 <1>  -0.5600 
 17 C       -4.8870     0.9770     0.4010 C.3   1 <1>  -0.1600 
 18 C       -3.7140     0.4310    -0.4240 C.3   1 <1>  -0.1600 
 19 C        5.4540     3.5980     0.2140 C.2   1 <1>   0.1390 
 20 C        5.7050     2.4320    -0.4970 C.2   1 <1>  -0.1500 
 21 C       -6.6160     3.1430     1.6430 C.3   1 <1>   0.0400 
 22 H        1.3950     2.9880    -0.6460 H     1 <1>   0.0800 
 23 H        1.5390     3.9010     0.8440 H     1 <1>   0.0800 
 24 H       -2.4970     2.0100     1.5360 H     1 <1>   0.0800 
 25 H       -2.8720     3.6930     1.6850 H     1 <1>   0.0800 
 26 H       -1.4160     5.4080     0.5600 H     1 <1>   0.0800 
 27 H       -0.0600     4.8950    -0.4020 H     1 <1>   0.0800 
 28 H        2.2340     0.9690     0.5700 H     1 <1>   0.0800 
 29 H        2.4300     1.9430     2.0050 H     1 <1>   0.0800 
 30 H       -1.9650     5.5660    -1.8190 H     1 <1>   0.0800 
 31 H       -1.5350     3.9020    -2.0610 H     1 <1>   0.0800 
 32 H       -5.5560     2.7620    -0.5990 H     1 <1>   0.0800 
 33 H       -3.9780     4.1050    -1.9110 H     1 <1>   0.0800 
 34 H       -3.8410     4.9530    -0.4010 H     1 <1>   0.0800 
 35 H       -3.4870     1.7600    -2.0820 H     1 <1>   0.0800 
 36 H       -2.0010     1.5150    -1.1980 H     1 <1>   0.0800 
 37 H        4.3740     0.6950    -0.6880 H     1 <1>   0.1500 
 38 H       -4.7360     0.7410     1.4400 H     1 <1>   0.0800 
 39 H       -5.8190     0.5570     0.0660 H     1 <1>   0.0800 
 40 H       -3.0010    -0.0400     0.2330 H     1 <1>   0.0800 
 41 H       -4.0410    -0.2900    -1.1540 H     1 <1>   0.0800 
 42 H        6.1360     4.4290     0.2830 H     1 <1>   0.1500 
 43 H        6.5950     2.2100    -1.0600 H     1 <1>   0.1500 
 44 H       -6.7800     3.7100     2.5430 H     1 <1>   0.0800 
 45 H       -6.9310     2.1260     1.7960 H     1 <1>   0.0800 
 46 H       -7.1580     3.5910     0.8290 H     1 <1>   0.0800 
@<TRIPOS>BOND
  1   1   2  2   
  2   2   3  am  
  3   2   4  1   
  4   3   5  1   
  5   3   6  1   
  6   4   7  1   
  7   4  22  1   
  8   4  23  1   
  9   5   8  1   
 10   5  24  1   
 11   5  25  1   
 12   6   9  1   
 13   6  26  1   
 14   6  27  1   
 15   7  10  1   
 16   7  28  1   
 17   7  29  1   
 18   8  11  1   
 19   8  12  1   
 20   8  13  1   
 21   9  12  1   
 22   9  30  1   
 23   9  31  1   
 24  10  14  1   
 25  10  15  1   
 26  11  16  1   
 27  11  17  1   
 28  11  32  1   
 29  12  33  1   
 30  12  34  1   
 31  13  18  1   
 32  13  35  1   
 33  13  36  1   
 34  14  19  2   
 35  15  20  2   
 36  15  37  1   
 37  16  21  1   
 38  17  18  1   
 39  17  38  1   
 40  17  39  1   
 41  18  40  1   
 42  18  41  1   
 43  19  20  1   
 44  19  42  1   
 45  20  43  1   
 46  21  44  1   
 47  21  45  1   
 48  21  46  1   
@<TRIPOS>SUBSTRUCTURE
  1 ****   3 GROUP 4 **** **** 0

# MOE 2024.06 (io_trps.svl 2023.06)
