@<TRIPOS>MOLECULE
NONAME
41 43 1 0 0 
SMALL
USER_CHARGES


@<TRIPOS>ATOM
  1 O       -0.2430     0.2130    -0.5660 O.2   1 <1>  -0.5700 
  2 C       -1.3070     0.7550    -0.3680 C.2   1 <1>   0.6300 
  3 N       -2.4510     0.0360    -0.1580 N.am  1 <1>  -0.6600 
  4 C       -1.3350     2.2720    -0.3470 C.3   1 <1>   0.0000 
  5 C       -3.7730     0.5940     0.2300 C.3   1 <1>   0.1400 
  6 C       -2.4680    -1.4450    -0.0940 C.3   1 <1>   0.1400 
  7 C       -1.2040     2.7490     1.0840 C.2   1 <1>   0.6300 
  8 C       -0.6340     3.0480    -1.4340 C.3   1 <1>  -0.2000 
  9 C       -2.1270     3.0510    -1.3680 C.3   1 <1>  -0.2000 
 10 C       -4.6850    -0.6240     0.3730 C.3   1 <1>   0.2000 
 11 C       -3.7500    -1.7960     0.6620 C.3   1 <1>  -0.0800 
 12 O       -2.1620     3.1880     1.6680 O.2   1 <1>  -0.5700 
 13 N       -0.0090     2.6740     1.6970 N.am  1 <1>  -0.8000 
 14 O       -5.5940    -0.4680     1.4050 O.3   1 <1>  -0.6800 
 15 C       -4.3450    -3.1570     0.2700 C.3   1 <1>   0.0210 
 16 C       -3.3280    -4.2690     0.4460 C.2   1 <1>   0.1080 
 17 N       -2.7840    -4.5510     1.5890 N.2   1 <1>  -0.7070 
 18 C       -2.8590    -5.0870    -0.5760 C.2   1 <1>  -0.1500 
 19 N       -1.9450    -5.5700     1.3240 N.pl3 1 <1>   0.3000 
 20 C       -1.9710    -5.9120     0.0190 C.2   1 <1>  -0.3320 
 21 C       -1.1330    -7.0210    -0.5890 C.3   1 <1>  -0.0600 
 22 H       -3.6820     1.1130     1.1690 H     1 <1>   0.0800 
 23 H       -4.1450     1.2590    -0.5290 H     1 <1>   0.0800 
 24 H       -2.4890    -1.8380    -1.0960 H     1 <1>   0.0800 
 25 H       -1.5980    -1.8240     0.4180 H     1 <1>   0.0800 
 26 H       -0.1060     3.9490    -1.1730 H     1 <1>   0.1000 
 27 H       -0.1460     2.4960    -2.2190 H     1 <1>   0.1000 
 28 H       -2.6730     2.5140    -2.1240 H     1 <1>   0.1000 
 29 H       -2.6370     3.9420    -1.0420 H     1 <1>   0.1000 
 30 H       -5.2330    -0.7750    -0.5420 H     1 <1>   0.0800 
 31 H       -3.5020    -1.8110     1.7090 H     1 <1>   0.0800 
 32 H        0.0860     2.9710     2.6670 H     1 <1>   0.3700 
 33 H        0.7980     2.2190     1.2660 H     1 <1>   0.3700 
 34 H       -5.1260    -0.3980     2.2600 H     1 <1>   0.4000 
 35 H       -4.6750    -3.1370    -0.7520 H     1 <1>   0.0800 
 36 H       -5.1960    -3.3680     0.8920 H     1 <1>   0.0800 
 37 H       -3.1550    -5.0490    -1.6090 H     1 <1>   0.1500 
 38 H       -1.3710    -6.0090     2.0540 H     1 <1>   0.2700 
 39 H       -1.3310    -7.0990    -1.6430 H     1 <1>   0.0800 
 40 H       -1.3700    -7.9630    -0.1260 H     1 <1>   0.0800 
 41 H       -0.0870    -6.8150    -0.4520 H     1 <1>   0.0800 
@<TRIPOS>BOND
  1   1   2  2   
  2   2   3  am  
  3   2   4  1   
  4   3   5  1   
  5   3   6  1   
  6   4   7  1   
  7   4   8  1   
  8   4   9  1   
  9   5  10  1   
 10   5  22  1   
 11   5  23  1   
 12   6  11  1   
 13   6  24  1   
 14   6  25  1   
 15   7  12  2   
 16   7  13  am  
 17   8   9  1   
 18   8  26  1   
 19   8  27  1   
 20   9  28  1   
 21   9  29  1   
 22  10  11  1   
 23  10  14  1   
 24  10  30  1   
 25  11  15  1   
 26  11  31  1   
 27  13  32  1   
 28  13  33  1   
 29  14  34  1   
 30  15  16  1   
 31  15  35  1   
 32  15  36  1   
 33  16  17  2   
 34  16  18  1   
 35  17  19  1   
 36  18  20  2   
 37  18  37  1   
 38  19  20  1   
 39  19  38  1   
 40  20  21  1   
 41  21  39  1   
 42  21  40  1   
 43  21  41  1   
@<TRIPOS>SUBSTRUCTURE
  1 ****   6 GROUP 4 **** **** 0

# MOE 2024.06 (io_trps.svl 2023.06)
