@<TRIPOS>MOLECULE
NONAME
45 47 1 0 0 
SMALL
USER_CHARGES


@<TRIPOS>ATOM
  1 S       -0.2630    -0.2860    -0.1920 S.3   1 <1>  -0.0800 
  2 C       -1.7580    -0.2800     0.7320 C.2   1 <1>  -0.1400 
  3 C       -0.0540     1.4410     0.0390 C.2   1 <1>  -0.1400 
  4 C       -2.0350     0.9630     1.1690 C.2   1 <1>  -0.1500 
  5 C       -2.4740    -1.6020     0.8870 C.3   1 <1>   0.5230 
  6 C       -1.0670     1.9380     0.7730 C.2   1 <1>  -0.1500 
  7 C        1.1800     2.0650    -0.5920 C.3   1 <1>   0.0200 
  8 N       -2.7540    -2.1170    -0.4840 N.4   1 <1>  -0.9590 
  9 C        1.2640     3.5720    -0.3330 C.3   1 <1>  -0.2400 
 10 C       -4.1490    -1.9550    -0.9870 C.3   1 <1>   0.4230 
 11 C       -2.2650    -3.5210    -0.6390 C.3   1 <1>   0.2630 
 12 C       -5.2080    -2.6860    -0.1630 C.3   1 <1>  -0.1600 
 13 C       -4.6290    -0.5090    -1.0160 C.3   1 <1>  -0.1600 
 14 C       -6.5300    -2.0270    -0.5820 C.3   1 <1>  -0.0800 
 15 C       -6.1570    -0.6160    -1.1050 C.3   1 <1>  -0.0800 
 16 C       -7.6110    -2.0720     0.5210 C.3   1 <1>   0.1400 
 17 C       -6.8880     0.5420    -0.3950 C.3   1 <1>  -0.0990 
 18 N       -8.6340    -1.0450     0.2510 N.am  1 <1>  -0.7300 
 19 C       -8.3460     0.2010    -0.1800 C.2   1 <1>   0.5690 
 20 O       -9.2060     1.0170    -0.3790 O.2   1 <1>  -0.5700 
 21 H       -2.8830     1.2600     1.7630 H     1 <1>   0.1500 
 22 H       -3.3840    -1.4660     1.4450 H     1 <1>   0.0800 
 23 H       -1.8350    -2.2840     1.4240 H     1 <1>   0.0800 
 24 H       -1.1800     2.9700     1.0620 H     1 <1>   0.1500 
 25 H        2.0580     1.5880    -0.1910 H     1 <1>   0.0800 
 26 H        1.1610     1.8880    -1.6530 H     1 <1>   0.0800 
 27 H       -2.1630    -1.5170    -1.0810 H     1 <1>   0.4500 
 28 H        1.3090     3.7670     0.7230 H     1 <1>   0.0800 
 29 H        0.4040     4.0700    -0.7460 H     1 <1>   0.0800 
 30 H        2.1480     3.9750    -0.7940 H     1 <1>   0.0800 
 31 H       -4.2020    -2.3310    -1.9970 H     1 <1>   0.0800 
 32 H       -2.8250    -4.1870    -0.0020 H     1 <1>   0.0800 
 33 H       -1.2210    -3.5850    -0.3750 H     1 <1>   0.0800 
 34 H       -2.3780    -3.8450    -1.6610 H     1 <1>   0.0800 
 35 H       -5.2230    -3.7410    -0.3760 H     1 <1>   0.0800 
 36 H       -5.0500    -2.5320     0.8880 H     1 <1>   0.0800 
 37 H       -4.3700     0.0040    -0.1100 H     1 <1>   0.0800 
 38 H       -4.2280     0.0280    -1.8580 H     1 <1>   0.0800 
 39 H       -6.9220    -2.5800    -1.4210 H     1 <1>   0.0800 
 40 H       -6.4420    -0.5810    -2.1450 H     1 <1>   0.0800 
 41 H       -7.1780    -1.8690     1.4860 H     1 <1>   0.0800 
 42 H       -8.0710    -3.0450     0.5510 H     1 <1>   0.0800 
 43 H       -6.8160     1.4420    -0.9800 H     1 <1>   0.0800 
 44 H       -6.4590     0.7340     0.5710 H     1 <1>   0.0800 
 45 H       -9.6180    -1.2610     0.4320 H     1 <1>   0.3700 
@<TRIPOS>BOND
  1   1   2  1   
  2   1   3  1   
  3   2   4  2   
  4   2   5  1   
  5   3   6  2   
  6   3   7  1   
  7   4   6  1   
  8   4  21  1   
  9   5   8  1   
 10   5  22  1   
 11   5  23  1   
 12   6  24  1   
 13   7   9  1   
 14   7  25  1   
 15   7  26  1   
 16   8  10  1   
 17   8  11  1   
 18   8  27  1   
 19   9  28  1   
 20   9  29  1   
 21   9  30  1   
 22  10  12  1   
 23  10  13  1   
 24  10  31  1   
 25  11  32  1   
 26  11  33  1   
 27  11  34  1   
 28  12  14  1   
 29  12  35  1   
 30  12  36  1   
 31  13  15  1   
 32  13  37  1   
 33  13  38  1   
 34  14  15  1   
 35  14  16  1   
 36  14  39  1   
 37  15  17  1   
 38  15  40  1   
 39  16  18  1   
 40  16  41  1   
 41  16  42  1   
 42  17  19  1   
 43  17  43  1   
 44  17  44  1   
 45  18  19  am  
 46  18  45  1   
 47  19  20  2   
@<TRIPOS>SUBSTRUCTURE
  1 ****  13 GROUP 4 **** **** 0

# MOE 2024.06 (io_trps.svl 2023.06)
