@<TRIPOS>MOLECULE
NONAME
54 57 1 0 0 
SMALL
USER_CHARGES


@<TRIPOS>ATOM
  1 O       -0.6970    -0.4490    -1.6490 O.2   1 <1>  -0.5700 
  2 C       -0.8580    -0.2030    -0.4800 C.2   1 <1>   0.5690 
  3 N       -1.2130    -1.1570     0.4120 N.am  1 <1>  -0.7300 
  4 C       -0.6990     1.2190    -0.0050 C.3   1 <1>  -0.0990 
  5 C       -1.4890    -2.5730     0.0720 C.3   1 <1>   0.2200 
  6 C       -1.6290     2.1320    -0.8080 C.3   1 <1>   0.0960 
  7 C       -2.9820    -2.8800     0.1380 C.3   1 <1>  -0.0800 
  8 C       -0.9660    -3.4600     1.1930 C.3   1 <1>   0.1200 
  9 N       -1.6060     3.4960    -0.2560 N.pl3 1 <1>   0.3140 
 10 C       -3.2020    -3.1990     1.6230 C.3   1 <1>   0.1200 
 11 C       -3.9110    -1.7740    -0.4090 C.3   1 <1>  -0.0170 
 12 O       -1.9390    -3.3920     2.1900 O.3   1 <1>  -0.5600 
 13 N       -2.3720     3.8180     0.8010 N.2   1 <1>  -0.7070 
 14 C       -0.8590     4.5480    -0.6630 C.2   1 <1>  -0.3320 
 15 C       -5.4110    -2.0930    -0.4410 C.ar  1 <1>  -0.1440 
 16 C       -2.1030     5.0610     1.0410 C.2   1 <1>   0.1080 
 17 C       -1.1610     5.5750     0.1580 C.2   1 <1>  -0.1500 
 18 C        0.1210     4.5290    -1.8240 C.3   1 <1>  -0.0600 
 19 C       -6.3470    -1.0490    -0.6510 C.ar  1 <1>   0.0000 
 20 C       -5.9160    -3.3530    -0.2830 C.ar  1 <1>  -0.1500 
 21 C       -2.7580     5.8290     2.1640 C.3   1 <1>  -0.0590 
 22 C       -7.7250    -1.3810    -0.6520 C.ar  1 <1>   0.3100 
 23 C       -5.9990     0.3070    -0.8650 C.ar  1 <1>  -0.1500 
 24 C       -7.2980    -3.5740    -0.3110 C.ar  1 <1>   0.1600 
 25 N       -8.1820    -2.6460    -0.4820 N.ar  1 <1>  -0.6200 
 26 C       -8.6730    -0.3620    -0.8420 C.ar  1 <1>  -0.1500 
 27 C       -6.9480     1.2760    -1.0470 C.ar  1 <1>  -0.1500 
 28 C       -8.3030     0.9400    -1.0340 C.ar  1 <1>  -0.1500 
 29 H       -1.3500    -0.9340     1.4020 H     1 <1>   0.3700 
 30 H       -0.9440     1.2830     1.0400 H     1 <1>   0.0800 
 31 H        0.3220     1.5190    -0.1460 H     1 <1>   0.0800 
 32 H       -1.0550    -2.8260    -0.8810 H     1 <1>   0.0800 
 33 H       -2.6390     1.7710    -0.7510 H     1 <1>   0.0800 
 34 H       -1.3340     2.1600    -1.8410 H     1 <1>   0.0800 
 35 H       -3.1400    -3.7800    -0.4290 H     1 <1>   0.0800 
 36 H       -0.0200    -3.1290     1.5830 H     1 <1>   0.0800 
 37 H       -0.8940    -4.4840     0.8700 H     1 <1>   0.0800 
 38 H       -3.7830    -4.0940     1.7610 H     1 <1>   0.0800 
 39 H       -3.6710    -2.3800     2.1420 H     1 <1>   0.0800 
 40 H       -3.5970    -1.5230    -1.4080 H     1 <1>   0.0800 
 41 H       -3.7760    -0.9020     0.2050 H     1 <1>   0.0800 
 42 H       -0.7760     6.5790     0.1550 H     1 <1>   0.1500 
 43 H        0.5990     5.4880    -1.9200 H     1 <1>   0.0800 
 44 H       -0.3940     4.3120    -2.7430 H     1 <1>   0.0800 
 45 H        0.8790     3.7840    -1.6610 H     1 <1>   0.0800 
 46 H       -5.2960    -4.2150    -0.1360 H     1 <1>   0.1500 
 47 H       -2.3690     6.8290     2.2130 H     1 <1>   0.0800 
 48 H       -2.5700     5.3300     3.0960 H     1 <1>   0.0800 
 49 H       -3.8190     5.8700     1.9970 H     1 <1>   0.0800 
 50 H       -4.9660     0.5960    -0.8890 H     1 <1>   0.1500 
 51 H       -7.6480    -4.5840    -0.1810 H     1 <1>   0.1500 
 52 H       -9.7090    -0.6450    -0.8300 H     1 <1>   0.1500 
 53 H       -6.6640     2.3030    -1.2030 H     1 <1>   0.1500 
 54 H       -9.0410     1.7120    -1.1770 H     1 <1>   0.1500 
@<TRIPOS>BOND
  1   1   2  2   
  2   2   3  am  
  3   2   4  1   
  4   3   5  1   
  5   3  29  1   
  6   4   6  1   
  7   4  30  1   
  8   4  31  1   
  9   5   7  1   
 10   5   8  1   
 11   5  32  1   
 12   6   9  1   
 13   6  33  1   
 14   6  34  1   
 15   7  10  1   
 16   7  11  1   
 17   7  35  1   
 18   8  12  1   
 19   8  36  1   
 20   8  37  1   
 21   9  13  1   
 22   9  14  1   
 23  10  12  1   
 24  10  38  1   
 25  10  39  1   
 26  11  15  1   
 27  11  40  1   
 28  11  41  1   
 29  13  16  2   
 30  14  17  2   
 31  14  18  1   
 32  15  19  ar  
 33  15  20  ar  
 34  16  17  1   
 35  16  21  1   
 36  17  42  1   
 37  18  43  1   
 38  18  44  1   
 39  18  45  1   
 40  19  22  ar  
 41  19  23  ar  
 42  20  24  ar  
 43  20  46  1   
 44  21  47  1   
 45  21  48  1   
 46  21  49  1   
 47  22  25  ar  
 48  22  26  ar  
 49  23  27  ar  
 50  23  50  1   
 51  24  25  ar  
 52  24  51  1   
 53  26  28  ar  
 54  26  52  1   
 55  27  28  ar  
 56  27  53  1   
 57  28  54  1   
@<TRIPOS>SUBSTRUCTURE
  1 ****  11 GROUP 4 **** **** 0

# MOE 2024.06 (io_trps.svl 2023.06)
