@<TRIPOS>MOLECULE
NONAME
50 53 1 0 0 
SMALL
USER_CHARGES


@<TRIPOS>ATOM
  1 O       -0.4090     0.2660     0.7940 O.2   1 <1>  -0.5700 
  2 C       -1.4450     0.8900     0.6570 C.2   1 <1>   0.7150 
  3 N       -2.6030     0.1940     0.4050 N.am  1 <1>  -0.6600 
  4 C       -1.4520     2.3300     0.7420 C.2   1 <1>  -0.2370 
  5 C       -3.8350     0.7870    -0.1700 C.3   1 <1>   0.1400 
  6 C       -2.6420    -1.2860     0.3170 C.3   1 <1>   0.1400 
  7 N       -0.5010     3.1530     0.1660 N.pl3 1 <1>   0.0480 
  8 C       -2.3500     3.1230     1.3920 C.2   1 <1>  -0.1500 
  9 C       -4.5330    -0.3760    -0.8710 C.3   1 <1>   0.2000 
 10 C       -4.0640    -1.6260    -0.1310 C.3   1 <1>  -0.0800 
 11 C       -0.8040     4.4690     0.4700 C.ar  1 <1>  -0.1520 
 12 C        0.6030     2.6910    -0.7050 C.3   1 <1>   0.0160 
 13 C       -1.9730     4.4620     1.2290 C.ar  1 <1>   0.0000 
 14 O       -5.9120    -0.2660    -0.8020 O.3   1 <1>  -0.6800 
 15 C       -4.1550    -2.9050    -0.9780 C.3   1 <1>   0.0210 
 16 C       -0.1780     5.6980     0.1760 C.ar  1 <1>  -0.1430 
 17 C       -2.5470     5.6540     1.6810 C.ar  1 <1>  -0.1500 
 18 C       -3.5640    -4.0910    -0.2410 C.2   1 <1>   0.1080 
 19 C       -0.7590     6.8620     0.6290 C.ar  1 <1>  -0.1500 
 20 C        1.1190     5.7910    -0.6120 C.3   1 <1>  -0.0970 
 21 C       -1.9410     6.8460     1.3770 C.ar  1 <1>  -0.1500 
 22 N       -3.9770    -4.4700     0.9290 N.2   1 <1>  -0.7070 
 23 C       -2.5280    -4.8880    -0.7150 C.2   1 <1>  -0.1500 
 24 N       -3.2070    -5.5320     1.2340 N.pl3 1 <1>   0.3000 
 25 C       -2.3200    -5.8030     0.2540 C.2   1 <1>  -0.3320 
 26 C       -1.3140    -6.9380     0.3050 C.3   1 <1>  -0.0600 
 27 H       -4.4460     1.1710     0.6280 H     1 <1>   0.0800 
 28 H       -3.5960     1.5720    -0.8670 H     1 <1>   0.0800 
 29 H       -1.9170    -1.6150    -0.4090 H     1 <1>   0.0800 
 30 H       -2.4140    -1.7320     1.2700 H     1 <1>   0.0800 
 31 H       -3.2080     2.8100     1.9580 H     1 <1>   0.1500 
 32 H       -4.2440    -0.3990    -1.9080 H     1 <1>   0.0800 
 33 H       -4.6490    -1.7560     0.7630 H     1 <1>   0.0800 
 34 H        0.4370     1.6790    -1.0220 H     1 <1>   0.0800 
 35 H        1.5270     2.7430    -0.1600 H     1 <1>   0.0800 
 36 H        0.6540     3.3090    -1.5800 H     1 <1>   0.0800 
 37 H       -6.2150    -0.3900     0.1180 H     1 <1>   0.4000 
 38 H       -3.6340    -2.7700    -1.9080 H     1 <1>   0.0800 
 39 H       -5.1860    -3.1150    -1.1990 H     1 <1>   0.0800 
 40 H       -3.4520     5.6160     2.2590 H     1 <1>   0.1500 
 41 H       -0.3100     7.8160     0.4180 H     1 <1>   0.1500 
 42 H        1.5050     6.7940    -0.5930 H     1 <1>   0.0800 
 43 H        0.9480     5.5200    -1.6370 H     1 <1>   0.0800 
 44 H        1.8610     5.1450    -0.1820 H     1 <1>   0.0800 
 45 H       -2.3640     7.7760     1.7120 H     1 <1>   0.1500 
 46 H       -2.0190    -4.7760    -1.6560 H     1 <1>   0.1500 
 47 H       -3.3110    -6.0460     2.1170 H     1 <1>   0.2700 
 48 H       -0.7220    -6.9470    -0.5930 H     1 <1>   0.0800 
 49 H       -1.8210    -7.8820     0.3910 H     1 <1>   0.0800 
 50 H       -0.6560    -6.8140     1.1470 H     1 <1>   0.0800 
@<TRIPOS>BOND
  1   1   2  2   
  2   2   3  am  
  3   2   4  1   
  4   3   5  1   
  5   3   6  1   
  6   4   7  1   
  7   4   8  2   
  8   5   9  1   
  9   5  27  1   
 10   5  28  1   
 11   6  10  1   
 12   6  29  1   
 13   6  30  1   
 14   7  11  1   
 15   7  12  1   
 16   8  13  1   
 17   8  31  1   
 18   9  10  1   
 19   9  14  1   
 20   9  32  1   
 21  10  15  1   
 22  10  33  1   
 23  11  13  ar  
 24  11  16  ar  
 25  12  34  1   
 26  12  35  1   
 27  12  36  1   
 28  13  17  ar  
 29  14  37  1   
 30  15  18  1   
 31  15  38  1   
 32  15  39  1   
 33  16  19  ar  
 34  16  20  1   
 35  17  21  ar  
 36  17  40  1   
 37  18  22  2   
 38  18  23  1   
 39  19  21  ar  
 40  19  41  1   
 41  20  42  1   
 42  20  43  1   
 43  20  44  1   
 44  21  45  1   
 45  22  24  1   
 46  23  25  2   
 47  23  46  1   
 48  24  25  1   
 49  24  47  1   
 50  25  26  1   
 51  26  48  1   
 52  26  49  1   
 53  26  50  1   
@<TRIPOS>SUBSTRUCTURE
  1 ****   3 GROUP 4 **** **** 0

# MOE 2024.06 (io_trps.svl 2023.06)
