@<TRIPOS>MOLECULE
NONAME
23 23 1 0 0 
SMALL
USER_CHARGES


@<TRIPOS>ATOM
  1 SI      -0.0680    -0.0030    -0.0070 Si    1 <1>   0.4710 
  2 C       -0.0930    -1.6960     0.6250 C.2   1 <1>  -0.3670 
  3 C       -0.1520     1.1440     1.3770 C.3   1 <1>  -0.3200 
  4 C       -1.4930     0.2470    -1.0770 C.3   1 <1>  -0.3210 
  5 C        1.4420     0.2980    -0.9410 C.3   1 <1>  -0.3200 
  6 C       -0.9600    -2.3140     1.4410 C.2   1 <1>  -0.1500 
  7 C        0.9940    -2.7000     0.2320 C.3   1 <1>   0.1160 
  8 C       -0.5850    -3.6710     1.6670 C.2   1 <1>  -0.1500 
  9 C        0.5330    -3.9320     0.9900 C.2   1 <1>  -0.2880 
 10 H       -1.0430     1.0060     1.9600 H     1 <1>   0.0800 
 11 H       -0.1440     2.1700     1.0590 H     1 <1>   0.0800 
 12 H        0.6760     1.0210     2.0510 H     1 <1>   0.0800 
 13 H       -2.4190     0.0810    -0.5580 H     1 <1>   0.0800 
 14 H       -1.4880    -0.4250    -1.9150 H     1 <1>   0.0800 
 15 H       -1.5340     1.2430    -1.4770 H     1 <1>   0.0800 
 16 H        2.3230     0.1600    -0.3420 H     1 <1>   0.0800 
 17 H        1.4850     1.3000    -1.3250 H     1 <1>   0.0800 
 18 H        1.5340    -0.3600    -1.7860 H     1 <1>   0.0800 
 19 H       -1.8410    -1.8950     1.8960 H     1 <1>   0.1500 
 20 H        1.9650    -2.3800     0.5680 H     1 <1>   0.0800 
 21 H        0.9990    -2.8780    -0.8290 H     1 <1>   0.0800 
 22 H       -1.1580    -4.3300     2.2970 H     1 <1>   0.1500 
 23 H        1.1000    -4.8440     0.9240 H     1 <1>   0.1500 
@<TRIPOS>BOND
  1   1   2  1   
  2   1   3  1   
  3   1   4  1   
  4   1   5  1   
  5   2   6  2   
  6   2   7  1   
  7   3  10  1   
  8   3  11  1   
  9   3  12  1   
 10   4  13  1   
 11   4  14  1   
 12   4  15  1   
 13   5  16  1   
 14   5  17  1   
 15   5  18  1   
 16   6   8  1   
 17   6  19  1   
 18   7   9  1   
 19   7  20  1   
 20   7  21  1   
 21   8   9  2   
 22   8  22  1   
 23   9  23  1   
@<TRIPOS>SUBSTRUCTURE
  1 ****   2 GROUP 4 **** **** 0

# MOE 2024.06 (io_trps.svl 2023.06)
