@<TRIPOS>MOLECULE
NONAME
54 57 1 0 0 
SMALL
USER_CHARGES


@<TRIPOS>ATOM
  1 S       -1.2640    -0.6970    -0.0780 S.3   1 <1>  -0.0800 
  2 C       -0.3870     0.7950    -0.4280 C.2   1 <1>  -0.0130 
  3 C       -1.4460    -1.0810    -1.7800 C.2   1 <1>  -0.1400 
  4 C        0.0470     1.6380     0.6610 C.ar  1 <1>   0.0530 
  5 C       -0.2710     0.9190    -1.7730 C.2   1 <1>  -0.1500 
  6 C       -0.8630    -0.1310    -2.5350 C.2   1 <1>  -0.1500 
  7 C       -2.2020    -2.3470    -2.1190 C.3   1 <1>   0.5230 
  8 C        0.3440     1.1290     1.9260 C.ar  1 <1>  -0.1500 
  9 C        0.1880     3.0120     0.4730 C.ar  1 <1>  -0.1500 
 10 N       -3.5660    -2.2310    -1.5420 N.4   1 <1>  -0.9590 
 11 C        0.7540     1.9560     2.9560 C.ar  1 <1>  -0.1500 
 12 C        0.5990     3.8440     1.4980 C.ar  1 <1>  -0.1500 
 13 C       -4.2960    -3.5440    -1.5460 C.3   1 <1>   0.3430 
 14 C       -4.3520    -1.1550    -2.2190 C.3   1 <1>   0.3430 
 15 C        0.8820     3.3160     2.7450 C.ar  1 <1>  -0.1500 
 16 C       -5.5480    -3.5860    -0.6400 C.3   1 <1>   0.1400 
 17 C       -5.1130    -0.3210    -1.1900 C.3   1 <1>  -0.1600 
 18 N       -6.4320    -2.3860    -0.7930 N.am  1 <1>  -0.6600 
 19 C       -5.9040    -1.1410    -0.1690 C.3   1 <1>   0.1400 
 20 C       -7.7110    -2.3830    -1.3060 C.2   1 <1>   0.5690 
 21 O       -8.2310    -1.3420    -1.6270 O.2   1 <1>  -0.5700 
 22 C       -8.5210    -3.6540    -1.5210 C.3   1 <1>   0.0810 
 23 C       -8.9300    -4.2930    -0.2050 C.2   1 <1>  -0.0400 
 24 O       -8.0420    -4.8990     0.5370 O.3   1 <1>  -0.0190 
 25 C      -10.1140    -4.3820     0.4190 C.2   1 <1>  -0.1500 
 26 N       -8.5620    -5.3830     1.6230 N.2   1 <1>  -0.4100 
 27 C       -9.8120    -5.0870     1.5810 C.2   1 <1>   0.1080 
 28 C      -10.8120    -5.4590     2.6540 C.3   1 <1>  -0.0590 
 29 H        0.2280     1.7370    -2.2640 H     1 <1>   0.1500 
 30 H       -0.8160    -0.1100    -3.6110 H     1 <1>   0.1500 
 31 H       -1.6850    -3.1890    -1.6900 H     1 <1>   0.0800 
 32 H       -2.2520    -2.4760    -3.1880 H     1 <1>   0.0800 
 33 H        0.2620     0.0750     2.1120 H     1 <1>   0.1500 
 34 H       -0.0310     3.4390    -0.4890 H     1 <1>   0.1500 
 35 H       -3.4270    -1.9230    -0.5710 H     1 <1>   0.4500 
 36 H        0.9770     1.5410     3.9250 H     1 <1>   0.1500 
 37 H        0.6990     4.9020     1.3290 H     1 <1>   0.1500 
 38 H       -3.6300    -4.3280    -1.2240 H     1 <1>   0.0800 
 39 H       -4.6000    -3.7770    -2.5540 H     1 <1>   0.0800 
 40 H       -5.0550    -1.5940    -2.9090 H     1 <1>   0.0800 
 41 H       -3.7000    -0.5000    -2.7760 H     1 <1>   0.0800 
 42 H        1.2010     3.9610     3.5460 H     1 <1>   0.1500 
 43 H       -5.2450    -3.6710     0.3910 H     1 <1>   0.0800 
 44 H       -6.0850    -4.4850    -0.8770 H     1 <1>   0.0800 
 45 H       -5.8070     0.3050    -1.7230 H     1 <1>   0.0800 
 46 H       -4.4360     0.3370    -0.6760 H     1 <1>   0.0800 
 47 H       -6.7200    -0.5470     0.2140 H     1 <1>   0.0800 
 48 H       -5.2800    -1.3950     0.6710 H     1 <1>   0.0800 
 49 H       -7.9680    -4.3530    -2.1170 H     1 <1>   0.0800 
 50 H       -9.4110    -3.3990    -2.0660 H     1 <1>   0.0800 
 51 H      -11.0790    -4.0090     0.1290 H     1 <1>   0.1500 
 52 H      -11.2650    -4.5700     3.0540 H     1 <1>   0.0800 
 53 H      -10.3180    -5.9860     3.4500 H     1 <1>   0.0800 
 54 H      -11.5750    -6.0900     2.2390 H     1 <1>   0.0800 
@<TRIPOS>BOND
  1   1   2  1   
  2   1   3  1   
  3   2   4  1   
  4   2   5  2   
  5   3   6  2   
  6   3   7  1   
  7   4   8  ar  
  8   4   9  ar  
  9   5   6  1   
 10   5  29  1   
 11   6  30  1   
 12   7  10  1   
 13   7  31  1   
 14   7  32  1   
 15   8  11  ar  
 16   8  33  1   
 17   9  12  ar  
 18   9  34  1   
 19  10  13  1   
 20  10  14  1   
 21  10  35  1   
 22  11  15  ar  
 23  11  36  1   
 24  12  15  ar  
 25  12  37  1   
 26  13  16  1   
 27  13  38  1   
 28  13  39  1   
 29  14  17  1   
 30  14  40  1   
 31  14  41  1   
 32  15  42  1   
 33  16  18  1   
 34  16  43  1   
 35  16  44  1   
 36  17  19  1   
 37  17  45  1   
 38  17  46  1   
 39  18  19  1   
 40  18  20  am  
 41  19  47  1   
 42  19  48  1   
 43  20  21  2   
 44  20  22  1   
 45  22  23  1   
 46  22  49  1   
 47  22  50  1   
 48  23  24  1   
 49  23  25  2   
 50  24  26  1   
 51  25  27  1   
 52  25  51  1   
 53  26  27  2   
 54  27  28  1   
 55  28  52  1   
 56  28  53  1   
 57  28  54  1   
@<TRIPOS>SUBSTRUCTURE
  1 ****  19 GROUP 4 **** **** 0

# MOE 2024.06 (io_trps.svl 2023.06)
