@<TRIPOS>MOLECULE
NONAME
61 64 1 0 0 
SMALL
USER_CHARGES


@<TRIPOS>ATOM
  1 O        1.3530    -2.5250    -0.3040 O.3   1 <1>  -0.3630 
  2 C        0.7380    -3.5110     0.3970 C.ar  1 <1>   0.0820 
  3 C        1.1740    -1.1600     0.0010 C.3   1 <1>   0.1200 
  4 C        1.0000    -4.8280     0.0300 C.ar  1 <1>  -0.1440 
  5 C       -0.1340    -3.2510     1.4500 C.ar  1 <1>  -0.1500 
  6 C        2.0170    -0.3390    -0.9740 C.3   1 <1>  -0.1600 
  7 C        0.3760    -5.8640     0.7130 C.ar  1 <1>  -0.1500 
  8 C        1.9530    -5.1340    -1.1210 C.3   1 <1>   0.2640 
  9 C       -0.7470    -4.2910     2.1230 C.ar  1 <1>  -0.1500 
 10 C        1.8740     1.1640    -0.7070 C.3   1 <1>  -0.2400 
 11 C       -0.5010    -5.6050     1.7550 C.ar  1 <1>  -0.1440 
 12 O        2.8060    -6.1560    -0.7430 O.3   1 <1>  -0.6800 
 13 C       -1.1970    -6.7390     2.4850 C.3   1 <1>   0.4860 
 14 N       -2.2590    -7.3240     1.6220 N.4   1 <1>  -0.9590 
 15 C       -3.0870    -6.3420     0.8580 C.3   1 <1>   0.3430 
 16 C       -3.1960    -8.2520     2.2960 C.3   1 <1>   0.3430 
 17 C       -4.4510    -7.0090     0.6420 C.3   1 <1>   0.2000 
 18 C       -4.3930    -8.3720     1.3480 C.3   1 <1>  -0.0800 
 19 O       -5.4430    -6.2360     1.2330 O.3   1 <1>  -0.6800 
 20 C       -4.2720    -9.5570     0.3560 C.3   1 <1>  -0.0170 
 21 C       -2.8600    -9.8730    -0.1310 C.ar  1 <1>   0.1670 
 22 N       -2.1970    -8.9390    -0.7460 N.ar  1 <1>  -0.6200 
 23 C       -2.3400   -11.1550     0.1140 C.ar  1 <1>  -0.1500 
 24 C       -0.9500    -9.2380    -1.2020 C.ar  1 <1>   0.3100 
 25 C       -1.0820   -11.4690    -0.2970 C.ar  1 <1>  -0.1500 
 26 C       -0.3390   -10.4910    -0.9750 C.ar  1 <1>   0.0000 
 27 C       -0.2300    -8.2610    -1.9070 C.ar  1 <1>  -0.1500 
 28 C        0.9740   -10.7080    -1.4350 C.ar  1 <1>  -0.1500 
 29 C        1.0460    -8.4930    -2.3470 C.ar  1 <1>  -0.1500 
 30 C        1.6550    -9.7280    -2.1040 C.ar  1 <1>  -0.1500 
 31 H        0.1300    -0.9210    -0.1060 H     1 <1>   0.0800 
 32 H        1.4950    -0.9920     1.0150 H     1 <1>   0.0800 
 33 H       -0.3480    -2.2450     1.7600 H     1 <1>   0.1500 
 34 H        3.0510    -0.6190    -0.8710 H     1 <1>   0.0800 
 35 H        1.7010    -0.5510    -1.9810 H     1 <1>   0.0800 
 36 H        0.5870    -6.8800     0.4200 H     1 <1>   0.1500 
 37 H        2.5590    -4.2850    -1.3860 H     1 <1>   0.0800 
 38 H        1.4050    -5.4560    -1.9880 H     1 <1>   0.0800 
 39 H       -1.4150    -4.0600     2.9360 H     1 <1>   0.1500 
 40 H        2.2000     1.4020     0.2910 H     1 <1>   0.0800 
 41 H        0.8490     1.4720    -0.8220 H     1 <1>   0.0800 
 42 H        2.4770     1.7190    -1.4040 H     1 <1>   0.0800 
 43 H        3.2910    -5.8800     0.0590 H     1 <1>   0.4000 
 44 H       -1.6330    -6.3560     3.3920 H     1 <1>   0.0800 
 45 H       -0.4760    -7.4960     2.7480 H     1 <1>   0.0800 
 46 H       -1.7990    -7.8790     0.8710 H     1 <1>   0.4500 
 47 H       -3.2100    -5.4270     1.4120 H     1 <1>   0.0800 
 48 H       -2.6190    -6.1260    -0.0890 H     1 <1>   0.0800 
 49 H       -2.7380    -9.2100     2.4830 H     1 <1>   0.0800 
 50 H       -3.5220    -7.8230     3.2300 H     1 <1>   0.0800 
 51 H       -4.6810    -7.0870    -0.4080 H     1 <1>   0.0800 
 52 H       -5.2920    -8.5320     1.9180 H     1 <1>   0.0800 
 53 H       -5.3900    -6.2180     2.2080 H     1 <1>   0.4000 
 54 H       -4.8980    -9.3790    -0.5020 H     1 <1>   0.0800 
 55 H       -4.6700   -10.4320     0.8390 H     1 <1>   0.0800 
 56 H       -2.9390   -11.8900     0.6230 H     1 <1>   0.1500 
 57 H       -0.6500   -12.4400    -0.1250 H     1 <1>   0.1500 
 58 H       -0.7070    -7.3180    -2.0960 H     1 <1>   0.1500 
 59 H        1.4370   -11.6620    -1.2530 H     1 <1>   0.1500 
 60 H        1.6000    -7.7380    -2.8790 H     1 <1>   0.1500 
 61 H        2.6620    -9.8900    -2.4530 H     1 <1>   0.1500 
@<TRIPOS>BOND
  1   1   2  1   
  2   1   3  1   
  3   2   4  ar  
  4   2   5  ar  
  5   3   6  1   
  6   3  31  1   
  7   3  32  1   
  8   4   7  ar  
  9   4   8  1   
 10   5   9  ar  
 11   5  33  1   
 12   6  10  1   
 13   6  34  1   
 14   6  35  1   
 15   7  11  ar  
 16   7  36  1   
 17   8  12  1   
 18   8  37  1   
 19   8  38  1   
 20   9  11  ar  
 21   9  39  1   
 22  10  40  1   
 23  10  41  1   
 24  10  42  1   
 25  11  13  1   
 26  12  43  1   
 27  13  14  1   
 28  13  44  1   
 29  13  45  1   
 30  14  15  1   
 31  14  16  1   
 32  14  46  1   
 33  15  17  1   
 34  15  47  1   
 35  15  48  1   
 36  16  18  1   
 37  16  49  1   
 38  16  50  1   
 39  17  18  1   
 40  17  19  1   
 41  17  51  1   
 42  18  20  1   
 43  18  52  1   
 44  19  53  1   
 45  20  21  1   
 46  20  54  1   
 47  20  55  1   
 48  21  22  ar  
 49  21  23  ar  
 50  22  24  ar  
 51  23  25  ar  
 52  23  56  1   
 53  24  26  ar  
 54  24  27  ar  
 55  25  26  ar  
 56  25  57  1   
 57  26  28  ar  
 58  27  29  ar  
 59  27  58  1   
 60  28  30  ar  
 61  28  59  1   
 62  29  30  ar  
 63  29  60  1   
 64  30  61  1   
@<TRIPOS>SUBSTRUCTURE
  1 ****   7 GROUP 4 **** **** 0

# MOE 2024.06 (io_trps.svl 2023.06)
