@<TRIPOS>MOLECULE
NONAME
48 49 1 0 0 
SMALL
USER_CHARGES


@<TRIPOS>ATOM
  1 S       -0.0410     0.1890    -0.5870 S.o2  1 <1>   1.3330 
  2 O        1.1040     0.9850    -0.2280 O.2   1 <1>  -0.6500 
  3 O       -0.1610    -0.3790    -1.9040 O.2   1 <1>  -0.6500 
  4 N        0.0640    -1.1370     0.3950 N.am  1 <1>  -0.9780 
  5 C       -1.5590     1.0100    -0.0830 C.3   1 <1>  -0.0550 
  6 C       -2.8270     0.1520    -0.2410 C.3   1 <1>  -0.1600 
  7 C       -4.0940     0.9210     0.1800 C.3   1 <1>  -0.0990 
  8 C       -5.3860     0.1210     0.0320 C.2   1 <1>   0.5690 
  9 O       -5.3070    -1.0760    -0.1150 O.2   1 <1>  -0.5700 
 10 N       -6.6000     0.7600     0.0750 N.am  1 <1>  -0.6600 
 11 C       -7.8510    -0.0080    -0.2040 C.3   1 <1>   0.1400 
 12 C       -6.7640     2.2090     0.3970 C.3   1 <1>   0.1400 
 13 C       -8.8970     0.8900    -0.8690 C.3   1 <1>  -0.1600 
 14 C       -8.1510     2.4610     0.9900 C.3   1 <1>  -0.1600 
 15 C       -9.2630     2.1400    -0.0300 C.3   1 <1>   0.2800 
 16 O       -9.3230     3.1960    -0.9600 O.3   1 <1>  -0.5600 
 17 C      -10.6320     1.9670     0.6770 C.3   1 <1>  -0.1600 
 18 C      -10.0450     4.3450    -0.6150 C.3   1 <1>   0.1200 
 19 C      -11.7960     2.5420    -0.1360 C.3   1 <1>   0.2800 
 20 C      -11.5360     4.0240    -0.4250 C.3   1 <1>  -0.1600 
 21 O      -11.8310     1.8980    -1.3440 O.3   1 <1>  -0.6800 
 22 C      -13.1500     2.3070     0.5270 C.3   1 <1>  -0.2400 
 23 H        1.0590    -1.2080     0.5970 H     1 <1>   0.4200 
 24 H       -0.1510    -1.9150    -0.2250 H     1 <1>   0.4200 
 25 H       -1.6710     1.9040    -0.6670 H     1 <1>   0.0800 
 26 H       -1.4650     1.3040     0.9450 H     1 <1>   0.0800 
 27 H       -2.7340    -0.7360     0.3630 H     1 <1>   0.0800 
 28 H       -2.9250    -0.1590    -1.2680 H     1 <1>   0.0800 
 29 H       -4.1730     1.8070    -0.4220 H     1 <1>   0.0800 
 30 H       -4.0040     1.2140     1.2100 H     1 <1>   0.0800 
 31 H       -8.2350    -0.4020     0.7210 H     1 <1>   0.0800 
 32 H       -7.6330    -0.8390    -0.8540 H     1 <1>   0.0800 
 33 H       -6.6460     2.7890    -0.5030 H     1 <1>   0.0800 
 34 H       -6.0180     2.5170     1.1080 H     1 <1>   0.0800 
 35 H       -9.7700     0.2960    -1.0680 H     1 <1>   0.0800 
 36 H       -8.4980     1.1920    -1.8220 H     1 <1>   0.0800 
 37 H       -8.2220     3.4770     1.3270 H     1 <1>   0.0800 
 38 H       -8.2580     1.8340     1.8580 H     1 <1>   0.0800 
 39 H      -10.6080     2.4800     1.6210 H     1 <1>   0.0800 
 40 H      -10.8120     0.9320     0.9060 H     1 <1>   0.0800 
 41 H       -9.9160     5.0630    -1.4060 H     1 <1>   0.0800 
 42 H       -9.6280     4.7560     0.2870 H     1 <1>   0.0800 
 43 H      -12.0950     4.3330    -1.2910 H     1 <1>   0.0800 
 44 H      -11.8900     4.6170     0.3980 H     1 <1>   0.0800 
 45 H      -10.9900     2.1150    -1.8000 H     1 <1>   0.4000 
 46 H      -13.1840     2.7840     1.4890 H     1 <1>   0.0800 
 47 H      -13.3200     1.2540     0.6620 H     1 <1>   0.0800 
 48 H      -13.9370     2.7130    -0.0840 H     1 <1>   0.0800 
@<TRIPOS>BOND
  1   1   2  2   
  2   1   3  2   
  3   1   4  am  
  4   1   5  1   
  5   4  23  1   
  6   4  24  1   
  7   5   6  1   
  8   5  25  1   
  9   5  26  1   
 10   6   7  1   
 11   6  27  1   
 12   6  28  1   
 13   7   8  1   
 14   7  29  1   
 15   7  30  1   
 16   8   9  2   
 17   8  10  am  
 18  10  11  1   
 19  10  12  1   
 20  11  13  1   
 21  11  31  1   
 22  11  32  1   
 23  12  14  1   
 24  12  33  1   
 25  12  34  1   
 26  13  15  1   
 27  13  35  1   
 28  13  36  1   
 29  14  15  1   
 30  14  37  1   
 31  14  38  1   
 32  15  16  1   
 33  15  17  1   
 34  16  18  1   
 35  17  19  1   
 36  17  39  1   
 37  17  40  1   
 38  18  20  1   
 39  18  41  1   
 40  18  42  1   
 41  19  20  1   
 42  19  21  1   
 43  19  22  1   
 44  20  43  1   
 45  20  44  1   
 46  21  45  1   
 47  22  46  1   
 48  22  47  1   
 49  22  48  1   
@<TRIPOS>SUBSTRUCTURE
  1 ****  10 GROUP 4 **** **** 0

# MOE 2024.06 (io_trps.svl 2023.06)
