@<TRIPOS>MOLECULE
NONAME
49 52 1 0 0 
SMALL
USER_CHARGES


@<TRIPOS>ATOM
  1 S        1.7990     0.8170    -2.1670 S.3   1 <1>  -0.0800 
  2 C        1.2620     1.9910    -0.9830 C.2   1 <1>  -0.1400 
  3 C        3.2710     1.7390    -2.4410 C.2   1 <1>  -0.1100 
  4 C        2.1520     2.9770    -0.8190 C.2   1 <1>  -0.1810 
  5 C       -0.0530     1.8810    -0.2620 C.3   1 <1>   0.0200 
  6 C        3.3050     2.8400    -1.6640 C.2   1 <1>  -0.1500 
  7 C        1.9060     4.1090     0.1810 C.3   1 <1>   0.4610 
  8 C       -0.3760     3.2760     0.2970 C.3   1 <1>   0.1200 
  9 O        0.7410     3.8400     0.9440 O.3   1 <1>  -0.5600 
 10 C        3.0570     4.1800     1.1930 C.3   1 <1>  -0.1600 
 11 C        1.7240     5.4530    -0.5430 C.3   1 <1>  -0.1600 
 12 C        2.9040     5.3680     2.1450 C.3   1 <1>   0.1400 
 13 C        1.6110     6.6110     0.4490 C.3   1 <1>   0.1400 
 14 N        2.8140     6.6050     1.3230 N.am  1 <1>  -0.6600 
 15 C        3.8820     7.4700     1.2520 C.2   1 <1>   0.5690 
 16 O        4.7610     7.4500     2.0860 O.2   1 <1>  -0.5700 
 17 C        4.0410     8.4700     0.1020 C.3   1 <1>   0.2010 
 18 N        5.3680     8.3350    -0.5450 N.am  1 <1>  -0.4200 
 19 C        5.8120     7.1700    -1.1000 C.2   1 <1>   0.6900 
 20 C        6.4350     9.1280    -0.2510 C.2   1 <1>   0.5690 
 21 O        5.1110     6.2210    -1.3740 O.2   1 <1>  -0.5700 
 22 N        7.1480     7.1780    -1.2730 N.am  1 <1>  -0.7300 
 23 O        6.3830    10.2260     0.2540 O.2   1 <1>  -0.5700 
 24 C        7.7200     8.3930    -0.6770 C.3   1 <1>   0.3610 
 25 C        8.5960     7.9900     0.5120 C.3   1 <1>  -0.2400 
 26 C        8.5190     9.1370    -1.7480 C.3   1 <1>  -0.2400 
 27 H        3.9650     1.3560    -3.1670 H     1 <1>   0.1500 
 28 H        0.0240     1.1650     0.5360 H     1 <1>   0.0800 
 29 H       -0.8280     1.5690    -0.9380 H     1 <1>   0.0800 
 30 H        4.0980     3.5700    -1.6490 H     1 <1>   0.1500 
 31 H       -1.1740     3.2110     1.0160 H     1 <1>   0.0800 
 32 H       -0.6800     3.9340    -0.4970 H     1 <1>   0.0800 
 33 H        3.9910     4.2850     0.6720 H     1 <1>   0.0800 
 34 H        3.0960     3.2630     1.7500 H     1 <1>   0.0800 
 35 H        0.8590     5.4170    -1.1760 H     1 <1>   0.0800 
 36 H        2.5720     5.6260    -1.1790 H     1 <1>   0.0800 
 37 H        3.7450     5.4090     2.8150 H     1 <1>   0.0800 
 38 H        2.0100     5.2620     2.7370 H     1 <1>   0.0800 
 39 H        0.7350     6.4760     1.0620 H     1 <1>   0.0800 
 40 H        1.5010     7.5450    -0.0690 H     1 <1>   0.0800 
 41 H        3.9340     9.4640     0.4970 H     1 <1>   0.0800 
 42 H        3.2950     8.3190    -0.6510 H     1 <1>   0.0800 
 43 H        7.6740     6.3090    -1.3430 H     1 <1>   0.3700 
 44 H        8.0150     7.4400     1.2330 H     1 <1>   0.0800 
 45 H        8.9740     8.8730     0.9950 H     1 <1>   0.0800 
 46 H        9.4280     7.3920     0.1900 H     1 <1>   0.0800 
 47 H        7.8890     9.3700    -2.5880 H     1 <1>   0.0800 
 48 H        9.3510     8.5440    -2.0820 H     1 <1>   0.0800 
 49 H        8.8950    10.0600    -1.3430 H     1 <1>   0.0800 
@<TRIPOS>BOND
  1   1   2  1   
  2   1   3  1   
  3   2   4  2   
  4   2   5  1   
  5   3   6  2   
  6   3  27  1   
  7   4   6  1   
  8   4   7  1   
  9   5   8  1   
 10   5  28  1   
 11   5  29  1   
 12   6  30  1   
 13   7   9  1   
 14   7  10  1   
 15   7  11  1   
 16   8   9  1   
 17   8  31  1   
 18   8  32  1   
 19  10  12  1   
 20  10  33  1   
 21  10  34  1   
 22  11  13  1   
 23  11  35  1   
 24  11  36  1   
 25  12  14  1   
 26  12  37  1   
 27  12  38  1   
 28  13  14  1   
 29  13  39  1   
 30  13  40  1   
 31  14  15  am  
 32  15  16  2   
 33  15  17  1   
 34  17  18  1   
 35  17  41  1   
 36  17  42  1   
 37  18  19  am  
 38  18  20  am  
 39  19  21  2   
 40  19  22  am  
 41  20  23  2   
 42  20  24  1   
 43  22  24  1   
 44  22  43  1   
 45  24  25  1   
 46  24  26  1   
 47  25  44  1   
 48  25  45  1   
 49  25  46  1   
 50  26  47  1   
 51  26  48  1   
 52  26  49  1   
@<TRIPOS>SUBSTRUCTURE
  1 ****  21 GROUP 4 **** **** 0

# MOE 2024.06 (io_trps.svl 2023.06)
