@<TRIPOS>MOLECULE
NONAME
50 53 1 0 0 
SMALL
USER_CHARGES


@<TRIPOS>ATOM
  1 O       -1.0580    -0.0450     1.3180 O.2   1 <1>  -0.5700 
  2 C       -1.7070     0.8160     0.7570 C.2   1 <1>   0.5440 
  3 N       -2.8720     0.4620     0.1020 N.am  1 <1>  -0.6600 
  4 C       -1.2440     2.1750     0.8180 C.ar  1 <1>   0.0860 
  5 C       -3.9550     1.4550    -0.1810 C.3   1 <1>   0.2200 
  6 C       -3.1690    -0.9860    -0.1320 C.3   1 <1>   0.0600 
  7 C       -0.8970     2.7790     2.0110 C.ar  1 <1>   0.1600 
  8 C       -1.1190     2.9750    -0.3020 C.ar  1 <1>   0.1600 
  9 C       -5.3130     1.0960     0.4170 C.3   1 <1>  -0.1600 
 10 C       -4.2360     1.6350    -1.6700 C.3   1 <1>  -0.1600 
 11 N       -0.5240     4.0340     2.1010 N.ar  1 <1>  -0.6200 
 12 N       -0.7550     4.2320    -0.2500 N.ar  1 <1>  -0.6200 
 13 C       -6.3080     1.9500    -0.3770 C.3   1 <1>  -0.0800 
 14 C       -5.6290     2.2760    -1.7200 C.3   1 <1>  -0.0800 
 15 C       -0.4750     4.7130     0.9600 C.ar  1 <1>   0.7200 
 16 C       -6.6210     3.2990     0.2870 C.3   1 <1>  -0.1600 
 17 C       -5.5920     3.8080    -1.8290 C.3   1 <1>  -0.1600 
 18 N       -0.1240     6.0170     1.1080 N.pl3 1 <1>  -0.6000 
 19 C       -6.6650     4.2890    -0.8660 C.3   1 <1>   0.2000 
 20 C       -0.0030     7.0780     0.2030 C.ar  1 <1>   0.1000 
 21 O       -6.3700     5.5570    -0.4180 O.3   1 <1>  -0.6800 
 22 C       -0.3730     8.3540     0.6110 C.ar  1 <1>  -0.1500 
 23 C        0.4950     6.9130    -1.0860 C.ar  1 <1>  -0.1500 
 24 C       -0.2600     9.4350    -0.2440 C.ar  1 <1>  -0.1500 
 25 C        0.6090     7.9910    -1.9460 C.ar  1 <1>  -0.1500 
 26 C        0.2310     9.2540    -1.5260 C.ar  1 <1>  -0.1500 
 27 H       -3.6880     2.4170     0.2210 H     1 <1>   0.0800 
 28 H       -3.7770    -1.1190    -1.0080 H     1 <1>   0.0800 
 29 H       -3.6820    -1.3920     0.7220 H     1 <1>   0.0800 
 30 H       -2.2530    -1.5350    -0.2710 H     1 <1>   0.0800 
 31 H       -0.9410     2.1940     2.9150 H     1 <1>   0.1500 
 32 H       -1.3340     2.5520    -1.2680 H     1 <1>   0.1500 
 33 H       -5.5480     0.0620     0.2420 H     1 <1>   0.0800 
 34 H       -5.3500     1.2930     1.4740 H     1 <1>   0.0800 
 35 H       -3.4920     2.2410    -2.1550 H     1 <1>   0.0800 
 36 H       -4.2810     0.6800    -2.1600 H     1 <1>   0.0800 
 37 H       -7.2260     1.4100    -0.5450 H     1 <1>   0.0800 
 38 H       -6.2050     1.8680    -2.5350 H     1 <1>   0.0800 
 39 H       -5.8340     3.5720     0.9690 H     1 <1>   0.0800 
 40 H       -7.5590     3.2710     0.8120 H     1 <1>   0.0800 
 41 H       -5.7970     4.1350    -2.8330 H     1 <1>   0.0800 
 42 H       -4.6310     4.1820    -1.5180 H     1 <1>   0.0800 
 43 H       -0.0260     6.2490     2.0920 H     1 <1>   0.4000 
 44 H       -7.6360     4.2970    -1.3340 H     1 <1>   0.0800 
 45 H       -5.4650     5.5840    -0.0570 H     1 <1>   0.4000 
 46 H       -0.7570     8.5020     1.6030 H     1 <1>   0.1500 
 47 H        0.7980     5.9370    -1.4170 H     1 <1>   0.1500 
 48 H       -0.5530    10.4170     0.0840 H     1 <1>   0.1500 
 49 H        0.9930     7.8460    -2.9400 H     1 <1>   0.1500 
 50 H        0.3180    10.0930    -2.1940 H     1 <1>   0.1500 
@<TRIPOS>BOND
  1   1   2  2   
  2   2   3  am  
  3   2   4  1   
  4   3   5  1   
  5   3   6  1   
  6   4   7  ar  
  7   4   8  ar  
  8   5   9  1   
  9   5  10  1   
 10   5  27  1   
 11   6  28  1   
 12   6  29  1   
 13   6  30  1   
 14   7  11  ar  
 15   7  31  1   
 16   8  12  ar  
 17   8  32  1   
 18   9  13  1   
 19   9  33  1   
 20   9  34  1   
 21  10  14  1   
 22  10  35  1   
 23  10  36  1   
 24  11  15  ar  
 25  12  15  ar  
 26  13  14  1   
 27  13  16  1   
 28  13  37  1   
 29  14  17  1   
 30  14  38  1   
 31  15  18  1   
 32  16  19  1   
 33  16  39  1   
 34  16  40  1   
 35  17  19  1   
 36  17  41  1   
 37  17  42  1   
 38  18  20  1   
 39  18  43  1   
 40  19  21  1   
 41  19  44  1   
 42  20  22  ar  
 43  20  23  ar  
 44  21  45  1   
 45  22  24  ar  
 46  22  46  1   
 47  23  25  ar  
 48  23  47  1   
 49  24  26  ar  
 50  24  48  1   
 51  25  26  ar  
 52  25  49  1   
 53  26  50  1   
@<TRIPOS>SUBSTRUCTURE
  1 ****   8 GROUP 4 **** **** 0

# MOE 2024.06 (io_trps.svl 2023.06)
