@<TRIPOS>MOLECULE
NONAME
54 57 1 0 0 
SMALL
USER_CHARGES


@<TRIPOS>ATOM
  1 O        2.3950     2.1420     1.0630 O.3   1 <1>  -0.0190 
  2 N        3.1640     1.0970     1.0780 N.2   1 <1>  -0.4100 
  3 C        1.4930     2.0720     0.1210 C.2   1 <1>  -0.0400 
  4 C        2.7400     0.3280     0.1410 C.2   1 <1>   0.1080 
  5 C        1.6580     0.9040    -0.5190 C.2   1 <1>  -0.1500 
  6 C        0.5120     3.2120    -0.0700 C.3   1 <1>   0.0200 
  7 C        3.3440    -1.0190    -0.1930 C.3   1 <1>  -0.0590 
  8 C        1.2340     4.4820    -0.5640 C.3   1 <1>  -0.0800 
  9 C        0.3450     5.7050    -0.8030 C.3   1 <1>   0.2000 
 10 C        2.3240     4.9810     0.3970 C.3   1 <1>   0.3430 
 11 O       -0.5460     5.8570     0.2580 O.3   1 <1>  -0.6800 
 12 C        1.3530     6.8560    -0.7540 C.3   1 <1>   0.3430 
 13 N        2.3330     6.4690     0.3050 N.4   1 <1>  -0.9590 
 14 C        1.9790     7.1080     1.6040 C.3   1 <1>   0.5240 
 15 C        2.2550     8.5950     1.4730 C.2   1 <1>   0.0460 
 16 N        3.4120     9.0250     0.9300 N.2   1 <1>  -0.5650 
 17 C        1.4850     9.6460     1.7890 C.2   1 <1>  -0.0400 
 18 C        3.2850    10.3190     0.9280 C.2   1 <1>   0.4250 
 19 O        2.1390    10.7170     1.4510 O.3   1 <1>  -0.2800 
 20 C        0.1070     9.7970     2.4010 C.3   1 <1>  -0.0600 
 21 C        4.2440    11.2820     0.4450 C.ar  1 <1>   0.0530 
 22 C        3.8940    12.2960    -0.4570 C.ar  1 <1>   0.0820 
 23 C        5.5700    11.2130     0.8750 C.ar  1 <1>  -0.1500 
 24 O        2.6110    12.3320    -0.9000 O.3   1 <1>  -0.3630 
 25 C        4.8520    13.2120    -0.8850 C.ar  1 <1>  -0.1500 
 26 C        6.5170    12.1220     0.4450 C.ar  1 <1>  -0.1500 
 27 C        2.1210    13.3790    -1.7090 C.3   1 <1>   0.0400 
 28 C        6.1560    13.1260    -0.4360 C.ar  1 <1>  -0.1500 
 29 H        1.1140     0.4770    -1.3420 H     1 <1>   0.1500 
 30 H       -0.2310     2.9150    -0.7900 H     1 <1>   0.0800 
 31 H        0.0150     3.3900     0.8680 H     1 <1>   0.0800 
 32 H        2.6010    -1.7880    -0.0890 H     1 <1>   0.0800 
 33 H        4.1590    -1.2330     0.4740 H     1 <1>   0.0800 
 34 H        3.7130    -1.0160    -1.2020 H     1 <1>   0.0800 
 35 H        1.7220     4.2410    -1.4930 H     1 <1>   0.0800 
 36 H       -0.2060     5.6770    -1.7290 H     1 <1>   0.0800 
 37 H        3.2820     4.5660     0.1280 H     1 <1>   0.0800 
 38 H        2.0870     4.6740     1.4030 H     1 <1>   0.0800 
 39 H       -1.3660     5.3390     0.1080 H     1 <1>   0.4000 
 40 H        0.8720     7.7980    -0.5480 H     1 <1>   0.0800 
 41 H        1.8610     6.9220    -1.7020 H     1 <1>   0.0800 
 42 H        3.2610     6.8630     0.0740 H     1 <1>   0.4500 
 43 H        0.9430     6.9360     1.8470 H     1 <1>   0.0800 
 44 H        2.5970     6.7090     2.3900 H     1 <1>   0.0800 
 45 H       -0.3280     8.8390     2.6150 H     1 <1>   0.0800 
 46 H       -0.5350    10.3280     1.7200 H     1 <1>   0.0800 
 47 H        0.1770    10.3620     3.3130 H     1 <1>   0.0800 
 48 H        5.8560    10.4350     1.5600 H     1 <1>   0.1500 
 49 H        4.6050    13.9980    -1.5730 H     1 <1>   0.1500 
 50 H        7.5330    12.0520     0.7930 H     1 <1>   0.1500 
 51 H        1.0720    13.2120    -1.8730 H     1 <1>   0.0800 
 52 H        2.6430    13.3690    -2.6490 H     1 <1>   0.0800 
 53 H        2.2650    14.3140    -1.1960 H     1 <1>   0.0800 
 54 H        6.8930    13.8370    -0.7710 H     1 <1>   0.1500 
@<TRIPOS>BOND
  1   1   2  1   
  2   1   3  1   
  3   2   4  2   
  4   3   5  2   
  5   3   6  1   
  6   4   5  1   
  7   4   7  1   
  8   5  29  1   
  9   6   8  1   
 10   6  30  1   
 11   6  31  1   
 12   7  32  1   
 13   7  33  1   
 14   7  34  1   
 15   8   9  1   
 16   8  10  1   
 17   8  35  1   
 18   9  11  1   
 19   9  12  1   
 20   9  36  1   
 21  10  13  1   
 22  10  37  1   
 23  10  38  1   
 24  11  39  1   
 25  12  13  1   
 26  12  40  1   
 27  12  41  1   
 28  13  14  1   
 29  13  42  1   
 30  14  15  1   
 31  14  43  1   
 32  14  44  1   
 33  15  16  1   
 34  15  17  2   
 35  16  18  2   
 36  17  19  1   
 37  17  20  1   
 38  18  19  1   
 39  18  21  1   
 40  20  45  1   
 41  20  46  1   
 42  20  47  1   
 43  21  22  ar  
 44  21  23  ar  
 45  22  24  1   
 46  22  25  ar  
 47  23  26  ar  
 48  23  48  1   
 49  24  27  1   
 50  25  28  ar  
 51  25  49  1   
 52  26  28  ar  
 53  26  50  1   
 54  27  51  1   
 55  27  52  1   
 56  27  53  1   
 57  28  54  1   
@<TRIPOS>SUBSTRUCTURE
  1 ****  13 GROUP 4 **** **** 0

# MOE 2024.06 (io_trps.svl 2023.06)
