@<TRIPOS>MOLECULE
NONAME
38 40 1 0 0 
SMALL
USER_CHARGES


@<TRIPOS>ATOM
  1 F       -0.6820     0.4060     0.0090 F     1 <1>  -0.3400 
  2 C       -1.8900    -0.1540     0.0330 C.3   1 <1>   1.1640 
  3 F       -2.5490     0.3750    -0.9940 F     1 <1>  -0.3400 
  4 F       -2.4780     0.3110     1.1320 F     1 <1>  -0.3400 
  5 C       -1.8380    -1.7050    -0.0160 C.ar  1 <1>   0.1660 
  6 N       -2.9660    -2.4000    -0.0110 N.ar  1 <1>  -0.6200 
  7 C       -0.6240    -2.3650    -0.0640 C.ar  1 <1>  -0.1500 
  8 C       -2.8710    -3.7250    -0.0520 C.ar  1 <1>   0.7200 
  9 C       -0.6330    -3.7370    -0.1070 C.ar  1 <1>   0.1600 
 10 N       -1.7430    -4.4260    -0.1010 N.ar  1 <1>  -0.6200 
 11 N       -4.0460    -4.4300    -0.0390 N.pl3 1 <1>  -0.8380 
 12 C       -5.3780    -3.8050    -0.2220 C.3   1 <1>   0.2090 
 13 C       -4.1190    -5.8960    -0.2460 C.3   1 <1>   0.2090 
 14 C       -6.3190    -4.9630    -0.5680 C.3   1 <1>   0.2000 
 15 C       -5.6040    -6.2340    -0.1120 C.3   1 <1>  -0.0800 
 16 O       -7.5400    -4.8520     0.0840 O.3   1 <1>  -0.6800 
 17 C       -6.0410    -7.4760    -0.9070 C.3   1 <1>  -0.0170 
 18 C       -5.3470    -8.7350    -0.4170 C.ar  1 <1>   0.1670 
 19 N       -4.1310    -8.9590    -0.8910 N.ar  1 <1>  -0.6200 
 20 C       -5.9950    -9.5720     0.4800 C.ar  1 <1>  -0.1500 
 21 C       -3.5370   -10.0580    -0.4540 C.ar  1 <1>   0.1600 
 22 C       -5.3650   -10.7140     0.9260 C.ar  1 <1>  -0.1500 
 23 C       -4.0990   -10.9550     0.4390 C.ar  1 <1>  -0.1500 
 24 H        0.3140    -1.8400    -0.0700 H     1 <1>   0.1500 
 25 H        0.2950    -4.2820    -0.1450 H     1 <1>   0.1500 
 26 H       -5.6700    -3.3230     0.6950 H     1 <1>   0.0800 
 27 H       -5.3500    -3.0860    -1.0230 H     1 <1>   0.0800 
 28 H       -3.7550    -6.1350    -1.2320 H     1 <1>   0.0800 
 29 H       -3.5270    -6.4210     0.4860 H     1 <1>   0.0800 
 30 H       -6.4990    -4.9740    -1.6300 H     1 <1>   0.0800 
 31 H       -5.7930    -6.3960     0.9340 H     1 <1>   0.0800 
 32 H       -7.3980    -4.8130     1.0490 H     1 <1>   0.4000 
 33 H       -5.8220    -7.3410    -1.9520 H     1 <1>   0.0800 
 34 H       -7.1060    -7.5960    -0.8150 H     1 <1>   0.0800 
 35 H       -6.9830    -9.3340     0.8280 H     1 <1>   0.1500 
 36 H       -2.5470   -10.2550    -0.8280 H     1 <1>   0.1500 
 37 H       -5.8390   -11.3860     1.6210 H     1 <1>   0.1500 
 38 H       -3.5510   -11.8270     0.7450 H     1 <1>   0.1500 
@<TRIPOS>BOND
  1   1   2  1   
  2   2   3  1   
  3   2   4  1   
  4   2   5  1   
  5   5   6  ar  
  6   5   7  ar  
  7   6   8  ar  
  8   7   9  ar  
  9   7  24  1   
 10   8  10  ar  
 11   8  11  1   
 12   9  10  ar  
 13   9  25  1   
 14  11  12  1   
 15  11  13  1   
 16  12  14  1   
 17  12  26  1   
 18  12  27  1   
 19  13  15  1   
 20  13  28  1   
 21  13  29  1   
 22  14  15  1   
 23  14  16  1   
 24  14  30  1   
 25  15  17  1   
 26  15  31  1   
 27  16  32  1   
 28  17  18  1   
 29  17  33  1   
 30  17  34  1   
 31  18  19  ar  
 32  18  20  ar  
 33  19  21  ar  
 34  20  22  ar  
 35  20  35  1   
 36  21  23  ar  
 37  21  36  1   
 38  22  23  ar  
 39  22  37  1   
 40  23  38  1   
@<TRIPOS>SUBSTRUCTURE
  1 ****  11 GROUP 4 **** **** 0

# MOE 2024.06 (io_trps.svl 2023.06)
