@<TRIPOS>MOLECULE
NONAME
48 50 1 0 0 
SMALL
USER_CHARGES


@<TRIPOS>ATOM
  1 S        0.6990    -0.3180     1.9880 S.o2  1 <1>   1.4470 
  2 O        1.7180    -1.1960     2.5190 O.2   1 <1>  -0.6500 
  3 O        0.1550     0.7120     2.8420 O.2   1 <1>  -0.6500 
  4 N       -0.5950    -1.3140     1.6150 N.am  1 <1>  -0.9140 
  5 C        1.2410     0.3650     0.4010 C.ar  1 <1>  -0.0090 
  6 C       -0.2330    -2.5930     1.0250 C.3   1 <1>   0.2760 
  7 C        0.3620     1.0290    -0.4510 C.ar  1 <1>   0.0830 
  8 C        2.5650     0.2470    -0.0050 C.ar  1 <1>  -0.1500 
  9 C       -1.4110    -3.1430     0.2340 C.3   1 <1>  -0.0800 
 10 C       -0.1170    -3.6590     2.1130 C.3   1 <1>   0.1200 
 11 O       -0.9380     1.1680    -0.1230 O.3   1 <1>  -0.3630 
 12 C        0.7890     1.5410    -1.6680 C.ar  1 <1>  -0.1500 
 13 C        3.0070     0.7580    -1.2140 C.ar  1 <1>   0.0830 
 14 C       -2.2620    -3.8180     1.3150 C.3   1 <1>   0.1200 
 15 C       -2.1760    -2.1180    -0.6270 C.3   1 <1>  -0.0160 
 16 O       -1.4320    -4.0050     2.4260 O.3   1 <1>  -0.5600 
 17 C       -1.3190     2.4180     0.4080 C.3   1 <1>   0.0400 
 18 C        2.1090     1.4100    -2.0530 C.ar  1 <1>  -0.1500 
 19 O        4.3200     0.5820    -1.5050 O.3   1 <1>  -0.3630 
 20 C       -3.2840    -2.7970    -1.4160 C.ar  1 <1>  -0.1440 
 21 C        4.8880     1.1150    -2.6810 C.3   1 <1>   0.0400 
 22 C       -3.0300    -3.4800    -2.5880 C.ar  1 <1>  -0.1500 
 23 C       -4.6000    -2.7660    -1.0000 C.ar  1 <1>  -0.1500 
 24 C       -4.0740    -4.0890    -3.2640 C.ar  1 <1>   0.1600 
 25 C       -5.5700    -3.4090    -1.7500 C.ar  1 <1>   0.1600 
 26 N       -5.3370    -4.0720    -2.8710 N.ar  1 <1>  -0.6200 
 27 H       -1.0380    -1.5230     2.5090 H     1 <1>   0.4200 
 28 H        0.6550    -2.5130     0.4190 H     1 <1>   0.0800 
 29 H        3.2770    -0.2530     0.6280 H     1 <1>   0.1500 
 30 H       -1.0420    -3.9180    -0.4140 H     1 <1>   0.0800 
 31 H        0.3890    -3.3160     2.9980 H     1 <1>   0.0800 
 32 H        0.3730    -4.5380     1.7320 H     1 <1>   0.0800 
 33 H        0.0820     2.0370    -2.3090 H     1 <1>   0.1500 
 34 H       -2.6390    -4.7730     0.9910 H     1 <1>   0.0800 
 35 H       -3.0790    -3.1890     1.6240 H     1 <1>   0.0800 
 36 H       -1.4940    -1.6390    -1.3080 H     1 <1>   0.0800 
 37 H       -2.6030    -1.3460    -0.0100 H     1 <1>   0.0800 
 38 H       -2.3590     2.3680     0.6750 H     1 <1>   0.0800 
 39 H       -1.1640     3.1790    -0.3360 H     1 <1>   0.0800 
 40 H       -0.7280     2.6240     1.2840 H     1 <1>   0.0800 
 41 H        2.4170     1.8160    -2.9980 H     1 <1>   0.1500 
 42 H        5.9350     0.8710    -2.6870 H     1 <1>   0.0800 
 43 H        4.7620     2.1830    -2.6780 H     1 <1>   0.0800 
 44 H        4.4070     0.6710    -3.5350 H     1 <1>   0.0800 
 45 H       -2.0320    -3.5440    -2.9810 H     1 <1>   0.1500 
 46 H       -4.8810    -2.2500    -0.1000 H     1 <1>   0.1500 
 47 H       -3.8590    -4.6180    -4.1770 H     1 <1>   0.1500 
 48 H       -6.5910    -3.3770    -1.4110 H     1 <1>   0.1500 
@<TRIPOS>BOND
  1   1   2  2   
  2   1   3  2   
  3   1   4  am  
  4   1   5  1   
  5   4   6  1   
  6   4  27  1   
  7   5   7  ar  
  8   5   8  ar  
  9   6   9  1   
 10   6  10  1   
 11   6  28  1   
 12   7  11  1   
 13   7  12  ar  
 14   8  13  ar  
 15   8  29  1   
 16   9  14  1   
 17   9  15  1   
 18   9  30  1   
 19  10  16  1   
 20  10  31  1   
 21  10  32  1   
 22  11  17  1   
 23  12  18  ar  
 24  12  33  1   
 25  13  18  ar  
 26  13  19  1   
 27  14  16  1   
 28  14  34  1   
 29  14  35  1   
 30  15  20  1   
 31  15  36  1   
 32  15  37  1   
 33  17  38  1   
 34  17  39  1   
 35  17  40  1   
 36  18  41  1   
 37  19  21  1   
 38  20  22  ar  
 39  20  23  ar  
 40  21  42  1   
 41  21  43  1   
 42  21  44  1   
 43  22  24  ar  
 44  22  45  1   
 45  23  25  ar  
 46  23  46  1   
 47  24  26  ar  
 48  24  47  1   
 49  25  26  ar  
 50  25  48  1   
@<TRIPOS>SUBSTRUCTURE
  1 ****   4 GROUP 4 **** **** 0

# MOE 2024.06 (io_trps.svl 2023.06)
