@<TRIPOS>MOLECULE
NONAME
56 60 1 0 0 
SMALL
USER_CHARGES


@<TRIPOS>ATOM
  1 O       -1.2420     1.1470     2.1310 O.2   1 <1>  -0.5700 
  2 C       -1.9010     1.2930     1.1100 C.2   1 <1>   0.7160 
  3 N       -2.8680     0.3300     0.8440 N.am  1 <1>  -0.6600 
  4 C       -1.6280     2.4450     0.2450 C.2   1 <1>   0.2030 
  5 C       -3.5290     0.2120    -0.4900 C.3   1 <1>   0.1400 
  6 C       -3.2550    -0.6670     1.8860 C.3   1 <1>   0.1400 
  7 N       -2.3730     2.9370    -0.7430 N.2   1 <1>  -0.7070 
  8 C       -0.4750     3.2350     0.3660 C.2   1 <1>  -0.1810 
  9 C       -4.0350    -1.2120    -0.7130 C.3   1 <1>  -0.1600 
 10 C       -4.7300    -1.0520     1.7430 C.3   1 <1>  -0.1600 
 11 N       -1.7040     4.0040    -1.2210 N.pl3 1 <1>   0.3000 
 12 C       -0.5550     4.1850    -0.5540 C.2   1 <1>  -0.3320 
 13 C        0.7770     3.3440     1.1910 C.3   1 <1>   0.0210 
 14 C       -5.0820    -1.6010     0.3430 C.3   1 <1>   0.4240 
 15 C        0.6060     5.1370    -0.5640 C.3   1 <1>   0.0200 
 16 C        1.5270     4.5240     0.5200 C.3   1 <1>  -0.1600 
 17 O       -6.2570    -0.9490    -0.0730 O.3   1 <1>  -0.5600 
 18 C       -5.2710    -3.1350     0.3740 C.ar  1 <1>  -0.1440 
 19 C       -7.4630    -1.4340     0.4280 C.3   1 <1>   0.1200 
 20 C       -6.5110    -3.7150     0.1390 C.ar  1 <1>  -0.1440 
 21 C       -4.2000    -3.9720     0.6560 C.ar  1 <1>  -0.1500 
 22 C       -7.7050    -2.8250    -0.1500 C.3   1 <1>  -0.0170 
 23 C       -6.6650    -5.0910     0.1750 C.ar  1 <1>  -0.1500 
 24 C       -4.3320    -5.3490     0.6920 C.ar  1 <1>   0.0820 
 25 C       -5.5890    -5.9290     0.4560 C.ar  1 <1>   0.0820 
 26 O       -3.1780    -6.0210     0.9690 O.3   1 <1>  -0.3620 
 27 O       -5.7430    -7.2840     0.5240 O.3   1 <1>  -0.3620 
 28 C       -2.9450    -7.3230     0.4790 C.3   1 <1>   0.0400 
 29 C       -7.0060    -7.9050     0.4270 C.3   1 <1>   0.0400 
 30 H       -2.8260     0.4580    -1.2670 H     1 <1>   0.0800 
 31 H       -4.3500     0.9080    -0.5410 H     1 <1>   0.0800 
 32 H       -3.0950    -0.2530     2.8670 H     1 <1>   0.0800 
 33 H       -2.6290    -1.5360     1.7880 H     1 <1>   0.0800 
 34 H       -3.1890    -1.8720    -0.6820 H     1 <1>   0.0800 
 35 H       -4.4700    -1.3010    -1.6920 H     1 <1>   0.0800 
 36 H       -5.3110    -0.1710     1.9480 H     1 <1>   0.0800 
 37 H       -4.9710    -1.7840     2.4910 H     1 <1>   0.0800 
 38 H       -2.0560     4.5830    -1.9930 H     1 <1>   0.2700 
 39 H        1.3450     2.4320     1.1460 H     1 <1>   0.0800 
 40 H        0.5230     3.5680     2.2130 H     1 <1>   0.0800 
 41 H        0.2850     6.1270    -0.2890 H     1 <1>   0.0800 
 42 H        1.0900     5.1550    -1.5260 H     1 <1>   0.0800 
 43 H        2.4250     4.1550     0.0580 H     1 <1>   0.0800 
 44 H        1.7940     5.2650     1.2530 H     1 <1>   0.0800 
 45 H       -8.2430    -0.7570     0.1250 H     1 <1>   0.0800 
 46 H       -7.4150    -1.4610     1.5030 H     1 <1>   0.0800 
 47 H       -3.2270    -3.5640     0.8550 H     1 <1>   0.1500 
 48 H       -7.8520    -2.7490    -1.2120 H     1 <1>   0.0800 
 49 H       -8.5950    -3.2390     0.2880 H     1 <1>   0.0800 
 50 H       -7.6400    -5.4930    -0.0190 H     1 <1>   0.1500 
 51 H       -1.8880    -7.5130     0.5240 H     1 <1>   0.0800 
 52 H       -3.2890    -7.3830    -0.5380 H     1 <1>   0.0800 
 53 H       -3.4670    -8.0260     1.1030 H     1 <1>   0.0800 
 54 H       -6.8680    -8.9630     0.5640 H     1 <1>   0.0800 
 55 H       -7.4150    -7.7150    -0.5500 H     1 <1>   0.0800 
 56 H       -7.6460    -7.5170     1.1990 H     1 <1>   0.0800 
@<TRIPOS>BOND
  1   1   2  2   
  2   2   3  am  
  3   2   4  1   
  4   3   5  1   
  5   3   6  1   
  6   4   7  2   
  7   4   8  1   
  8   5   9  1   
  9   5  30  1   
 10   5  31  1   
 11   6  10  1   
 12   6  32  1   
 13   6  33  1   
 14   7  11  1   
 15   8  12  2   
 16   8  13  1   
 17   9  14  1   
 18   9  34  1   
 19   9  35  1   
 20  10  14  1   
 21  10  36  1   
 22  10  37  1   
 23  11  12  1   
 24  11  38  1   
 25  12  15  1   
 26  13  16  1   
 27  13  39  1   
 28  13  40  1   
 29  14  17  1   
 30  14  18  1   
 31  15  16  1   
 32  15  41  1   
 33  15  42  1   
 34  16  43  1   
 35  16  44  1   
 36  17  19  1   
 37  18  20  ar  
 38  18  21  ar  
 39  19  22  1   
 40  19  45  1   
 41  19  46  1   
 42  20  22  1   
 43  20  23  ar  
 44  21  24  ar  
 45  21  47  1   
 46  22  48  1   
 47  22  49  1   
 48  23  25  ar  
 49  23  50  1   
 50  24  25  ar  
 51  24  26  1   
 52  25  27  1   
 53  26  28  1   
 54  27  29  1   
 55  28  51  1   
 56  28  52  1   
 57  28  53  1   
 58  29  54  1   
 59  29  55  1   
 60  29  56  1   
@<TRIPOS>SUBSTRUCTURE
  1 ****   9 GROUP 4 **** **** 0

# MOE 2024.06 (io_trps.svl 2023.06)
