@<TRIPOS>MOLECULE
NONAME
59 61 1 0 0 
SMALL
USER_CHARGES


@<TRIPOS>ATOM
  1 O        0.7640    -0.2100     1.4920 O.2   1 <1>  -0.5700 
  2 C        1.2440    -0.9710     0.6900 C.2   1 <1>   0.5690 
  3 N        2.5190    -0.7240     0.2860 N.am  1 <1>  -0.7300 
  4 C        0.3540    -2.1140     0.1880 C.3   1 <1>   0.1810 
  5 C        3.4960    -1.3840    -0.6180 C.3   1 <1>   0.3000 
  6 O        0.9440    -3.3810     0.3440 O.3   1 <1>  -0.5600 
  7 C        4.1060    -2.6300     0.1130 C.3   1 <1>   0.2000 
  8 C        4.5910    -0.3290    -0.8610 C.3   1 <1>  -0.1600 
  9 C        2.8160    -1.6710    -1.9700 C.3   1 <1>  -0.2400 
 10 C        0.1000    -4.4380     0.0110 C.3   1 <1>   0.0400 
 11 O        3.4570    -3.8180    -0.2320 O.3   1 <1>  -0.6800 
 12 C        5.6490    -2.8170    -0.0500 C.3   1 <1>   0.2800 
 13 C        5.6730    -0.4040     0.2150 C.3   1 <1>   0.1200 
 14 O        6.3680    -1.6070     0.0700 O.3   1 <1>  -0.5600 
 15 C        6.1900    -3.7420     1.0640 C.3   1 <1>  -0.1600 
 16 C        6.0540    -3.4070    -1.4160 C.3   1 <1>  -0.1600 
 17 C        7.5160    -4.4320     0.7300 C.3   1 <1>   0.3430 
 18 C        7.5730    -3.5320    -1.5830 C.3   1 <1>   0.3430 
 19 N        8.2580    -3.6200    -0.2640 N.4   1 <1>  -0.9590 
 20 C        9.7110    -3.9260    -0.3310 C.3   1 <1>   0.5230 
 21 C       10.3950    -3.4170     0.9300 C.2   1 <1>   0.0060 
 22 N        9.8690    -2.5880     1.7660 N.2   1 <1>  -0.5650 
 23 N       11.6340    -3.7690     1.3050 N.pl3 1 <1>   0.3140 
 24 C       10.8510    -2.4580     2.6680 C.2   1 <1>   0.3660 
 25 N       11.9170    -3.1460     2.4360 N.2   1 <1>  -0.7070 
 26 C       12.6120    -4.6800     0.6650 C.3   1 <1>   0.0960 
 27 C       13.2800    -4.0220    -0.5490 C.3   1 <1>  -0.2400 
 28 H        2.8980     0.1070     0.7410 H     1 <1>   0.3700 
 29 H        0.1240    -1.9610    -0.8500 H     1 <1>   0.0800 
 30 H       -0.5620    -2.1000     0.7510 H     1 <1>   0.0800 
 31 H        3.9270    -2.4990     1.1670 H     1 <1>   0.0800 
 32 H        4.1650     0.6590    -0.8910 H     1 <1>   0.0800 
 33 H        5.0690    -0.4850    -1.8110 H     1 <1>   0.0800 
 34 H        3.5350    -2.0270    -2.6830 H     1 <1>   0.0800 
 35 H        2.3700    -0.7750    -2.3630 H     1 <1>   0.0800 
 36 H        2.0620    -2.4280    -1.8880 H     1 <1>   0.0800 
 37 H        0.6380    -5.3590     0.1550 H     1 <1>   0.0800 
 38 H       -0.1960    -4.3490    -1.0200 H     1 <1>   0.0800 
 39 H       -0.7630    -4.4220     0.6550 H     1 <1>   0.0800 
 40 H        2.4890    -3.7260    -0.0050 H     1 <1>   0.4000 
 41 H        5.2580    -0.3570     1.2080 H     1 <1>   0.0800 
 42 H        6.3820     0.3980     0.0970 H     1 <1>   0.0800 
 43 H        6.2960    -3.1780     1.9730 H     1 <1>   0.0800 
 44 H        5.4780    -4.5210     1.2690 H     1 <1>   0.0800 
 45 H        5.6190    -4.3850    -1.5230 H     1 <1>   0.0800 
 46 H        5.6620    -2.8100    -2.2170 H     1 <1>   0.0800 
 47 H        7.3220    -5.4110     0.3240 H     1 <1>   0.0800 
 48 H        8.0930    -4.5420     1.6350 H     1 <1>   0.0800 
 49 H        7.9360    -2.6610    -2.1050 H     1 <1>   0.0800 
 50 H        7.7930    -4.4020    -2.1810 H     1 <1>   0.0800 
 51 H        8.2070    -2.6630     0.1440 H     1 <1>   0.4500 
 52 H        9.8590    -4.9870    -0.4350 H     1 <1>   0.0800 
 53 H       10.1470    -3.4280    -1.1810 H     1 <1>   0.0800 
 54 H       10.7380    -1.8140     3.5270 H     1 <1>   0.1500 
 55 H       13.3630    -4.9270     1.3950 H     1 <1>   0.0800 
 56 H       12.1140    -5.5880     0.3790 H     1 <1>   0.0800 
 57 H       13.7840    -3.1190    -0.2470 H     1 <1>   0.0800 
 58 H       12.5650    -3.7900    -1.3170 H     1 <1>   0.0800 
 59 H       14.0160    -4.6900    -0.9620 H     1 <1>   0.0800 
@<TRIPOS>BOND
  1   1   2  2   
  2   2   3  am  
  3   2   4  1   
  4   3   5  1   
  5   3  28  1   
  6   4   6  1   
  7   4  29  1   
  8   4  30  1   
  9   5   7  1   
 10   5   8  1   
 11   5   9  1   
 12   6  10  1   
 13   7  11  1   
 14   7  12  1   
 15   7  31  1   
 16   8  13  1   
 17   8  32  1   
 18   8  33  1   
 19   9  34  1   
 20   9  35  1   
 21   9  36  1   
 22  10  37  1   
 23  10  38  1   
 24  10  39  1   
 25  11  40  1   
 26  12  14  1   
 27  12  15  1   
 28  12  16  1   
 29  13  14  1   
 30  13  41  1   
 31  13  42  1   
 32  15  17  1   
 33  15  43  1   
 34  15  44  1   
 35  16  18  1   
 36  16  45  1   
 37  16  46  1   
 38  17  19  1   
 39  17  47  1   
 40  17  48  1   
 41  18  19  1   
 42  18  49  1   
 43  18  50  1   
 44  19  20  1   
 45  19  51  1   
 46  20  21  1   
 47  20  52  1   
 48  20  53  1   
 49  21  22  2   
 50  21  23  1   
 51  22  24  1   
 52  23  25  1   
 53  23  26  1   
 54  24  25  2   
 55  24  54  1   
 56  26  27  1   
 57  26  55  1   
 58  26  56  1   
 59  27  57  1   
 60  27  58  1   
 61  27  59  1   
@<TRIPOS>SUBSTRUCTURE
  1 ****  12 GROUP 4 **** **** 0

# MOE 2024.06 (io_trps.svl 2023.06)
