@<TRIPOS>MOLECULE
NONAME
53 55 1 0 0 
SMALL
USER_CHARGES


@<TRIPOS>ATOM
  1 O        1.4840     0.3160    -1.2440 O.2   1 <1>  -0.5700 
  2 C        1.8650    -0.2970    -0.2680 C.2   1 <1>   0.5440 
  3 N        2.4850     0.4010     0.7330 N.am  1 <1>  -0.7300 
  4 C        1.6550    -1.7260    -0.1680 C.ar  1 <1>   0.0860 
  5 C        2.6470     1.8800     0.7540 C.3   1 <1>   0.1400 
  6 C        2.5390    -2.5440     0.5350 C.ar  1 <1>   0.1600 
  7 C        0.5680    -2.3490    -0.7670 C.ar  1 <1>  -0.1500 
  8 C        3.6040     2.3550    -0.3480 C.3   1 <1>   0.2090 
  9 N        2.4260    -3.8510     0.7020 N.ar  1 <1>  -0.6200 
 10 C        0.4310    -3.7120    -0.6130 C.ar  1 <1>  -0.1500 
 11 N        3.9570     3.7860    -0.1350 N.pl3 1 <1>  -0.8690 
 12 C        1.3730    -4.4080     0.1240 C.ar  1 <1>   0.1600 
 13 C        5.1430     4.4100    -0.1840 C.ar  1 <1>   0.4100 
 14 N        5.1050     5.6790     0.1430 N.ar  1 <1>  -0.6200 
 15 C        6.3380     3.7710    -0.5630 C.ar  1 <1>  -0.1500 
 16 C        6.2380     6.3700     0.1250 C.ar  1 <1>   0.7710 
 17 C        7.4850     4.4900    -0.5860 C.ar  1 <1>   0.2180 
 18 N        7.4000     5.7950    -0.2350 N.ar  1 <1>  -0.1790 
 19 N        6.2350     7.6870     0.4670 N.pl3 1 <1>  -0.8380 
 20 C        8.8380     3.9140    -0.9850 C.3   1 <1>  -0.0170 
 21 C        7.4210     8.5820     0.6420 C.3   1 <1>   0.2090 
 22 C        4.9550     8.4380     0.6950 C.3   1 <1>   0.2090 
 23 C        9.8430     3.9440     0.1740 C.3   1 <1>  -0.2400 
 24 C        7.3680     9.6950    -0.4080 C.3   1 <1>  -0.1600 
 25 C        4.8440     9.5630    -0.3400 C.3   1 <1>  -0.1600 
 26 C        6.0630    10.4970    -0.3040 C.3   1 <1>  -0.1600 
 27 H        2.6310    -0.0590     1.6350 H     1 <1>   0.3700 
 28 H        3.0390     2.1720     1.7130 H     1 <1>   0.0800 
 29 H        1.6840     2.3410     0.6150 H     1 <1>   0.0800 
 30 H        3.4020    -2.0870     0.9860 H     1 <1>   0.1500 
 31 H       -0.1440    -1.7740    -1.3350 H     1 <1>   0.1500 
 32 H        3.1300     2.2480    -1.3100 H     1 <1>   0.0800 
 33 H        4.4860     1.7440    -0.3260 H     1 <1>   0.0800 
 34 H       -0.3970    -4.2330    -1.0590 H     1 <1>   0.1500 
 35 H        3.1510     4.3940     0.0420 H     1 <1>   0.4000 
 36 H        1.2580    -5.4730     0.2410 H     1 <1>   0.1500 
 37 H        6.3160     2.7330    -0.8330 H     1 <1>   0.1500 
 38 H        8.2040     6.4050    -0.2430 H     1 <1>   0.4570 
 39 H        9.2330     4.4630    -1.8230 H     1 <1>   0.0800 
 40 H        8.7110     2.8930    -1.3050 H     1 <1>   0.0800 
 41 H        8.3500     8.0490     0.5620 H     1 <1>   0.0800 
 42 H        7.3870     9.0220     1.6270 H     1 <1>   0.0800 
 43 H        4.9590     8.8560     1.6880 H     1 <1>   0.0800 
 44 H        4.0880     7.8040     0.6160 H     1 <1>   0.0800 
 45 H       10.0640     4.9500     0.4820 H     1 <1>   0.0800 
 46 H       10.7650     3.4790    -0.1330 H     1 <1>   0.0800 
 47 H        9.4600     3.3960     1.0190 H     1 <1>   0.0800 
 48 H        7.4510     9.2660    -1.3910 H     1 <1>   0.0800 
 49 H        8.2030    10.3600    -0.2680 H     1 <1>   0.0800 
 50 H        3.9510    10.1320    -0.1490 H     1 <1>   0.0800 
 51 H        4.7470     9.1260    -1.3180 H     1 <1>   0.0800 
 52 H        6.0020    11.2060    -1.1120 H     1 <1>   0.0800 
 53 H        6.0570    11.0510     0.6200 H     1 <1>   0.0800 
@<TRIPOS>BOND
  1   1   2  2   
  2   2   3  am  
  3   2   4  1   
  4   3   5  1   
  5   3  27  1   
  6   4   6  ar  
  7   4   7  ar  
  8   5   8  1   
  9   5  28  1   
 10   5  29  1   
 11   6   9  ar  
 12   6  30  1   
 13   7  10  ar  
 14   7  31  1   
 15   8  11  1   
 16   8  32  1   
 17   8  33  1   
 18   9  12  ar  
 19  10  12  ar  
 20  10  34  1   
 21  11  13  1   
 22  11  35  1   
 23  12  36  1   
 24  13  14  ar  
 25  13  15  ar  
 26  14  16  ar  
 27  15  17  ar  
 28  15  37  1   
 29  16  18  ar  
 30  16  19  1   
 31  17  18  ar  
 32  17  20  1   
 33  18  38  1   
 34  19  21  1   
 35  19  22  1   
 36  20  23  1   
 37  20  39  1   
 38  20  40  1   
 39  21  24  1   
 40  21  41  1   
 41  21  42  1   
 42  22  25  1   
 43  22  43  1   
 44  22  44  1   
 45  23  45  1   
 46  23  46  1   
 47  23  47  1   
 48  24  26  1   
 49  24  48  1   
 50  24  49  1   
 51  25  26  1   
 52  25  50  1   
 53  25  51  1   
 54  26  52  1   
 55  26  53  1   
@<TRIPOS>SUBSTRUCTURE
  1 ****  11 GROUP 4 **** **** 0

# MOE 2024.06 (io_trps.svl 2023.06)
