@<TRIPOS>MOLECULE
NONAME
55 59 1 0 0 
SMALL
USER_CHARGES


@<TRIPOS>ATOM
  1 O        0.8230     0.6660     0.4480 O.3   1 <1>  -0.5600 
  2 C        0.5910    -0.7090     0.2970 C.3   1 <1>   0.1200 
  3 C        1.8040     1.1560    -0.4110 C.3   1 <1>   0.1200 
  4 C        1.8780    -1.5270     0.5490 C.3   1 <1>   0.2850 
  5 C        3.1400     0.4450    -0.1270 C.3   1 <1>   0.1900 
  6 N        3.0000    -1.0250    -0.2920 N.3   1 <1>  -0.8100 
  7 C        1.5990    -3.0060     0.2390 C.3   1 <1>  -0.1950 
  8 C        4.2380     0.9940    -1.0610 C.3   1 <1>   0.3430 
  9 C        4.2800    -1.7140    -0.0230 C.3   1 <1>   0.1100 
 10 C        0.7730    -3.8330     1.1770 C.3   1 <1>  -0.2000 
 11 C        2.2350    -4.1240     1.0100 C.3   1 <1>  -0.2000 
 12 N        5.5620     0.2990    -0.8490 N.4   1 <1>  -0.9590 
 13 C        5.4040    -1.1930    -0.9420 C.3   1 <1>   0.3430 
 14 C        6.6060     0.8070    -1.7720 C.3   1 <1>   0.5240 
 15 C        6.7980     2.2780    -1.4810 C.2   1 <1>  -0.1810 
 16 C        6.5040     3.3190    -2.3540 C.2   1 <1>   0.1390 
 17 C        7.2480     2.8920    -0.3640 C.2   1 <1>  -0.3020 
 18 N        6.7290     4.4740    -1.8220 N.2   1 <1>  -0.7070 
 19 N        7.2160     4.2330    -0.5790 N.pl3 1 <1>   0.5930 
 20 C        7.5310     5.2470     0.3660 C.ar  1 <1>  -0.0230 
 21 C        8.8170     5.3950     0.8970 C.ar  1 <1>  -0.1440 
 22 C        6.5250     6.1120     0.7860 C.ar  1 <1>  -0.1500 
 23 C        9.0550     6.3740     1.8490 C.ar  1 <1>  -0.1500 
 24 C        9.9790     4.5170     0.4490 C.3   1 <1>  -0.0970 
 25 C        6.7740     7.0880     1.7320 C.ar  1 <1>  -0.1500 
 26 C        8.0410     7.2150     2.2680 C.ar  1 <1>  -0.1500 
 27 H       -0.1700    -0.9910     1.0030 H     1 <1>   0.0800 
 28 H        0.2180    -0.8880    -0.6970 H     1 <1>   0.0800 
 29 H        1.4830     0.9970    -1.4270 H     1 <1>   0.0800 
 30 H        1.8880     2.2140    -0.2310 H     1 <1>   0.0800 
 31 H        2.1320    -1.4280     1.5910 H     1 <1>   0.0800 
 32 H        3.4130     0.6700     0.8900 H     1 <1>   0.0800 
 33 H        1.4140    -3.1640    -0.8100 H     1 <1>   0.1000 
 34 H        4.3470     2.0520    -0.8860 H     1 <1>   0.0800 
 35 H        3.9140     0.8560    -2.0790 H     1 <1>   0.0800 
 36 H        4.5590    -1.5900     1.0090 H     1 <1>   0.0800 
 37 H        4.1700    -2.7670    -0.2120 H     1 <1>   0.0800 
 38 H        0.4420    -3.4140     2.1110 H     1 <1>   0.1000 
 39 H        0.0600    -4.5270     0.7640 H     1 <1>   0.1000 
 40 H        2.5200    -5.0210     0.4870 H     1 <1>   0.1000 
 41 H        2.8870    -3.9050     1.8380 H     1 <1>   0.1000 
 42 H        5.8700     0.5320     0.1020 H     1 <1>   0.4500 
 43 H        5.1590    -1.4690    -1.9550 H     1 <1>   0.0800 
 44 H        6.3280    -1.6800    -0.6790 H     1 <1>   0.0800 
 45 H        7.5360     0.2860    -1.6090 H     1 <1>   0.0800 
 46 H        6.3040     0.6660    -2.7980 H     1 <1>   0.0800 
 47 H        6.1250     3.2070    -3.3590 H     1 <1>   0.1500 
 48 H        7.5880     2.4940     0.5740 H     1 <1>   0.1500 
 49 H        5.5380     6.0240     0.3650 H     1 <1>   0.1500 
 50 H       10.0380     6.4940     2.2700 H     1 <1>   0.1500 
 51 H       10.9180     4.9480     0.7460 H     1 <1>   0.0800 
 52 H        9.9870     4.4220    -0.6230 H     1 <1>   0.0800 
 53 H        9.9000     3.5410     0.8910 H     1 <1>   0.0800 
 54 H        5.9860     7.7490     2.0500 H     1 <1>   0.1500 
 55 H        8.2400     7.9730     3.0070 H     1 <1>   0.1500 
@<TRIPOS>BOND
  1   1   2  1   
  2   1   3  1   
  3   2   4  1   
  4   2  27  1   
  5   2  28  1   
  6   3   5  1   
  7   3  29  1   
  8   3  30  1   
  9   4   6  1   
 10   4   7  1   
 11   4  31  1   
 12   5   6  1   
 13   5   8  1   
 14   5  32  1   
 15   6   9  1   
 16   7  10  1   
 17   7  11  1   
 18   7  33  1   
 19   8  12  1   
 20   8  34  1   
 21   8  35  1   
 22   9  13  1   
 23   9  36  1   
 24   9  37  1   
 25  10  11  1   
 26  10  38  1   
 27  10  39  1   
 28  11  40  1   
 29  11  41  1   
 30  12  13  1   
 31  12  14  1   
 32  12  42  1   
 33  13  43  1   
 34  13  44  1   
 35  14  15  1   
 36  14  45  1   
 37  14  46  1   
 38  15  16  1   
 39  15  17  2   
 40  16  18  2   
 41  16  47  1   
 42  17  19  1   
 43  17  48  1   
 44  18  19  1   
 45  19  20  1   
 46  20  21  ar  
 47  20  22  ar  
 48  21  23  ar  
 49  21  24  1   
 50  22  25  ar  
 51  22  49  1   
 52  23  26  ar  
 53  23  50  1   
 54  24  51  1   
 55  24  52  1   
 56  24  53  1   
 57  25  26  ar  
 58  25  54  1   
 59  26  55  1   
@<TRIPOS>SUBSTRUCTURE
  1 ****   8 GROUP 4 **** **** 0

# MOE 2024.06 (io_trps.svl 2023.06)
