@<TRIPOS>MOLECULE
NONAME
58 60 1 0 0 
SMALL
USER_CHARGES


@<TRIPOS>ATOM
  1 O        3.5750    -0.9670     1.5190 O.2   1 <1>  -0.5700 
  2 C        3.2840    -1.2370     0.3750 C.2   1 <1>   0.5770 
  3 N        4.0890    -0.7730    -0.6300 N.am  1 <1>  -0.6600 
  4 C        1.9900    -2.0000     0.0920 C.3   1 <1>   0.0530 
  5 C        5.5790    -0.7620    -0.4590 C.3   1 <1>   0.1400 
  6 C        3.5690     0.1160    -1.6960 C.3   1 <1>   0.1400 
  7 C        1.9330    -3.3540     0.8620 C.3   1 <1>   0.0000 
  8 C        1.9930    -2.8270    -1.2330 C.3   1 <1>   0.0000 
  9 C        0.7670    -1.0900     0.3330 C.3   1 <1>   0.1200 
 10 C        6.0960     0.4210     0.3860 C.3   1 <1>   0.3430 
 11 C        3.3490     1.5280    -1.1320 C.3   1 <1>  -0.1600 
 12 C        1.4490    -4.0430    -0.4390 C.3   1 <1>   0.0000 
 13 O       -0.4180    -1.7070    -0.0560 O.3   1 <1>  -0.5600 
 14 N        5.0150     1.3990     0.7270 N.4   1 <1>  -0.9590 
 15 C        4.5700     2.1750    -0.4660 C.3   1 <1>   0.3430 
 16 C       -1.5690    -0.9890     0.2480 C.3   1 <1>   0.0400 
 17 C        5.4280     2.2730     1.8650 C.3   1 <1>   0.5230 
 18 C        6.4610     3.3000     1.4240 C.2   1 <1>  -0.0400 
 19 O        7.6250     2.8900     0.9550 O.3   1 <1>  -0.2800 
 20 C        6.4030     4.6500     1.4210 C.2   1 <1>  -0.1500 
 21 C        8.3350     3.9550     0.6430 C.2   1 <1>  -0.0400 
 22 C        7.6320     5.0780     0.9070 C.2   1 <1>  -0.1500 
 23 C        9.7330     3.7460     0.0820 C.3   1 <1>   0.0200 
 24 C       10.4400     5.0670    -0.2510 C.3   1 <1>  -0.1600 
 25 C       11.8430     4.8270    -0.8180 C.3   1 <1>  -0.2400 
 26 H        6.0540    -0.7460    -1.4250 H     1 <1>   0.0800 
 27 H        5.8800    -1.6790     0.0190 H     1 <1>   0.0800 
 28 H        2.6380    -0.2710    -2.0750 H     1 <1>   0.0800 
 29 H        4.2650     0.1450    -2.5180 H     1 <1>   0.0800 
 30 H        1.2100    -3.3820     1.6580 H     1 <1>   0.0000 
 31 H        2.9050    -3.7080     1.1620 H     1 <1>   0.0000 
 32 H        2.9800    -3.0240    -1.6160 H     1 <1>   0.0000 
 33 H        1.3160    -2.4660    -1.9860 H     1 <1>   0.0000 
 34 H        0.8630    -0.1830    -0.2370 H     1 <1>   0.0800 
 35 H        0.7000    -0.8480     1.3800 H     1 <1>   0.0800 
 36 H        6.8980     0.9160    -0.1350 H     1 <1>   0.0800 
 37 H        6.5080     0.0180     1.2970 H     1 <1>   0.0800 
 38 H        2.5310     1.5170    -0.4350 H     1 <1>   0.0800 
 39 H        3.0450     2.1600    -1.9470 H     1 <1>   0.0800 
 40 H        0.3790    -4.1370    -0.4920 H     1 <1>   0.0000 
 41 H        1.9660    -4.9610    -0.6550 H     1 <1>   0.0000 
 42 H        4.2360     0.7910     1.0470 H     1 <1>   0.4500 
 43 H        4.2990     3.1740    -0.1630 H     1 <1>   0.0800 
 44 H        5.3810     2.2600    -1.1720 H     1 <1>   0.0800 
 45 H       -2.4160    -1.5520    -0.1020 H     1 <1>   0.0800 
 46 H       -1.5390    -0.0350    -0.2490 H     1 <1>   0.0800 
 47 H       -1.6380    -0.8620     1.3150 H     1 <1>   0.0800 
 48 H        5.8410     1.6710     2.6590 H     1 <1>   0.0800 
 49 H        4.5660     2.7900     2.2530 H     1 <1>   0.0800 
 50 H        5.6110     5.3080     1.7370 H     1 <1>   0.1500 
 51 H        7.9230     6.1050     0.7700 H     1 <1>   0.1500 
 52 H        9.6620     3.1450    -0.8070 H     1 <1>   0.0800 
 53 H       10.3150     3.2030     0.8060 H     1 <1>   0.0800 
 54 H       10.5170     5.6660     0.6400 H     1 <1>   0.0800 
 55 H        9.8570     5.6130    -0.9730 H     1 <1>   0.0800 
 56 H       12.4550     4.3020    -0.1050 H     1 <1>   0.0800 
 57 H       12.3140     5.7680    -1.0420 H     1 <1>   0.0800 
 58 H       11.7930     4.2490    -1.7240 H     1 <1>   0.0800 
@<TRIPOS>BOND
  1   1   2  2   
  2   2   3  am  
  3   2   4  1   
  4   3   5  1   
  5   3   6  1   
  6   4   7  1   
  7   4   8  1   
  8   4   9  1   
  9   5  10  1   
 10   5  26  1   
 11   5  27  1   
 12   6  11  1   
 13   6  28  1   
 14   6  29  1   
 15   7  12  1   
 16   7  30  1   
 17   7  31  1   
 18   8  12  1   
 19   8  32  1   
 20   8  33  1   
 21   9  13  1   
 22   9  34  1   
 23   9  35  1   
 24  10  14  1   
 25  10  36  1   
 26  10  37  1   
 27  11  15  1   
 28  11  38  1   
 29  11  39  1   
 30  12  40  1   
 31  12  41  1   
 32  13  16  1   
 33  14  15  1   
 34  14  17  1   
 35  14  42  1   
 36  15  43  1   
 37  15  44  1   
 38  16  45  1   
 39  16  46  1   
 40  16  47  1   
 41  17  18  1   
 42  17  48  1   
 43  17  49  1   
 44  18  19  1   
 45  18  20  2   
 46  19  21  1   
 47  20  22  1   
 48  20  50  1   
 49  21  22  2   
 50  21  23  1   
 51  22  51  1   
 52  23  24  1   
 53  23  52  1   
 54  23  53  1   
 55  24  25  1   
 56  24  54  1   
 57  24  55  1   
 58  25  56  1   
 59  25  57  1   
 60  25  58  1   
@<TRIPOS>SUBSTRUCTURE
  1 ****  14 GROUP 4 **** **** 0

# MOE 2024.06 (io_trps.svl 2023.06)
