@<TRIPOS>MOLECULE
NONAME
47 49 1 0 0 
SMALL
USER_CHARGES


@<TRIPOS>ATOM
  1 S       -0.8410    -0.6050     0.7010 S.3   1 <1>  -0.0800 
  2 C       -1.4680    -2.1580     0.1730 C.2   1 <1>  -0.1400 
  3 C       -2.4140     0.1470     0.5150 C.2   1 <1>  -0.1100 
  4 C       -2.7820    -2.0600    -0.1170 C.2   1 <1>  -0.1500 
  5 C       -0.4600    -3.2890     0.1350 C.3   1 <1>   0.5230 
  6 C       -3.3190    -0.7480     0.0800 C.2   1 <1>  -0.1500 
  7 N       -1.1770    -4.5870     0.1170 N.4   1 <1>  -0.9590 
  8 C       -1.9340    -4.8690     1.3690 C.3   1 <1>   0.3430 
  9 C       -0.3620    -5.7450    -0.3000 C.3   1 <1>   0.3430 
 10 C       -3.2500    -5.5960     1.0280 C.3   1 <1>   0.1100 
 11 C       -1.1680    -6.5670    -1.3060 C.3   1 <1>  -0.1600 
 12 N       -3.4010    -5.9250    -0.4230 N.3   1 <1>  -0.8100 
 13 C       -2.5360    -7.0590    -0.8140 C.3   1 <1>   0.1100 
 14 C       -4.8420    -6.2200    -0.7180 C.3   1 <1>   0.1710 
 15 C       -5.4430    -7.4150     0.0390 C.2   1 <1>   0.5690 
 16 O       -5.8070    -7.2460     1.1810 O.2   1 <1>  -0.5700 
 17 N       -5.5100    -8.6140    -0.5980 N.am  1 <1>  -0.4930 
 18 C       -5.8960    -9.8590    -0.1230 C.2   1 <1>   0.3520 
 19 N       -5.7160   -10.8880    -0.8840 N.2   1 <1>  -0.7070 
 20 C       -6.4700   -10.1930     1.1000 C.2   1 <1>  -0.1500 
 21 N       -6.1790   -11.9290    -0.1600 N.pl3 1 <1>   0.3140 
 22 C       -6.6380   -11.5300     1.0420 C.2   1 <1>  -0.3020 
 23 C       -6.1520   -13.2990    -0.6850 C.3   1 <1>   0.0160 
 24 H       -2.4960     1.1940     0.7520 H     1 <1>   0.1500 
 25 H       -3.4240    -2.8490    -0.4710 H     1 <1>   0.1500 
 26 H        0.1790    -3.2350     1.0000 H     1 <1>   0.0800 
 27 H        0.1480    -3.1850    -0.7480 H     1 <1>   0.0800 
 28 H       -4.3570    -0.5370    -0.1150 H     1 <1>   0.1500 
 29 H       -1.9390    -4.5370    -0.5850 H     1 <1>   0.4500 
 30 H       -2.1780    -3.9490     1.8740 H     1 <1>   0.0800 
 31 H       -1.3450    -5.4680     2.0440 H     1 <1>   0.0800 
 32 H       -0.1030    -6.3500     0.5550 H     1 <1>   0.0800 
 33 H        0.5490    -5.4110    -0.7700 H     1 <1>   0.0800 
 34 H       -4.0580    -4.9490     1.3300 H     1 <1>   0.0800 
 35 H       -3.3320    -6.4870     1.6300 H     1 <1>   0.0800 
 36 H       -0.5830    -7.4290    -1.5740 H     1 <1>   0.0800 
 37 H       -1.3040    -5.9960    -2.2070 H     1 <1>   0.0800 
 38 H       -2.4230    -7.7520     0.0050 H     1 <1>   0.0800 
 39 H       -2.9910    -7.5990    -1.6290 H     1 <1>   0.0800 
 40 H       -4.9570    -6.3850    -1.7740 H     1 <1>   0.0800 
 41 H       -5.4310    -5.3530    -0.4750 H     1 <1>   0.0800 
 42 H       -5.2030    -8.6840    -1.5630 H     1 <1>   0.3700 
 43 H       -6.7140    -9.5090     1.8930 H     1 <1>   0.1500 
 44 H       -7.0490   -12.2020     1.7730 H     1 <1>   0.1500 
 45 H       -6.6790   -13.3230    -1.6200 H     1 <1>   0.0800 
 46 H       -6.6200   -13.9640     0.0150 H     1 <1>   0.0800 
 47 H       -5.1310   -13.5920    -0.8410 H     1 <1>   0.0800 
@<TRIPOS>BOND
  1   1   2  1   
  2   1   3  1   
  3   2   4  2   
  4   2   5  1   
  5   3   6  2   
  6   3  24  1   
  7   4   6  1   
  8   4  25  1   
  9   5   7  1   
 10   5  26  1   
 11   5  27  1   
 12   6  28  1   
 13   7   8  1   
 14   7   9  1   
 15   7  29  1   
 16   8  10  1   
 17   8  30  1   
 18   8  31  1   
 19   9  11  1   
 20   9  32  1   
 21   9  33  1   
 22  10  12  1   
 23  10  34  1   
 24  10  35  1   
 25  11  13  1   
 26  11  36  1   
 27  11  37  1   
 28  12  13  1   
 29  12  14  1   
 30  13  38  1   
 31  13  39  1   
 32  14  15  1   
 33  14  40  1   
 34  14  41  1   
 35  15  16  2   
 36  15  17  am  
 37  17  18  1   
 38  17  42  1   
 39  18  19  2   
 40  18  20  1   
 41  19  21  1   
 42  20  22  2   
 43  20  43  1   
 44  21  22  1   
 45  21  23  1   
 46  22  44  1   
 47  23  45  1   
 48  23  46  1   
 49  23  47  1   
@<TRIPOS>SUBSTRUCTURE
  1 ****  12 GROUP 4 **** **** 0

# MOE 2024.06 (io_trps.svl 2023.06)
