@<TRIPOS>MOLECULE
NONAME
57 60 1 0 0 
SMALL
USER_CHARGES


@<TRIPOS>ATOM
  1 O        0.4670    -1.4880    -1.9620 O.3   1 <1>  -0.6800 
  2 C        0.0820    -1.9610    -0.7190 C.3   1 <1>   0.1200 
  3 C        1.2360    -1.9090     0.3270 C.3   1 <1>   0.0000 
  4 C        2.6020    -2.4710    -0.1770 C.3   1 <1>   0.4230 
  5 C        1.4290    -0.4410     0.8070 C.3   1 <1>  -0.1600 
  6 C        0.7960    -2.7660     1.5500 C.3   1 <1>  -0.1600 
  7 N        2.5310    -3.9180    -0.6530 N.4   1 <1>  -0.9590 
  8 C        3.3720    -1.5100    -1.1170 C.3   1 <1>   0.2090 
  9 C        2.1750     0.4630    -0.1830 C.3   1 <1>   0.2090 
 10 C        1.3350    -4.2140     1.5250 C.3   1 <1>  -0.1600 
 11 C        1.5460    -4.7530     0.1090 C.3   1 <1>   0.3430 
 12 C        2.2820    -4.0600    -2.1250 C.3   1 <1>   0.2630 
 13 N        3.4930    -0.1600    -0.4870 N.pl3 1 <1>  -0.8380 
 14 C        4.6860     0.3620    -0.0820 C.ar  1 <1>   0.4100 
 15 N        5.6000    -0.5060     0.3500 N.ar  1 <1>  -0.6200 
 16 C        4.9310     1.7280    -0.1150 C.ar  1 <1>  -0.1500 
 17 C        6.7370    -0.0080     0.7540 C.ar  1 <1>   0.7710 
 18 C        6.1370     2.2230     0.3190 C.ar  1 <1>   0.4610 
 19 N        7.0180     1.3090     0.7510 N.ar  1 <1>  -0.1790 
 20 N        7.6570    -0.8750     1.1890 N.pl3 1 <1>  -0.9000 
 21 N        6.4920     3.5450     0.3280 N.pl3 1 <1>  -0.8380 
 22 C        5.6520     4.6140    -0.2850 C.3   1 <1>   0.2090 
 23 C        7.6910     4.1570     0.9740 C.3   1 <1>   0.2090 
 24 C        6.4980     5.8780    -0.2140 C.3   1 <1>  -0.1600 
 25 C        7.4180     5.6540     0.9780 C.3   1 <1>  -0.1600 
 26 H       -0.3180    -1.2680    -2.5090 H     1 <1>   0.4000 
 27 H       -0.7470    -1.3600    -0.3810 H     1 <1>   0.0800 
 28 H       -0.2760    -2.9640    -0.8580 H     1 <1>   0.0800 
 29 H        3.2150    -2.4900     0.7090 H     1 <1>   0.0800 
 30 H        1.9990    -0.4250     1.7190 H     1 <1>   0.0800 
 31 H        0.4740     0.0030     1.0300 H     1 <1>   0.0800 
 32 H        1.1360    -2.3220     2.4710 H     1 <1>   0.0800 
 33 H       -0.2800    -2.7870     1.6140 H     1 <1>   0.0800 
 34 H        3.4620    -4.3110    -0.4610 H     1 <1>   0.4500 
 35 H        2.8710    -1.3980    -2.0600 H     1 <1>   0.0800 
 36 H        4.3500    -1.9110    -1.3130 H     1 <1>   0.0800 
 37 H        2.3050     1.4340     0.2620 H     1 <1>   0.0800 
 38 H        1.6130     0.5890    -1.0930 H     1 <1>   0.0800 
 39 H        0.6460    -4.8550     2.0490 H     1 <1>   0.0800 
 40 H        2.2710    -4.2640     2.0560 H     1 <1>   0.0800 
 41 H        0.5970    -4.7490    -0.4020 H     1 <1>   0.0800 
 42 H        1.8910    -5.7740     0.1540 H     1 <1>   0.0800 
 43 H        1.3230    -3.6450    -2.3870 H     1 <1>   0.0800 
 44 H        2.2930    -5.1000    -2.4080 H     1 <1>   0.0800 
 45 H        3.0420    -3.5460    -2.6910 H     1 <1>   0.0800 
 46 H        4.1760     2.3870    -0.4920 H     1 <1>   0.1500 
 47 H        7.9260     1.6200     1.0510 H     1 <1>   0.4570 
 48 H        8.5940    -0.6770     1.5430 H     1 <1>   0.4000 
 49 H        7.4210    -1.8710     1.1840 H     1 <1>   0.4000 
 50 H        5.3970     4.3780    -1.3050 H     1 <1>   0.0800 
 51 H        4.7530     4.7420     0.2960 H     1 <1>   0.0800 
 52 H        7.8320     3.7950     1.9790 H     1 <1>   0.0800 
 53 H        8.5650     3.9530     0.3770 H     1 <1>   0.0800 
 54 H        7.0780     5.9650    -1.1160 H     1 <1>   0.0800 
 55 H        5.8910     6.7590    -0.1040 H     1 <1>   0.0800 
 56 H        6.9080     5.9180     1.8890 H     1 <1>   0.0800 
 57 H        8.3250     6.2290     0.9080 H     1 <1>   0.0800 
@<TRIPOS>BOND
  1   1   2  1   
  2   1  26  1   
  3   2   3  1   
  4   2  27  1   
  5   2  28  1   
  6   3   4  1   
  7   3   5  1   
  8   3   6  1   
  9   4   7  1   
 10   4   8  1   
 11   4  29  1   
 12   5   9  1   
 13   5  30  1   
 14   5  31  1   
 15   6  10  1   
 16   6  32  1   
 17   6  33  1   
 18   7  11  1   
 19   7  12  1   
 20   7  34  1   
 21   8  13  1   
 22   8  35  1   
 23   8  36  1   
 24   9  13  1   
 25   9  37  1   
 26   9  38  1   
 27  10  11  1   
 28  10  39  1   
 29  10  40  1   
 30  11  41  1   
 31  11  42  1   
 32  12  43  1   
 33  12  44  1   
 34  12  45  1   
 35  13  14  1   
 36  14  15  ar  
 37  14  16  ar  
 38  15  17  ar  
 39  16  18  ar  
 40  16  46  1   
 41  17  19  ar  
 42  17  20  1   
 43  18  19  ar  
 44  18  21  1   
 45  19  47  1   
 46  20  48  1   
 47  20  49  1   
 48  21  22  1   
 49  21  23  1   
 50  22  24  1   
 51  22  50  1   
 52  22  51  1   
 53  23  25  1   
 54  23  52  1   
 55  23  53  1   
 56  24  25  1   
 57  24  54  1   
 58  24  55  1   
 59  25  56  1   
 60  25  57  1   
@<TRIPOS>SUBSTRUCTURE
  1 ****  13 GROUP 4 **** **** 0

# MOE 2024.06 (io_trps.svl 2023.06)
