@<TRIPOS>MOLECULE
NONAME
47 49 1 0 0 
SMALL
USER_CHARGES


@<TRIPOS>ATOM
  1 O       -0.9120     0.2670    -1.4460 O.2   1 <1>  -0.5700 
  2 C       -1.2150     0.9270    -0.4660 C.2   1 <1>   0.7150 
  3 N       -2.3660     0.5920     0.2270 N.am  1 <1>  -0.6600 
  4 C       -0.3870     2.0430    -0.0630 C.2   1 <1>   0.0550 
  5 C       -3.1440    -0.6310    -0.1330 C.3   1 <1>   0.1400 
  6 C       -3.0810     1.5670     1.0940 C.3   1 <1>   0.1400 
  7 O       -0.0850     3.0140    -0.9200 O.3   1 <1>  -0.2800 
  8 C        0.1980     2.3330     1.1330 C.2   1 <1>  -0.1500 
  9 C       -4.3880    -0.2890    -0.9640 C.3   1 <1>   0.1400 
 10 C       -3.9960     2.4380     0.2260 C.3   1 <1>  -0.1600 
 11 C        0.6640     3.9070    -0.3140 C.2   1 <1>  -0.0400 
 12 C        0.8770     3.5400     0.9690 C.2   1 <1>  -0.1500 
 13 N       -5.4450     0.3690    -0.1320 N.am  1 <1>  -0.6600 
 14 C       -5.3980     1.8580    -0.0100 C.3   1 <1>   0.1400 
 15 C        1.1360     5.1130    -1.1080 C.3   1 <1>   0.3000 
 16 C       -6.5650    -0.3220     0.2880 C.2   1 <1>   0.7160 
 17 O        1.6000     6.0870    -0.2380 O.3   1 <1>  -0.6800 
 18 O       -7.5460     0.3000     0.6510 O.2   1 <1>  -0.5700 
 19 C       -6.6040    -1.7640     0.2820 C.2   1 <1>  -0.0860 
 20 C       -7.3880    -2.6000    -0.4520 C.2   1 <1>  -0.0400 
 21 C       -5.8100    -2.6320     1.0600 C.2   1 <1>  -0.1500 
 22 O       -7.1120    -3.8540    -0.1950 O.3   1 <1>  -0.2800 
 23 C       -8.4700    -2.2900    -1.4650 C.3   1 <1>  -0.0600 
 24 C       -6.1660    -3.8860     0.7170 C.2   1 <1>  -0.0400 
 25 C       -5.6760    -5.2310     1.2050 C.3   1 <1>  -0.0600 
 26 H       -3.4320    -1.1470     0.7640 H     1 <1>   0.0800 
 27 H       -2.5260    -1.3040    -0.7010 H     1 <1>   0.0800 
 28 H       -2.3730     2.1960     1.6020 H     1 <1>   0.0800 
 29 H       -3.6510     1.0490     1.8460 H     1 <1>   0.0800 
 30 H        0.1630     1.7540     2.0390 H     1 <1>   0.1500 
 31 H       -4.7750    -1.1970    -1.3920 H     1 <1>   0.0800 
 32 H       -4.1080     0.3510    -1.7830 H     1 <1>   0.0800 
 33 H       -3.5230     2.6440    -0.7180 H     1 <1>   0.0800 
 34 H       -4.1240     3.3870     0.7150 H     1 <1>   0.0800 
 35 H        1.4540     4.0480     1.7230 H     1 <1>   0.1500 
 36 H       -5.8240     2.2950    -0.8970 H     1 <1>   0.0800 
 37 H       -6.0190     2.1530     0.8200 H     1 <1>   0.0800 
 38 H        0.3210     5.5300    -1.6740 H     1 <1>   0.0800 
 39 H        1.9340     4.8410    -1.7770 H     1 <1>   0.0800 
 40 H        0.9160     6.2660     0.4330 H     1 <1>   0.4000 
 41 H       -5.0830    -2.3180     1.7850 H     1 <1>   0.1500 
 42 H       -8.5990    -1.2280    -1.5670 H     1 <1>   0.0800 
 43 H       -9.3990    -2.7220    -1.1400 H     1 <1>   0.0800 
 44 H       -8.2050    -2.7070    -2.4190 H     1 <1>   0.0800 
 45 H       -4.9120    -5.1030     1.9490 H     1 <1>   0.0800 
 46 H       -5.2740    -5.7910     0.3800 H     1 <1>   0.0800 
 47 H       -6.4950    -5.7800     1.6330 H     1 <1>   0.0800 
@<TRIPOS>BOND
  1   1   2  2   
  2   2   3  am  
  3   2   4  1   
  4   3   5  1   
  5   3   6  1   
  6   4   7  1   
  7   4   8  2   
  8   5   9  1   
  9   5  26  1   
 10   5  27  1   
 11   6  10  1   
 12   6  28  1   
 13   6  29  1   
 14   7  11  1   
 15   8  12  1   
 16   8  30  1   
 17   9  13  1   
 18   9  31  1   
 19   9  32  1   
 20  10  14  1   
 21  10  33  1   
 22  10  34  1   
 23  11  12  2   
 24  11  15  1   
 25  12  35  1   
 26  13  14  1   
 27  13  16  am  
 28  14  36  1   
 29  14  37  1   
 30  15  17  1   
 31  15  38  1   
 32  15  39  1   
 33  16  18  2   
 34  16  19  1   
 35  17  40  1   
 36  19  20  2   
 37  19  21  1   
 38  20  22  1   
 39  20  23  1   
 40  21  24  2   
 41  21  41  1   
 42  22  24  1   
 43  23  42  1   
 44  23  43  1   
 45  23  44  1   
 46  24  25  1   
 47  25  45  1   
 48  25  46  1   
 49  25  47  1   
@<TRIPOS>SUBSTRUCTURE
  1 ****   5 GROUP 4 **** **** 0

# MOE 2024.06 (io_trps.svl 2023.06)
