@<TRIPOS>MOLECULE
NONAME
45 47 1 0 0 
SMALL
USER_CHARGES


@<TRIPOS>ATOM
  1 O       -0.8370    -0.0700    -0.0710 O.2   1 <1>  -0.5700 
  2 C       -1.8750     0.5570    -0.1600 C.2   1 <1>   0.5440 
  3 N       -1.8950     1.8660     0.2760 N.am  1 <1>  -0.6600 
  4 C       -3.0410    -0.0940    -0.7050 C.ar  1 <1>   0.0860 
  5 C       -0.6380     2.5970     0.6160 C.3   1 <1>   0.1400 
  6 C       -3.1250     2.6210     0.6590 C.3   1 <1>   0.1400 
  7 C       -3.4410    -1.3390    -0.2260 C.ar  1 <1>   0.1600 
  8 C       -3.8090     0.4610    -1.7240 C.ar  1 <1>  -0.1500 
  9 C       -0.7030     4.0490     0.1120 C.3   1 <1>   0.1200 
 10 C       -3.0530     4.0670     0.1400 C.3   1 <1>   0.1200 
 11 N       -4.4960    -2.0250    -0.6300 N.ar  1 <1>  -0.6200 
 12 C       -4.9060    -0.2420    -2.1620 C.ar  1 <1>  -0.1500 
 13 O       -1.8690     4.6830     0.5620 O.3   1 <1>  -0.5600 
 14 C       -5.2210    -1.4740    -1.5950 C.ar  1 <1>   0.4100 
 15 N       -6.3210    -2.1590    -2.0360 N.pl3 1 <1>  -0.8690 
 16 C       -6.6100    -3.5850    -1.6890 C.3   1 <1>   0.2090 
 17 C       -7.2630    -3.7370    -0.3040 C.3   1 <1>   0.2000 
 18 O       -7.6020    -5.0870    -0.1360 O.3   1 <1>  -0.5600 
 19 C       -8.5360    -2.8870    -0.1310 C.3   1 <1>  -0.1600 
 20 C       -8.0670    -5.4170     1.1370 C.3   1 <1>   0.1200 
 21 C       -9.2080    -3.1670     1.2190 C.3   1 <1>  -0.1600 
 22 C       -9.3830    -4.6780     1.4050 C.3   1 <1>  -0.1600 
 23 H        0.2130     2.1090     0.1730 H     1 <1>   0.0800 
 24 H       -0.5030     2.5950     1.6830 H     1 <1>   0.0800 
 25 H       -3.2010     2.6420     1.7330 H     1 <1>   0.0800 
 26 H       -4.0100     2.1450     0.2790 H     1 <1>   0.0800 
 27 H       -2.8380    -1.7880     0.5450 H     1 <1>   0.1500 
 28 H       -3.5390     1.4100    -2.1520 H     1 <1>   0.1500 
 29 H       -0.6890     4.0750    -0.9640 H     1 <1>   0.0800 
 30 H        0.1380     4.6080     0.4820 H     1 <1>   0.0800 
 31 H       -3.8760     4.6420     0.5260 H     1 <1>   0.0800 
 32 H       -3.0890     4.0880    -0.9350 H     1 <1>   0.0800 
 33 H       -5.5300     0.1470    -2.9430 H     1 <1>   0.1500 
 34 H       -6.7880    -1.8230    -2.8790 H     1 <1>   0.4000 
 35 H       -5.6920    -4.1460    -1.7020 H     1 <1>   0.0800 
 36 H       -7.2700    -3.9970    -2.4310 H     1 <1>   0.0800 
 37 H       -6.5370    -3.4800     0.4480 H     1 <1>   0.0800 
 38 H       -9.2170    -3.1100    -0.9330 H     1 <1>   0.0800 
 39 H       -8.2820    -1.8440    -0.1930 H     1 <1>   0.0800 
 40 H       -7.3130    -5.1500     1.8590 H     1 <1>   0.0800 
 41 H       -8.2180    -6.4820     1.1650 H     1 <1>   0.0800 
 42 H      -10.1620    -2.6720     1.2700 H     1 <1>   0.0800 
 43 H       -8.5850    -2.7820     2.0080 H     1 <1>   0.0800 
 44 H       -9.7180    -4.8880     2.4050 H     1 <1>   0.0800 
 45 H      -10.1290    -5.0470     0.7220 H     1 <1>   0.0800 
@<TRIPOS>BOND
  1   1   2  2   
  2   2   3  am  
  3   2   4  1   
  4   3   5  1   
  5   3   6  1   
  6   4   7  ar  
  7   4   8  ar  
  8   5   9  1   
  9   5  23  1   
 10   5  24  1   
 11   6  10  1   
 12   6  25  1   
 13   6  26  1   
 14   7  11  ar  
 15   7  27  1   
 16   8  12  ar  
 17   8  28  1   
 18   9  13  1   
 19   9  29  1   
 20   9  30  1   
 21  10  13  1   
 22  10  31  1   
 23  10  32  1   
 24  11  14  ar  
 25  12  14  ar  
 26  12  33  1   
 27  14  15  1   
 28  15  16  1   
 29  15  34  1   
 30  16  17  1   
 31  16  35  1   
 32  16  36  1   
 33  17  18  1   
 34  17  19  1   
 35  17  37  1   
 36  18  20  1   
 37  19  21  1   
 38  19  38  1   
 39  19  39  1   
 40  20  22  1   
 41  20  40  1   
 42  20  41  1   
 43  21  22  1   
 44  21  42  1   
 45  21  43  1   
 46  22  44  1   
 47  22  45  1   
@<TRIPOS>SUBSTRUCTURE
  1 ****   7 GROUP 4 **** **** 0

# MOE 2024.06 (io_trps.svl 2023.06)
