@<TRIPOS>MOLECULE
NONAME
55 57 1 0 0 
SMALL
USER_CHARGES


@<TRIPOS>ATOM
  1 CL       0.8850    -4.3250     0.5320 Cl    1 <1>  -0.1770 
  2 C       -0.7670    -3.9070     0.9080 C.ar  1 <1>   0.1770 
  3 C       -1.7740    -4.2820     0.0390 C.ar  1 <1>  -0.1500 
  4 C       -1.0440    -3.2110     2.0700 C.ar  1 <1>  -0.1500 
  5 C       -3.0910    -3.9640     0.3350 C.ar  1 <1>  -0.1440 
  6 C       -2.3580    -2.8880     2.3640 C.ar  1 <1>  -0.1500 
  7 C       -3.3750    -3.2650     1.5000 C.ar  1 <1>  -0.1500 
  8 C       -4.2060    -4.4000    -0.6040 C.3   1 <1>  -0.0160 
  9 C       -4.4300    -5.9130    -0.4650 C.3   1 <1>  -0.0990 
 10 C       -5.4980    -6.4920    -1.3860 C.2   1 <1>   0.5690 
 11 O       -5.9410    -5.7720    -2.2510 O.2   1 <1>  -0.5700 
 12 N       -5.9460    -7.7850    -1.2500 N.am  1 <1>  -0.6600 
 13 C       -5.5210    -8.7160    -0.1330 C.3   1 <1>   0.3640 
 14 C       -7.0580    -8.2360    -2.1420 C.3   1 <1>   0.1400 
 15 C       -3.9990    -8.8880    -0.1680 C.ar  1 <1>  -0.1430 
 16 C       -6.1770   -10.1350    -0.1230 C.3   1 <1>   0.2000 
 17 C       -7.2050    -9.7550    -2.1910 C.3   1 <1>   0.1200 
 18 C       -3.2540    -8.6970     0.9880 C.ar  1 <1>  -0.1500 
 19 C       -3.3390    -9.2050    -1.3490 C.ar  1 <1>  -0.1500 
 20 O       -7.3420   -10.2310    -0.8950 O.3   1 <1>  -0.5600 
 21 C       -6.5680   -10.5930     1.2910 C.3   1 <1>   0.1200 
 22 C       -1.8740    -8.7990     0.9710 C.ar  1 <1>   0.0830 
 23 C       -1.9580    -9.2970    -1.3790 C.ar  1 <1>  -0.1500 
 24 O       -5.4820   -10.5570     2.1590 O.3   1 <1>  -0.6800 
 25 O       -1.2250    -8.6200     2.1480 O.3   1 <1>  -0.3630 
 26 C       -1.2160    -9.0720    -0.2330 C.ar  1 <1>   0.0830 
 27 C       -0.5020    -9.7230     2.6480 C.3   1 <1>   0.0400 
 28 O        0.1340    -9.1110    -0.3420 O.3   1 <1>  -0.3630 
 29 C        0.8080    -7.8860    -0.1410 C.3   1 <1>   0.0400 
 30 H       -1.5230    -4.8220    -0.8560 H     1 <1>   0.1500 
 31 H       -0.2440    -2.9300     2.7290 H     1 <1>   0.1500 
 32 H       -2.5910    -2.3470     3.2650 H     1 <1>   0.1500 
 33 H       -4.3930    -3.0120     1.7420 H     1 <1>   0.1500 
 34 H       -5.1180    -3.8760    -0.3770 H     1 <1>   0.0800 
 35 H       -3.9340    -4.1630    -1.6180 H     1 <1>   0.0800 
 36 H       -4.6890    -6.1250     0.5550 H     1 <1>   0.0800 
 37 H       -3.5010    -6.3980    -0.6910 H     1 <1>   0.0800 
 38 H       -5.7850    -8.2340     0.7920 H     1 <1>   0.0800 
 39 H       -7.9810    -7.8060    -1.7910 H     1 <1>   0.0800 
 40 H       -6.8880    -7.8720    -3.1410 H     1 <1>   0.0800 
 41 H       -5.4840   -10.8500    -0.5300 H     1 <1>   0.0800 
 42 H       -6.3520   -10.2170    -2.6580 H     1 <1>   0.0800 
 43 H       -8.0910   -10.0230    -2.7380 H     1 <1>   0.0800 
 44 H       -3.7360    -8.4620     1.9220 H     1 <1>   0.1500 
 45 H       -3.8970    -9.3620    -2.2560 H     1 <1>   0.1500 
 46 H       -6.9450   -11.6010     1.2670 H     1 <1>   0.0800 
 47 H       -7.3250    -9.9400     1.6910 H     1 <1>   0.0800 
 48 H       -1.4470    -9.5300    -2.2960 H     1 <1>   0.1500 
 49 H       -4.8020   -11.2120     1.9000 H     1 <1>   0.4000 
 50 H       -0.1550    -9.4760     3.6350 H     1 <1>   0.0800 
 51 H        0.3370    -9.9220     2.0060 H     1 <1>   0.0800 
 52 H       -1.1540   -10.5770     2.6880 H     1 <1>   0.0800 
 53 H        1.8530    -8.0400    -0.3370 H     1 <1>   0.0800 
 54 H        0.6700    -7.5620     0.8750 H     1 <1>   0.0800 
 55 H        0.4090    -7.1540    -0.8210 H     1 <1>   0.0800 
@<TRIPOS>BOND
  1   1   2  1   
  2   2   3  ar  
  3   2   4  ar  
  4   3   5  ar  
  5   3  30  1   
  6   4   6  ar  
  7   4  31  1   
  8   5   7  ar  
  9   5   8  1   
 10   6   7  ar  
 11   6  32  1   
 12   7  33  1   
 13   8   9  1   
 14   8  34  1   
 15   8  35  1   
 16   9  10  1   
 17   9  36  1   
 18   9  37  1   
 19  10  11  2   
 20  10  12  am  
 21  12  13  1   
 22  12  14  1   
 23  13  15  1   
 24  13  16  1   
 25  13  38  1   
 26  14  17  1   
 27  14  39  1   
 28  14  40  1   
 29  15  18  ar  
 30  15  19  ar  
 31  16  20  1   
 32  16  21  1   
 33  16  41  1   
 34  17  20  1   
 35  17  42  1   
 36  17  43  1   
 37  18  22  ar  
 38  18  44  1   
 39  19  23  ar  
 40  19  45  1   
 41  21  24  1   
 42  21  46  1   
 43  21  47  1   
 44  22  25  1   
 45  22  26  ar  
 46  23  26  ar  
 47  23  48  1   
 48  24  49  1   
 49  25  27  1   
 50  26  28  1   
 51  27  50  1   
 52  27  51  1   
 53  27  52  1   
 54  28  29  1   
 55  29  53  1   
 56  29  54  1   
 57  29  55  1   
@<TRIPOS>SUBSTRUCTURE
  1 ****  18 GROUP 4 **** **** 0

# MOE 2024.06 (io_trps.svl 2023.06)
