@<TRIPOS>MOLECULE
NONAME
45 48 1 0 0 
SMALL
USER_CHARGES


@<TRIPOS>ATOM
  1 S       -0.3860     0.5520     1.3790 S.3   1 <1>  -0.0800 
  2 C       -0.3550     2.0540     0.4800 C.2   1 <1>  -0.1400 
  3 C        1.3530     0.6360     1.6150 C.2   1 <1>  -0.1100 
  4 C        0.8840     2.5490     0.3740 C.2   1 <1>  -0.1810 
  5 C       -1.5960     2.6860    -0.0870 C.3   1 <1>   0.0200 
  6 C        1.8680     1.7360     1.0320 C.2   1 <1>  -0.1500 
  7 C        1.1560     3.8470    -0.3930 C.3   1 <1>   0.4610 
  8 C       -1.2630     4.1600    -0.3660 C.3   1 <1>   0.1200 
  9 O       -0.0280     4.2900    -1.0340 O.3   1 <1>  -0.5600 
 10 C        1.6270     4.9550     0.5650 C.3   1 <1>  -0.1600 
 11 C        2.1580     3.5970    -1.5370 C.3   1 <1>  -0.1600 
 12 C        2.3300     6.0710    -0.2010 C.3   1 <1>   0.1400 
 13 C        3.5710     4.0890    -1.2180 C.3   1 <1>   0.1400 
 14 N        3.5610     5.5380    -0.8570 N.am  1 <1>  -0.6600 
 15 C        4.7140     6.2850    -0.9840 C.2   1 <1>   0.5440 
 16 O        5.7640     5.7100    -1.1980 O.2   1 <1>  -0.5700 
 17 C        4.7070     7.7310    -0.8570 C.ar  1 <1>   0.0860 
 18 C        5.5850     8.3750     0.0110 C.ar  1 <1>  -0.1500 
 19 C        3.8320     8.5260    -1.5960 C.ar  1 <1>  -0.1500 
 20 C        5.5850     9.7510     0.1600 C.ar  1 <1>   0.0830 
 21 C        3.8240     9.9030    -1.4640 C.ar  1 <1>  -0.1500 
 22 O        6.4710    10.2650     1.0480 O.3   1 <1>  -0.3630 
 23 C        4.6980    10.5220    -0.5880 C.ar  1 <1>  -0.1500 
 24 C        6.3870    11.6080     1.4620 C.3   1 <1>   0.8800 
 25 F        6.9340    12.3780     0.5300 F     1 <1>  -0.3400 
 26 F        7.1430    11.7520     2.5410 F     1 <1>  -0.3400 
 27 H        1.8120    -0.1600     2.1750 H     1 <1>   0.1500 
 28 H       -2.4070     2.6220     0.6160 H     1 <1>   0.0800 
 29 H       -1.8810     2.1880    -0.9950 H     1 <1>   0.0800 
 30 H        2.9080     2.0100     1.0390 H     1 <1>   0.1500 
 31 H       -1.2150     4.7100     0.5560 H     1 <1>   0.0800 
 32 H       -2.0210     4.6000    -0.9890 H     1 <1>   0.0800 
 33 H        2.3200     4.5490     1.2780 H     1 <1>   0.0800 
 34 H        0.8000     5.3490     1.1220 H     1 <1>   0.0800 
 35 H        1.8330     4.1090    -2.4250 H     1 <1>   0.0800 
 36 H        2.1930     2.5480    -1.7670 H     1 <1>   0.0800 
 37 H        2.5900     6.8620     0.4810 H     1 <1>   0.0800 
 38 H        1.6680     6.4680    -0.9530 H     1 <1>   0.0800 
 39 H        4.2050     3.9370    -2.0760 H     1 <1>   0.0800 
 40 H        3.9860     3.5290    -0.3980 H     1 <1>   0.0800 
 41 H        6.2830     7.7840     0.5780 H     1 <1>   0.1500 
 42 H        3.1560     8.0520    -2.2870 H     1 <1>   0.1500 
 43 H        3.1410    10.4940    -2.0500 H     1 <1>   0.1500 
 44 H        4.6760    11.5940    -0.5210 H     1 <1>   0.1500 
 45 H        5.3820    11.9260     1.6730 H     1 <1>   0.0800 
@<TRIPOS>BOND
  1   1   2  1   
  2   1   3  1   
  3   2   4  2   
  4   2   5  1   
  5   3   6  2   
  6   3  27  1   
  7   4   6  1   
  8   4   7  1   
  9   5   8  1   
 10   5  28  1   
 11   5  29  1   
 12   6  30  1   
 13   7   9  1   
 14   7  10  1   
 15   7  11  1   
 16   8   9  1   
 17   8  31  1   
 18   8  32  1   
 19  10  12  1   
 20  10  33  1   
 21  10  34  1   
 22  11  13  1   
 23  11  35  1   
 24  11  36  1   
 25  12  14  1   
 26  12  37  1   
 27  12  38  1   
 28  13  14  1   
 29  13  39  1   
 30  13  40  1   
 31  14  15  am  
 32  15  16  2   
 33  15  17  1   
 34  17  18  ar  
 35  17  19  ar  
 36  18  20  ar  
 37  18  41  1   
 38  19  21  ar  
 39  19  42  1   
 40  20  22  1   
 41  20  23  ar  
 42  21  23  ar  
 43  21  43  1   
 44  22  24  1   
 45  23  44  1   
 46  24  25  1   
 47  24  26  1   
 48  24  45  1   
@<TRIPOS>SUBSTRUCTURE
  1 ****  12 GROUP 4 **** **** 0

# MOE 2024.06 (io_trps.svl 2023.06)
