@<TRIPOS>MOLECULE
NONAME
47 49 1 0 0 
SMALL
USER_CHARGES


@<TRIPOS>ATOM
  1 O       -0.4320     0.2780     0.1000 O.2   1 <1>  -0.5700 
  2 C       -1.4810     0.8750     0.2520 C.2   1 <1>   0.5440 
  3 N       -2.6470     0.1450     0.3110 N.am  1 <1>  -0.6600 
  4 C       -1.4740     2.3160     0.3420 C.ar  1 <1>   0.0860 
  5 C       -3.9910     0.6680    -0.0480 C.3   1 <1>   0.1400 
  6 C       -2.6430    -1.3400     0.2620 C.3   1 <1>   0.1400 
  7 C       -0.6490     3.0650    -0.4920 C.ar  1 <1>   0.1600 
  8 C       -2.2580     3.0270     1.2460 C.ar  1 <1>  -0.1500 
  9 C       -4.7490    -0.5420    -0.5910 C.3   1 <1>   0.2000 
 10 C       -4.1050    -1.7490     0.0840 C.3   1 <1>  -0.0800 
 11 N       -0.5670     4.3840    -0.5280 N.ar  1 <1>  -0.6200 
 12 C       -2.1820     4.3980     1.2280 C.ar  1 <1>  -0.1500 
 13 O       -6.0990    -0.4810    -0.2820 O.3   1 <1>  -0.6800 
 14 C       -4.2860    -3.0560    -0.7010 C.3   1 <1>   0.0210 
 15 C       -1.3390     5.0490     0.3280 C.ar  1 <1>   0.4100 
 16 C       -3.5160    -4.1890    -0.0510 C.2   1 <1>   0.1080 
 17 N       -1.2770     6.4270     0.3000 N.pl3 1 <1>  -0.8380 
 18 N       -3.7150    -4.5620     1.1740 N.2   1 <1>  -0.7070 
 19 C       -2.5190    -4.9330    -0.6730 C.2   1 <1>  -0.1500 
 20 C       -2.5160     7.2460     0.2390 C.3   1 <1>   0.1290 
 21 C       -0.0470     7.1100    -0.1890 C.3   1 <1>   0.1290 
 22 N       -2.8410    -5.5680     1.3690 N.pl3 1 <1>   0.3000 
 23 C       -2.1040    -5.8100     0.2650 C.2   1 <1>  -0.3320 
 24 C       -1.0320    -6.8800     0.1730 C.3   1 <1>  -0.0600 
 25 H       -4.4710     1.0470     0.8370 H     1 <1>   0.0800 
 26 H       -3.9170     1.4390    -0.7950 H     1 <1>   0.0800 
 27 H       -2.0470    -1.6640    -0.5760 H     1 <1>   0.0800 
 28 H       -2.2280    -1.7510     1.1670 H     1 <1>   0.0800 
 29 H       -0.0170     2.5250    -1.1760 H     1 <1>   0.1500 
 30 H       -2.8930     2.5100     1.9420 H     1 <1>   0.1500 
 31 H       -4.6450    -0.5850    -1.6620 H     1 <1>   0.0800 
 32 H       -4.5160    -1.8740     1.0710 H     1 <1>   0.0800 
 33 H       -2.7580     4.9890     1.9130 H     1 <1>   0.1500 
 34 H       -6.2340    -0.6270     0.6740 H     1 <1>   0.4000 
 35 H       -3.9460    -2.9300    -1.7130 H     1 <1>   0.0800 
 36 H       -5.3280    -3.3180    -0.7280 H     1 <1>   0.0800 
 37 H       -2.1720    -4.8140    -1.6830 H     1 <1>   0.1500 
 38 H       -2.5440     7.9220     1.0760 H     1 <1>   0.0800 
 39 H       -3.3880     6.6160     0.2650 H     1 <1>   0.0800 
 40 H       -2.5350     7.8130    -0.6750 H     1 <1>   0.0800 
 41 H        0.0440     8.0790     0.2680 H     1 <1>   0.0800 
 42 H       -0.0930     7.2190    -1.2590 H     1 <1>   0.0800 
 43 H        0.8220     6.5270     0.0630 H     1 <1>   0.0800 
 44 H       -2.7730    -6.0670     2.2640 H     1 <1>   0.2700 
 45 H       -0.5880    -6.8750    -0.8070 H     1 <1>   0.0800 
 46 H       -1.4580    -7.8510     0.3510 H     1 <1>   0.0800 
 47 H       -0.2590    -6.6960     0.8990 H     1 <1>   0.0800 
@<TRIPOS>BOND
  1   1   2  2   
  2   2   3  am  
  3   2   4  1   
  4   3   5  1   
  5   3   6  1   
  6   4   7  ar  
  7   4   8  ar  
  8   5   9  1   
  9   5  25  1   
 10   5  26  1   
 11   6  10  1   
 12   6  27  1   
 13   6  28  1   
 14   7  11  ar  
 15   7  29  1   
 16   8  12  ar  
 17   8  30  1   
 18   9  10  1   
 19   9  13  1   
 20   9  31  1   
 21  10  14  1   
 22  10  32  1   
 23  11  15  ar  
 24  12  15  ar  
 25  12  33  1   
 26  13  34  1   
 27  14  16  1   
 28  14  35  1   
 29  14  36  1   
 30  15  17  1   
 31  16  18  2   
 32  16  19  1   
 33  17  20  1   
 34  17  21  1   
 35  18  22  1   
 36  19  23  2   
 37  19  37  1   
 38  20  38  1   
 39  20  39  1   
 40  20  40  1   
 41  21  41  1   
 42  21  42  1   
 43  21  43  1   
 44  22  23  1   
 45  22  44  1   
 46  23  24  1   
 47  24  45  1   
 48  24  46  1   
 49  24  47  1   
@<TRIPOS>SUBSTRUCTURE
  1 ****   3 GROUP 4 **** **** 0

# MOE 2024.06 (io_trps.svl 2023.06)
