@<TRIPOS>MOLECULE
NONAME
47 49 1 0 0 
SMALL
USER_CHARGES


@<TRIPOS>ATOM
  1 O       -0.1690     0.8550     0.9280 O.2   1 <1>  -0.5700 
  2 C       -0.1430     2.0550     0.8300 C.2   1 <1>   0.5690 
  3 N       -1.2650     2.7840     1.0200 N.am  1 <1>  -0.7300 
  4 C        1.1590     2.7680     0.4540 C.3   1 <1>   0.1810 
  5 C       -1.2980     4.2670     0.9640 C.3   1 <1>   0.3640 
  6 O        1.1470     4.1430     0.7700 O.3   1 <1>  -0.5600 
  7 C       -2.5240     4.6970     0.1680 C.ar  1 <1>  -0.1440 
  8 C       -0.0040     4.8500     0.3330 C.3   1 <1>   0.2610 
  9 C       -2.8520     4.0850    -1.0360 C.ar  1 <1>   0.1600 
 10 C       -3.3290     5.7240     0.6230 C.ar  1 <1>  -0.1500 
 11 C        0.1450     6.3590     0.6110 C.2   1 <1>   0.5690 
 12 N       -3.8800     4.4120    -1.8010 N.ar  1 <1>  -0.6200 
 13 C       -4.4090     6.0740    -0.1580 C.ar  1 <1>  -0.1500 
 14 O       -0.5080     6.8440     1.5110 O.2   1 <1>  -0.5700 
 15 N        0.9840     7.1440    -0.1520 N.am  1 <1>  -0.6600 
 16 C       -4.6350     5.3970    -1.3430 C.ar  1 <1>   0.1600 
 17 C        1.1100     8.6090     0.1010 C.3   1 <1>   0.1400 
 18 C        1.9280     6.6260    -1.1850 C.3   1 <1>   0.1400 
 19 C        2.5440     8.9430     0.5210 C.3   1 <1>  -0.1600 
 20 C        3.3650     6.9420    -0.7700 C.3   1 <1>  -0.1600 
 21 C        3.5470     8.4390    -0.5230 C.3   1 <1>   0.2000 
 22 O        4.8440     8.6180    -0.0530 O.3   1 <1>  -0.5600 
 23 C        5.3830     9.8850    -0.2380 C.3   1 <1>   0.1200 
 24 C        6.8070     9.8570     0.3010 C.3   1 <1>  -0.2400 
 25 H       -2.1190     2.3030     1.3070 H     1 <1>   0.3700 
 26 H        1.3330     2.6620    -0.6010 H     1 <1>   0.0800 
 27 H        1.9760     2.3180     0.9870 H     1 <1>   0.0800 
 28 H       -1.3880     4.6270     1.9760 H     1 <1>   0.0800 
 29 H       -0.0720     4.7240    -0.7310 H     1 <1>   0.0800 
 30 H       -2.2350     3.2790    -1.3960 H     1 <1>   0.1500 
 31 H       -3.1220     6.2420     1.5460 H     1 <1>   0.1500 
 32 H       -5.0680     6.8660     0.1460 H     1 <1>   0.1500 
 33 H       -5.4810     5.6810    -1.9470 H     1 <1>   0.1500 
 34 H        0.8570     9.1410    -0.7990 H     1 <1>   0.0800 
 35 H        0.4300     8.9260     0.8730 H     1 <1>   0.0800 
 36 H        1.8310     5.5640    -1.3140 H     1 <1>   0.0800 
 37 H        1.7080     7.0980    -2.1270 H     1 <1>   0.0800 
 38 H        2.7430     8.4770     1.4700 H     1 <1>   0.0800 
 39 H        2.6290    10.0060     0.6370 H     1 <1>   0.0800 
 40 H        4.0380     6.6240    -1.5450 H     1 <1>   0.0800 
 41 H        3.5950     6.3950     0.1280 H     1 <1>   0.0800 
 42 H        3.4310     8.9710    -1.4520 H     1 <1>   0.0800 
 43 H        5.3820    10.1150    -1.2900 H     1 <1>   0.0800 
 44 H        4.7910    10.6050     0.3000 H     1 <1>   0.0800 
 45 H        7.3880     9.1270    -0.2320 H     1 <1>   0.0800 
 46 H        6.7980     9.6120     1.3480 H     1 <1>   0.0800 
 47 H        7.2650    10.8210     0.1760 H     1 <1>   0.0800 
@<TRIPOS>BOND
  1   1   2  2   
  2   2   3  am  
  3   2   4  1   
  4   3   5  1   
  5   3  25  1   
  6   4   6  1   
  7   4  26  1   
  8   4  27  1   
  9   5   7  1   
 10   5   8  1   
 11   5  28  1   
 12   6   8  1   
 13   7   9  ar  
 14   7  10  ar  
 15   8  11  1   
 16   8  29  1   
 17   9  12  ar  
 18   9  30  1   
 19  10  13  ar  
 20  10  31  1   
 21  11  14  2   
 22  11  15  am  
 23  12  16  ar  
 24  13  16  ar  
 25  13  32  1   
 26  15  17  1   
 27  15  18  1   
 28  16  33  1   
 29  17  19  1   
 30  17  34  1   
 31  17  35  1   
 32  18  20  1   
 33  18  36  1   
 34  18  37  1   
 35  19  21  1   
 36  19  38  1   
 37  19  39  1   
 38  20  21  1   
 39  20  40  1   
 40  20  41  1   
 41  21  22  1   
 42  21  42  1   
 43  22  23  1   
 44  23  24  1   
 45  23  43  1   
 46  23  44  1   
 47  24  45  1   
 48  24  46  1   
 49  24  47  1   
@<TRIPOS>SUBSTRUCTURE
  1 ****  11 GROUP 4 **** **** 0

# MOE 2024.06 (io_trps.svl 2023.06)
