@<TRIPOS>MOLECULE
NONAME
54 56 1 0 0 
SMALL
USER_CHARGES


@<TRIPOS>ATOM
  1 O        1.5740    -1.5120    -1.7360 O.3   1 <1>  -0.6800 
  2 C        1.1860    -1.5810    -0.4250 C.3   1 <1>   0.4800 
  3 C        0.8010    -2.9920    -0.1470 C.1   1 <1>  -0.2000 
  4 C        2.3780    -1.1570     0.4250 C.3   1 <1>  -0.2400 
  5 C       -0.0030    -0.6430    -0.2540 C.3   1 <1>  -0.2400 
  6 C        0.4940    -4.1240     0.0560 C.1   1 <1>  -0.0730 
  7 C        0.1280    -5.4920     0.2580 C.ar  1 <1>   0.0730 
  8 C        0.6490    -6.4860    -0.5560 C.ar  1 <1>  -0.1500 
  9 C       -0.7540    -5.8540     1.2650 C.ar  1 <1>  -0.1500 
 10 C        0.2890    -7.8100    -0.3800 C.ar  1 <1>  -0.1500 
 11 C       -1.1200    -7.1750     1.4470 C.ar  1 <1>  -0.1500 
 12 C       -0.6090    -8.1620     0.6170 C.ar  1 <1>  -0.1430 
 13 C       -1.0350    -9.6060     0.7880 C.3   1 <1>   0.4860 
 14 N       -1.8210    -9.9700    -0.4230 N.4   1 <1>  -0.9590 
 15 C       -3.2750   -10.1370    -0.1450 C.3   1 <1>   0.4230 
 16 C       -1.2190   -11.1600    -1.1020 C.3   1 <1>   0.2630 
 17 C       -4.0650   -10.4170    -1.4220 C.3   1 <1>  -0.1600 
 18 C       -3.9100    -8.8610     0.4030 C.3   1 <1>  -0.1600 
 19 C       -5.4970    -9.9590    -1.1200 C.3   1 <1>  -0.0800 
 20 C       -5.3970    -8.9650     0.0470 C.3   1 <1>  -0.0800 
 21 C       -6.4240   -11.0900    -0.6480 C.3   1 <1>  -0.1600 
 22 C       -6.2680    -9.5330     1.1770 C.3   1 <1>  -0.1600 
 23 C       -7.2390   -10.4670     0.4740 C.3   1 <1>   0.2000 
 24 O       -7.6850   -11.4390     1.3400 O.3   1 <1>  -0.6800 
 25 H        1.8280    -0.5970    -1.9420 H     1 <1>   0.4000 
 26 H        2.1200    -1.2190     1.4660 H     1 <1>   0.0800 
 27 H        2.6660    -0.1460     0.2050 H     1 <1>   0.0800 
 28 H        3.2100    -1.8150     0.2460 H     1 <1>   0.0800 
 29 H       -0.3510    -0.6830     0.7620 H     1 <1>   0.0800 
 30 H       -0.8080    -0.9490    -0.8980 H     1 <1>   0.0800 
 31 H        0.2720     0.3700    -0.4800 H     1 <1>   0.0800 
 32 H        1.3430    -6.2100    -1.3320 H     1 <1>   0.1500 
 33 H       -1.1540    -5.0880     1.9080 H     1 <1>   0.1500 
 34 H        0.7230    -8.5500    -1.0310 H     1 <1>   0.1500 
 35 H       -1.8060    -7.4150     2.2430 H     1 <1>   0.1500 
 36 H       -1.6290    -9.7190     1.6800 H     1 <1>   0.0800 
 37 H       -0.1590   -10.2270     0.8760 H     1 <1>   0.0800 
 38 H       -1.7330    -9.1500    -1.0410 H     1 <1>   0.4500 
 39 H       -3.4410   -10.9430     0.5530 H     1 <1>   0.0800 
 40 H       -1.3130   -12.0350    -0.4790 H     1 <1>   0.0800 
 41 H       -0.1740   -10.9880    -1.3030 H     1 <1>   0.0800 
 42 H       -1.7170   -11.3500    -2.0390 H     1 <1>   0.0800 
 43 H       -3.6850    -9.8130    -2.2280 H     1 <1>   0.0800 
 44 H       -4.0330   -11.4540    -1.7060 H     1 <1>   0.0800 
 45 H       -3.7660    -8.7530     1.4620 H     1 <1>   0.0800 
 46 H       -3.5050    -8.0020    -0.1040 H     1 <1>   0.0800 
 47 H       -5.9330    -9.4760    -1.9800 H     1 <1>   0.0800 
 48 H       -5.7850    -8.0040    -0.2530 H     1 <1>   0.0800 
 49 H       -5.8510   -11.9160    -0.2650 H     1 <1>   0.0800 
 50 H       -7.0620   -11.4320    -1.4440 H     1 <1>   0.0800 
 51 H       -6.7940    -8.7530     1.6990 H     1 <1>   0.0800 
 52 H       -5.6690   -10.0920     1.8750 H     1 <1>   0.0800 
 53 H       -8.0880    -9.9270     0.0850 H     1 <1>   0.0800 
 54 H       -6.9430   -11.9530     1.7030 H     1 <1>   0.4000 
@<TRIPOS>BOND
  1   1   2  1   
  2   1  25  1   
  3   2   3  1   
  4   2   4  1   
  5   2   5  1   
  6   3   6  3   
  7   4  26  1   
  8   4  27  1   
  9   4  28  1   
 10   5  29  1   
 11   5  30  1   
 12   5  31  1   
 13   6   7  1   
 14   7   8  ar  
 15   7   9  ar  
 16   8  10  ar  
 17   8  32  1   
 18   9  11  ar  
 19   9  33  1   
 20  10  12  ar  
 21  10  34  1   
 22  11  12  ar  
 23  11  35  1   
 24  12  13  1   
 25  13  14  1   
 26  13  36  1   
 27  13  37  1   
 28  14  15  1   
 29  14  16  1   
 30  14  38  1   
 31  15  17  1   
 32  15  18  1   
 33  15  39  1   
 34  16  40  1   
 35  16  41  1   
 36  16  42  1   
 37  17  19  1   
 38  17  43  1   
 39  17  44  1   
 40  18  20  1   
 41  18  45  1   
 42  18  46  1   
 43  19  20  1   
 44  19  21  1   
 45  19  47  1   
 46  20  22  1   
 47  20  48  1   
 48  21  23  1   
 49  21  49  1   
 50  21  50  1   
 51  22  23  1   
 52  22  51  1   
 53  22  52  1   
 54  23  24  1   
 55  23  53  1   
 56  24  54  1   
@<TRIPOS>SUBSTRUCTURE
  1 ****  11 GROUP 4 **** **** 0

# MOE 2024.06 (io_trps.svl 2023.06)
