@<TRIPOS>MOLECULE
NONAME
46 48 1 0 0 
SMALL
USER_CHARGES


@<TRIPOS>ATOM
  1 S        0.0490    -1.2820    -1.1800 S.o2  1 <1>   1.2040 
  2 O        0.5410    -1.6650    -2.4830 O.2   1 <1>  -0.6500 
  3 O       -0.9850    -0.2800    -1.0580 O.2   1 <1>  -0.6500 
  4 C       -0.4610    -2.7720    -0.2850 C.ar  1 <1>  -0.0090 
  5 C        1.4460    -0.7230    -0.2260 C.3   1 <1>  -0.1350 
  6 C        0.0940    -4.0110    -0.5780 C.ar  1 <1>  -0.1500 
  7 C       -1.4070    -2.7120     0.7310 C.ar  1 <1>  -0.1500 
  8 C       -0.2860    -5.1520     0.1070 C.ar  1 <1>  -0.1500 
  9 C       -1.7950    -3.8470     1.4220 C.ar  1 <1>  -0.1500 
 10 C       -1.2410    -5.0780     1.1090 C.ar  1 <1>  -0.1430 
 11 C       -1.6930    -6.3290     1.8400 C.3   1 <1>   0.4860 
 12 N       -2.4520    -7.1740     0.8850 N.4   1 <1>  -0.9590 
 13 C       -3.6330    -6.5030     0.2460 C.3   1 <1>   0.3430 
 14 C       -2.9270    -8.4730     1.4080 C.3   1 <1>   0.3430 
 15 C       -4.7230    -7.5840     0.1330 C.3   1 <1>   0.2000 
 16 C       -3.9860    -8.9010     0.3880 C.3   1 <1>  -0.0800 
 17 O       -5.6750    -7.3970     1.1270 O.3   1 <1>  -0.6800 
 18 C       -3.3950    -9.4450    -0.9440 C.3   1 <1>  -0.0170 
 19 C       -1.9850   -10.0120    -0.8370 C.ar  1 <1>   0.1670 
 20 N       -0.9970    -9.1240    -0.7820 N.ar  1 <1>  -0.6200 
 21 C       -1.7880   -11.3910    -0.8100 C.ar  1 <1>   0.1600 
 22 C        0.1900    -9.7150    -0.7300 C.ar  1 <1>   0.1600 
 23 N       -0.6050   -11.9710    -0.7260 N.ar  1 <1>  -0.6200 
 24 C        0.3790   -11.0910    -0.7000 C.ar  1 <1>   0.1600 
 25 H        2.2140    -1.4710    -0.2110 H     1 <1>   0.0800 
 26 H        1.1500    -0.5070     0.7820 H     1 <1>   0.0800 
 27 H        1.8500     0.1710    -0.6600 H     1 <1>   0.0800 
 28 H        0.8320    -4.0830    -1.3620 H     1 <1>   0.1500 
 29 H       -1.8520    -1.7610     0.9790 H     1 <1>   0.1500 
 30 H        0.1700    -6.0920    -0.1560 H     1 <1>   0.1500 
 31 H       -2.5350    -3.7520     2.2010 H     1 <1>   0.1500 
 32 H       -2.3160    -6.0610     2.6770 H     1 <1>   0.0800 
 33 H       -0.8330    -6.8650     2.2070 H     1 <1>   0.0800 
 34 H       -1.7960    -7.4300     0.1200 H     1 <1>   0.4500 
 35 H       -3.9930    -5.6780     0.8390 H     1 <1>   0.0800 
 36 H       -3.3580    -6.1430    -0.7320 H     1 <1>   0.0800 
 37 H       -2.1250    -9.1890     1.4920 H     1 <1>   0.0800 
 38 H       -3.3850    -8.3380     2.3750 H     1 <1>   0.0800 
 39 H       -5.2340    -7.5480    -0.8150 H     1 <1>   0.0800 
 40 H       -4.6360    -9.6490     0.8110 H     1 <1>   0.0800 
 41 H       -5.3460    -7.5640     2.0310 H     1 <1>   0.4000 
 42 H       -3.3590    -8.6670    -1.6880 H     1 <1>   0.0800 
 43 H       -4.0580   -10.1980    -1.3340 H     1 <1>   0.0800 
 44 H       -2.6410   -12.0470    -0.8590 H     1 <1>   0.1500 
 45 H        1.0630    -9.0850    -0.7110 H     1 <1>   0.1500 
 46 H        1.3830   -11.4780    -0.6530 H     1 <1>   0.1500 
@<TRIPOS>BOND
  1   1   2  2   
  2   1   3  2   
  3   1   4  1   
  4   1   5  1   
  5   4   6  ar  
  6   4   7  ar  
  7   5  25  1   
  8   5  26  1   
  9   5  27  1   
 10   6   8  ar  
 11   6  28  1   
 12   7   9  ar  
 13   7  29  1   
 14   8  10  ar  
 15   8  30  1   
 16   9  10  ar  
 17   9  31  1   
 18  10  11  1   
 19  11  12  1   
 20  11  32  1   
 21  11  33  1   
 22  12  13  1   
 23  12  14  1   
 24  12  34  1   
 25  13  15  1   
 26  13  35  1   
 27  13  36  1   
 28  14  16  1   
 29  14  37  1   
 30  14  38  1   
 31  15  16  1   
 32  15  17  1   
 33  15  39  1   
 34  16  18  1   
 35  16  40  1   
 36  17  41  1   
 37  18  19  1   
 38  18  42  1   
 39  18  43  1   
 40  19  20  ar  
 41  19  21  ar  
 42  20  22  ar  
 43  21  23  ar  
 44  21  44  1   
 45  22  24  ar  
 46  22  45  1   
 47  23  24  ar  
 48  24  46  1   
@<TRIPOS>SUBSTRUCTURE
  1 ****  12 GROUP 4 **** **** 0

# MOE 2024.06 (io_trps.svl 2023.06)
