@<TRIPOS>MOLECULE
NONAME
44 45 1 0 0 
SMALL
USER_CHARGES


@<TRIPOS>ATOM
  1 S        0.8290    -0.1720    -1.2230 S.o2  1 <1>   1.3330 
  2 O        2.0850    -0.8260    -0.9270 O.2   1 <1>  -0.6500 
  3 O        0.3140    -0.1980    -2.5730 O.2   1 <1>  -0.6500 
  4 N       -0.3640    -0.8690    -0.2320 N.am  1 <1>  -0.8490 
  5 C        0.8970     1.5340    -0.6530 C.3   1 <1>  -0.0550 
  6 C       -0.1560    -2.3080    -0.0420 C.3   1 <1>   0.1160 
  7 C       -1.7320    -0.6270    -0.7070 C.3   1 <1>   0.1160 
  8 C        1.7050     1.8310     0.6310 C.3   1 <1>  -0.0800 
  9 C        3.2130     1.6260     0.4590 C.3   1 <1>   0.2200 
 10 C        1.3620     1.0100     1.8800 C.3   1 <1>   0.1200 
 11 N        3.9040     2.9190     0.6640 N.am  1 <1>  -0.7300 
 12 C        3.5600     0.6480     1.5800 C.3   1 <1>   0.1200 
 13 O        2.5720     0.8380     2.5410 O.3   1 <1>  -0.5600 
 14 C        4.0610     3.8730    -0.3000 C.2   1 <1>   0.5440 
 15 O        3.6040     3.6470    -1.4040 O.2   1 <1>  -0.5700 
 16 C        4.7440     5.1250    -0.0170 C.ar  1 <1>   0.0860 
 17 C        5.3550     5.8480    -1.0470 C.ar  1 <1>  -0.1500 
 18 C        4.8160     5.6530     1.2780 C.ar  1 <1>  -0.1500 
 19 C        6.0220     7.0400    -0.8170 C.ar  1 <1>  -0.1440 
 20 C        5.4760     6.8400     1.5350 C.ar  1 <1>  -0.1500 
 21 C        6.0690     7.5140     0.4850 C.ar  1 <1>   0.1900 
 22 C        6.6770     7.8010    -1.9600 C.3   1 <1>  -0.0970 
 23 F        6.6900     8.6330     0.7420 F     1 <1>  -0.1900 
 24 H        1.3280     2.1270    -1.4380 H     1 <1>   0.0800 
 25 H       -0.1040     1.8900    -0.5160 H     1 <1>   0.0800 
 26 H       -0.9230    -2.7170     0.5940 H     1 <1>   0.0800 
 27 H        0.7970    -2.4850     0.4280 H     1 <1>   0.0800 
 28 H       -0.1730    -2.8180    -0.9910 H     1 <1>   0.0800 
 29 H       -2.4440    -1.0060     0.0070 H     1 <1>   0.0800 
 30 H       -1.8940    -1.1150    -1.6550 H     1 <1>   0.0800 
 31 H       -1.9030     0.4280    -0.8300 H     1 <1>   0.0800 
 32 H        1.5180     2.8610     0.8780 H     1 <1>   0.0800 
 33 H        3.4850     1.2200    -0.5010 H     1 <1>   0.0800 
 34 H        0.9860     0.0310     1.6510 H     1 <1>   0.0800 
 35 H        0.6750     1.5200     2.5330 H     1 <1>   0.0800 
 36 H        4.2110     3.0900     1.6220 H     1 <1>   0.3700 
 37 H        4.5290     0.8240     2.0100 H     1 <1>   0.0800 
 38 H        3.4910    -0.3680     1.2310 H     1 <1>   0.0800 
 39 H        5.2980     5.4530    -2.0480 H     1 <1>   0.1500 
 40 H        4.3440     5.1350     2.0940 H     1 <1>   0.1500 
 41 H        5.5320     7.2460     2.5290 H     1 <1>   0.1500 
 42 H        6.5380     7.2900    -2.8960 H     1 <1>   0.0800 
 43 H        7.7320     7.9010    -1.7770 H     1 <1>   0.0800 
 44 H        6.2460     8.7840    -2.0400 H     1 <1>   0.0800 
@<TRIPOS>BOND
  1   1   2  2   
  2   1   3  2   
  3   1   4  am  
  4   1   5  1   
  5   4   6  1   
  6   4   7  1   
  7   5   8  1   
  8   5  24  1   
  9   5  25  1   
 10   6  26  1   
 11   6  27  1   
 12   6  28  1   
 13   7  29  1   
 14   7  30  1   
 15   7  31  1   
 16   8   9  1   
 17   8  10  1   
 18   8  32  1   
 19   9  11  1   
 20   9  12  1   
 21   9  33  1   
 22  10  13  1   
 23  10  34  1   
 24  10  35  1   
 25  11  14  am  
 26  11  36  1   
 27  12  13  1   
 28  12  37  1   
 29  12  38  1   
 30  14  15  2   
 31  14  16  1   
 32  16  17  ar  
 33  16  18  ar  
 34  17  19  ar  
 35  17  39  1   
 36  18  20  ar  
 37  18  40  1   
 38  19  21  ar  
 39  19  22  1   
 40  20  21  ar  
 41  20  41  1   
 42  21  23  1   
 43  22  42  1   
 44  22  43  1   
 45  22  44  1   
@<TRIPOS>SUBSTRUCTURE
  1 ****  11 GROUP 4 **** **** 0

# MOE 2024.06 (io_trps.svl 2023.06)
