@<TRIPOS>MOLECULE
NONAME
50 53 1 0 0 
SMALL
USER_CHARGES


@<TRIPOS>ATOM
  1 O        1.1570    -0.1750    -1.2730 O.2   1 <1>  -0.5700 
  2 C        2.0550    -0.8750    -0.8490 C.2   1 <1>   0.5440 
  3 N        3.3620    -0.5700    -1.1630 N.am  1 <1>  -0.6600 
  4 C        1.7340    -2.0190    -0.0250 C.ar  1 <1>   0.0860 
  5 C        3.7340     0.8280    -1.5710 C.3   1 <1>   0.1400 
  6 C        4.2550    -1.6470    -1.6950 C.3   1 <1>   0.1400 
  7 C        2.5210    -2.3520     1.0740 C.ar  1 <1>   0.1600 
  8 C        0.6370    -2.8300    -0.2750 C.ar  1 <1>  -0.1500 
  9 C        4.0000     1.7960    -0.3880 C.3   1 <1>   0.0000 
 10 C        5.5680    -1.7480    -0.9140 C.3   1 <1>   0.1200 
 11 N        2.3360    -3.3860     1.8770 N.ar  1 <1>  -0.6200 
 12 C        0.4190    -3.9060     0.5580 C.ar  1 <1>  -0.1500 
 13 C        4.4280     3.1640    -0.9730 C.3   1 <1>  -0.1600 
 14 C        5.1370     1.2930     0.5340 C.3   1 <1>  -0.1600 
 15 C        2.7340     2.0210     0.4760 C.3   1 <1>  -0.1600 
 16 O        6.2780    -2.8550    -1.3540 O.3   1 <1>  -0.6800 
 17 C        1.2800    -4.1640     1.6210 C.ar  1 <1>   0.3830 
 18 C        4.7100     4.1850     0.1450 C.3   1 <1>  -0.0800 
 19 C        5.4180     2.3010     1.6640 C.3   1 <1>  -0.0800 
 20 C        3.0050     3.0350     1.6020 C.3   1 <1>  -0.0800 
 21 C        1.0260    -5.3020     2.4670 C.1   1 <1>   0.4840 
 22 C        5.8360     3.6480     1.0480 C.3   1 <1>  -0.1600 
 23 C        3.4340     4.3780     0.9840 C.3   1 <1>  -0.1600 
 24 C        4.1380     2.5010     2.4970 C.3   1 <1>  -0.1600 
 25 N        0.7870    -6.2180     3.1060 N.1   1 <1>  -0.5570 
 26 H        2.9450     1.2350    -2.1800 H     1 <1>   0.0800 
 27 H        4.6150     0.7930    -2.1890 H     1 <1>   0.0800 
 28 H        4.4750    -1.4410    -2.7290 H     1 <1>   0.0800 
 29 H        3.7450    -2.5930    -1.6500 H     1 <1>   0.0800 
 30 H        3.3570    -1.7110     1.2990 H     1 <1>   0.1500 
 31 H       -0.0200    -2.6110    -1.1010 H     1 <1>   0.1500 
 32 H        5.3940    -1.8590     0.1410 H     1 <1>   0.0800 
 33 H        6.1790    -0.8810    -1.0970 H     1 <1>   0.0800 
 34 H       -0.4250    -4.5530     0.3880 H     1 <1>   0.1500 
 35 H        3.6500     3.5460    -1.6110 H     1 <1>   0.0800 
 36 H        5.3120     3.0460    -1.5740 H     1 <1>   0.0800 
 37 H        6.0350     1.1490    -0.0390 H     1 <1>   0.0800 
 38 H        4.8630     0.3510     0.9710 H     1 <1>   0.0800 
 39 H        2.4190     1.0960     0.9220 H     1 <1>   0.0800 
 40 H        1.9270     2.3730    -0.1430 H     1 <1>   0.0800 
 41 H        5.8860    -3.6850    -1.0180 H     1 <1>   0.4000 
 42 H        5.0070     5.1260    -0.2860 H     1 <1>   0.0800 
 43 H        6.2070     1.9310     2.2950 H     1 <1>   0.0800 
 44 H        2.1120     3.1750     2.1880 H     1 <1>   0.0800 
 45 H        6.0450     4.3570     1.8300 H     1 <1>   0.0800 
 46 H        6.7370     3.5220     0.4720 H     1 <1>   0.0800 
 47 H        2.6440     4.7610     0.3630 H     1 <1>   0.0800 
 48 H        3.6160     5.0960     1.7640 H     1 <1>   0.0800 
 49 H        4.3280     3.1970     3.2960 H     1 <1>   0.0800 
 50 H        3.8420     1.5670     2.9420 H     1 <1>   0.0800 
@<TRIPOS>BOND
  1   1   2  2   
  2   2   3  am  
  3   2   4  1   
  4   3   5  1   
  5   3   6  1   
  6   4   7  ar  
  7   4   8  ar  
  8   5   9  1   
  9   5  26  1   
 10   5  27  1   
 11   6  10  1   
 12   6  28  1   
 13   6  29  1   
 14   7  11  ar  
 15   7  30  1   
 16   8  12  ar  
 17   8  31  1   
 18   9  13  1   
 19   9  14  1   
 20   9  15  1   
 21  10  16  1   
 22  10  32  1   
 23  10  33  1   
 24  11  17  ar  
 25  12  17  ar  
 26  12  34  1   
 27  13  18  1   
 28  13  35  1   
 29  13  36  1   
 30  14  19  1   
 31  14  37  1   
 32  14  38  1   
 33  15  20  1   
 34  15  39  1   
 35  15  40  1   
 36  16  41  1   
 37  17  21  1   
 38  18  22  1   
 39  18  23  1   
 40  18  42  1   
 41  19  22  1   
 42  19  24  1   
 43  19  43  1   
 44  20  23  1   
 45  20  24  1   
 46  20  44  1   
 47  21  25  3   
 48  22  45  1   
 49  22  46  1   
 50  23  47  1   
 51  23  48  1   
 52  24  49  1   
 53  24  50  1   
@<TRIPOS>SUBSTRUCTURE
  1 ****   3 GROUP 4 **** **** 0

# MOE 2024.06 (io_trps.svl 2023.06)
