@<TRIPOS>MOLECULE
NONAME
46 49 1 0 0 
SMALL
USER_CHARGES


@<TRIPOS>ATOM
  1 O       -0.2200    -0.5660    -1.3160 O.3   1 <1>  -0.0190 
  2 N        0.8830     0.1020    -1.1650 N.2   1 <1>  -0.4100 
  3 C       -0.0050    -1.6900    -0.6760 C.2   1 <1>   0.2980 
  4 C        1.6750    -0.6290    -0.4830 C.2   1 <1>   0.3350 
  5 N        1.1450    -1.7970    -0.1360 N.2   1 <1>  -0.5650 
  6 C       -1.0970    -2.7580    -0.6530 C.3   1 <1>   0.2900 
  7 C        3.0860    -0.2280    -0.0630 C.3   1 <1>   0.3010 
  8 N       -2.2910    -2.3800     0.1460 N.3   1 <1>  -0.8100 
  9 O        4.0500    -0.8200    -0.8920 O.3   1 <1>  -0.5600 
 10 C       -3.1960    -1.4730    -0.6020 C.3   1 <1>   0.1100 
 11 C       -3.0160    -3.5700     0.6150 C.3   1 <1>   0.1100 
 12 C        5.3630    -0.5180    -0.5470 C.3   1 <1>   0.0400 
 13 C       -4.3520    -0.9690     0.2850 C.3   1 <1>   0.1430 
 14 C       -4.1550    -3.1570     1.5560 C.3   1 <1>  -0.1600 
 15 C       -5.2420    -0.0610    -0.5450 C.ar  1 <1>   0.1670 
 16 C       -5.1180    -2.1730     0.8720 C.3   1 <1>  -0.1600 
 17 C       -3.8310    -0.0090     1.3870 C.3   1 <1>  -0.1600 
 18 N       -6.0900    -0.4530    -1.4680 N.ar  1 <1>  -0.6200 
 19 C       -5.0450     1.2520    -0.2290 C.ar  1 <1>  -0.1440 
 20 C       -4.0050     1.4220     0.8490 C.3   1 <1>  -0.0170 
 21 C       -6.7380     0.5380    -2.0590 C.ar  1 <1>   0.7200 
 22 C       -5.7830     2.1920    -0.9080 C.ar  1 <1>   0.1600 
 23 N       -6.6480     1.8410    -1.8330 N.ar  1 <1>  -0.6200 
 24 N       -7.6230     0.1750    -2.9890 N.pl3 1 <1>  -0.9000 
 25 H       -0.6550    -3.6400    -0.2260 H     1 <1>   0.0800 
 26 H       -1.3870    -2.9930    -1.6620 H     1 <1>   0.0800 
 27 H        3.2590    -0.5470     0.9490 H     1 <1>   0.0800 
 28 H        3.1890     0.8400    -0.1310 H     1 <1>   0.0800 
 29 H       -3.6060    -1.9900    -1.4540 H     1 <1>   0.0800 
 30 H       -2.6520    -0.6200    -0.9630 H     1 <1>   0.0800 
 31 H       -2.3420    -4.2160     1.1520 H     1 <1>   0.0800 
 32 H       -3.4140    -4.1130    -0.2260 H     1 <1>   0.0800 
 33 H        6.0130    -1.0170    -1.2440 H     1 <1>   0.0800 
 34 H        5.5600    -0.8720     0.4500 H     1 <1>   0.0800 
 35 H        5.5120     0.5460    -0.6120 H     1 <1>   0.0800 
 36 H       -3.7310    -2.7080     2.4370 H     1 <1>   0.0800 
 37 H       -4.6970    -4.0330     1.8630 H     1 <1>   0.0800 
 38 H       -5.6230    -2.6860     0.0720 H     1 <1>   0.0800 
 39 H       -5.8680    -1.8370     1.5660 H     1 <1>   0.0800 
 40 H       -2.8090    -0.2110     1.6570 H     1 <1>   0.0800 
 41 H       -4.4380    -0.1120     2.2690 H     1 <1>   0.0800 
 42 H       -3.0860     1.7760     0.4140 H     1 <1>   0.0800 
 43 H       -4.3310     2.0980     1.6210 H     1 <1>   0.0800 
 44 H       -5.6610     3.2390    -0.6910 H     1 <1>   0.1500 
 45 H       -8.3230     0.8770    -3.2090 H     1 <1>   0.4000 
 46 H       -7.9400    -0.7870    -2.9290 H     1 <1>   0.4000 
@<TRIPOS>BOND
  1   1   2  1   
  2   1   3  1   
  3   2   4  2   
  4   3   5  2   
  5   3   6  1   
  6   4   5  1   
  7   4   7  1   
  8   6   8  1   
  9   6  25  1   
 10   6  26  1   
 11   7   9  1   
 12   7  27  1   
 13   7  28  1   
 14   8  10  1   
 15   8  11  1   
 16   9  12  1   
 17  10  13  1   
 18  10  29  1   
 19  10  30  1   
 20  11  14  1   
 21  11  31  1   
 22  11  32  1   
 23  12  33  1   
 24  12  34  1   
 25  12  35  1   
 26  13  15  1   
 27  13  16  1   
 28  13  17  1   
 29  14  16  1   
 30  14  36  1   
 31  14  37  1   
 32  15  18  ar  
 33  15  19  ar  
 34  16  38  1   
 35  16  39  1   
 36  17  20  1   
 37  17  40  1   
 38  17  41  1   
 39  18  21  ar  
 40  19  20  1   
 41  19  22  ar  
 42  20  42  1   
 43  20  43  1   
 44  21  23  ar  
 45  21  24  1   
 46  22  23  ar  
 47  22  44  1   
 48  24  45  1   
 49  24  46  1   
@<TRIPOS>SUBSTRUCTURE
  1 ****  10 GROUP 4 **** **** 0

# MOE 2024.06 (io_trps.svl 2023.06)
