@<TRIPOS>MOLECULE
NONAME
36 38 1 0 0 
SMALL
USER_CHARGES


@<TRIPOS>ATOM
  1 O       -0.3600     0.3520    -0.3150 O.2   1 <1>  -0.5700 
  2 C       -1.3600     0.9700     0.0100 C.2   1 <1>   0.7150 
  3 N       -2.5150     0.2490     0.2420 N.am  1 <1>  -0.6600 
  4 C       -1.3310     2.4120     0.1480 C.2   1 <1>   0.0550 
  5 C       -3.8840     0.8120     0.1330 C.3   1 <1>   0.1400 
  6 C       -2.5500    -1.2300     0.1270 C.3   1 <1>   0.1400 
  7 O       -0.5730     3.1600    -0.6500 O.3   1 <1>  -0.2800 
  8 C       -1.9850     3.2420     1.0110 C.2   1 <1>  -0.1500 
  9 C       -4.7520    -0.3600    -0.3220 C.3   1 <1>   0.2000 
 10 C       -4.0310    -1.6100     0.1760 C.3   1 <1>  -0.0800 
 11 C       -0.7260     4.4230    -0.3270 C.2   1 <1>  -0.0100 
 12 C       -1.5930     4.5450     0.7000 C.2   1 <1>  -0.1500 
 13 O       -6.0260    -0.2940     0.2170 O.3   1 <1>  -0.6800 
 14 C       -4.3700    -2.8660    -0.6400 C.3   1 <1>   0.0200 
 15 C       -3.5680    -4.0580    -0.1570 C.2   1 <1>  -0.0400 
 16 O       -3.7160    -4.4930     1.0660 O.3   1 <1>  -0.0190 
 17 C       -2.6510    -4.8280    -0.7610 C.2   1 <1>  -0.1500 
 18 N       -2.9440    -5.5100     1.3150 N.2   1 <1>  -0.4100 
 19 C       -2.2910    -5.7360     0.2320 C.2   1 <1>   0.1080 
 20 C       -1.2710    -6.8410     0.0690 C.3   1 <1>  -0.0590 
 21 H       -4.1990     1.1640     1.1000 H     1 <1>   0.0800 
 22 H       -3.9160     1.6120    -0.5870 H     1 <1>   0.0800 
 23 H       -2.1080    -1.5200    -0.8120 H     1 <1>   0.0800 
 24 H       -1.9980    -1.6880     0.9310 H     1 <1>   0.0800 
 25 H       -2.6670     2.9720     1.7960 H     1 <1>   0.1500 
 26 H       -4.8350    -0.3540    -1.3960 H     1 <1>   0.0800 
 27 H       -4.2790    -1.7800     1.2100 H     1 <1>   0.0800 
 28 H       -0.1800     5.1720    -0.8750 H     1 <1>   0.1500 
 29 H       -1.9250     5.4410     1.1940 H     1 <1>   0.1500 
 30 H       -5.9970    -0.4070     1.1870 H     1 <1>   0.4000 
 31 H       -4.1590    -2.6970    -1.6810 H     1 <1>   0.0800 
 32 H       -5.4190    -3.0870    -0.5440 H     1 <1>   0.0800 
 33 H       -2.2600    -4.7860    -1.7600 H     1 <1>   0.1500 
 34 H       -1.5720    -7.5020    -0.7220 H     1 <1>   0.0800 
 35 H       -1.1910    -7.4040     0.9810 H     1 <1>   0.0800 
 36 H       -0.3110    -6.4190    -0.1650 H     1 <1>   0.0800 
@<TRIPOS>BOND
  1   1   2  2   
  2   2   3  am  
  3   2   4  1   
  4   3   5  1   
  5   3   6  1   
  6   4   7  1   
  7   4   8  2   
  8   5   9  1   
  9   5  21  1   
 10   5  22  1   
 11   6  10  1   
 12   6  23  1   
 13   6  24  1   
 14   7  11  1   
 15   8  12  1   
 16   8  25  1   
 17   9  10  1   
 18   9  13  1   
 19   9  26  1   
 20  10  14  1   
 21  10  27  1   
 22  11  12  2   
 23  11  28  1   
 24  12  29  1   
 25  13  30  1   
 26  14  15  1   
 27  14  31  1   
 28  14  32  1   
 29  15  16  1   
 30  15  17  2   
 31  16  18  1   
 32  17  19  1   
 33  17  33  1   
 34  18  19  2   
 35  19  20  1   
 36  20  34  1   
 37  20  35  1   
 38  20  36  1   
@<TRIPOS>SUBSTRUCTURE
  1 ****   6 GROUP 4 **** **** 0

# MOE 2024.06 (io_trps.svl 2023.06)
