@<TRIPOS>MOLECULE
NONAME
39 40 1 0 0 
SMALL
USER_CHARGES


@<TRIPOS>ATOM
  1 O       -0.2750     0.3030    -0.6780 O.2   1 <1>  -0.5700 
  2 C       -1.2930     0.6080    -0.0940 C.2   1 <1>   0.5690 
  3 N       -2.3270    -0.2640     0.0740 N.am  1 <1>  -0.4930 
  4 C       -1.4520     2.0220     0.5100 C.3   1 <1>   0.2810 
  5 C       -2.4730    -1.6060    -0.3530 C.2   1 <1>   0.0630 
  6 N       -2.6580     2.7620    -0.0310 N.am  1 <1>  -0.6600 
  7 C       -0.1760     2.8940     0.3940 C.3   1 <1>  -0.1600 
  8 C       -3.5540    -2.3920    -0.1530 C.2   1 <1>  -0.3320 
  9 C       -1.5750    -2.4090    -1.0550 C.2   1 <1>   0.1390 
 10 C       -3.9070     2.4980     0.4600 C.2   1 <1>   0.5690 
 11 C       -2.3460     3.8190    -1.0330 C.3   1 <1>   0.1400 
 12 C       -0.4770     4.3780     0.6480 C.3   1 <1>  -0.1600 
 13 N       -3.2690    -3.5890    -0.7230 N.pl3 1 <1>   0.3140 
 14 C       -4.8610    -2.0700     0.5570 C.3   1 <1>  -0.0600 
 15 N       -2.0470    -3.5990    -1.2800 N.2   1 <1>  -0.7070 
 16 O       -4.1040     1.5850     1.2270 O.2   1 <1>  -0.5700 
 17 C       -5.0990     3.3310     0.0500 C.3   1 <1>  -0.1790 
 18 C       -1.4970     4.9170    -0.3750 C.3   1 <1>  -0.1600 
 19 C       -4.1310    -4.7760    -0.7700 C.3   1 <1>   0.0160 
 20 H       -3.1460     0.1330     0.5540 H     1 <1>   0.3700 
 21 H       -1.6220     1.8770     1.5620 H     1 <1>   0.0800 
 22 H        0.2530     2.7860    -0.5870 H     1 <1>   0.0800 
 23 H        0.5550     2.5380     1.0980 H     1 <1>   0.0800 
 24 H       -0.6000    -2.0830    -1.3760 H     1 <1>   0.1500 
 25 H       -3.2370     4.2460    -1.4580 H     1 <1>   0.0800 
 26 H       -1.7900     3.3670    -1.8370 H     1 <1>   0.0800 
 27 H        0.4300     4.9560     0.6020 H     1 <1>   0.0800 
 28 H       -0.8840     4.4820     1.6400 H     1 <1>   0.0800 
 29 H       -4.8540    -1.0630     0.9330 H     1 <1>   0.0800 
 30 H       -5.0050    -2.7380     1.3870 H     1 <1>   0.0800 
 31 H       -5.6870    -2.1710    -0.1230 H     1 <1>   0.0800 
 32 H       -4.9070     4.3680     0.2510 H     1 <1>   0.0800 
 33 H       -5.9640     3.0280     0.6090 H     1 <1>   0.0800 
 34 H       -5.2980     3.1920    -0.9960 H     1 <1>   0.0800 
 35 H       -2.1450     5.6250     0.1120 H     1 <1>   0.0800 
 36 H       -0.9770     5.4480    -1.1530 H     1 <1>   0.0800 
 37 H       -5.0390    -4.5310    -1.2880 H     1 <1>   0.0800 
 38 H       -4.3500    -5.0920     0.2320 H     1 <1>   0.0800 
 39 H       -3.6180    -5.5620    -1.2920 H     1 <1>   0.0800 
@<TRIPOS>BOND
  1   1   2  2   
  2   2   3  am  
  3   2   4  1   
  4   3   5  1   
  5   3  20  1   
  6   4   6  1   
  7   4   7  1   
  8   4  21  1   
  9   5   8  2   
 10   5   9  1   
 11   6  10  am  
 12   6  11  1   
 13   7  12  1   
 14   7  22  1   
 15   7  23  1   
 16   8  13  1   
 17   8  14  1   
 18   9  15  2   
 19   9  24  1   
 20  10  16  2   
 21  10  17  1   
 22  11  18  1   
 23  11  25  1   
 24  11  26  1   
 25  12  18  1   
 26  12  27  1   
 27  12  28  1   
 28  13  15  1   
 29  13  19  1   
 30  14  29  1   
 31  14  30  1   
 32  14  31  1   
 33  17  32  1   
 34  17  33  1   
 35  17  34  1   
 36  18  35  1   
 37  18  36  1   
 38  19  37  1   
 39  19  38  1   
 40  19  39  1   
@<TRIPOS>SUBSTRUCTURE
  1 ****   3 GROUP 4 **** **** 0

# MOE 2024.06 (io_trps.svl 2023.06)
