@<TRIPOS>MOLECULE
NONAME
20 20 1 0 0 
SMALL
USER_CHARGES


@<TRIPOS>ATOM
  1 F       -0.0900    -0.3780    -0.4040 F     1 <1>  -0.3400 
  2 C        0.6980     0.6490    -0.0970 C.3   1 <1>   0.8610 
  3 F        1.0360     0.4250     1.1710 F     1 <1>  -0.3400 
  4 C       -0.0870     1.9730    -0.2110 C.2   1 <1>   0.1080 
  5 C        1.9610     0.5410    -0.9460 C.3   1 <1>  -0.2400 
  6 N        0.2480     2.9880    -0.9690 N.2   1 <1>  -0.7070 
  7 C       -1.2540     2.2370     0.4900 C.2   1 <1>  -0.1500 
  8 N       -0.7090     3.9140    -0.7560 N.pl3 1 <1>   0.3140 
  9 C       -1.6410     3.4900     0.1280 C.2   1 <1>  -0.3840 
 10 C       -0.6580     5.2080    -1.4530 C.3   1 <1>   0.0160 
 11 C       -2.7830     4.2510     0.5570 C.2   1 <1>   1.0320 
 12 O       -2.9930     5.3970     0.1220 O.co2 1 <1>  -0.9000 
 13 O       -3.5790     3.7630     1.3750 O.co2 1 <1>  -0.9000 
 14 H        2.4330    -0.4120    -0.7970 H     1 <1>   0.0800 
 15 H        2.6360     1.3310    -0.6750 H     1 <1>   0.0800 
 16 H        1.7010     0.6650    -1.9800 H     1 <1>   0.0800 
 17 H       -1.7600     1.5880     1.1840 H     1 <1>   0.1500 
 18 H        0.2060     5.2400    -2.0880 H     1 <1>   0.0800 
 19 H       -0.6090     5.9940    -0.7240 H     1 <1>   0.0800 
 20 H       -1.5510     5.3220    -2.0390 H     1 <1>   0.0800 
@<TRIPOS>BOND
  1   1   2  1   
  2   2   3  1   
  3   2   4  1   
  4   2   5  1   
  5   4   6  2   
  6   4   7  1   
  7   5  14  1   
  8   5  15  1   
  9   5  16  1   
 10   6   8  1   
 11   7   9  2   
 12   7  17  1   
 13   8   9  1   
 14   8  10  1   
 15   9  11  1   
 16  10  18  1   
 17  10  19  1   
 18  10  20  1   
 19  11  12  ar  
 20  11  13  ar  
@<TRIPOS>SUBSTRUCTURE
  1 ****   7 GROUP 4 **** **** 0

# MOE 2024.06 (io_trps.svl 2023.06)
