@<TRIPOS>MOLECULE
NONAME
49 50 1 0 0 
SMALL
USER_CHARGES


@<TRIPOS>ATOM
  1 O        2.3940     1.0530    -0.1930 O.co2 1 <1>  -0.9000 
  2 C        3.3250     1.8800    -0.1230 C.2   1 <1>   1.0320 
  3 O        4.4530     1.5400    -0.5310 O.co2 1 <1>  -0.9000 
  4 C        3.0740     3.2100     0.4100 C.2   1 <1>  -0.0920 
  5 O        4.0460     4.1020     0.5990 O.3   1 <1>  -0.2800 
  6 C        1.8970     3.7850     0.7850 C.2   1 <1>  -0.1500 
  7 C        3.5250     5.2170     1.0640 C.2   1 <1>  -0.0400 
  8 C        2.1890     5.0850     1.2040 C.2   1 <1>  -0.1500 
  9 C        4.4550     6.3820     1.3220 C.3   1 <1>   0.3200 
 10 N        5.2980     6.5450     0.1250 N.am  1 <1>  -0.7300 
 11 C        5.5180     7.6930    -0.5520 C.2   1 <1>   0.5690 
 12 O        5.2250     8.7720    -0.0820 O.2   1 <1>  -0.5700 
 13 C        6.1740     7.6290    -1.9400 C.3   1 <1>   0.1710 
 14 N        7.6350     7.9580    -1.9870 N.3   1 <1>  -0.8100 
 15 C        7.9300     9.3240    -1.5030 C.3   1 <1>   0.1100 
 16 C        8.1520     7.7380    -3.3440 C.3   1 <1>   0.0300 
 17 C        8.2650     9.3220     0.0100 C.3   1 <1>   0.4230 
 18 N        8.1620    10.6700     0.6370 N.4   1 <1>  -0.9590 
 19 C        9.6630     8.7680     0.2780 C.3   1 <1>  -0.2400 
 20 C        6.7300    11.0770     0.8490 C.3   1 <1>   0.3430 
 21 C        8.9400    11.7740    -0.0200 C.3   1 <1>   0.3430 
 22 C        6.6240    12.4720     1.5050 C.3   1 <1>   0.1200 
 23 C        8.7480    13.1190     0.7180 C.3   1 <1>   0.1200 
 24 O        7.8920    12.9830     1.8220 O.3   1 <1>  -0.5600 
 25 H        0.9280     3.3190     0.7540 H     1 <1>   0.1500 
 26 H        1.4670     5.8010     1.5520 H     1 <1>   0.1500 
 27 H        5.0800     6.1570     2.1690 H     1 <1>   0.0800 
 28 H        3.8920     7.2770     1.5190 H     1 <1>   0.0800 
 29 H        5.4930     5.6320    -0.3080 H     1 <1>   0.3700 
 30 H        5.6360     8.2960    -2.5900 H     1 <1>   0.0800 
 31 H        6.0330     6.6320    -2.3190 H     1 <1>   0.0800 
 32 H        7.0840     9.9580    -1.7010 H     1 <1>   0.0800 
 33 H        8.7770     9.7190    -2.0370 H     1 <1>   0.0800 
 34 H        7.9610     6.7230    -3.6510 H     1 <1>   0.0800 
 35 H        9.2170     7.8950    -3.3640 H     1 <1>   0.0800 
 36 H        7.6830     8.4090    -4.0450 H     1 <1>   0.0800 
 37 H        7.5560     8.6740     0.4990 H     1 <1>   0.0800 
 38 H        8.5450    10.6020     1.5890 H     1 <1>   0.4500 
 39 H       10.4200     9.3420    -0.2230 H     1 <1>   0.0800 
 40 H        9.7160     7.7590    -0.0930 H     1 <1>   0.0800 
 41 H        9.8650     8.7390     1.3340 H     1 <1>   0.0800 
 42 H        6.2340    10.3550     1.4770 H     1 <1>   0.0800 
 43 H        6.2010    11.0890    -0.0890 H     1 <1>   0.0800 
 44 H        8.6210    11.8920    -1.0420 H     1 <1>   0.0800 
 45 H        9.9890    11.5280    -0.0330 H     1 <1>   0.0800 
 46 H        6.0570    12.4090     2.4170 H     1 <1>   0.0800 
 47 H        6.1270    13.1650     0.8480 H     1 <1>   0.0800 
 48 H        8.3390    13.8620     0.0550 H     1 <1>   0.0800 
 49 H        9.6950    13.4790     1.0820 H     1 <1>   0.0800 
@<TRIPOS>BOND
  1   1   2  ar  
  2   2   3  ar  
  3   2   4  1   
  4   4   5  1   
  5   4   6  2   
  6   5   7  1   
  7   6   8  1   
  8   6  25  1   
  9   7   8  2   
 10   7   9  1   
 11   8  26  1   
 12   9  10  1   
 13   9  27  1   
 14   9  28  1   
 15  10  11  am  
 16  10  29  1   
 17  11  12  2   
 18  11  13  1   
 19  13  14  1   
 20  13  30  1   
 21  13  31  1   
 22  14  15  1   
 23  14  16  1   
 24  15  17  1   
 25  15  32  1   
 26  15  33  1   
 27  16  34  1   
 28  16  35  1   
 29  16  36  1   
 30  17  18  1   
 31  17  19  1   
 32  17  37  1   
 33  18  20  1   
 34  18  21  1   
 35  18  38  1   
 36  19  39  1   
 37  19  40  1   
 38  19  41  1   
 39  20  22  1   
 40  20  42  1   
 41  20  43  1   
 42  21  23  1   
 43  21  44  1   
 44  21  45  1   
 45  22  24  1   
 46  22  46  1   
 47  22  47  1   
 48  23  24  1   
 49  23  48  1   
 50  23  49  1   
@<TRIPOS>SUBSTRUCTURE
  1 ****  11 GROUP 4 **** **** 0

# MOE 2024.06 (io_trps.svl 2023.06)
