@<TRIPOS>MOLECULE
NONAME
52 54 1 0 0 
SMALL
USER_CHARGES


@<TRIPOS>ATOM
  1 O        2.5780    -0.1300    -1.5220 O.2   1 <1>  -0.5700 
  2 C        2.0160    -0.5960    -0.5550 C.2   1 <1>   0.5690 
  3 N        1.7190     0.1500     0.5450 N.am  1 <1>  -0.4930 
  4 C        1.6940    -2.1080    -0.5850 C.3   1 <1>   0.2810 
  5 C        1.9540     1.5260     0.7920 C.2   1 <1>   0.0630 
  6 N        0.2560    -2.5720    -0.5900 N.am  1 <1>  -0.6600 
  7 C        2.4320    -2.9150     0.4960 C.3   1 <1>  -0.1600 
  8 C        1.0110     2.4350     1.2700 C.2   1 <1>   0.1080 
  9 C        3.0870     2.2480     0.6480 C.2   1 <1>  -0.3320 
 10 C       -0.7590    -2.0050     0.1380 C.2   1 <1>   0.6300 
 11 C        0.1610    -3.9810    -1.0590 C.3   1 <1>   0.1400 
 12 C        2.3340    -4.4260     0.2120 C.3   1 <1>  -0.1600 
 13 N        1.5000     3.6270     1.4110 N.2   1 <1>  -0.7070 
 14 C       -0.4280     2.1010     1.5920 C.3   1 <1>  -0.0590 
 15 N        2.7820     3.5190     1.0160 N.pl3 1 <1>   0.3140 
 16 C        4.4620     1.7960     0.1770 C.3   1 <1>  -0.0600 
 17 O       -0.5560    -1.1990     1.0150 O.2   1 <1>  -0.5700 
 18 C       -2.2060    -2.4140    -0.1310 C.3   1 <1>  -0.1000 
 19 C        0.8790    -4.8710    -0.0340 C.3   1 <1>  -0.1600 
 20 C        3.6730     4.6970     1.0070 C.3   1 <1>   0.0960 
 21 C       -3.3100    -2.1520     0.8560 C.3   1 <1>  -0.2000 
 22 C       -2.8370    -3.5520     0.6230 C.3   1 <1>  -0.2000 
 23 C        3.6850     5.3650    -0.3750 C.3   1 <1>  -0.1600 
 24 C        4.6150     6.5840    -0.4000 C.3   1 <1>  -0.2400 
 25 H        0.9850    -0.2650     1.1340 H     1 <1>   0.3700 
 26 H        2.1100    -2.4270    -1.5250 H     1 <1>   0.0800 
 27 H        2.0080    -2.6880     1.4590 H     1 <1>   0.0800 
 28 H        3.4670    -2.6230     0.5150 H     1 <1>   0.0800 
 29 H        0.6310    -4.0710    -2.0240 H     1 <1>   0.0800 
 30 H       -0.8620    -4.2960    -1.1640 H     1 <1>   0.0800 
 31 H        2.7480    -4.9790     1.0380 H     1 <1>   0.0800 
 32 H        2.9200    -4.6560    -0.6620 H     1 <1>   0.0800 
 33 H       -0.8950     1.6480     0.7370 H     1 <1>   0.0800 
 34 H       -0.9640     2.9960     1.8490 H     1 <1>   0.0800 
 35 H       -0.4670     1.4180     2.4190 H     1 <1>   0.0800 
 36 H        4.4940     0.7260     0.0850 H     1 <1>   0.0800 
 37 H        5.2190     2.0930     0.8800 H     1 <1>   0.0800 
 38 H        4.6800     2.2240    -0.7850 H     1 <1>   0.0800 
 39 H       -2.4590    -2.2930    -1.1690 H     1 <1>   0.1000 
 40 H        0.8690    -5.8900    -0.3790 H     1 <1>   0.0800 
 41 H        0.3350    -4.8370     0.8930 H     1 <1>   0.0800 
 42 H        4.6620     4.3840     1.2850 H     1 <1>   0.0800 
 43 H        3.3140     5.3900     1.7460 H     1 <1>   0.0800 
 44 H       -4.2750    -1.8580     0.4820 H     1 <1>   0.1000 
 45 H       -3.0660    -1.6710     1.7880 H     1 <1>   0.1000 
 46 H       -2.2760    -4.0320     1.4060 H     1 <1>   0.1000 
 47 H       -3.4800    -4.2340     0.0950 H     1 <1>   0.1000 
 48 H        2.6840     5.6760    -0.6220 H     1 <1>   0.0800 
 49 H        4.0100     4.6550    -1.1160 H     1 <1>   0.0800 
 50 H        4.2930     7.3170     0.3180 H     1 <1>   0.0800 
 51 H        4.6000     7.0350    -1.3770 H     1 <1>   0.0800 
 52 H        5.6260     6.2930    -0.1740 H     1 <1>   0.0800 
@<TRIPOS>BOND
  1   1   2  2   
  2   2   3  am  
  3   2   4  1   
  4   3   5  1   
  5   3  25  1   
  6   4   6  1   
  7   4   7  1   
  8   4  26  1   
  9   5   8  1   
 10   5   9  2   
 11   6  10  am  
 12   6  11  1   
 13   7  12  1   
 14   7  27  1   
 15   7  28  1   
 16   8  13  2   
 17   8  14  1   
 18   9  15  1   
 19   9  16  1   
 20  10  17  2   
 21  10  18  1   
 22  11  19  1   
 23  11  29  1   
 24  11  30  1   
 25  12  19  1   
 26  12  31  1   
 27  12  32  1   
 28  13  15  1   
 29  14  33  1   
 30  14  34  1   
 31  14  35  1   
 32  15  20  1   
 33  16  36  1   
 34  16  37  1   
 35  16  38  1   
 36  18  21  1   
 37  18  22  1   
 38  18  39  1   
 39  19  40  1   
 40  19  41  1   
 41  20  23  1   
 42  20  42  1   
 43  20  43  1   
 44  21  22  1   
 45  21  44  1   
 46  21  45  1   
 47  22  46  1   
 48  22  47  1   
 49  23  24  1   
 50  23  48  1   
 51  23  49  1   
 52  24  50  1   
 53  24  51  1   
 54  24  52  1   
@<TRIPOS>SUBSTRUCTURE
  1 ****   3 GROUP 4 **** **** 0

# MOE 2024.06 (io_trps.svl 2023.06)
