@<TRIPOS>MOLECULE
NONAME
52 53 1 0 0 
SMALL
USER_CHARGES


@<TRIPOS>ATOM
  1 O        0.0690    -0.1600     1.6360 O.2   1 <1>  -0.5700 
  2 C        0.2060     0.0340     0.4500 C.2   1 <1>   0.5690 
  3 N        0.8700     1.1150    -0.0370 N.am  1 <1>  -0.7300 
  4 C       -0.3430    -1.0440    -0.4970 C.3   1 <1>   0.4040 
  5 C        1.7100     1.9930     0.8040 C.3   1 <1>   0.2840 
  6 N       -0.3040    -2.4170     0.1360 N.4   1 <1>  -0.9590 
  7 C        3.1380     1.4820     0.6940 C.ar  1 <1>  -0.1440 
  8 C        0.9130    -3.2230    -0.2480 C.3   1 <1>   0.4230 
  9 C       -1.6030    -3.1150    -0.1240 C.3   1 <1>   0.2630 
 10 C        4.0170     1.9160    -0.2950 C.ar  1 <1>  -0.1440 
 11 C        3.5590     0.5340     1.6160 C.ar  1 <1>  -0.1500 
 12 C        0.9620    -4.6130     0.4230 C.3   1 <1>  -0.0170 
 13 C        2.1810    -2.4480     0.1290 C.3   1 <1>  -0.2400 
 14 C        5.2980     1.3860    -0.3460 C.ar  1 <1>  -0.1500 
 15 C        3.6220     2.9660    -1.3260 C.3   1 <1>  -0.0970 
 16 C        4.8380     0.0120     1.5590 C.ar  1 <1>  -0.1500 
 17 C        0.0050    -5.6190    -0.1930 C.ar  1 <1>   0.1670 
 18 C        5.7080     0.4380     0.5740 C.ar  1 <1>  -0.1500 
 19 N       -0.1850    -5.5250    -1.5000 N.ar  1 <1>  -0.6200 
 20 C       -0.6120    -6.5610     0.6170 C.ar  1 <1>  -0.1500 
 21 C       -1.0100    -6.4210    -2.0230 C.ar  1 <1>   0.1600 
 22 C       -1.4820    -7.4760     0.0650 C.ar  1 <1>  -0.1440 
 23 C       -1.6740    -7.3950    -1.2980 C.ar  1 <1>  -0.1500 
 24 C       -2.1800    -8.5310     0.9050 C.3   1 <1>  -0.0970 
 25 H        1.0760     1.2150    -1.0320 H     1 <1>   0.3700 
 26 H        0.2210    -1.0420    -1.4130 H     1 <1>   0.0800 
 27 H       -1.3600    -0.7790    -0.7280 H     1 <1>   0.0800 
 28 H        1.3810     1.9580     1.8300 H     1 <1>   0.0800 
 29 H        1.6320     3.0120     0.4680 H     1 <1>   0.0800 
 30 H       -0.2350    -2.2120     1.1510 H     1 <1>   0.4500 
 31 H        0.9140    -3.3750    -1.3160 H     1 <1>   0.0800 
 32 H       -1.6630    -3.4180    -1.1570 H     1 <1>   0.0800 
 33 H       -2.4330    -2.4660     0.1010 H     1 <1>   0.0800 
 34 H       -1.6880    -3.9950     0.4920 H     1 <1>   0.0800 
 35 H        2.8870     0.1970     2.3880 H     1 <1>   0.1500 
 36 H        0.7950    -4.5180     1.4810 H     1 <1>   0.0800 
 37 H        1.9460    -5.0260     0.2900 H     1 <1>   0.0800 
 38 H        2.1850    -2.1970     1.1750 H     1 <1>   0.0800 
 39 H        2.2940    -1.5540    -0.4560 H     1 <1>   0.0800 
 40 H        3.0520    -3.0470    -0.0700 H     1 <1>   0.0800 
 41 H        5.9920     1.7100    -1.1010 H     1 <1>   0.1500 
 42 H        2.7320     2.6680    -1.8480 H     1 <1>   0.0800 
 43 H        4.4030     3.1050    -2.0510 H     1 <1>   0.0800 
 44 H        3.4480     3.9090    -0.8390 H     1 <1>   0.0800 
 45 H        5.1570    -0.7200     2.2800 H     1 <1>   0.1500 
 46 H        6.7060     0.0370     0.5250 H     1 <1>   0.1500 
 47 H       -0.4110    -6.5880     1.6730 H     1 <1>   0.1500 
 48 H       -1.1670    -6.3800    -3.0880 H     1 <1>   0.1500 
 49 H       -2.3280    -8.0840    -1.8020 H     1 <1>   0.1500 
 50 H       -2.3130    -8.1850     1.9150 H     1 <1>   0.0800 
 51 H       -1.5920    -9.4310     0.9230 H     1 <1>   0.0800 
 52 H       -3.1480    -8.7590     0.4950 H     1 <1>   0.0800 
@<TRIPOS>BOND
  1   1   2  2   
  2   2   3  am  
  3   2   4  1   
  4   3   5  1   
  5   3  25  1   
  6   4   6  1   
  7   4  26  1   
  8   4  27  1   
  9   5   7  1   
 10   5  28  1   
 11   5  29  1   
 12   6   8  1   
 13   6   9  1   
 14   6  30  1   
 15   7  10  ar  
 16   7  11  ar  
 17   8  12  1   
 18   8  13  1   
 19   8  31  1   
 20   9  32  1   
 21   9  33  1   
 22   9  34  1   
 23  10  14  ar  
 24  10  15  1   
 25  11  16  ar  
 26  11  35  1   
 27  12  17  1   
 28  12  36  1   
 29  12  37  1   
 30  13  38  1   
 31  13  39  1   
 32  13  40  1   
 33  14  18  ar  
 34  14  41  1   
 35  15  42  1   
 36  15  43  1   
 37  15  44  1   
 38  16  18  ar  
 39  16  45  1   
 40  17  19  ar  
 41  17  20  ar  
 42  18  46  1   
 43  19  21  ar  
 44  20  22  ar  
 45  20  47  1   
 46  21  23  ar  
 47  21  48  1   
 48  22  23  ar  
 49  22  24  1   
 50  23  49  1   
 51  24  50  1   
 52  24  51  1   
 53  24  52  1   
@<TRIPOS>SUBSTRUCTURE
  1 ****  13 GROUP 4 **** **** 0

# MOE 2024.06 (io_trps.svl 2023.06)
