@<TRIPOS>MOLECULE
NONAME
41 42 1 0 0 
SMALL
USER_CHARGES


@<TRIPOS>ATOM
  1 O        0.4630     0.6530    -0.0180 O.3   1 <1>  -0.5600 
  2 C        0.5510     2.0000    -0.3600 C.3   1 <1>   0.1200 
  3 C        1.6000    -0.0990    -0.3000 C.3   1 <1>   0.1200 
  4 C        1.6430     2.6630     0.4860 C.3   1 <1>  -0.1600 
  5 C        2.7630     0.4170     0.5550 C.3   1 <1>  -0.1600 
  6 C        2.9880     1.9240     0.3380 C.3   1 <1>  -0.0800 
  7 C        4.0540     2.4500     1.3110 C.3   1 <1>   0.2090 
  8 N        4.2940     3.8960     1.0730 N.pl3 1 <1>  -0.8690 
  9 C        5.3190     4.5930     0.5760 C.ar  1 <1>   0.7710 
 10 N        5.1420     5.8910     0.4850 N.ar  1 <1>  -0.6200 
 11 N        6.4490     3.9790     0.1940 N.ar  1 <1>  -0.1790 
 12 C        6.1350     6.6190     0.0110 C.ar  1 <1>   0.4100 
 13 C        7.4780     4.6840    -0.3320 C.ar  1 <1>   0.2110 
 14 N        5.9320     7.9610    -0.0200 N.pl3 1 <1>  -0.8380 
 15 C        7.3440     6.0300    -0.4450 C.ar  1 <1>  -0.1440 
 16 C        6.8250     8.9260     0.6780 C.3   1 <1>   0.1290 
 17 C        4.6130     8.5370    -0.4110 C.3   1 <1>   0.1290 
 18 C        8.4570     6.8610    -1.0830 C.3   1 <1>  -0.0970 
 19 H       -0.4070     2.4500    -0.1630 H     1 <1>   0.0800 
 20 H        0.7630     2.0760    -1.4130 H     1 <1>   0.0800 
 21 H        1.8130    -0.0200    -1.3530 H     1 <1>   0.0800 
 22 H        1.3800    -1.1260    -0.0630 H     1 <1>   0.0800 
 23 H        1.3240     2.6550     1.5140 H     1 <1>   0.0800 
 24 H        1.7400     3.6880     0.1760 H     1 <1>   0.0800 
 25 H        3.6520    -0.1350     0.3050 H     1 <1>   0.0800 
 26 H        2.5300     0.2180     1.5870 H     1 <1>   0.0800 
 27 H        3.3420     2.0610    -0.6690 H     1 <1>   0.0800 
 28 H        4.9630     1.8870     1.1930 H     1 <1>   0.0800 
 29 H        3.7120     2.3150     2.3250 H     1 <1>   0.0800 
 30 H        3.4940     4.4870     1.3280 H     1 <1>   0.4000 
 31 H        6.4720     2.9740     0.3130 H     1 <1>   0.4570 
 32 H        8.3620     4.1560    -0.6510 H     1 <1>   0.1500 
 33 H        7.5870     8.4050     1.2300 H     1 <1>   0.0800 
 34 H        6.2530     9.5180     1.3730 H     1 <1>   0.0800 
 35 H        7.2890     9.5800    -0.0390 H     1 <1>   0.0800 
 36 H        4.0480     7.8230    -0.9860 H     1 <1>   0.0800 
 37 H        4.7600     9.4190    -1.0090 H     1 <1>   0.0800 
 38 H        4.0510     8.7940     0.4700 H     1 <1>   0.0800 
 39 H        8.0360     7.5680    -1.7770 H     1 <1>   0.0800 
 40 H        9.1510     6.2400    -1.6210 H     1 <1>   0.0800 
 41 H        9.0020     7.4010    -0.3300 H     1 <1>   0.0800 
@<TRIPOS>BOND
  1   1   2  1   
  2   1   3  1   
  3   2   4  1   
  4   2  19  1   
  5   2  20  1   
  6   3   5  1   
  7   3  21  1   
  8   3  22  1   
  9   4   6  1   
 10   4  23  1   
 11   4  24  1   
 12   5   6  1   
 13   5  25  1   
 14   5  26  1   
 15   6   7  1   
 16   6  27  1   
 17   7   8  1   
 18   7  28  1   
 19   7  29  1   
 20   8   9  1   
 21   8  30  1   
 22   9  10  ar  
 23   9  11  ar  
 24  10  12  ar  
 25  11  13  ar  
 26  11  31  1   
 27  12  14  1   
 28  12  15  ar  
 29  13  15  ar  
 30  13  32  1   
 31  14  16  1   
 32  14  17  1   
 33  15  18  1   
 34  16  33  1   
 35  16  34  1   
 36  16  35  1   
 37  17  36  1   
 38  17  37  1   
 39  17  38  1   
 40  18  39  1   
 41  18  40  1   
 42  18  41  1   
@<TRIPOS>SUBSTRUCTURE
  1 ****   9 GROUP 4 **** **** 0

# MOE 2024.06 (io_trps.svl 2023.06)
