@<TRIPOS>MOLECULE
NONAME
43 45 1 0 0 
SMALL
USER_CHARGES


@<TRIPOS>ATOM
  1 F        0.9090     0.2860     2.2670 F     1 <1>  -0.1900 
  2 C        1.7020     0.8190     1.3770 C.ar  1 <1>   0.1900 
  3 C        2.4340    -0.0180     0.5400 C.ar  1 <1>   0.0860 
  4 C        1.7590     2.1970     1.3100 C.ar  1 <1>  -0.1500 
  5 C        3.2340     0.6320    -0.3940 C.ar  1 <1>   0.1900 
  6 C        2.3650    -1.4500     0.6380 C.2   1 <1>   0.5440 
  7 C        2.5770     2.8030     0.3680 C.ar  1 <1>   0.0820 
  8 F        3.9350    -0.0820    -1.2310 F     1 <1>  -0.1900 
  9 C        3.3250     2.0080    -0.4970 C.ar  1 <1>  -0.1500 
 10 O        3.1740    -2.0490     1.3190 O.2   1 <1>  -0.5700 
 11 N        1.3920    -2.1690    -0.0150 N.am  1 <1>  -0.6600 
 12 O        2.5940     4.1540     0.3490 O.3   1 <1>  -0.3630 
 13 C        0.2180    -1.6080    -0.7300 C.3   1 <1>   0.1400 
 14 C        1.2410    -3.6360     0.1460 C.3   1 <1>   0.1400 
 15 C        3.4170     4.8770    -0.5410 C.3   1 <1>   0.0400 
 16 C       -0.8750    -2.6530    -0.5190 C.3   1 <1>   0.2000 
 17 C       -0.1070    -3.9800    -0.5020 C.3   1 <1>  -0.0800 
 18 O       -1.4470    -2.4290     0.7240 O.3   1 <1>  -0.6800 
 19 C       -0.8380    -5.1570     0.1720 C.3   1 <1>  -0.0170 
 20 C       -0.0290    -6.4390     0.0530 C.ar  1 <1>  -0.1430 
 21 C       -0.0960    -7.2390    -1.0700 C.ar  1 <1>  -0.1500 
 22 C        0.8150    -6.8690     1.0570 C.ar  1 <1>  -0.1500 
 23 C        0.6640    -8.3950    -1.1340 C.ar  1 <1>   0.1600 
 24 C        1.5340    -8.0410     0.8930 C.ar  1 <1>   0.1600 
 25 N        1.4790    -8.8150    -0.1790 N.ar  1 <1>  -0.6200 
 26 H        1.1760     2.8010     1.9820 H     1 <1>   0.1500 
 27 H        3.9690     2.4300    -1.2440 H     1 <1>   0.1500 
 28 H       -0.0780    -0.6460    -0.3500 H     1 <1>   0.0800 
 29 H        0.4540    -1.5280    -1.7770 H     1 <1>   0.0800 
 30 H        2.0540    -4.1560    -0.3330 H     1 <1>   0.0800 
 31 H        1.2390    -3.8740     1.1960 H     1 <1>   0.0800 
 32 H        3.2670     5.9260    -0.3560 H     1 <1>   0.0800 
 33 H        3.1330     4.6410    -1.5510 H     1 <1>   0.0800 
 34 H        4.4440     4.6180    -0.3570 H     1 <1>   0.0800 
 35 H       -1.6500    -2.6150    -1.2660 H     1 <1>   0.0800 
 36 H        0.0940    -4.2510    -1.5230 H     1 <1>   0.0800 
 37 H       -0.7300    -2.3040     1.3810 H     1 <1>   0.4000 
 38 H       -1.7970    -5.2950    -0.2950 H     1 <1>   0.0800 
 39 H       -1.0160    -4.9420     1.2110 H     1 <1>   0.0800 
 40 H       -0.7320    -6.9750    -1.8950 H     1 <1>   0.1500 
 41 H        0.9230    -6.3050     1.9660 H     1 <1>   0.1500 
 42 H        0.5990    -9.0070    -2.0170 H     1 <1>   0.1500 
 43 H        2.1890    -8.3590     1.6860 H     1 <1>   0.1500 
@<TRIPOS>BOND
  1   1   2  1   
  2   2   3  ar  
  3   2   4  ar  
  4   3   5  ar  
  5   3   6  1   
  6   4   7  ar  
  7   4  26  1   
  8   5   8  1   
  9   5   9  ar  
 10   6  10  2   
 11   6  11  am  
 12   7   9  ar  
 13   7  12  1   
 14   9  27  1   
 15  11  13  1   
 16  11  14  1   
 17  12  15  1   
 18  13  16  1   
 19  13  28  1   
 20  13  29  1   
 21  14  17  1   
 22  14  30  1   
 23  14  31  1   
 24  15  32  1   
 25  15  33  1   
 26  15  34  1   
 27  16  17  1   
 28  16  18  1   
 29  16  35  1   
 30  17  19  1   
 31  17  36  1   
 32  18  37  1   
 33  19  20  1   
 34  19  38  1   
 35  19  39  1   
 36  20  21  ar  
 37  20  22  ar  
 38  21  23  ar  
 39  21  40  1   
 40  22  24  ar  
 41  22  41  1   
 42  23  25  ar  
 43  23  42  1   
 44  24  25  ar  
 45  24  43  1   
@<TRIPOS>SUBSTRUCTURE
  1 ****  11 GROUP 4 **** **** 0

# MOE 2024.06 (io_trps.svl 2023.06)
