@<TRIPOS>MOLECULE
NONAME
53 57 1 0 0 
SMALL
USER_CHARGES


@<TRIPOS>ATOM
  1 O       -0.9980     1.0090    -1.9600 O.2   1 <1>  -0.5700 
  2 C       -1.9200     1.4550    -1.2900 C.2   1 <1>   0.7160 
  3 N       -3.1130     0.7460    -1.3010 N.am  1 <1>  -0.6600 
  4 C       -1.7020     2.6770    -0.5110 C.2   1 <1>   0.2030 
  5 C       -4.1810     0.8880    -0.2720 C.3   1 <1>   0.1400 
  6 C       -3.4190    -0.2740    -2.3430 C.3   1 <1>   0.1400 
  7 N       -2.6110     3.5770    -0.1500 N.2   1 <1>  -0.7070 
  8 C       -0.4440     3.0800    -0.0330 C.2   1 <1>  -0.1810 
  9 C       -4.4160    -0.4620     0.4110 C.3   1 <1>  -0.1600 
 10 C       -3.6380    -1.6370    -1.6820 C.3   1 <1>  -0.1600 
 11 N       -1.9470     4.5180     0.5390 N.pl3 1 <1>   0.3000 
 12 C       -0.6400     4.2260     0.6320 C.2   1 <1>  -0.3320 
 13 C        0.9290     2.4370    -0.1730 C.3   1 <1>   0.3010 
 14 C       -4.7300    -1.5830    -0.5990 C.3   1 <1>   0.4240 
 15 C        0.4860     4.9720     1.3150 C.3   1 <1>   0.0200 
 16 O        1.9280     3.3460     0.2360 O.3   1 <1>  -0.5600 
 17 O       -5.8850    -1.1840    -1.3070 O.3   1 <1>  -0.5600 
 18 C       -4.9300    -2.9660     0.0860 C.ar  1 <1>  -0.1430 
 19 C        1.6900     4.0170     1.4460 C.3   1 <1>   0.1200 
 20 C       -7.1230    -1.4440    -0.7320 C.3   1 <1>   0.1200 
 21 C       -3.9020    -3.6060     0.7940 C.ar  1 <1>   0.0830 
 22 C       -6.1670    -3.6060     0.0090 C.ar  1 <1>  -0.1430 
 23 C       -7.3250    -2.9510    -0.7160 C.3   1 <1>  -0.0170 
 24 O       -2.6960    -2.9890     0.9050 O.3   1 <1>  -0.3630 
 25 C       -4.1220    -4.8520     1.3780 C.ar  1 <1>  -0.1500 
 26 C       -6.3730    -4.8460     0.5910 C.ar  1 <1>  -0.1500 
 27 C       -1.5690    -3.6070     1.4840 C.3   1 <1>   0.0400 
 28 C       -5.3510    -5.4700     1.2750 C.ar  1 <1>  -0.1500 
 29 H       -5.0840     1.2300    -0.7490 H     1 <1>   0.0800 
 30 H       -3.9070     1.6030     0.4800 H     1 <1>   0.0800 
 31 H       -2.6190    -0.3450    -3.0600 H     1 <1>   0.0800 
 32 H       -4.3070     0.0250    -2.8740 H     1 <1>   0.0800 
 33 H       -5.2100    -0.3780     1.1270 H     1 <1>   0.0800 
 34 H       -3.5290    -0.7000     0.9620 H     1 <1>   0.0800 
 35 H       -2.7000    -1.9490    -1.2700 H     1 <1>   0.0800 
 36 H       -3.9180    -2.3620    -2.4240 H     1 <1>   0.0800 
 37 H       -2.4110     5.3470     0.9310 H     1 <1>   0.2700 
 38 H        1.1270     2.1780    -1.1980 H     1 <1>   0.0800 
 39 H        0.9990     1.5540     0.4370 H     1 <1>   0.0800 
 40 H        0.1860     5.3060     2.2910 H     1 <1>   0.0800 
 41 H        0.7690     5.8280     0.7280 H     1 <1>   0.0800 
 42 H        1.5060     3.2780     2.2070 H     1 <1>   0.0800 
 43 H        2.5790     4.5670     1.7000 H     1 <1>   0.0800 
 44 H       -7.8750    -0.9670    -1.3350 H     1 <1>   0.0800 
 45 H       -7.1510    -1.0340     0.2620 H     1 <1>   0.0800 
 46 H       -7.3770    -3.3170    -1.7260 H     1 <1>   0.0800 
 47 H       -8.2520    -3.1760    -0.2230 H     1 <1>   0.0800 
 48 H       -3.3500    -5.3610     1.9220 H     1 <1>   0.1500 
 49 H       -7.3310    -5.3300     0.5160 H     1 <1>   0.1500 
 50 H       -0.7360    -2.9330     1.3920 H     1 <1>   0.0800 
 51 H       -1.3610    -4.5190     0.9540 H     1 <1>   0.0800 
 52 H       -1.7710    -3.7980     2.5230 H     1 <1>   0.0800 
 53 H       -5.5130    -6.4330     1.7260 H     1 <1>   0.1500 
@<TRIPOS>BOND
  1   1   2  2   
  2   2   3  am  
  3   2   4  1   
  4   3   5  1   
  5   3   6  1   
  6   4   7  2   
  7   4   8  1   
  8   5   9  1   
  9   5  29  1   
 10   5  30  1   
 11   6  10  1   
 12   6  31  1   
 13   6  32  1   
 14   7  11  1   
 15   8  12  2   
 16   8  13  1   
 17   9  14  1   
 18   9  33  1   
 19   9  34  1   
 20  10  14  1   
 21  10  35  1   
 22  10  36  1   
 23  11  12  1   
 24  11  37  1   
 25  12  15  1   
 26  13  16  1   
 27  13  38  1   
 28  13  39  1   
 29  14  17  1   
 30  14  18  1   
 31  15  19  1   
 32  15  40  1   
 33  15  41  1   
 34  16  19  1   
 35  17  20  1   
 36  18  21  ar  
 37  18  22  ar  
 38  19  42  1   
 39  19  43  1   
 40  20  23  1   
 41  20  44  1   
 42  20  45  1   
 43  21  24  1   
 44  21  25  ar  
 45  22  23  1   
 46  22  26  ar  
 47  23  46  1   
 48  23  47  1   
 49  24  27  1   
 50  25  28  ar  
 51  25  48  1   
 52  26  28  ar  
 53  26  49  1   
 54  27  50  1   
 55  27  51  1   
 56  27  52  1   
 57  28  53  1   
@<TRIPOS>SUBSTRUCTURE
  1 ****   9 GROUP 4 **** **** 0

# MOE 2024.06 (io_trps.svl 2023.06)
