@<TRIPOS>MOLECULE
NONAME
53 55 1 0 0 
SMALL
USER_CHARGES


@<TRIPOS>ATOM
  1 S        0.7950    -0.1730     0.5100 S.3   1 <1>  -0.0800 
  2 C        0.8450     1.4680     1.0820 C.2   1 <1>   0.4620 
  3 C       -0.6970     0.2180    -0.2790 C.2   1 <1>   0.1980 
  4 N       -0.1720     2.1460     0.6780 N.2   1 <1>  -0.3380 
  5 N        1.9030     1.9140     1.8580 N.pl3 1 <1>  -0.8220 
  6 N       -1.0410     1.4300    -0.0960 N.2   1 <1>  -0.3380 
  7 C       -1.3890    -0.8900    -1.0670 C.3   1 <1>   0.1000 
  8 C        3.2160     1.2440     1.9310 C.3   1 <1>   0.2090 
  9 C        1.8920     3.2890     2.3930 C.3   1 <1>   0.2090 
 10 C       -2.3770    -0.3240    -2.0970 C.3   1 <1>  -0.2400 
 11 C       -2.1170    -1.8520    -0.1190 C.3   1 <1>  -0.2400 
 12 C        4.1700     2.0250     1.0300 C.3   1 <1>  -0.1600 
 13 C        2.8010     4.1300     1.5030 C.3   1 <1>  -0.1600 
 14 C        4.2130     3.5250     1.3880 C.3   1 <1>   0.4230 
 15 N        4.9980     4.2700     0.3500 N.4   1 <1>  -0.9590 
 16 C        6.3990     3.7370     0.1640 C.3   1 <1>   0.3430 
 17 C        5.0700     5.7560     0.6090 C.3   1 <1>   0.3430 
 18 C        7.1810     4.5090    -0.9180 C.3   1 <1>   0.1100 
 19 C        5.8700     6.5060    -0.4750 C.3   1 <1>   0.1100 
 20 N        7.2330     5.9520    -0.6230 N.3   1 <1>  -0.8100 
 21 C        8.0160     6.6670    -1.6560 C.3   1 <1>   0.1100 
 22 C        8.4520     8.0600    -1.1830 C.3   1 <1>   0.1200 
 23 O        9.2100     8.6590    -2.1770 O.3   1 <1>  -0.6800 
 24 H       -0.6320    -1.4400    -1.6000 H     1 <1>   0.0800 
 25 H        3.1550     0.2190     1.6100 H     1 <1>   0.0800 
 26 H        3.5620     1.2490     2.9510 H     1 <1>   0.0800 
 27 H        2.2440     3.2820     3.4110 H     1 <1>   0.0800 
 28 H        0.8900     3.6900     2.3910 H     1 <1>   0.0800 
 29 H       -3.1630     0.2210    -1.6040 H     1 <1>   0.0800 
 30 H       -2.8150    -1.1170    -2.6760 H     1 <1>   0.0800 
 31 H       -1.8660     0.3470    -2.7650 H     1 <1>   0.0800 
 32 H       -2.8710    -1.3240     0.4390 H     1 <1>   0.0800 
 33 H       -1.4230    -2.2900     0.5750 H     1 <1>   0.0800 
 34 H       -2.5880    -2.6430    -0.6750 H     1 <1>   0.0800 
 35 H        3.8420     1.8970     0.0130 H     1 <1>   0.0800 
 36 H        5.1420     1.5810     1.1390 H     1 <1>   0.0800 
 37 H        2.8400     5.1130     1.9330 H     1 <1>   0.0800 
 38 H        2.3410     4.1940     0.5320 H     1 <1>   0.0800 
 39 H        4.7000     3.6270     2.3450 H     1 <1>   0.0800 
 40 H        4.5050     4.1460    -0.5430 H     1 <1>   0.4500 
 41 H        6.3670     2.6990    -0.1190 H     1 <1>   0.0800 
 42 H        6.9420     3.8140     1.0920 H     1 <1>   0.0800 
 43 H        5.5410     5.9350     1.5620 H     1 <1>   0.0800 
 44 H        4.0780     6.1740     0.6450 H     1 <1>   0.0800 
 45 H        6.7270     4.3430    -1.8810 H     1 <1>   0.0800 
 46 H        8.1850     4.1200    -0.9550 H     1 <1>   0.0800 
 47 H        5.9310     7.5420    -0.1900 H     1 <1>   0.0800 
 48 H        5.3450     6.4540    -1.4140 H     1 <1>   0.0800 
 49 H        7.4390     6.7580    -2.5610 H     1 <1>   0.0800 
 50 H        8.9060     6.1030    -1.8740 H     1 <1>   0.0800 
 51 H        9.0510     7.9970    -0.2910 H     1 <1>   0.0800 
 52 H        7.6020     8.6940    -1.0080 H     1 <1>   0.0800 
 53 H       10.0980     8.2540    -2.2350 H     1 <1>   0.4000 
@<TRIPOS>BOND
  1   1   2  1   
  2   1   3  1   
  3   2   4  2   
  4   2   5  1   
  5   3   6  2   
  6   3   7  1   
  7   4   6  1   
  8   5   8  1   
  9   5   9  1   
 10   7  10  1   
 11   7  11  1   
 12   7  24  1   
 13   8  12  1   
 14   8  25  1   
 15   8  26  1   
 16   9  13  1   
 17   9  27  1   
 18   9  28  1   
 19  10  29  1   
 20  10  30  1   
 21  10  31  1   
 22  11  32  1   
 23  11  33  1   
 24  11  34  1   
 25  12  14  1   
 26  12  35  1   
 27  12  36  1   
 28  13  14  1   
 29  13  37  1   
 30  13  38  1   
 31  14  15  1   
 32  14  39  1   
 33  15  16  1   
 34  15  17  1   
 35  15  40  1   
 36  16  18  1   
 37  16  41  1   
 38  16  42  1   
 39  17  19  1   
 40  17  43  1   
 41  17  44  1   
 42  18  20  1   
 43  18  45  1   
 44  18  46  1   
 45  19  20  1   
 46  19  47  1   
 47  19  48  1   
 48  20  21  1   
 49  21  22  1   
 50  21  49  1   
 51  21  50  1   
 52  22  23  1   
 53  22  51  1   
 54  22  52  1   
 55  23  53  1   
@<TRIPOS>SUBSTRUCTURE
  1 ****  14 GROUP 4 **** **** 0

# MOE 2024.06 (io_trps.svl 2023.06)
