@<TRIPOS>MOLECULE
NONAME
53 56 1 0 0 
SMALL
USER_CHARGES


@<TRIPOS>ATOM
  1 N       -0.8540    -1.4320     1.1180 N.ar  1 <1>  -0.6200 
  2 C       -0.2980    -1.9860     0.0600 C.ar  1 <1>   0.4100 
  3 C       -0.0240    -0.8600     1.9620 C.ar  1 <1>   0.4700 
  4 N       -1.1490    -2.6250    -0.8140 N.pl3 1 <1>  -0.8380 
  5 C        1.0800    -1.9430    -0.1450 C.ar  1 <1>  -0.1430 
  6 N        1.2900    -0.7740     1.8910 N.ar  1 <1>  -0.6200 
  7 C       -1.2390    -4.1170    -0.7400 C.3   1 <1>   0.2090 
  8 C       -2.4440    -1.9680    -1.1970 C.3   1 <1>   0.2090 
  9 C        1.8370    -1.3260     0.8270 C.ar  1 <1>   0.1670 
 10 C        1.7060    -2.5460    -1.4050 C.3   1 <1>  -0.0960 
 11 C       -2.4450    -4.5880     0.0980 C.3   1 <1>   0.2090 
 12 C       -3.6440    -2.4850    -0.3790 C.3   1 <1>   0.2090 
 13 C        3.3500    -1.2240     0.7590 C.3   1 <1>  -0.0960 
 14 N       -3.7180    -3.9820    -0.3940 N.pl3 1 <1>  -0.8380 
 15 C       -4.9190    -4.6220    -0.1550 C.ar  1 <1>   0.4100 
 16 N       -5.8620    -3.9500     0.4800 N.ar  1 <1>  -0.6200 
 17 C       -5.1300    -5.9160    -0.5670 C.ar  1 <1>  -0.1500 
 18 C       -6.9830    -4.6120     0.6840 C.ar  1 <1>   0.4700 
 19 C       -6.3370    -6.5130    -0.2900 C.ar  1 <1>   0.4100 
 20 N       -7.2870    -5.8470     0.3440 N.ar  1 <1>  -0.6200 
 21 N       -6.5980    -7.8210    -0.6620 N.pl3 1 <1>  -0.8380 
 22 C       -5.6390    -8.9060    -0.3280 C.3   1 <1>   0.2090 
 23 C       -7.9930    -8.2810    -0.9150 C.3   1 <1>   0.2090 
 24 C       -6.1470    -9.6930     0.8850 C.3   1 <1>  -0.1600 
 25 C       -8.5120    -9.0690     0.2920 C.3   1 <1>  -0.1600 
 26 C       -7.5710   -10.2230     0.6660 C.3   1 <1>  -0.1600 
 27 H       -0.4760    -0.4050     2.8270 H     1 <1>   0.1500 
 28 H       -0.3370    -4.5100    -0.3060 H     1 <1>   0.0800 
 29 H       -1.3300    -4.5110    -1.7360 H     1 <1>   0.0800 
 30 H       -2.6310    -2.1530    -2.2400 H     1 <1>   0.0800 
 31 H       -2.3600    -0.9030    -1.0630 H     1 <1>   0.0800 
 32 H        1.0050    -2.5430    -2.2200 H     1 <1>   0.0800 
 33 H        2.0080    -3.5590    -1.2140 H     1 <1>   0.0800 
 34 H        2.5610    -1.9780    -1.7220 H     1 <1>   0.0800 
 35 H       -2.2900    -4.2940     1.1230 H     1 <1>   0.0800 
 36 H       -2.5050    -5.6600     0.0650 H     1 <1>   0.0800 
 37 H       -4.5510    -2.0730    -0.7870 H     1 <1>   0.0800 
 38 H       -3.5510    -2.1440     0.6370 H     1 <1>   0.0800 
 39 H        3.7790    -2.1040     0.3190 H     1 <1>   0.0800 
 40 H        3.7570    -1.1160     1.7490 H     1 <1>   0.0800 
 41 H        3.6270    -0.3620     0.1800 H     1 <1>   0.0800 
 42 H       -4.3760    -6.4420    -1.1100 H     1 <1>   0.1500 
 43 H       -7.7560    -4.0690     1.2010 H     1 <1>   0.1500 
 44 H       -4.6690    -8.4960    -0.1040 H     1 <1>   0.0800 
 45 H       -5.5410    -9.5610    -1.1770 H     1 <1>   0.0800 
 46 H       -8.0000    -8.9070    -1.7900 H     1 <1>   0.0800 
 47 H       -8.6350    -7.4380    -1.1080 H     1 <1>   0.0800 
 48 H       -6.1320    -9.0430     1.7430 H     1 <1>   0.0800 
 49 H       -5.4810   -10.5130     1.0810 H     1 <1>   0.0800 
 50 H       -9.4910    -9.4540     0.0700 H     1 <1>   0.0800 
 51 H       -8.6060    -8.3930     1.1240 H     1 <1>   0.0800 
 52 H       -7.9230   -10.7030     1.5630 H     1 <1>   0.0800 
 53 H       -7.5650   -10.9520    -0.1260 H     1 <1>   0.0800 
@<TRIPOS>BOND
  1   1   2  ar  
  2   1   3  ar  
  3   2   4  1   
  4   2   5  ar  
  5   3   6  ar  
  6   3  27  1   
  7   4   7  1   
  8   4   8  1   
  9   5   9  ar  
 10   5  10  1   
 11   6   9  ar  
 12   7  11  1   
 13   7  28  1   
 14   7  29  1   
 15   8  12  1   
 16   8  30  1   
 17   8  31  1   
 18   9  13  1   
 19  10  32  1   
 20  10  33  1   
 21  10  34  1   
 22  11  14  1   
 23  11  35  1   
 24  11  36  1   
 25  12  14  1   
 26  12  37  1   
 27  12  38  1   
 28  13  39  1   
 29  13  40  1   
 30  13  41  1   
 31  14  15  1   
 32  15  16  ar  
 33  15  17  ar  
 34  16  18  ar  
 35  17  19  ar  
 36  17  42  1   
 37  18  20  ar  
 38  18  43  1   
 39  19  20  ar  
 40  19  21  1   
 41  21  22  1   
 42  21  23  1   
 43  22  24  1   
 44  22  44  1   
 45  22  45  1   
 46  23  25  1   
 47  23  46  1   
 48  23  47  1   
 49  24  26  1   
 50  24  48  1   
 51  24  49  1   
 52  25  26  1   
 53  25  50  1   
 54  25  51  1   
 55  26  52  1   
 56  26  53  1   
@<TRIPOS>SUBSTRUCTURE
  1 ****  14 GROUP 4 **** **** 0

# MOE 2024.06 (io_trps.svl 2023.06)
