@<TRIPOS>MOLECULE
NONAME
45 46 1 0 0 
SMALL
USER_CHARGES


@<TRIPOS>ATOM
  1 O        3.0260    -0.0690    -3.1490 O.co2 1 <1>  -0.9000 
  2 C        3.5810     0.5670    -2.2510 C.2   1 <1>   0.9060 
  3 O        4.5820     1.2720    -2.4510 O.co2 1 <1>  -0.9000 
  4 C        3.0220     0.4840    -0.8410 C.3   1 <1>  -0.1860 
  5 C        4.0660    -0.0180     0.1880 C.3   1 <1>   0.2000 
  6 C        2.3640     1.8180    -0.4070 C.3   1 <1>  -0.1600 
  7 O        5.3580     0.3260    -0.1900 O.3   1 <1>  -0.6800 
  8 C        3.7860     0.5880     1.5820 C.3   1 <1>   0.1100 
  9 C        3.3710     2.6960     0.3320 C.3   1 <1>   0.1100 
 10 N        3.8040     2.0820     1.6110 N.3   1 <1>  -0.8100 
 11 C        5.1470     2.5700     2.0540 C.3   1 <1>   0.1710 
 12 C        5.4200     4.0780     1.9590 C.2   1 <1>   0.5690 
 13 O        5.3020     4.7600     2.9500 O.2   1 <1>  -0.5700 
 14 N        5.8300     4.5700     0.7460 N.am  1 <1>  -0.5470 
 15 C        6.1990     5.8610     0.3330 C.ar  1 <1>   0.1170 
 16 C        6.6030     6.8570     1.2140 C.ar  1 <1>  -0.1500 
 17 C        6.1780     6.1520    -1.0250 C.ar  1 <1>  -0.1500 
 18 C        6.9710     8.1120     0.7590 C.ar  1 <1>   0.0820 
 19 C        6.5420     7.4010    -1.4980 C.ar  1 <1>   0.0820 
 20 O        7.3520     9.0140     1.7010 O.3   1 <1>  -0.3620 
 21 C        6.9400     8.3890    -0.6040 C.ar  1 <1>  -0.1500 
 22 O        6.4840     7.5830    -2.8430 O.3   1 <1>  -0.3620 
 23 C        7.7100    10.3340     1.3600 C.3   1 <1>   0.0400 
 24 C        6.8250     8.8160    -3.4370 C.3   1 <1>   0.0400 
 25 H        2.2350    -0.2450    -0.8780 H     1 <1>   0.0800 
 26 H        4.0330    -1.0920     0.2350 H     1 <1>   0.0800 
 27 H        1.5230     1.6330     0.2370 H     1 <1>   0.0800 
 28 H        2.0010     2.3380    -1.2770 H     1 <1>   0.0800 
 29 H        5.2910     0.7310    -1.1110 H     1 <1>   0.4000 
 30 H        4.4820     0.1850     2.2960 H     1 <1>   0.0800 
 31 H        2.8060     0.2670     1.8870 H     1 <1>   0.0800 
 32 H        2.9420     3.6630     0.5320 H     1 <1>   0.0800 
 33 H        4.2150     2.8250    -0.3230 H     1 <1>   0.0800 
 34 H        5.2830     2.2840     3.0800 H     1 <1>   0.0800 
 35 H        5.9100     2.0720     1.4840 H     1 <1>   0.0800 
 36 H        5.7980     3.8780    -0.0070 H     1 <1>   0.3700 
 37 H        6.6380     6.6670     2.2700 H     1 <1>   0.1500 
 38 H        5.8720     5.4010    -1.7310 H     1 <1>   0.1500 
 39 H        7.2230     9.3560    -0.9610 H     1 <1>   0.1500 
 40 H        7.9540    10.8580     2.2660 H     1 <1>   0.0800 
 41 H        6.8740    10.8100     0.8780 H     1 <1>   0.0800 
 42 H        8.5680    10.3070     0.7120 H     1 <1>   0.0800 
 43 H        6.7000     8.7190    -4.5010 H     1 <1>   0.0800 
 44 H        7.8520     9.0410    -3.2100 H     1 <1>   0.0800 
 45 H        6.1670     9.5790    -3.0600 H     1 <1>   0.0800 
@<TRIPOS>BOND
  1   1   2  ar  
  2   2   3  ar  
  3   2   4  1   
  4   4   5  1   
  5   4   6  1   
  6   4  25  1   
  7   5   7  1   
  8   5   8  1   
  9   5  26  1   
 10   6   9  1   
 11   6  27  1   
 12   6  28  1   
 13   7  29  1   
 14   8  10  1   
 15   8  30  1   
 16   8  31  1   
 17   9  10  1   
 18   9  32  1   
 19   9  33  1   
 20  10  11  1   
 21  11  12  1   
 22  11  34  1   
 23  11  35  1   
 24  12  13  2   
 25  12  14  am  
 26  14  15  1   
 27  14  36  1   
 28  15  16  ar  
 29  15  17  ar  
 30  16  18  ar  
 31  16  37  1   
 32  17  19  ar  
 33  17  38  1   
 34  18  20  1   
 35  18  21  ar  
 36  19  21  ar  
 37  19  22  1   
 38  20  23  1   
 39  21  39  1   
 40  22  24  1   
 41  23  40  1   
 42  23  41  1   
 43  23  42  1   
 44  24  43  1   
 45  24  44  1   
 46  24  45  1   
@<TRIPOS>SUBSTRUCTURE
  1 ****  14 GROUP 4 **** **** 0

# MOE 2024.06 (io_trps.svl 2023.06)
