@<TRIPOS>MOLECULE
NONAME
35 36 1 0 0 
SMALL
USER_CHARGES


@<TRIPOS>ATOM
  1 F       -0.9870     1.0230     0.1520 F     1 <1>  -0.3400 
  2 C       -2.2340     1.2320    -0.2710 C.3   1 <1>   0.2600 
  3 C       -3.0920     1.5120     0.9580 C.3   1 <1>   0.2000 
  4 C       -2.7730    -0.0900    -0.8310 C.3   1 <1>   0.2090 
  5 O       -4.2920     2.0900     0.5510 O.3   1 <1>  -0.6800 
  6 C       -3.3950     0.1070     1.4850 C.3   1 <1>   0.2090 
  7 N       -3.5540    -0.7450     0.2690 N.pl3 1 <1>  -0.8380 
  8 C       -4.8280    -1.1740    -0.0290 C.ar  1 <1>   0.4100 
  9 N       -5.6790    -0.2170    -0.3530 N.ar  1 <1>  -0.6200 
 10 C       -5.2170    -2.5110     0.0040 C.ar  1 <1>  -0.1430 
 11 C       -6.9050    -0.6020    -0.6380 C.ar  1 <1>   0.4770 
 12 C       -6.5250    -2.7680    -0.3190 C.ar  1 <1>   0.1600 
 13 C       -4.3060    -3.6890     0.3710 C.3   1 <1>   0.0640 
 14 N       -7.3870    -1.8270    -0.6440 N.ar  1 <1>  -0.6200 
 15 C       -7.8770     0.4930    -1.0070 C.3   1 <1>  -0.0970 
 16 C       -3.8040    -3.6050     1.8170 C.3   1 <1>  -0.2400 
 17 C       -3.1400    -3.8510    -0.6110 C.3   1 <1>  -0.2400 
 18 H       -2.1940     2.0390    -0.9790 H     1 <1>   0.0800 
 19 H       -2.6190     2.1620     1.6720 H     1 <1>   0.0800 
 20 H       -1.9700    -0.7260    -1.1600 H     1 <1>   0.0800 
 21 H       -3.4230     0.1130    -1.6650 H     1 <1>   0.0800 
 22 H       -4.8550     1.3630     0.1710 H     1 <1>   0.4000 
 23 H       -4.2770     0.0980     2.1040 H     1 <1>   0.0800 
 24 H       -2.5590    -0.2570     2.0570 H     1 <1>   0.0800 
 25 H       -6.8950    -3.7790    -0.3150 H     1 <1>   0.1500 
 26 H       -4.8890    -4.5910     0.3030 H     1 <1>   0.0800 
 27 H       -8.8500     0.2660    -0.6120 H     1 <1>   0.0800 
 28 H       -7.9390     0.5650    -2.0760 H     1 <1>   0.0800 
 29 H       -7.5510     1.4350    -0.6070 H     1 <1>   0.0800 
 30 H       -3.1230    -2.7830     1.9370 H     1 <1>   0.0800 
 31 H       -3.2920    -4.5110     2.0860 H     1 <1>   0.0800 
 32 H       -4.6330    -3.4660     2.4880 H     1 <1>   0.0800 
 33 H       -2.4460    -3.0370    -0.5160 H     1 <1>   0.0800 
 34 H       -3.5080    -3.8740    -1.6210 H     1 <1>   0.0800 
 35 H       -2.6140    -4.7680    -0.4150 H     1 <1>   0.0800 
@<TRIPOS>BOND
  1   1   2  1   
  2   2   3  1   
  3   2   4  1   
  4   2  18  1   
  5   3   5  1   
  6   3   6  1   
  7   3  19  1   
  8   4   7  1   
  9   4  20  1   
 10   4  21  1   
 11   5  22  1   
 12   6   7  1   
 13   6  23  1   
 14   6  24  1   
 15   7   8  1   
 16   8   9  ar  
 17   8  10  ar  
 18   9  11  ar  
 19  10  12  ar  
 20  10  13  1   
 21  11  14  ar  
 22  11  15  1   
 23  12  14  ar  
 24  12  25  1   
 25  13  16  1   
 26  13  17  1   
 27  13  26  1   
 28  15  27  1   
 29  15  28  1   
 30  15  29  1   
 31  16  30  1   
 32  16  31  1   
 33  16  32  1   
 34  17  33  1   
 35  17  34  1   
 36  17  35  1   
@<TRIPOS>SUBSTRUCTURE
  1 ****   8 GROUP 4 **** **** 0

# MOE 2024.06 (io_trps.svl 2023.06)
