@<TRIPOS>MOLECULE
NONAME
48 51 1 0 0 
SMALL
USER_CHARGES


@<TRIPOS>ATOM
  1 O       -0.3650    -1.0510     0.3390 O.2   1 <1>  -0.5700 
  2 C       -1.4670    -0.7800    -0.0740 C.2   1 <1>   0.5690 
  3 N       -1.9640     0.4630    -0.2680 N.am  1 <1>  -0.6600 
  4 C       -2.4820    -1.8230    -0.4440 C.3   1 <1>  -0.0990 
  5 C       -1.1970     1.7140    -0.0300 C.3   1 <1>   0.2200 
  6 C       -3.3420     0.4250    -0.7950 C.3   1 <1>   0.1400 
  7 C       -3.7940    -1.0190    -0.5330 C.3   1 <1>  -0.0800 
  8 C       -1.9050     2.6100     0.9850 C.3   1 <1>  -0.1600 
  9 C       -1.1060     2.5620    -1.2960 C.3   1 <1>  -0.1600 
 10 C       -4.5870    -1.0750     0.7810 C.3   1 <1>   0.2090 
 11 C       -2.7360     3.6300     0.1920 C.3   1 <1>  -0.1600 
 12 C       -2.3140     3.5030    -1.2760 C.3   1 <1>  -0.1600 
 13 N       -5.0420    -2.4650     1.0390 N.pl3 1 <1>  -0.8380 
 14 C       -6.2020    -2.8900     0.4230 C.ar  1 <1>   0.4100 
 15 C       -4.8100    -2.9530     2.4200 C.3   1 <1>   0.1290 
 16 N       -7.3100    -2.2630     0.8080 N.ar  1 <1>  -0.6200 
 17 C       -6.1700    -3.9120    -0.5420 C.ar  1 <1>   0.0540 
 18 C       -8.4300    -2.6510     0.2270 C.ar  1 <1>   0.1600 
 19 C       -4.9300    -4.5400    -0.9170 C.2   1 <1>   0.4620 
 20 C       -7.3650    -4.2860    -1.1330 C.ar  1 <1>  -0.1500 
 21 C       -8.5140    -3.6400    -0.7350 C.ar  1 <1>  -0.1500 
 22 N       -4.2940    -4.3260    -2.0150 N.2   1 <1>  -0.4100 
 23 N       -4.3210    -5.4550    -0.1550 N.2   1 <1>  -0.5650 
 24 O       -3.2290    -5.0670    -2.0050 O.3   1 <1>  -0.0190 
 25 C       -3.3070    -5.7130    -0.8720 C.2   1 <1>   0.3280 
 26 H       -2.5130    -2.6100     0.2860 H     1 <1>   0.0800 
 27 H       -2.2220    -2.2320    -1.4020 H     1 <1>   0.0800 
 28 H       -0.2100     1.4560     0.3200 H     1 <1>   0.0800 
 29 H       -3.3220     0.6270    -1.8520 H     1 <1>   0.0800 
 30 H       -3.9740     1.1400    -0.2990 H     1 <1>   0.0800 
 31 H       -4.4200    -1.3660    -1.3360 H     1 <1>   0.0800 
 32 H       -1.1540     3.1420     1.5420 H     1 <1>   0.0800 
 33 H       -2.5000     2.0410     1.6770 H     1 <1>   0.0800 
 34 H       -1.0590     1.9590    -2.1860 H     1 <1>   0.0800 
 35 H       -0.2100     3.1540    -1.2370 H     1 <1>   0.0800 
 36 H       -5.4440    -0.4260     0.7200 H     1 <1>   0.0800 
 37 H       -3.9680    -0.7320     1.5940 H     1 <1>   0.0800 
 38 H       -2.5440     4.6250     0.5560 H     1 <1>   0.0800 
 39 H       -3.7870     3.4250     0.2950 H     1 <1>   0.0800 
 40 H       -3.1180     3.0750    -1.8480 H     1 <1>   0.0800 
 41 H       -2.0660     4.4610    -1.7000 H     1 <1>   0.0800 
 42 H       -3.7550    -2.9660     2.6320 H     1 <1>   0.0800 
 43 H       -5.1950    -3.9540     2.5240 H     1 <1>   0.0800 
 44 H       -5.3120    -2.3120     3.1240 H     1 <1>   0.0800 
 45 H       -9.3340    -2.1510     0.5340 H     1 <1>   0.1500 
 46 H       -7.3860    -5.0600    -1.8800 H     1 <1>   0.1500 
 47 H       -9.4660    -3.8990    -1.1640 H     1 <1>   0.1500 
 48 H       -2.5230    -6.4070    -0.6290 H     1 <1>   0.1500 
@<TRIPOS>BOND
  1   1   2  2   
  2   2   3  am  
  3   2   4  1   
  4   3   5  1   
  5   3   6  1   
  6   4   7  1   
  7   4  26  1   
  8   4  27  1   
  9   5   8  1   
 10   5   9  1   
 11   5  28  1   
 12   6   7  1   
 13   6  29  1   
 14   6  30  1   
 15   7  10  1   
 16   7  31  1   
 17   8  11  1   
 18   8  32  1   
 19   8  33  1   
 20   9  12  1   
 21   9  34  1   
 22   9  35  1   
 23  10  13  1   
 24  10  36  1   
 25  10  37  1   
 26  11  12  1   
 27  11  38  1   
 28  11  39  1   
 29  12  40  1   
 30  12  41  1   
 31  13  14  1   
 32  13  15  1   
 33  14  16  ar  
 34  14  17  ar  
 35  15  42  1   
 36  15  43  1   
 37  15  44  1   
 38  16  18  ar  
 39  17  19  1   
 40  17  20  ar  
 41  18  21  ar  
 42  18  45  1   
 43  19  22  2   
 44  19  23  1   
 45  20  21  ar  
 46  20  46  1   
 47  21  47  1   
 48  22  24  1   
 49  23  25  2   
 50  24  25  1   
 51  25  48  1   
@<TRIPOS>SUBSTRUCTURE
  1 ****   7 GROUP 4 **** **** 0

# MOE 2024.06 (io_trps.svl 2023.06)
