@<TRIPOS>MOLECULE
NONAME
20 21 1 0 0 
SMALL
USER_CHARGES


@<TRIPOS>ATOM
  1 O       -4.4670     0.2650     1.3840 O.3   1 <1>  -0.6800 
  2 C       -4.4320     0.7840     0.0890 C.3   1 <1>   0.2000 
  3 C       -3.0500     0.5010    -0.5600 C.3   1 <1>   0.4230 
  4 C       -4.4590     2.3230     0.1610 C.3   1 <1>  -0.1600 
  5 N       -2.0370     0.7740     0.4970 N.4   1 <1>  -0.9060 
  6 C       -2.8710     1.6890    -1.4830 C.3   1 <1>  -0.1600 
  7 C       -3.0690     2.7170    -0.3830 C.3   1 <1>  -0.0800 
  8 C       -1.9930     2.2640     0.6170 C.3   1 <1>   0.3430 
  9 H       -5.3670     0.3580     1.7680 H     1 <1>   0.4000 
 10 H       -5.2470     0.3830    -0.4910 H     1 <1>   0.0800 
 11 H       -2.9650    -0.4700    -1.0210 H     1 <1>   0.0800 
 12 H       -5.2250     2.7050    -0.4930 H     1 <1>   0.0800 
 13 H       -4.6280     2.6990     1.1570 H     1 <1>   0.0800 
 14 H       -2.4540     0.3700     1.3540 H     1 <1>   0.4500 
 15 H       -1.1270     0.3470     0.3030 H     1 <1>   0.4500 
 16 H       -1.8940     1.7200    -1.9360 H     1 <1>   0.0800 
 17 H       -3.6310     1.7380    -2.2460 H     1 <1>   0.0800 
 18 H       -2.9850     3.7480    -0.6840 H     1 <1>   0.0800 
 19 H       -2.2230     2.5890     1.6190 H     1 <1>   0.0800 
 20 H       -1.0250     2.6370     0.3220 H     1 <1>   0.0800 
@<TRIPOS>BOND
  1   1   2  1   
  2   1   9  1   
  3   2   3  1   
  4   2   4  1   
  5   2  10  1   
  6   3   5  1   
  7   3   6  1   
  8   3  11  1   
  9   4   7  1   
 10   4  12  1   
 11   4  13  1   
 12   5   8  1   
 13   5  14  1   
 14   5  15  1   
 15   6   7  1   
 16   6  16  1   
 17   6  17  1   
 18   7   8  1   
 19   7  18  1   
 20   8  19  1   
 21   8  20  1   
@<TRIPOS>SUBSTRUCTURE
  1 ****   3 GROUP 4 **** **** 0

# MOE 2024.06 (io_trps.svl 2023.06)
