@<TRIPOS>MOLECULE
NONAME
43 45 1 0 0 
SMALL
USER_CHARGES


@<TRIPOS>ATOM
  1 O       -2.2460     0.4060    -2.0720 O.2   1 <1>  -0.5700 
  2 C       -2.2690    -0.5100    -1.2890 C.2   1 <1>   0.5690 
  3 N       -2.1320    -0.3190     0.0660 N.am  1 <1>  -0.6600 
  4 C       -2.6120    -1.8870    -1.8310 C.3   1 <1>  -0.0190 
  5 C       -2.1750    -1.4780     1.0220 C.3   1 <1>   0.2200 
  6 C       -1.6440     0.9770     0.6230 C.3   1 <1>   0.0600 
  7 C       -1.6640    -3.0370    -1.4320 C.3   1 <1>   0.1200 
  8 C       -4.0660    -2.2000    -1.4770 C.3   1 <1>   0.3430 
  9 C       -0.9970    -2.4480     0.7860 C.3   1 <1>   0.1200 
 10 C       -3.5320    -2.2300     0.9860 C.3   1 <1>   0.3430 
 11 O       -0.6680    -2.6110    -0.5620 O.3   1 <1>  -0.5600 
 12 N       -4.4740    -1.7660    -0.0950 N.4   1 <1>  -0.9590 
 13 C       -5.8820    -2.2140     0.1870 C.3   1 <1>   0.5240 
 14 C       -5.9980    -3.7210     0.4590 C.2   1 <1>   0.1080 
 15 N       -5.1670    -4.6300     0.0270 N.2   1 <1>  -0.7070 
 16 C       -7.0220    -4.2800     1.2150 C.2   1 <1>  -0.1500 
 17 N       -5.6500    -5.8010     0.4950 N.pl3 1 <1>   0.3140 
 18 C       -6.7680    -5.6050     1.2170 C.2   1 <1>  -0.3020 
 19 C       -5.0020    -7.1010     0.2160 C.3   1 <1>   0.0960 
 20 C       -3.9840    -7.4570     1.3060 C.3   1 <1>  -0.2400 
 21 H       -2.5700    -1.8310    -2.9030 H     1 <1>   0.0800 
 22 H       -2.0640    -1.1020     2.0250 H     1 <1>   0.0800 
 23 H       -2.2890     1.3070     1.4180 H     1 <1>   0.0800 
 24 H       -1.6240     1.7380    -0.1390 H     1 <1>   0.0800 
 25 H       -0.6440     0.8560     1.0030 H     1 <1>   0.0800 
 26 H       -1.1610    -3.3980    -2.3140 H     1 <1>   0.0800 
 27 H       -2.1860    -3.8690    -0.9870 H     1 <1>   0.0800 
 28 H       -4.2320    -3.2580    -1.6010 H     1 <1>   0.0800 
 29 H       -4.6950    -1.6930    -2.1910 H     1 <1>   0.0800 
 30 H       -1.1920    -3.4180     1.2110 H     1 <1>   0.0800 
 31 H       -0.1190    -2.0520     1.2660 H     1 <1>   0.0800 
 32 H       -4.0040    -2.0960     1.9450 H     1 <1>   0.0800 
 33 H       -3.3500    -3.2870     0.8790 H     1 <1>   0.0800 
 34 H       -4.4290    -0.7350    -0.0870 H     1 <1>   0.4500 
 35 H       -6.2570    -1.6890     1.0490 H     1 <1>   0.0800 
 36 H       -6.5150    -1.9660    -0.6490 H     1 <1>   0.0800 
 37 H       -7.8410    -3.7670     1.6910 H     1 <1>   0.1500 
 38 H       -7.3140    -6.4060     1.6830 H     1 <1>   0.1500 
 39 H       -5.7640    -7.8580     0.1600 H     1 <1>   0.0800 
 40 H       -4.5130    -7.0390    -0.7390 H     1 <1>   0.0800 
 41 H       -4.4690    -7.5330     2.2640 H     1 <1>   0.0800 
 42 H       -3.2120    -6.7090     1.3540 H     1 <1>   0.0800 
 43 H       -3.5260    -8.4040     1.0810 H     1 <1>   0.0800 
@<TRIPOS>BOND
  1   1   2  2   
  2   2   3  am  
  3   2   4  1   
  4   3   5  1   
  5   3   6  1   
  6   4   7  1   
  7   4   8  1   
  8   4  21  1   
  9   5   9  1   
 10   5  10  1   
 11   5  22  1   
 12   6  23  1   
 13   6  24  1   
 14   6  25  1   
 15   7  11  1   
 16   7  26  1   
 17   7  27  1   
 18   8  12  1   
 19   8  28  1   
 20   8  29  1   
 21   9  11  1   
 22   9  30  1   
 23   9  31  1   
 24  10  12  1   
 25  10  32  1   
 26  10  33  1   
 27  12  13  1   
 28  12  34  1   
 29  13  14  1   
 30  13  35  1   
 31  13  36  1   
 32  14  15  2   
 33  14  16  1   
 34  15  17  1   
 35  16  18  2   
 36  16  37  1   
 37  17  18  1   
 38  17  19  1   
 39  18  38  1   
 40  19  20  1   
 41  19  39  1   
 42  19  40  1   
 43  20  41  1   
 44  20  42  1   
 45  20  43  1   
@<TRIPOS>SUBSTRUCTURE
  1 ****  10 GROUP 4 **** **** 0

# MOE 2024.06 (io_trps.svl 2023.06)
