@<TRIPOS>MOLECULE
NONAME
49 51 1 0 0 
SMALL
USER_CHARGES


@<TRIPOS>ATOM
  1 S       -0.2100     0.3000     0.3550 S.o2  1 <1>   1.0900 
  2 O        0.8090    -0.7220     0.3830 O.2   1 <1>  -0.6500 
  3 O        0.0460     1.5780     0.9780 O.2   1 <1>  -0.6500 
  4 C       -1.7040    -0.3980     1.0660 C.3   1 <1>   0.0890 
  5 C       -0.6310     0.5990    -1.3530 C.3   1 <1>  -0.1350 
  6 C       -2.9700     0.3700     0.7090 C.ar  1 <1>  -0.1440 
  7 C       -3.1420     1.6860     1.1130 C.ar  1 <1>   0.1600 
  8 C       -3.9660    -0.2300    -0.0380 C.ar  1 <1>  -0.1500 
  9 N       -4.1950     2.4310     0.8300 N.ar  1 <1>  -0.6200 
 10 C       -5.0670     0.5370    -0.3340 C.ar  1 <1>  -0.1500 
 11 C       -5.1500     1.8520     0.1130 C.ar  1 <1>   0.4100 
 12 N       -6.2670     2.6030    -0.1940 N.pl3 1 <1>  -0.8380 
 13 C       -7.5710     2.1750     0.3960 C.3   1 <1>   0.2090 
 14 C       -6.1390     4.0800    -0.2910 C.3   1 <1>   0.2090 
 15 C       -8.7540     2.6700    -0.4730 C.3   1 <1>   0.0000 
 16 C       -7.2790     4.6400    -1.1490 C.3   1 <1>  -0.1600 
 17 C      -10.1060     2.2420     0.1240 C.3   1 <1>   0.2000 
 18 C       -8.6610     4.2040    -0.6280 C.3   1 <1>  -0.1600 
 19 C       -8.7660     1.9450    -1.8310 C.3   1 <1>  -0.1600 
 20 O      -10.1030     2.3350     1.5180 O.3   1 <1>  -0.5600 
 21 C      -10.3290     0.7970    -0.3320 C.3   1 <1>  -0.1600 
 22 C       -9.4580     0.6020    -1.5800 C.3   1 <1>  -0.1600 
 23 C      -11.3610     2.2950     2.1120 C.3   1 <1>   0.0400 
 24 H       -1.8090    -1.4120     0.7320 H     1 <1>   0.0800 
 25 H       -1.6060    -0.4270     2.1350 H     1 <1>   0.0800 
 26 H       -0.9290    -0.3120    -1.8350 H     1 <1>   0.0800 
 27 H        0.2190     0.9950    -1.8740 H     1 <1>   0.0800 
 28 H       -1.4320     1.3100    -1.4280 H     1 <1>   0.0800 
 29 H       -2.3720     2.1610     1.6990 H     1 <1>   0.1500 
 30 H       -3.8970    -1.2490    -0.3790 H     1 <1>   0.1500 
 31 H       -5.8770     0.1430    -0.9160 H     1 <1>   0.1500 
 32 H       -7.6020     1.1040     0.4920 H     1 <1>   0.0800 
 33 H       -7.6490     2.5910     1.3850 H     1 <1>   0.0800 
 34 H       -6.1740     4.5030     0.6990 H     1 <1>   0.0800 
 35 H       -5.1900     4.3330    -0.7340 H     1 <1>   0.0800 
 36 H       -7.2180     5.7130    -1.1540 H     1 <1>   0.0800 
 37 H       -7.1440     4.3010    -2.1610 H     1 <1>   0.0800 
 38 H      -10.8820     2.8770    -0.2710 H     1 <1>   0.0800 
 39 H       -9.4270     4.5620    -1.2930 H     1 <1>   0.0800 
 40 H       -8.8250     4.6570     0.3350 H     1 <1>   0.0800 
 41 H       -9.3520     2.5100    -2.5360 H     1 <1>   0.0800 
 42 H       -7.7780     1.8150    -2.2400 H     1 <1>   0.0800 
 43 H      -10.0160     0.1110     0.4360 H     1 <1>   0.0800 
 44 H      -11.3670     0.6320    -0.5610 H     1 <1>   0.0800 
 45 H       -8.7190    -0.1570    -1.3880 H     1 <1>   0.0800 
 46 H      -10.0450     0.3060    -2.4320 H     1 <1>   0.0800 
 47 H      -11.2300     2.3860     3.1760 H     1 <1>   0.0800 
 48 H      -11.8360     1.3560     1.8870 H     1 <1>   0.0800 
 49 H      -11.9530     3.1170     1.7490 H     1 <1>   0.0800 
@<TRIPOS>BOND
  1   1   2  2   
  2   1   3  2   
  3   1   4  1   
  4   1   5  1   
  5   4   6  1   
  6   4  24  1   
  7   4  25  1   
  8   5  26  1   
  9   5  27  1   
 10   5  28  1   
 11   6   7  ar  
 12   6   8  ar  
 13   7   9  ar  
 14   7  29  1   
 15   8  10  ar  
 16   8  30  1   
 17   9  11  ar  
 18  10  11  ar  
 19  10  31  1   
 20  11  12  1   
 21  12  13  1   
 22  12  14  1   
 23  13  15  1   
 24  13  32  1   
 25  13  33  1   
 26  14  16  1   
 27  14  34  1   
 28  14  35  1   
 29  15  17  1   
 30  15  18  1   
 31  15  19  1   
 32  16  18  1   
 33  16  36  1   
 34  16  37  1   
 35  17  20  1   
 36  17  21  1   
 37  17  38  1   
 38  18  39  1   
 39  18  40  1   
 40  19  22  1   
 41  19  41  1   
 42  19  42  1   
 43  20  23  1   
 44  21  22  1   
 45  21  43  1   
 46  21  44  1   
 47  22  45  1   
 48  22  46  1   
 49  23  47  1   
 50  23  48  1   
 51  23  49  1   
@<TRIPOS>SUBSTRUCTURE
  1 ****  11 GROUP 4 **** **** 0

# MOE 2024.06 (io_trps.svl 2023.06)
