@<TRIPOS>MOLECULE
NONAME
50 52 1 0 0 
SMALL
USER_CHARGES


@<TRIPOS>ATOM
  1 O        0.0200     0.9250     0.9820 O.2   1 <1>  -0.5700 
  2 C       -0.0430     2.0280     0.5050 C.2   1 <1>   0.5690 
  3 N       -0.6040     3.0470     1.1930 N.am  1 <1>  -0.7300 
  4 C        0.4940     2.2930    -0.9020 C.3   1 <1>   0.1810 
  5 C       -0.7820     4.4140     0.6460 C.3   1 <1>   0.3640 
  6 O        0.7830     3.6590    -1.1110 O.3   1 <1>  -0.5600 
  7 C       -2.2460     4.8130     0.7890 C.ar  1 <1>  -0.1440 
  8 C       -0.3020     4.5340    -0.8250 C.3   1 <1>   0.2610 
  9 C       -3.2670     3.9410     0.4310 C.ar  1 <1>  -0.1500 
 10 C       -2.5770     6.0700     1.2770 C.ar  1 <1>  -0.1500 
 11 C        0.0450     6.0000    -1.1360 C.2   1 <1>   0.5690 
 12 C       -4.5920     4.3180     0.5620 C.ar  1 <1>  -0.1500 
 13 C       -3.9020     6.4470     1.4080 C.ar  1 <1>  -0.1500 
 14 O       -0.8270     6.6660    -1.6420 O.2   1 <1>  -0.5700 
 15 N        1.2750     6.5760    -0.8660 N.am  1 <1>  -0.6600 
 16 C       -4.9100     5.5710     1.0510 C.ar  1 <1>  -0.1500 
 17 C        1.6070     7.9100    -1.4660 C.3   1 <1>   0.1400 
 18 C        2.4320     5.8570    -0.2420 C.3   1 <1>   0.1400 
 19 C        2.4790     8.7730    -0.5400 C.3   1 <1>   0.3430 
 20 C        3.3070     6.7790     0.6310 C.3   1 <1>   0.3430 
 21 N        3.7170     8.0460    -0.0760 N.4   1 <1>  -0.9590 
 22 C        4.6170     8.9080     0.7450 C.3   1 <1>   0.4230 
 23 C        5.0500    10.1290    -0.0680 C.3   1 <1>  -0.2400 
 24 C        5.8620     8.1190     1.1560 C.3   1 <1>  -0.2400 
 25 H       -1.0500     2.8410     2.0890 H     1 <1>   0.3700 
 26 H       -0.2300     1.9790    -1.6320 H     1 <1>   0.0800 
 27 H        1.4010     1.7360    -1.0500 H     1 <1>   0.0800 
 28 H       -0.1900     5.0800     1.2490 H     1 <1>   0.0800 
 29 H       -1.1110     4.2520    -1.4750 H     1 <1>   0.0800 
 30 H       -3.0420     2.9610     0.0480 H     1 <1>   0.1500 
 31 H       -1.8100     6.7710     1.5560 H     1 <1>   0.1500 
 32 H       -5.3760     3.6360     0.2820 H     1 <1>   0.1500 
 33 H       -4.1510     7.4240     1.7860 H     1 <1>   0.1500 
 34 H       -5.9410     5.8650     1.1520 H     1 <1>   0.1500 
 35 H        2.1170     7.7550    -2.4000 H     1 <1>   0.0800 
 36 H        0.7060     8.4590    -1.6830 H     1 <1>   0.0800 
 37 H        2.0810     5.0550     0.3820 H     1 <1>   0.0800 
 38 H        3.0330     5.4200    -1.0210 H     1 <1>   0.0800 
 39 H        1.8890     9.0680     0.3120 H     1 <1>   0.0800 
 40 H        2.7510     9.6660    -1.0760 H     1 <1>   0.0800 
 41 H        4.1800     6.2240     0.9300 H     1 <1>   0.0800 
 42 H        2.7560     7.0290     1.5230 H     1 <1>   0.0800 
 43 H        4.2480     7.7770    -0.9130 H     1 <1>   0.4500 
 44 H        4.1000     9.2390     1.6330 H     1 <1>   0.0800 
 45 H        5.4910     9.8380    -1.0050 H     1 <1>   0.0800 
 46 H        5.7880    10.6860     0.4840 H     1 <1>   0.0800 
 47 H        4.2310    10.8010    -0.2430 H     1 <1>   0.0800 
 48 H        6.3550     7.6940     0.2990 H     1 <1>   0.0800 
 49 H        5.6270     7.3460     1.8640 H     1 <1>   0.0800 
 50 H        6.5600     8.7770     1.6440 H     1 <1>   0.0800 
@<TRIPOS>BOND
  1   1   2  2   
  2   2   3  am  
  3   2   4  1   
  4   3   5  1   
  5   3  25  1   
  6   4   6  1   
  7   4  26  1   
  8   4  27  1   
  9   5   7  1   
 10   5   8  1   
 11   5  28  1   
 12   6   8  1   
 13   7   9  ar  
 14   7  10  ar  
 15   8  11  1   
 16   8  29  1   
 17   9  12  ar  
 18   9  30  1   
 19  10  13  ar  
 20  10  31  1   
 21  11  14  2   
 22  11  15  am  
 23  12  16  ar  
 24  12  32  1   
 25  13  16  ar  
 26  13  33  1   
 27  15  17  1   
 28  15  18  1   
 29  16  34  1   
 30  17  19  1   
 31  17  35  1   
 32  17  36  1   
 33  18  20  1   
 34  18  37  1   
 35  18  38  1   
 36  19  21  1   
 37  19  39  1   
 38  19  40  1   
 39  20  21  1   
 40  20  41  1   
 41  20  42  1   
 42  21  22  1   
 43  21  43  1   
 44  22  23  1   
 45  22  24  1   
 46  22  44  1   
 47  23  45  1   
 48  23  46  1   
 49  23  47  1   
 50  24  48  1   
 51  24  49  1   
 52  24  50  1   
@<TRIPOS>SUBSTRUCTURE
  1 ****  11 GROUP 4 **** **** 0

# MOE 2024.06 (io_trps.svl 2023.06)
