@<TRIPOS>MOLECULE
NONAME
36 36 1 0 0 
SMALL
USER_CHARGES


@<TRIPOS>ATOM
  1 O      -10.2880    -1.0210     0.3380 O.co2 1 <1>  -0.9000 
  2 C       -9.5910    -1.6140    -0.4920 C.2   1 <1>   0.9060 
  3 O       -9.2030    -1.0440    -1.5170 O.co2 1 <1>  -0.9000 
  4 C       -9.0400    -2.9480    -0.1150 C.3   1 <1>  -0.2050 
  5 C       -7.5400    -2.8630    -0.1600 C.2   1 <1>   0.5690 
  6 O       -6.9540    -3.7420    -0.7480 O.2   1 <1>  -0.5700 
  7 N       -6.8400    -1.8230     0.4080 N.am  1 <1>  -0.6600 
  8 C       -5.7420    -1.2340    -0.4020 C.3   1 <1>   0.1400 
  9 C       -7.3930    -0.8810     1.4360 C.3   1 <1>   0.1400 
 10 C       -6.2570     0.0530    -1.0710 C.3   1 <1>   0.3430 
 11 C       -7.7630     0.4970     0.8320 C.3   1 <1>   0.3430 
 12 N       -6.6800     1.0770    -0.0490 N.4   1 <1>  -0.9590 
 13 C       -7.0890     2.3480    -0.7050 C.3   1 <1>   0.4230 
 14 C       -7.1930     3.4700     0.3390 C.3   1 <1>  -0.1600 
 15 C       -8.3960     2.2140    -1.4920 C.3   1 <1>  -0.2400 
 16 C       -5.9150     3.6740     1.1720 C.3   1 <1>  -0.2400 
 17 H       -9.3910    -3.6700    -0.8240 H     1 <1>   0.0800 
 18 H       -9.3700    -3.2210     0.8670 H     1 <1>   0.0800 
 19 H       -5.4310    -1.9240    -1.1680 H     1 <1>   0.0800 
 20 H       -4.8930    -1.0280     0.2240 H     1 <1>   0.0800 
 21 H       -6.6590    -0.7440     2.2100 H     1 <1>   0.0800 
 22 H       -8.2650    -1.3080     1.9000 H     1 <1>   0.0800 
 23 H       -7.0960    -0.2060    -1.6980 H     1 <1>   0.0800 
 24 H       -5.4830     0.4590    -1.7000 H     1 <1>   0.0800 
 25 H       -7.9940     1.1770     1.6320 H     1 <1>   0.0800 
 26 H       -8.6590     0.3920     0.2490 H     1 <1>   0.0800 
 27 H       -5.8760     1.2850     0.5460 H     1 <1>   0.4500 
 28 H       -6.3150     2.6270    -1.4030 H     1 <1>   0.0800 
 29 H       -8.0290     3.2930     0.9930 H     1 <1>   0.0800 
 30 H       -7.4000     4.3880    -0.1840 H     1 <1>   0.0800 
 31 H       -9.2370     2.0220    -0.8490 H     1 <1>   0.0800 
 32 H       -8.3390     1.4250    -2.2200 H     1 <1>   0.0800 
 33 H       -8.5940     3.1280    -2.0210 H     1 <1>   0.0800 
 34 H       -5.7290     2.8380     1.8220 H     1 <1>   0.0800 
 35 H       -6.0240     4.5500     1.7890 H     1 <1>   0.0800 
 36 H       -5.0620     3.8230     0.5320 H     1 <1>   0.0800 
@<TRIPOS>BOND
  1   1   2  ar  
  2   2   3  ar  
  3   2   4  1   
  4   4   5  1   
  5   4  17  1   
  6   4  18  1   
  7   5   6  2   
  8   5   7  am  
  9   7   8  1   
 10   7   9  1   
 11   8  10  1   
 12   8  19  1   
 13   8  20  1   
 14   9  11  1   
 15   9  21  1   
 16   9  22  1   
 17  10  12  1   
 18  10  23  1   
 19  10  24  1   
 20  11  12  1   
 21  11  25  1   
 22  11  26  1   
 23  12  13  1   
 24  12  27  1   
 25  13  14  1   
 26  13  15  1   
 27  13  28  1   
 28  14  16  1   
 29  14  29  1   
 30  14  30  1   
 31  15  31  1   
 32  15  32  1   
 33  15  33  1   
 34  16  34  1   
 35  16  35  1   
 36  16  36  1   
@<TRIPOS>SUBSTRUCTURE
  1 ****  11 GROUP 4 **** **** 0

# MOE 2024.06 (io_trps.svl 2023.06)
