@<TRIPOS>MOLECULE
NONAME
46 48 1 0 0 
SMALL
USER_CHARGES


@<TRIPOS>ATOM
  1 O       -1.2020     0.7510    -1.3100 O.2   1 <1>  -0.5700 
  2 C       -1.5120     1.5860    -0.4740 C.2   1 <1>   0.7160 
  3 N       -2.6590     1.3480     0.2670 N.am  1 <1>  -0.6600 
  4 C       -0.6680     2.7640    -0.3260 C.2   1 <1>   0.1410 
  5 C       -3.2070    -0.0400     0.3580 C.3   1 <1>   0.1400 
  6 C       -3.4100     2.4330     0.9680 C.3   1 <1>   0.1400 
  7 N       -0.6290     3.5670     0.7650 N.2   1 <1>  -0.2270 
  8 C        0.2330     3.2550    -1.2120 C.2   1 <1>  -0.3020 
  9 C       -4.2120    -0.3160    -0.7700 C.3   1 <1>   0.1400 
 10 C       -4.9370     2.2910     0.9000 C.3   1 <1>  -0.1600 
 11 N        0.2280     4.5030     0.5690 N.2   1 <1>  -0.4180 
 12 N        0.7690     4.3230    -0.6350 N.pl3 1 <1>   0.3000 
 13 N       -5.5260     0.3580    -0.5230 N.am  1 <1>  -0.6600 
 14 C       -5.4670     1.8460    -0.4660 C.3   1 <1>   0.1400 
 15 C       -6.7190    -0.2960    -0.3260 C.2   1 <1>   0.5690 
 16 O       -7.7380     0.3060    -0.0760 O.2   1 <1>  -0.5700 
 17 C       -6.7880    -1.8130    -0.4050 C.3   1 <1>  -0.0990 
 18 C       -8.1990    -2.3520    -0.1700 C.3   1 <1>   0.1200 
 19 O       -8.1520    -3.7590    -0.2530 O.3   1 <1>  -0.3630 
 20 C       -9.2710    -4.5070    -0.0800 C.ar  1 <1>   0.0820 
 21 C       -9.1260    -5.8810    -0.1800 C.ar  1 <1>  -0.1500 
 22 C      -10.5290    -3.9700     0.1880 C.ar  1 <1>  -0.1500 
 23 C      -10.2170    -6.7170    -0.0160 C.ar  1 <1>  -0.1500 
 24 C      -11.6190    -4.8080     0.3510 C.ar  1 <1>  -0.1500 
 25 C      -11.4640    -6.1800     0.2490 C.ar  1 <1>  -0.1500 
 26 H       -3.6670    -0.2010     1.3160 H     1 <1>   0.0800 
 27 H       -2.3930    -0.7400     0.2690 H     1 <1>   0.0800 
 28 H       -3.1580     3.3760     0.5140 H     1 <1>   0.0800 
 29 H       -3.0950     2.4720     1.9970 H     1 <1>   0.0800 
 30 H        0.4990     2.8870    -2.1860 H     1 <1>   0.1500 
 31 H       -4.3390    -1.3790    -0.8490 H     1 <1>   0.0800 
 32 H       -3.8020     0.0230    -1.7050 H     1 <1>   0.0800 
 33 H       -5.3560     3.2550     1.1250 H     1 <1>   0.0800 
 34 H       -5.2860     1.6210     1.6660 H     1 <1>   0.0800 
 35 H        1.4930     4.9440    -1.0140 H     1 <1>   0.2700 
 36 H       -4.8450     2.2230    -1.2600 H     1 <1>   0.0800 
 37 H       -6.4550     2.2520    -0.6100 H     1 <1>   0.0800 
 38 H       -6.1350    -2.2250     0.3400 H     1 <1>   0.0800 
 39 H       -6.4620    -2.1190    -1.3810 H     1 <1>   0.0800 
 40 H       -8.8750    -1.9850    -0.9230 H     1 <1>   0.0800 
 41 H       -8.5500    -2.0770     0.8100 H     1 <1>   0.0800 
 42 H       -8.1540    -6.2910    -0.3860 H     1 <1>   0.1500 
 43 H      -10.6790    -2.9100     0.2720 H     1 <1>   0.1500 
 44 H      -10.0940    -7.7830    -0.0960 H     1 <1>   0.1500 
 45 H      -12.5890    -4.3910     0.5570 H     1 <1>   0.1500 
 46 H      -12.3140    -6.8280     0.3760 H     1 <1>   0.1500 
@<TRIPOS>BOND
  1   1   2  2   
  2   2   3  am  
  3   2   4  1   
  4   3   5  1   
  5   3   6  1   
  6   4   7  1   
  7   4   8  2   
  8   5   9  1   
  9   5  26  1   
 10   5  27  1   
 11   6  10  1   
 12   6  28  1   
 13   6  29  1   
 14   7  11  2   
 15   8  12  1   
 16   8  30  1   
 17   9  13  1   
 18   9  31  1   
 19   9  32  1   
 20  10  14  1   
 21  10  33  1   
 22  10  34  1   
 23  11  12  1   
 24  12  35  1   
 25  13  14  1   
 26  13  15  am  
 27  14  36  1   
 28  14  37  1   
 29  15  16  2   
 30  15  17  1   
 31  17  18  1   
 32  17  38  1   
 33  17  39  1   
 34  18  19  1   
 35  18  40  1   
 36  18  41  1   
 37  19  20  1   
 38  20  21  ar  
 39  20  22  ar  
 40  21  23  ar  
 41  21  42  1   
 42  22  24  ar  
 43  22  43  1   
 44  23  25  ar  
 45  23  44  1   
 46  24  25  ar  
 47  24  45  1   
 48  25  46  1   
@<TRIPOS>SUBSTRUCTURE
  1 ****  13 GROUP 4 **** **** 0

# MOE 2024.06 (io_trps.svl 2023.06)
