@<TRIPOS>MOLECULE
NONAME
42 43 1 0 0 
SMALL
USER_CHARGES


@<TRIPOS>ATOM
  1 F        0.2920    -2.1500     1.4150 F     1 <1>  -0.3400 
  2 C       -0.1330    -3.1440     0.6500 C.3   1 <1>   1.3000 
  3 F        0.0840    -2.8040    -0.6160 F     1 <1>  -0.3400 
  4 F        0.6060    -4.2130     0.9260 F     1 <1>  -0.3400 
  5 O       -1.5030    -3.3880     0.8900 O.3   1 <1>  -0.3630 
  6 C       -2.0900    -4.3800     0.1900 C.ar  1 <1>   0.0820 
  7 C       -2.1020    -5.6690     0.6970 C.ar  1 <1>  -0.1500 
  8 C       -2.6990    -4.1020    -1.0230 C.ar  1 <1>  -0.1500 
  9 C       -2.7170    -6.6830    -0.0150 C.ar  1 <1>  -0.1500 
 10 C       -3.3140    -5.1160    -1.7340 C.ar  1 <1>  -0.1500 
 11 C       -3.3310    -6.4110    -1.2310 C.ar  1 <1>  -0.1430 
 12 C       -4.0320    -7.5210    -1.9900 C.3   1 <1>   0.4870 
 13 N       -5.2410    -7.8940    -1.2240 N.4   1 <1>  -0.9590 
 14 C       -5.7720    -9.2340    -1.5820 C.3   1 <1>   0.5240 
 15 C       -6.2690    -6.8090    -1.1540 C.3   1 <1>   0.3430 
 16 C       -5.9710    -9.9770    -0.2670 C.2   1 <1>   0.0460 
 17 C       -7.2300    -6.9800     0.0310 C.3   1 <1>   0.1200 
 18 N       -5.1690    -9.7060     0.7880 N.2   1 <1>  -0.5650 
 19 C       -6.8890   -10.9130     0.0580 C.2   1 <1>  -0.3020 
 20 O       -8.1380    -5.9360    -0.0110 O.3   1 <1>  -0.6800 
 21 C       -5.6060   -10.4870     1.7210 C.2   1 <1>   0.0060 
 22 N       -6.6530   -11.2500     1.3400 N.pl3 1 <1>   0.0330 
 23 C       -5.0110   -10.5570     3.1130 C.3   1 <1>  -0.0600 
 24 H       -1.6310    -5.8760     1.6430 H     1 <1>   0.1500 
 25 H       -2.6910    -3.0950    -1.4060 H     1 <1>   0.1500 
 26 H       -2.7120    -7.6810     0.3940 H     1 <1>   0.1500 
 27 H       -3.7790    -4.8810    -2.6770 H     1 <1>   0.1500 
 28 H       -3.3660    -8.3650    -2.0710 H     1 <1>   0.0800 
 29 H       -4.2980    -7.1900    -2.9810 H     1 <1>   0.0800 
 30 H       -4.9120    -8.0600    -0.2530 H     1 <1>   0.4500 
 31 H       -5.0540    -9.7760    -2.1740 H     1 <1>   0.0800 
 32 H       -6.6990    -9.1590    -2.1250 H     1 <1>   0.0800 
 33 H       -6.8370    -6.7820    -2.0690 H     1 <1>   0.0800 
 34 H       -5.7770    -5.8580    -1.0330 H     1 <1>   0.0800 
 35 H       -6.6980    -6.9280     0.9650 H     1 <1>   0.0800 
 36 H       -7.7820    -7.9010    -0.0340 H     1 <1>   0.0800 
 37 H       -7.6770   -11.3580    -0.5250 H     1 <1>   0.1500 
 38 H       -8.7450    -5.9570     0.7590 H     1 <1>   0.4000 
 39 H       -7.1510   -11.9410     1.9120 H     1 <1>   0.2700 
 40 H       -4.1790    -9.8810     3.1930 H     1 <1>   0.0800 
 41 H       -4.6630   -11.5530     3.3170 H     1 <1>   0.0800 
 42 H       -5.7480   -10.2820     3.8460 H     1 <1>   0.0800 
@<TRIPOS>BOND
  1   1   2  1   
  2   2   3  1   
  3   2   4  1   
  4   2   5  1   
  5   5   6  1   
  6   6   7  ar  
  7   6   8  ar  
  8   7   9  ar  
  9   7  24  1   
 10   8  10  ar  
 11   8  25  1   
 12   9  11  ar  
 13   9  26  1   
 14  10  11  ar  
 15  10  27  1   
 16  11  12  1   
 17  12  13  1   
 18  12  28  1   
 19  12  29  1   
 20  13  14  1   
 21  13  15  1   
 22  13  30  1   
 23  14  16  1   
 24  14  31  1   
 25  14  32  1   
 26  15  17  1   
 27  15  33  1   
 28  15  34  1   
 29  16  18  1   
 30  16  19  2   
 31  17  20  1   
 32  17  35  1   
 33  17  36  1   
 34  18  21  2   
 35  19  22  1   
 36  19  37  1   
 37  20  38  1   
 38  21  22  1   
 39  21  23  1   
 40  22  39  1   
 41  23  40  1   
 42  23  41  1   
 43  23  42  1   
@<TRIPOS>SUBSTRUCTURE
  1 ****   9 GROUP 4 **** **** 0

# MOE 2024.06 (io_trps.svl 2023.06)
