@<TRIPOS>MOLECULE
NONAME
49 51 1 0 0 
SMALL
USER_CHARGES


@<TRIPOS>ATOM
  1 O        0.6650     0.8420     1.2660 O.3   1 <1>  -0.0190 
  2 N        1.6930     0.0970     1.5520 N.2   1 <1>  -0.4100 
  3 C        1.0180     1.9690     0.7050 C.2   1 <1>  -0.0400 
  4 C        2.7270     0.7530     1.1670 C.2   1 <1>   0.1080 
  5 C        2.3580     1.9730     0.6070 C.2   1 <1>  -0.1500 
  6 C       -0.0590     2.9640     0.3050 C.3   1 <1>   0.0200 
  7 C        4.1500     0.2600     1.3050 C.3   1 <1>  -0.0590 
  8 C        0.5240     4.3170    -0.1360 C.3   1 <1>  -0.0800 
  9 C       -0.4860     5.3120    -0.7030 C.3   1 <1>   0.2000 
 10 C        1.1820     5.0940     1.0010 C.3   1 <1>   0.2090 
 11 O       -1.6630     5.2420     0.0570 O.3   1 <1>  -0.5600 
 12 C        0.2040     6.6750    -0.5180 C.3   1 <1>   0.2090 
 13 N        1.2640     6.4930     0.5160 N.pl3 1 <1>  -0.8380 
 14 C       -2.7880     5.8120    -0.5350 C.3   1 <1>   0.0400 
 15 C        2.5260     6.9780     0.2230 C.ar  1 <1>   0.4100 
 16 N        3.1480     6.3520    -0.7670 N.ar  1 <1>  -0.6200 
 17 C        3.0750     8.0500     0.9340 C.ar  1 <1>   0.0730 
 18 C        4.3550     6.7770    -1.0750 C.ar  1 <1>   0.1670 
 19 C        2.3030     8.6390     1.9880 C.1   1 <1>   0.4840 
 20 C        4.3480     8.4970     0.5950 C.ar  1 <1>  -0.1440 
 21 C        5.0100     7.8250    -0.4270 C.ar  1 <1>  -0.1430 
 22 C        4.9960     6.0210    -2.2270 C.3   1 <1>  -0.0970 
 23 N        1.7420     9.1590     2.8370 N.1   1 <1>  -0.5570 
 24 C        5.0000     9.6820     1.3180 C.3   1 <1>  -0.0970 
 25 C        6.4300     8.2370    -0.8270 C.3   1 <1>  -0.0970 
 26 H        3.0230     2.7130     0.2020 H     1 <1>   0.1500 
 27 H       -0.6330     2.5400    -0.5000 H     1 <1>   0.0800 
 28 H       -0.7220     3.1080     1.1400 H     1 <1>   0.0800 
 29 H        4.7350     0.9830     1.8420 H     1 <1>   0.0800 
 30 H        4.5780     0.1070     0.3320 H     1 <1>   0.0800 
 31 H        4.1640    -0.6700     1.8430 H     1 <1>   0.0800 
 32 H        1.2710     4.1470    -0.8920 H     1 <1>   0.0800 
 33 H       -0.7170     5.1040    -1.7330 H     1 <1>   0.0800 
 34 H        2.1570     4.7050     1.2410 H     1 <1>   0.0800 
 35 H        0.5630     5.0690     1.8820 H     1 <1>   0.0800 
 36 H       -0.4930     7.4290    -0.2020 H     1 <1>   0.0800 
 37 H        0.6550     6.9770    -1.4470 H     1 <1>   0.0800 
 38 H       -3.6150     5.6930     0.1420 H     1 <1>   0.0800 
 39 H       -3.0000     5.3010    -1.4580 H     1 <1>   0.0800 
 40 H       -2.6150     6.8590    -0.7100 H     1 <1>   0.0800 
 41 H        5.4060     6.7060    -2.9440 H     1 <1>   0.0800 
 42 H        4.2660     5.4120    -2.7300 H     1 <1>   0.0800 
 43 H        5.7720     5.3790    -1.8530 H     1 <1>   0.0800 
 44 H        5.5020    10.3230     0.6160 H     1 <1>   0.0800 
 45 H        5.7150     9.3220     2.0350 H     1 <1>   0.0800 
 46 H        4.2850    10.2950     1.8350 H     1 <1>   0.0800 
 47 H        7.0060     8.5190     0.0350 H     1 <1>   0.0800 
 48 H        6.3890     9.0710    -1.5050 H     1 <1>   0.0800 
 49 H        6.9670     7.4370    -1.3010 H     1 <1>   0.0800 
@<TRIPOS>BOND
  1   1   2  1   
  2   1   3  1   
  3   2   4  2   
  4   3   5  2   
  5   3   6  1   
  6   4   5  1   
  7   4   7  1   
  8   5  26  1   
  9   6   8  1   
 10   6  27  1   
 11   6  28  1   
 12   7  29  1   
 13   7  30  1   
 14   7  31  1   
 15   8   9  1   
 16   8  10  1   
 17   8  32  1   
 18   9  11  1   
 19   9  12  1   
 20   9  33  1   
 21  10  13  1   
 22  10  34  1   
 23  10  35  1   
 24  11  14  1   
 25  12  13  1   
 26  12  36  1   
 27  12  37  1   
 28  13  15  1   
 29  14  38  1   
 30  14  39  1   
 31  14  40  1   
 32  15  16  ar  
 33  15  17  ar  
 34  16  18  ar  
 35  17  19  1   
 36  17  20  ar  
 37  18  21  ar  
 38  18  22  1   
 39  19  23  3   
 40  20  21  ar  
 41  20  24  1   
 42  21  25  1   
 43  22  41  1   
 44  22  42  1   
 45  22  43  1   
 46  24  44  1   
 47  24  45  1   
 48  24  46  1   
 49  25  47  1   
 50  25  48  1   
 51  25  49  1   
@<TRIPOS>SUBSTRUCTURE
  1 ****  10 GROUP 4 **** **** 0

# MOE 2024.06 (io_trps.svl 2023.06)
