@<TRIPOS>MOLECULE
NONAME
47 48 1 0 0 
SMALL
USER_CHARGES


@<TRIPOS>ATOM
  1 CL      -0.2750     0.2210    -1.4230 Cl    1 <1>  -0.1770 
  2 C       -1.3770     1.1930    -0.4570 C.ar  1 <1>   0.1770 
  3 C       -1.2740     2.6050    -0.5310 C.ar  1 <1>   0.4100 
  4 C       -2.3130     0.6250     0.3510 C.ar  1 <1>   0.2170 
  5 N       -2.0620     3.3950     0.1790 N.ar  1 <1>  -0.6200 
  6 N       -0.3540     3.1870    -1.3390 N.pl3 1 <1>  -0.8690 
  7 N       -3.1060     1.4790     1.0510 N.ar  1 <1>  -0.1790 
  8 C       -2.5400    -0.8710     0.5300 C.3   1 <1>  -0.0970 
  9 C       -2.9650     2.8160     0.9480 C.ar  1 <1>   0.7710 
 10 C       -0.1920     4.6280    -1.6250 C.3   1 <1>   0.2090 
 11 N       -3.7600     3.6240     1.6430 N.pl3 1 <1>  -0.9000 
 12 C        0.9560     5.1560    -0.7680 C.3   1 <1>  -0.1600 
 13 C        1.1690     6.6500    -1.0170 C.3   1 <1>   0.3430 
 14 N        2.1390     7.2270    -0.0340 N.4   1 <1>  -0.9590 
 15 C        2.1690     8.7380    -0.0490 C.3   1 <1>   0.4230 
 16 C        3.5110     6.6670    -0.2540 C.3   1 <1>   0.3430 
 17 C        3.1210     9.2320     1.0570 C.3   1 <1>  -0.1600 
 18 C        0.7670     9.3780     0.1280 C.3   1 <1>   0.1200 
 19 C        4.4520     7.1140     0.8610 C.3   1 <1>  -0.1600 
 20 C        4.5290     8.6390     0.9390 C.3   1 <1>  -0.1600 
 21 O        0.8620    10.7570     0.0030 O.3   1 <1>  -0.6800 
 22 H        0.2560     2.5730    -1.8960 H     1 <1>   0.4000 
 23 H       -3.8320     1.1400     1.6760 H     1 <1>   0.4570 
 24 H       -1.8590    -1.4480    -0.0700 H     1 <1>   0.0800 
 25 H       -3.5400    -1.1370     0.2370 H     1 <1>   0.0800 
 26 H       -2.3900    -1.1530     1.5580 H     1 <1>   0.0800 
 27 H       -1.1050     5.1540    -1.4020 H     1 <1>   0.0800 
 28 H        0.0230     4.7560    -2.6740 H     1 <1>   0.0800 
 29 H       -4.5200     3.3820     2.2830 H     1 <1>   0.4000 
 30 H       -3.6370     4.6350     1.5280 H     1 <1>   0.4000 
 31 H        1.8430     4.6030    -1.0160 H     1 <1>   0.0800 
 32 H        0.7060     4.9950     0.2660 H     1 <1>   0.0800 
 33 H        0.2150     7.1390    -0.9180 H     1 <1>   0.0800 
 34 H        1.5240     6.8100    -2.0230 H     1 <1>   0.0800 
 35 H        1.8550     6.9520     0.9140 H     1 <1>   0.4500 
 36 H        2.5540     9.0620    -1.0030 H     1 <1>   0.0800 
 37 H        3.8950     7.0040    -1.2040 H     1 <1>   0.0800 
 38 H        3.4800     5.5900    -0.2650 H     1 <1>   0.0800 
 39 H        2.7080     8.9970     2.0220 H     1 <1>   0.0800 
 40 H        3.2040    10.3050     1.0020 H     1 <1>   0.0800 
 41 H        0.3680     9.1610     1.1040 H     1 <1>   0.0800 
 42 H        0.0820     9.0500    -0.6320 H     1 <1>   0.0800 
 43 H        5.4360     6.7190     0.6720 H     1 <1>   0.0800 
 44 H        4.1190     6.7090     1.8010 H     1 <1>   0.0800 
 45 H        5.1240     8.9350     1.7870 H     1 <1>   0.0800 
 46 H        5.0080     9.0240     0.0530 H     1 <1>   0.0800 
 47 H       -0.0010    11.1990     0.1560 H     1 <1>   0.4000 
@<TRIPOS>BOND
  1   1   2  1   
  2   2   3  ar  
  3   2   4  ar  
  4   3   5  ar  
  5   3   6  1   
  6   4   7  ar  
  7   4   8  1   
  8   5   9  ar  
  9   6  10  1   
 10   6  22  1   
 11   7   9  ar  
 12   7  23  1   
 13   8  24  1   
 14   8  25  1   
 15   8  26  1   
 16   9  11  1   
 17  10  12  1   
 18  10  27  1   
 19  10  28  1   
 20  11  29  1   
 21  11  30  1   
 22  12  13  1   
 23  12  31  1   
 24  12  32  1   
 25  13  14  1   
 26  13  33  1   
 27  13  34  1   
 28  14  15  1   
 29  14  16  1   
 30  14  35  1   
 31  15  17  1   
 32  15  18  1   
 33  15  36  1   
 34  16  19  1   
 35  16  37  1   
 36  16  38  1   
 37  17  20  1   
 38  17  39  1   
 39  17  40  1   
 40  18  21  1   
 41  18  41  1   
 42  18  42  1   
 43  19  20  1   
 44  19  43  1   
 45  19  44  1   
 46  20  45  1   
 47  20  46  1   
 48  21  47  1   
@<TRIPOS>SUBSTRUCTURE
  1 ****  12 GROUP 4 **** **** 0

# MOE 2024.06 (io_trps.svl 2023.06)
