@<TRIPOS>MOLECULE
NONAME
50 53 1 0 0 
SMALL
USER_CHARGES


@<TRIPOS>ATOM
  1 O       -1.1200    -0.2220     2.4160 O.2   1 <1>  -0.5700 
  2 C       -1.8440    -0.0870     1.4610 C.2   1 <1>   0.5690 
  3 N       -1.9310     1.0070     0.6710 N.am  1 <1>  -0.6600 
  4 C       -2.7900    -1.1580     1.0050 C.3   1 <1>  -0.0990 
  5 C       -1.1390     2.2470     0.8900 C.3   1 <1>   0.2200 
  6 C       -2.9110     0.8380    -0.4170 C.3   1 <1>   0.1400 
  7 C       -3.2720    -0.6560    -0.3720 C.3   1 <1>  -0.0800 
  8 C       -2.0450     3.4610     1.0800 C.3   1 <1>  -0.1600 
  9 C       -0.2910     2.5890    -0.3330 C.3   1 <1>  -0.1600 
 10 C       -4.7620    -0.9020    -0.6290 C.3   1 <1>   0.2090 
 11 C       -2.2600     4.0690    -0.3100 C.3   1 <1>  -0.1600 
 12 C       -1.0900     3.5910    -1.1770 C.3   1 <1>  -0.1600 
 13 N       -5.0460    -2.3560    -0.5410 N.pl3 1 <1>  -0.8690 
 14 C       -6.2180    -2.9850    -0.3050 C.ar  1 <1>   0.1000 
 15 C       -6.2680    -4.4080    -0.1820 C.ar  1 <1>   0.0000 
 16 C       -7.4160    -2.2780    -0.1790 C.ar  1 <1>  -0.1500 
 17 C       -7.5110    -5.0310     0.0530 C.ar  1 <1>   0.3610 
 18 C       -5.1340    -5.2400    -0.2790 C.ar  1 <1>  -0.1500 
 19 C       -8.6100    -2.9140     0.0510 C.ar  1 <1>   0.2170 
 20 N       -8.6420    -4.2540     0.1600 N.ar  1 <1>  -0.1790 
 21 C       -7.5880    -6.4260     0.1770 C.ar  1 <1>  -0.1500 
 22 C       -5.2280    -6.6020    -0.1540 C.ar  1 <1>  -0.1500 
 23 C       -9.9130    -2.1440     0.1850 C.3   1 <1>  -0.0970 
 24 C       -6.4640    -7.2030     0.0750 C.ar  1 <1>  -0.1500 
 25 H       -3.5950    -1.2250     1.7130 H     1 <1>   0.0800 
 26 H       -2.2840    -2.1030     0.9350 H     1 <1>   0.0800 
 27 H       -0.5110     2.1120     1.7560 H     1 <1>   0.0800 
 28 H       -2.4800     1.1010    -1.3670 H     1 <1>   0.0800 
 29 H       -3.7680     1.4570    -0.2170 H     1 <1>   0.0800 
 30 H       -2.6990    -1.1440    -1.1410 H     1 <1>   0.0800 
 31 H       -1.5190     4.1770     1.6860 H     1 <1>   0.0800 
 32 H       -2.9660     3.2090     1.5750 H     1 <1>   0.0800 
 33 H       -0.0100     1.7110    -0.8870 H     1 <1>   0.0800 
 34 H        0.6070     3.0730     0.0100 H     1 <1>   0.0800 
 35 H       -5.0270    -0.5460    -1.6100 H     1 <1>   0.0800 
 36 H       -5.3460    -0.3710     0.1040 H     1 <1>   0.0800 
 37 H       -2.2980     5.1440    -0.2580 H     1 <1>   0.0800 
 38 H       -3.1880     3.7160    -0.7250 H     1 <1>   0.0800 
 39 H       -1.4600     3.1210    -2.0710 H     1 <1>   0.0800 
 40 H       -0.4640     4.4200    -1.4610 H     1 <1>   0.0800 
 41 H       -4.1970    -2.9170    -0.6760 H     1 <1>   0.4000 
 42 H       -7.3970    -1.2090    -0.2710 H     1 <1>   0.1500 
 43 H       -4.1670    -4.8030    -0.4530 H     1 <1>   0.1500 
 44 H       -9.5280    -4.7340     0.3280 H     1 <1>   0.4570 
 45 H       -8.5370    -6.9010     0.3540 H     1 <1>   0.1500 
 46 H       -4.3490    -7.2220    -0.2310 H     1 <1>   0.1500 
 47 H       -9.7430    -1.0870     0.0820 H     1 <1>   0.0800 
 48 H      -10.3560    -2.3180     1.1500 H     1 <1>   0.0800 
 49 H      -10.6080    -2.4450    -0.5800 H     1 <1>   0.0800 
 50 H       -6.5160    -8.2770     0.1690 H     1 <1>   0.1500 
@<TRIPOS>BOND
  1   1   2  2   
  2   2   3  am  
  3   2   4  1   
  4   3   5  1   
  5   3   6  1   
  6   4   7  1   
  7   4  25  1   
  8   4  26  1   
  9   5   8  1   
 10   5   9  1   
 11   5  27  1   
 12   6   7  1   
 13   6  28  1   
 14   6  29  1   
 15   7  10  1   
 16   7  30  1   
 17   8  11  1   
 18   8  31  1   
 19   8  32  1   
 20   9  12  1   
 21   9  33  1   
 22   9  34  1   
 23  10  13  1   
 24  10  35  1   
 25  10  36  1   
 26  11  12  1   
 27  11  37  1   
 28  11  38  1   
 29  12  39  1   
 30  12  40  1   
 31  13  14  1   
 32  13  41  1   
 33  14  15  ar  
 34  14  16  ar  
 35  15  17  ar  
 36  15  18  ar  
 37  16  19  ar  
 38  16  42  1   
 39  17  20  ar  
 40  17  21  ar  
 41  18  22  ar  
 42  18  43  1   
 43  19  20  ar  
 44  19  23  1   
 45  20  44  1   
 46  21  24  ar  
 47  21  45  1   
 48  22  24  ar  
 49  22  46  1   
 50  23  47  1   
 51  23  48  1   
 52  23  49  1   
 53  24  50  1   
@<TRIPOS>SUBSTRUCTURE
  1 ****  10 GROUP 4 **** **** 0

# MOE 2024.06 (io_trps.svl 2023.06)
