@<TRIPOS>MOLECULE
NONAME
44 45 1 0 0 
SMALL
USER_CHARGES


@<TRIPOS>ATOM
  1 S        0.0550     0.5490    -0.9970 S.o2  1 <1>   1.3330 
  2 O       -0.0830     1.4420    -2.1260 O.2   1 <1>  -0.6500 
  3 O       -0.1870    -0.8620    -1.1880 O.2   1 <1>  -0.6500 
  4 N        1.6280     0.7080    -0.3810 N.am  1 <1>  -0.8490 
  5 C       -1.0170     1.1250     0.3330 C.3   1 <1>  -0.0550 
  6 C        2.6250     0.9200    -1.4350 C.3   1 <1>   0.1160 
  7 C        2.0400    -0.4140     0.4700 C.3   1 <1>   0.1160 
  8 C       -0.9550     2.6070     0.7830 C.3   1 <1>  -0.0800 
  9 C       -1.1600     3.6280    -0.3470 C.3   1 <1>   0.2000 
 10 C        0.3510     3.0210     1.4830 C.3   1 <1>   0.1400 
 11 O       -1.9660     4.6410     0.1500 O.3   1 <1>  -0.6800 
 12 C        0.2220     4.2210    -0.6220 C.3   1 <1>   0.1400 
 13 N        0.9240     4.1260     0.6800 N.am  1 <1>  -0.6600 
 14 C        1.8970     4.9540     1.1650 C.2   1 <1>   0.5690 
 15 O        2.3760     4.7770     2.2600 O.2   1 <1>  -0.5700 
 16 C        2.3950     6.1170     0.3260 C.3   1 <1>  -0.0990 
 17 C        3.4000     6.9940     1.0890 C.3   1 <1>   0.0960 
 18 N        3.8770     8.1040     0.2430 N.pl3 1 <1>   0.3140 
 19 N        3.1020     9.1660    -0.0490 N.2   1 <1>  -0.7070 
 20 C        5.0890     8.2110    -0.3380 C.2   1 <1>  -0.3020 
 21 C        3.8410     9.9210    -0.8030 C.2   1 <1>   0.1390 
 22 C        5.1000     9.3750    -1.0210 C.2   1 <1>  -0.1500 
 23 H       -2.0270     0.9350     0.0250 H     1 <1>   0.0800 
 24 H       -0.8460     0.5090     1.1940 H     1 <1>   0.0800 
 25 H        3.6040     1.0360    -1.0040 H     1 <1>   0.0800 
 26 H        2.3940     1.8150    -1.9870 H     1 <1>   0.0800 
 27 H        2.6330     0.0850    -2.1160 H     1 <1>   0.0800 
 28 H        3.0020    -0.2120     0.9090 H     1 <1>   0.0800 
 29 H        2.1040    -1.3230    -0.1070 H     1 <1>   0.0800 
 30 H        1.3290    -0.5600     1.2650 H     1 <1>   0.0800 
 31 H       -1.7510     2.7160     1.4990 H     1 <1>   0.0800 
 32 H       -1.6340     3.2290    -1.2280 H     1 <1>   0.0800 
 33 H        1.0590     2.2150     1.5510 H     1 <1>   0.0800 
 34 H        0.1460     3.3770     2.4790 H     1 <1>   0.0800 
 35 H       -1.4870     5.1020     0.8680 H     1 <1>   0.4000 
 36 H        0.1480     5.2320    -0.9840 H     1 <1>   0.0800 
 37 H        0.7490     3.6250    -1.3450 H     1 <1>   0.0800 
 38 H        2.8590     5.7250    -0.5590 H     1 <1>   0.0800 
 39 H        1.5550     6.7260     0.0460 H     1 <1>   0.0800 
 40 H        4.2450     6.4080     1.4010 H     1 <1>   0.0800 
 41 H        2.9340     7.4140     1.9620 H     1 <1>   0.0800 
 42 H        5.8600     7.4700    -0.2340 H     1 <1>   0.1500 
 43 H        3.5060    10.8620    -1.2070 H     1 <1>   0.1500 
 44 H        5.8870     9.8110    -1.6090 H     1 <1>   0.1500 
@<TRIPOS>BOND
  1   1   2  2   
  2   1   3  2   
  3   1   4  am  
  4   1   5  1   
  5   4   6  1   
  6   4   7  1   
  7   5   8  1   
  8   5  23  1   
  9   5  24  1   
 10   6  25  1   
 11   6  26  1   
 12   6  27  1   
 13   7  28  1   
 14   7  29  1   
 15   7  30  1   
 16   8   9  1   
 17   8  10  1   
 18   8  31  1   
 19   9  11  1   
 20   9  12  1   
 21   9  32  1   
 22  10  13  1   
 23  10  33  1   
 24  10  34  1   
 25  11  35  1   
 26  12  13  1   
 27  12  36  1   
 28  12  37  1   
 29  13  14  am  
 30  14  15  2   
 31  14  16  1   
 32  16  17  1   
 33  16  38  1   
 34  16  39  1   
 35  17  18  1   
 36  17  40  1   
 37  17  41  1   
 38  18  19  1   
 39  18  20  1   
 40  19  21  2   
 41  20  22  2   
 42  20  42  1   
 43  21  22  1   
 44  21  43  1   
 45  22  44  1   
@<TRIPOS>SUBSTRUCTURE
  1 ****  13 GROUP 4 **** **** 0

# MOE 2024.06 (io_trps.svl 2023.06)
