@<TRIPOS>MOLECULE
NONAME
57 59 1 0 0 
SMALL
USER_CHARGES


@<TRIPOS>ATOM
  1 O       -1.2170    -3.4630     1.5240 O.2   1 <1>  -0.5700 
  2 C       -0.3140    -2.9100     0.9280 C.2   1 <1>   0.6900 
  3 N        0.9970    -3.2500     1.1760 N.am  1 <1>  -0.4200 
  4 N       -0.5920    -2.0130    -0.0630 N.am  1 <1>  -0.5390 
  5 C        1.9860    -2.8590     0.2950 C.2   1 <1>   0.6160 
  6 C        1.3520    -4.0480     2.3880 C.3   1 <1>   0.1400 
  7 C        0.3830    -1.5010    -0.8960 C.2   1 <1>  -0.0290 
  8 O        3.0890    -3.3610     0.3850 O.2   1 <1>  -0.5700 
  9 C        1.6570    -1.9200    -0.7270 C.2   1 <1>  -0.1360 
 10 C        1.3550    -5.5600     2.1010 C.3   1 <1>   0.3430 
 11 C       -0.0620    -0.5050    -1.9480 C.3   1 <1>  -0.1020 
 12 N        0.0990    -5.9940     1.4070 N.4   1 <1>  -0.9590 
 13 C       -0.5610    -7.1540     2.0570 C.3   1 <1>   0.3430 
 14 C        0.3360    -6.2300    -0.0430 C.3   1 <1>   0.3430 
 15 C       -1.9310    -7.3740     1.4130 C.3   1 <1>  -0.1600 
 16 C       -1.0060    -6.4290    -0.7420 C.3   1 <1>  -0.1600 
 17 C       -1.8290    -7.5740    -0.1150 C.3   1 <1>  -0.0800 
 18 C       -3.1960    -7.7160    -0.8260 C.3   1 <1>   0.2000 
 19 O       -3.9300    -6.5600    -0.6470 O.3   1 <1>  -0.6800 
 20 C       -4.0360    -8.9070    -0.3420 C.3   1 <1>  -0.1600 
 21 C       -5.3180    -9.1060    -1.1630 C.3   1 <1>  -0.0170 
 22 C       -6.0800   -10.3130    -0.6430 C.ar  1 <1>  -0.1440 
 23 C       -7.0520   -10.1600     0.3340 C.ar  1 <1>  -0.1500 
 24 C       -5.8060   -11.5800    -1.1360 C.ar  1 <1>  -0.1500 
 25 C       -7.7400   -11.2600     0.8150 C.ar  1 <1>  -0.1500 
 26 C       -6.4930   -12.6810    -0.6550 C.ar  1 <1>  -0.1500 
 27 C       -7.4600   -12.5220     0.3210 C.ar  1 <1>  -0.1500 
 28 H       -1.5770    -1.7550    -0.1650 H     1 <1>   0.3700 
 29 H        0.6530    -3.8330     3.1770 H     1 <1>   0.0800 
 30 H        2.3260    -3.7530     2.7400 H     1 <1>   0.0800 
 31 H        2.4710    -1.5800    -1.3400 H     1 <1>   0.1500 
 32 H        1.4590    -6.0850     3.0370 H     1 <1>   0.0800 
 33 H        2.2140    -5.7990     1.4950 H     1 <1>   0.0800 
 34 H       -0.5070     0.3540    -1.4790 H     1 <1>   0.0800 
 35 H       -0.7850    -0.9570    -2.6050 H     1 <1>   0.0800 
 36 H        0.7750    -0.1760    -2.5380 H     1 <1>   0.0800 
 37 H       -0.5750    -5.2010     1.4690 H     1 <1>   0.4500 
 38 H       -0.6880    -6.9650     3.1110 H     1 <1>   0.0800 
 39 H        0.0460    -8.0380     1.9360 H     1 <1>   0.0800 
 40 H        0.9520    -7.1040    -0.1780 H     1 <1>   0.0800 
 41 H        0.8440    -5.3840    -0.4780 H     1 <1>   0.0800 
 42 H       -2.5550    -6.5260     1.6390 H     1 <1>   0.0800 
 43 H       -2.3790    -8.2390     1.8680 H     1 <1>   0.0800 
 44 H       -0.8290    -6.6420    -1.7820 H     1 <1>   0.0800 
 45 H       -1.5570    -5.5050    -0.6980 H     1 <1>   0.0800 
 46 H       -1.2890    -8.4900    -0.2900 H     1 <1>   0.0800 
 47 H       -3.0260    -7.8160    -1.8860 H     1 <1>   0.0800 
 48 H       -4.3800    -6.5740     0.2190 H     1 <1>   0.4000 
 49 H       -4.2980    -8.7890     0.6930 H     1 <1>   0.0800 
 50 H       -3.4440    -9.8020    -0.4260 H     1 <1>   0.0800 
 51 H       -5.0730    -9.2540    -2.2010 H     1 <1>   0.0800 
 52 H       -5.9440    -8.2330    -1.1000 H     1 <1>   0.0800 
 53 H       -7.2770    -9.1830     0.7250 H     1 <1>   0.1500 
 54 H       -5.0560   -11.7150    -1.8950 H     1 <1>   0.1500 
 55 H       -8.4930   -11.1350     1.5730 H     1 <1>   0.1500 
 56 H       -6.2760   -13.6620    -1.0420 H     1 <1>   0.1500 
 57 H       -7.9950   -13.3780     0.6950 H     1 <1>   0.1500 
@<TRIPOS>BOND
  1   1   2  2   
  2   2   3  am  
  3   2   4  am  
  4   3   5  am  
  5   3   6  1   
  6   4   7  1   
  7   4  28  1   
  8   5   8  2   
  9   5   9  1   
 10   6  10  1   
 11   6  29  1   
 12   6  30  1   
 13   7   9  2   
 14   7  11  1   
 15   9  31  1   
 16  10  12  1   
 17  10  32  1   
 18  10  33  1   
 19  11  34  1   
 20  11  35  1   
 21  11  36  1   
 22  12  13  1   
 23  12  14  1   
 24  12  37  1   
 25  13  15  1   
 26  13  38  1   
 27  13  39  1   
 28  14  16  1   
 29  14  40  1   
 30  14  41  1   
 31  15  17  1   
 32  15  42  1   
 33  15  43  1   
 34  16  17  1   
 35  16  44  1   
 36  16  45  1   
 37  17  18  1   
 38  17  46  1   
 39  18  19  1   
 40  18  20  1   
 41  18  47  1   
 42  19  48  1   
 43  20  21  1   
 44  20  49  1   
 45  20  50  1   
 46  21  22  1   
 47  21  51  1   
 48  21  52  1   
 49  22  23  ar  
 50  22  24  ar  
 51  23  25  ar  
 52  23  53  1   
 53  24  26  ar  
 54  24  54  1   
 55  25  27  ar  
 56  25  55  1   
 57  26  27  ar  
 58  26  56  1   
 59  27  57  1   
@<TRIPOS>SUBSTRUCTURE
  1 ****  17 GROUP 4 **** **** 0

# MOE 2024.06 (io_trps.svl 2023.06)
