@<TRIPOS>MOLECULE
NONAME
45 48 1 0 0 
SMALL
USER_CHARGES


@<TRIPOS>ATOM
  1 O       -1.5100     0.5390    -2.9330 O.2   1 <1>  -0.5700 
  2 C       -1.8040     1.1020    -1.9050 C.2   1 <1>   0.5690 
  3 N       -2.2620     0.4000    -0.8210 N.am  1 <1>  -0.6600 
  4 C       -1.6630     2.6180    -1.8590 C.3   1 <1>   0.0440 
  5 C       -2.6160     0.9560     0.5100 C.3   1 <1>   0.1400 
  6 C       -2.3190    -1.0800    -0.8010 C.3   1 <1>   0.1400 
  7 C       -0.6780     3.1030    -0.7980 C.ar  1 <1>  -0.1440 
  8 C       -3.0370    -0.2550     1.3430 C.3   1 <1>   0.2000 
  9 C       -2.3650    -1.4560     0.6800 C.3   1 <1>  -0.0800 
 10 C        0.5780     2.5120    -0.6960 C.ar  1 <1>  -0.1500 
 11 C       -1.0370     4.1310     0.0760 C.ar  1 <1>  -0.1500 
 12 O       -2.6180    -0.1390     2.6580 O.3   1 <1>  -0.6800 
 13 C       -3.0900    -2.7810     0.9610 C.3   1 <1>  -0.0170 
 14 C        1.4350     2.9620     0.2880 C.ar  1 <1>   0.0820 
 15 C       -0.1600     4.5720     1.0590 C.ar  1 <1>  -0.1500 
 16 C       -2.3920    -3.9410     0.2700 C.ar  1 <1>  -0.1440 
 17 O        2.6710     2.5380     0.5700 O.3   1 <1>  -0.3630 
 18 C        1.0760     3.9630     1.1430 C.ar  1 <1>   0.0820 
 19 C       -2.8500    -4.4750    -0.9180 C.ar  1 <1>  -0.1500 
 20 C       -1.2550    -4.5180     0.7980 C.ar  1 <1>  -0.1500 
 21 C        3.1360     3.3310     1.6600 C.3   1 <1>   0.4000 
 22 O        2.0700     4.2150     2.0000 O.3   1 <1>  -0.3630 
 23 C       -2.1660    -5.5280    -1.5040 C.ar  1 <1>   0.1600 
 24 C       -0.6470    -5.5690     0.1320 C.ar  1 <1>   0.1600 
 25 N       -1.0750    -6.0870    -1.0080 N.ar  1 <1>  -0.6200 
 26 H       -1.3250     2.9600    -2.8200 H     1 <1>   0.0800 
 27 H       -2.6350     3.0400    -1.6910 H     1 <1>   0.0800 
 28 H       -1.7510     1.4260     0.9440 H     1 <1>   0.0800 
 29 H       -3.4230     1.6620     0.4240 H     1 <1>   0.0800 
 30 H       -3.2120    -1.3990    -1.3110 H     1 <1>   0.0800 
 31 H       -1.4580    -1.5070    -1.2900 H     1 <1>   0.0800 
 32 H       -4.1090    -0.3500     1.3340 H     1 <1>   0.0800 
 33 H       -1.3470    -1.5260     1.0190 H     1 <1>   0.0800 
 34 H        0.8910     1.7220    -1.3570 H     1 <1>   0.1500 
 35 H       -2.0030     4.5980    -0.0040 H     1 <1>   0.1500 
 36 H       -1.6470    -0.0330     2.6980 H     1 <1>   0.4000 
 37 H       -4.1110    -2.7200     0.6280 H     1 <1>   0.0800 
 38 H       -3.1060    -2.9590     2.0220 H     1 <1>   0.0800 
 39 H       -0.4210     5.3620     1.7400 H     1 <1>   0.1500 
 40 H       -3.7300    -4.0840    -1.3960 H     1 <1>   0.1500 
 41 H       -0.8370    -4.1610     1.7210 H     1 <1>   0.1500 
 42 H        3.3620     2.6970     2.4990 H     1 <1>   0.0800 
 43 H        3.9930     3.9030     1.3490 H     1 <1>   0.0800 
 44 H       -2.5370    -5.9310    -2.4310 H     1 <1>   0.1500 
 45 H        0.2400    -6.0060     0.5590 H     1 <1>   0.1500 
@<TRIPOS>BOND
  1   1   2  2   
  2   2   3  am  
  3   2   4  1   
  4   3   5  1   
  5   3   6  1   
  6   4   7  1   
  7   4  26  1   
  8   4  27  1   
  9   5   8  1   
 10   5  28  1   
 11   5  29  1   
 12   6   9  1   
 13   6  30  1   
 14   6  31  1   
 15   7  10  ar  
 16   7  11  ar  
 17   8   9  1   
 18   8  12  1   
 19   8  32  1   
 20   9  13  1   
 21   9  33  1   
 22  10  14  ar  
 23  10  34  1   
 24  11  15  ar  
 25  11  35  1   
 26  12  36  1   
 27  13  16  1   
 28  13  37  1   
 29  13  38  1   
 30  14  17  1   
 31  14  18  ar  
 32  15  18  ar  
 33  15  39  1   
 34  16  19  ar  
 35  16  20  ar  
 36  17  21  1   
 37  18  22  1   
 38  19  23  ar  
 39  19  40  1   
 40  20  24  ar  
 41  20  41  1   
 42  21  22  1   
 43  21  42  1   
 44  21  43  1   
 45  23  25  ar  
 46  23  44  1   
 47  24  25  ar  
 48  24  45  1   
@<TRIPOS>SUBSTRUCTURE
  1 ****   3 GROUP 4 **** **** 0

# MOE 2024.06 (io_trps.svl 2023.06)
