@<TRIPOS>MOLECULE
NONAME
47 49 1 0 0 
SMALL
USER_CHARGES


@<TRIPOS>ATOM
  1 O       -1.9580     1.3760    -3.2950 O.2   1 <1>  -0.5700 
  2 C       -1.7720     1.7410    -2.1580 C.2   1 <1>   0.5690 
  3 N       -1.7230     0.8650    -1.1260 N.am  1 <1>  -0.7300 
  4 C       -1.5640     3.2200    -1.8640 C.3   1 <1>   0.1810 
  5 C       -1.9110    -0.5970    -1.1970 C.3   1 <1>   0.2200 
  6 O       -2.3160     3.6190    -0.7250 O.3   1 <1>  -0.3630 
  7 C       -3.1020    -0.9830    -0.3380 C.3   1 <1>  -0.0800 
  8 C       -0.7580    -1.3000    -0.4830 C.3   1 <1>   0.1200 
  9 C       -1.6600     4.3360     0.2180 C.ar  1 <1>   0.0820 
 10 C       -2.4640    -1.0610     1.0500 C.3   1 <1>   0.1200 
 11 C       -3.7060    -2.3290    -0.7810 C.3   1 <1>  -0.0160 
 12 O       -1.1340    -1.4430     0.8580 O.3   1 <1>  -0.5600 
 13 C       -0.7900     3.7270     1.1280 C.ar  1 <1>   0.0820 
 14 C       -1.8900     5.7000     0.2710 C.ar  1 <1>  -0.1500 
 15 C       -4.8940    -2.7230     0.0840 C.ar  1 <1>  -0.1440 
 16 O       -0.6140     2.3760     1.0540 O.3   1 <1>  -0.3630 
 17 C       -0.1450     4.5200     2.0740 C.ar  1 <1>  -0.1500 
 18 C       -1.2450     6.4760     1.2170 C.ar  1 <1>  -0.1500 
 19 C       -6.1190    -2.1010    -0.0390 C.ar  1 <1>  -0.1500 
 20 C       -4.8090    -3.7200     1.0340 C.ar  1 <1>  -0.1500 
 21 C        0.1730     1.6820     1.9990 C.3   1 <1>   0.0400 
 22 C       -0.3720     5.8860     2.1150 C.ar  1 <1>  -0.1500 
 23 C       -7.1710    -2.4930     0.7730 C.ar  1 <1>   0.1600 
 24 C       -5.9220    -4.0370     1.7950 C.ar  1 <1>   0.1600 
 25 N       -7.1010    -3.4460     1.6890 N.ar  1 <1>  -0.6200 
 26 H       -1.5470     1.2510    -0.1870 H     1 <1>   0.3700 
 27 H       -1.8930     3.8090    -2.6990 H     1 <1>   0.0800 
 28 H       -0.5200     3.4040    -1.6870 H     1 <1>   0.0800 
 29 H       -2.0060    -0.9100    -2.2240 H     1 <1>   0.0800 
 30 H       -3.8690    -0.2280    -0.3700 H     1 <1>   0.0800 
 31 H        0.1600    -0.7420    -0.5440 H     1 <1>   0.0800 
 32 H       -0.6110    -2.2860    -0.8850 H     1 <1>   0.0800 
 33 H       -2.9460    -1.7670     1.7040 H     1 <1>   0.0800 
 34 H       -2.4590    -0.0910     1.5160 H     1 <1>   0.0800 
 35 H       -2.9590    -3.1030    -0.7400 H     1 <1>   0.0800 
 36 H       -4.0360    -2.2520    -1.8030 H     1 <1>   0.0800 
 37 H       -2.5740     6.1480    -0.4270 H     1 <1>   0.1500 
 38 H        0.5350     4.0980     2.7890 H     1 <1>   0.1500 
 39 H       -1.4220     7.5380     1.2550 H     1 <1>   0.1500 
 40 H       -6.2670    -1.3150    -0.7570 H     1 <1>   0.1500 
 41 H       -3.8890    -4.2540     1.1910 H     1 <1>   0.1500 
 42 H        0.1420     0.6340     1.7610 H     1 <1>   0.0800 
 43 H       -0.2350     1.8430     2.9810 H     1 <1>   0.0800 
 44 H        1.1870     2.0360     1.9400 H     1 <1>   0.0800 
 45 H        0.1300     6.4920     2.8500 H     1 <1>   0.1500 
 46 H       -8.1190    -1.9950     0.6640 H     1 <1>   0.1500 
 47 H       -5.8370    -4.8170     2.5320 H     1 <1>   0.1500 
@<TRIPOS>BOND
  1   1   2  2   
  2   2   3  am  
  3   2   4  1   
  4   3   5  1   
  5   3  26  1   
  6   4   6  1   
  7   4  27  1   
  8   4  28  1   
  9   5   7  1   
 10   5   8  1   
 11   5  29  1   
 12   6   9  1   
 13   7  10  1   
 14   7  11  1   
 15   7  30  1   
 16   8  12  1   
 17   8  31  1   
 18   8  32  1   
 19   9  13  ar  
 20   9  14  ar  
 21  10  12  1   
 22  10  33  1   
 23  10  34  1   
 24  11  15  1   
 25  11  35  1   
 26  11  36  1   
 27  13  16  1   
 28  13  17  ar  
 29  14  18  ar  
 30  14  37  1   
 31  15  19  ar  
 32  15  20  ar  
 33  16  21  1   
 34  17  22  ar  
 35  17  38  1   
 36  18  22  ar  
 37  18  39  1   
 38  19  23  ar  
 39  19  40  1   
 40  20  24  ar  
 41  20  41  1   
 42  21  42  1   
 43  21  43  1   
 44  21  44  1   
 45  22  45  1   
 46  23  25  ar  
 47  23  46  1   
 48  24  25  ar  
 49  24  47  1   
@<TRIPOS>SUBSTRUCTURE
  1 ****   3 GROUP 4 **** **** 0

# MOE 2024.06 (io_trps.svl 2023.06)
