@<TRIPOS>MOLECULE
NONAME
54 56 1 0 0 
SMALL
USER_CHARGES


@<TRIPOS>ATOM
  1 S        0.4110     0.4470    -0.9660 S.o2  1 <1>   1.3330 
  2 O        0.5540    -0.7150    -1.8150 O.2   1 <1>  -0.6500 
  3 O       -0.7320     1.3160    -1.1270 O.2   1 <1>  -0.6500 
  4 N        0.4160    -0.0840     0.6480 N.am  1 <1>  -0.8490 
  5 C        1.9150     1.4200    -1.0990 C.3   1 <1>  -0.0550 
  6 C       -0.0910     0.9190     1.5910 C.3   1 <1>   0.1160 
  7 C       -0.3240    -1.3390     0.8180 C.3   1 <1>   0.1160 
  8 C        3.2140     0.5910    -1.0050 C.3   1 <1>  -0.0800 
  9 C        4.4880     1.3640    -1.3090 C.3   1 <1>   0.2200 
 10 C        3.5070    -0.0150     0.3740 C.3   1 <1>   0.1200 
 11 N        4.4650     2.6910    -0.6520 N.am  1 <1>  -0.7300 
 12 C        5.5140     0.4890    -0.6030 C.3   1 <1>   0.1200 
 13 O        4.8880     0.0930     0.5770 O.3   1 <1>  -0.5600 
 14 C        4.3710     3.8940    -1.2790 C.2   1 <1>   0.7160 
 15 O        4.1120     3.9090    -2.4650 O.2   1 <1>  -0.5700 
 16 C        4.5010     5.1140    -0.5250 C.2   1 <1>  -0.0860 
 17 C        5.4530     5.6640     0.2970 C.2   1 <1>  -0.3320 
 18 C        3.4900     6.0780    -0.5390 C.2   1 <1>   0.1390 
 19 N        4.9620     6.8460     0.7140 N.pl3 1 <1>   0.3000 
 20 C        6.8530     5.2380     0.7390 C.3   1 <1>   0.1000 
 21 N        3.7490     7.1040     0.2050 N.2   1 <1>  -0.7070 
 22 C        7.9010     6.0380    -0.0520 C.3   1 <1>  -0.1600 
 23 C        7.1290     3.7340     0.6010 C.3   1 <1>  -0.1600 
 24 C        9.3340     5.6850     0.3760 C.3   1 <1>  -0.1600 
 25 C        8.5520     3.3750     1.0510 C.3   1 <1>  -0.1600 
 26 C        9.5940     4.1780     0.2630 C.3   1 <1>  -0.1600 
 27 H        1.9090     1.9160    -2.0510 H     1 <1>   0.0800 
 28 H        1.9120     2.1810    -0.3460 H     1 <1>   0.0800 
 29 H        0.0170     0.5650     2.6020 H     1 <1>   0.0800 
 30 H       -1.1330     1.1230     1.4010 H     1 <1>   0.0800 
 31 H        0.4620     1.8370     1.4930 H     1 <1>   0.0800 
 32 H       -0.2940    -1.6550     1.8460 H     1 <1>   0.0800 
 33 H        0.1200    -2.1150     0.2160 H     1 <1>   0.0800 
 34 H       -1.3510    -1.2120     0.5150 H     1 <1>   0.0800 
 35 H        3.1490    -0.2220    -1.7090 H     1 <1>   0.0800 
 36 H        4.6820     1.4560    -2.3650 H     1 <1>   0.0800 
 37 H        3.2250    -1.0540     0.4220 H     1 <1>   0.0800 
 38 H        3.0200     0.5290     1.1650 H     1 <1>   0.0800 
 39 H        4.6560     2.6720     0.3510 H     1 <1>   0.3700 
 40 H        6.4290     1.0070    -0.3770 H     1 <1>   0.0800 
 41 H        5.7260    -0.3960    -1.1790 H     1 <1>   0.0800 
 42 H        2.5820     5.9770    -1.1110 H     1 <1>   0.1500 
 43 H        5.4370     7.5150     1.3330 H     1 <1>   0.2700 
 44 H        6.9600     5.4860     1.7820 H     1 <1>   0.0800 
 45 H        7.7830     5.8300    -1.1020 H     1 <1>   0.0800 
 46 H        7.7430     7.0930     0.0890 H     1 <1>   0.0800 
 47 H        6.4250     3.1830     1.1990 H     1 <1>   0.0800 
 48 H        7.0180     3.4460    -0.4290 H     1 <1>   0.0800 
 49 H       10.0360     6.2180    -0.2430 H     1 <1>   0.0800 
 50 H        9.4910     5.9980     1.3940 H     1 <1>   0.0800 
 51 H        8.6610     3.5800     2.1020 H     1 <1>   0.0800 
 52 H        8.7220     2.3220     0.9030 H     1 <1>   0.0800 
 53 H       10.5800     3.9530     0.6330 H     1 <1>   0.0800 
 54 H        9.5580     3.8880    -0.7740 H     1 <1>   0.0800 
@<TRIPOS>BOND
  1   1   2  2   
  2   1   3  2   
  3   1   4  am  
  4   1   5  1   
  5   4   6  1   
  6   4   7  1   
  7   5   8  1   
  8   5  27  1   
  9   5  28  1   
 10   6  29  1   
 11   6  30  1   
 12   6  31  1   
 13   7  32  1   
 14   7  33  1   
 15   7  34  1   
 16   8   9  1   
 17   8  10  1   
 18   8  35  1   
 19   9  11  1   
 20   9  12  1   
 21   9  36  1   
 22  10  13  1   
 23  10  37  1   
 24  10  38  1   
 25  11  14  am  
 26  11  39  1   
 27  12  13  1   
 28  12  40  1   
 29  12  41  1   
 30  14  15  2   
 31  14  16  1   
 32  16  17  2   
 33  16  18  1   
 34  17  19  1   
 35  17  20  1   
 36  18  21  2   
 37  18  42  1   
 38  19  21  1   
 39  19  43  1   
 40  20  22  1   
 41  20  23  1   
 42  20  44  1   
 43  22  24  1   
 44  22  45  1   
 45  22  46  1   
 46  23  25  1   
 47  23  47  1   
 48  23  48  1   
 49  24  26  1   
 50  24  49  1   
 51  24  50  1   
 52  25  26  1   
 53  25  51  1   
 54  25  52  1   
 55  26  53  1   
 56  26  54  1   
@<TRIPOS>SUBSTRUCTURE
  1 ****  11 GROUP 4 **** **** 0

# MOE 2024.06 (io_trps.svl 2023.06)
