@<TRIPOS>MOLECULE
NONAME
51 53 1 0 0 
SMALL
USER_CHARGES


@<TRIPOS>ATOM
  1 F       -0.3470     0.9160    -0.5290 F     1 <1>  -0.1900 
  2 C       -1.6430     1.0880    -0.4650 C.ar  1 <1>   0.1900 
  3 C       -2.2320     1.9570     0.4600 C.ar  1 <1>   0.0830 
  4 C       -2.4030     0.3660    -1.3650 C.ar  1 <1>  -0.1500 
  5 O       -1.5930     2.7200     1.3930 O.3   1 <1>  -0.3630 
  6 C       -3.6120     2.0710     0.4450 C.ar  1 <1>  -0.1500 
  7 C       -3.7790     0.5040    -1.3530 C.ar  1 <1>  -0.1500 
  8 C       -0.1950     2.6940     1.5820 C.3   1 <1>   0.0400 
  9 C       -4.4140     1.3550    -0.4460 C.ar  1 <1>   0.0530 
 10 C       -5.8460     1.5170    -0.4290 C.2   1 <1>   0.0870 
 11 O       -6.3490     2.7170    -0.2850 O.3   1 <1>  -0.0190 
 12 C       -6.8970     0.6560    -0.5430 C.2   1 <1>  -0.0860 
 13 N       -7.6540     2.7320    -0.3040 N.2   1 <1>  -0.4100 
 14 C       -8.0100     1.5060    -0.4590 C.2   1 <1>   0.3720 
 15 C       -6.9340    -0.7690    -0.6930 C.2   1 <1>   0.7160 
 16 N       -9.3540     1.1040    -0.5120 N.pl3 1 <1>  -0.8210 
 17 O       -5.9360    -1.4510    -0.5590 O.2   1 <1>  -0.5700 
 18 N       -8.0970    -1.4010    -0.9860 N.am  1 <1>  -0.7300 
 19 C      -10.2320     1.9990    -1.3170 C.3   1 <1>   0.1290 
 20 C       -9.9350     0.8400     0.8340 C.3   1 <1>   0.1290 
 21 C       -8.3370    -2.8660    -0.9090 C.3   1 <1>   0.3210 
 22 C       -9.6650    -3.2110    -0.2320 C.2   1 <1>   0.3350 
 23 N      -10.4950    -2.3790     0.2660 N.2   1 <1>  -0.4100 
 24 N      -10.0600    -4.4720    -0.1200 N.2   1 <1>  -0.5650 
 25 O      -11.4900    -3.0640     0.7390 O.3   1 <1>  -0.0190 
 26 C      -11.1750    -4.3090     0.4780 C.2   1 <1>   0.2980 
 27 C      -12.1560    -5.4010     0.9080 C.3   1 <1>   0.1000 
 28 C      -11.5320    -6.8050     0.8700 C.3   1 <1>  -0.2400 
 29 C      -13.4170    -5.3700     0.0330 C.3   1 <1>  -0.2400 
 30 H       -1.9230    -0.2950    -2.0640 H     1 <1>   0.1500 
 31 H       -4.0780     2.7370     1.1500 H     1 <1>   0.1500 
 32 H       -4.3710    -0.0560    -2.0550 H     1 <1>   0.1500 
 33 H        0.0450     3.3610     2.3900 H     1 <1>   0.0800 
 34 H        0.2860     3.0260     0.6800 H     1 <1>   0.0800 
 35 H        0.1060     1.6930     1.8350 H     1 <1>   0.0800 
 36 H       -8.9420    -0.8080    -0.9490 H     1 <1>   0.3700 
 37 H       -9.7560     2.2300    -2.2550 H     1 <1>   0.0800 
 38 H      -10.4130     2.9190    -0.7860 H     1 <1>   0.0800 
 39 H      -11.1700     1.5110    -1.5150 H     1 <1>   0.0800 
 40 H       -9.3100     0.1520     1.3770 H     1 <1>   0.0800 
 41 H      -10.9150     0.4060     0.7340 H     1 <1>   0.0800 
 42 H      -10.0080     1.7580     1.3920 H     1 <1>   0.0800 
 43 H       -7.5410    -3.3400    -0.3620 H     1 <1>   0.0800 
 44 H       -8.3450    -3.2690    -1.9050 H     1 <1>   0.0800 
 45 H      -12.4420    -5.1950     1.9250 H     1 <1>   0.0800 
 46 H      -11.2410    -7.0590    -0.1350 H     1 <1>   0.0800 
 47 H      -12.2320    -7.5400     1.2240 H     1 <1>   0.0800 
 48 H      -10.6570    -6.8360     1.4950 H     1 <1>   0.0800 
 49 H      -13.1610    -5.5620    -0.9950 H     1 <1>   0.0800 
 50 H      -13.8890    -4.4050     0.0940 H     1 <1>   0.0800 
 51 H      -14.1210    -6.1140     0.3600 H     1 <1>   0.0800 
@<TRIPOS>BOND
  1   1   2  1   
  2   2   3  ar  
  3   2   4  ar  
  4   3   5  1   
  5   3   6  ar  
  6   4   7  ar  
  7   4  30  1   
  8   5   8  1   
  9   6   9  ar  
 10   6  31  1   
 11   7   9  ar  
 12   7  32  1   
 13   8  33  1   
 14   8  34  1   
 15   8  35  1   
 16   9  10  1   
 17  10  11  1   
 18  10  12  2   
 19  11  13  1   
 20  12  14  1   
 21  12  15  1   
 22  13  14  2   
 23  14  16  1   
 24  15  17  2   
 25  15  18  am  
 26  16  19  1   
 27  16  20  1   
 28  18  21  1   
 29  18  36  1   
 30  19  37  1   
 31  19  38  1   
 32  19  39  1   
 33  20  40  1   
 34  20  41  1   
 35  20  42  1   
 36  21  22  1   
 37  21  43  1   
 38  21  44  1   
 39  22  23  2   
 40  22  24  1   
 41  23  25  1   
 42  24  26  2   
 43  25  26  1   
 44  26  27  1   
 45  27  28  1   
 46  27  29  1   
 47  27  45  1   
 48  28  46  1   
 49  28  47  1   
 50  28  48  1   
 51  29  49  1   
 52  29  50  1   
 53  29  51  1   
@<TRIPOS>SUBSTRUCTURE
  1 ****  15 GROUP 4 **** **** 0

# MOE 2024.06 (io_trps.svl 2023.06)
