@<TRIPOS>MOLECULE
NONAME
47 50 1 0 0 
SMALL
USER_CHARGES


@<TRIPOS>ATOM
  1 O       -0.1180    -0.3180     0.1020 O.3   1 <1>  -0.0190 
  2 N        0.4320     0.3960    -0.8320 N.2   1 <1>  -0.4100 
  3 C        0.7870    -1.2230     0.3870 C.2   1 <1>   0.2980 
  4 C        1.5870    -0.0940    -1.0450 C.2   1 <1>   0.3350 
  5 N        1.8710    -1.1380    -0.2790 N.2   1 <1>  -0.5650 
  6 C        0.4890    -2.2470     1.4800 C.3   1 <1>   0.2900 
  7 C        2.5800     0.4300    -2.0670 C.3   1 <1>   0.0210 
  8 N       -0.5900    -3.2020     1.1310 N.3   1 <1>  -0.8100 
  9 C        3.7690     1.1380    -1.4030 C.3   1 <1>  -0.2400 
 10 C       -1.9390    -2.6150     1.0020 C.3   1 <1>   0.1100 
 11 C       -0.6780    -4.3580     2.0260 C.3   1 <1>   0.1100 
 12 C       -2.9030    -3.5620     1.7260 C.3   1 <1>   0.2000 
 13 C       -2.1170    -4.8620     1.8930 C.3   1 <1>  -0.0800 
 14 O       -3.1640    -3.0510     2.9880 O.3   1 <1>  -0.6800 
 15 C       -2.2830    -5.7750     0.6590 C.3   1 <1>  -0.0170 
 16 C       -1.5690    -7.1330     0.7170 C.ar  1 <1>  -0.1440 
 17 C       -1.4040    -7.9010    -0.4630 C.ar  1 <1>   0.0000 
 18 C       -1.0760    -7.6690     1.8750 C.ar  1 <1>  -0.1500 
 19 C       -0.7200    -9.1380    -0.3630 C.ar  1 <1>   0.3100 
 20 C       -1.8820    -7.5180    -1.7400 C.ar  1 <1>  -0.1500 
 21 C       -0.4240    -8.9080     1.8660 C.ar  1 <1>   0.1600 
 22 N       -0.2380    -9.6270     0.8070 N.ar  1 <1>  -0.6200 
 23 C       -0.5290    -9.9100    -1.5200 C.ar  1 <1>  -0.1500 
 24 C       -1.6820    -8.2950    -2.8480 C.ar  1 <1>  -0.1500 
 25 C       -0.9950    -9.5060    -2.7410 C.ar  1 <1>  -0.1500 
 26 H        0.2360    -1.7270     2.3870 H     1 <1>   0.0800 
 27 H        1.3930    -2.8020     1.6560 H     1 <1>   0.0800 
 28 H        2.9330    -0.3970    -2.6570 H     1 <1>   0.0800 
 29 H        2.0750     1.1160    -2.7220 H     1 <1>   0.0800 
 30 H        4.2940     0.4530    -0.7600 H     1 <1>   0.0800 
 31 H        3.4220     1.9680    -0.8140 H     1 <1>   0.0800 
 32 H        4.4490     1.5020    -2.1520 H     1 <1>   0.0800 
 33 H       -1.9960    -1.6220     1.4150 H     1 <1>   0.0800 
 34 H       -2.1890    -2.5700    -0.0440 H     1 <1>   0.0800 
 35 H        0.0460    -5.1060     1.7490 H     1 <1>   0.0800 
 36 H       -0.4970    -4.0510     3.0430 H     1 <1>   0.0800 
 37 H       -3.8410    -3.6810     1.2120 H     1 <1>   0.0800 
 38 H       -2.4500    -5.3850     2.7710 H     1 <1>   0.0800 
 39 H       -2.3220    -2.8380     3.4310 H     1 <1>   0.4000 
 40 H       -1.9150    -5.2340    -0.1960 H     1 <1>   0.0800 
 41 H       -3.3310    -5.9610     0.5010 H     1 <1>   0.0800 
 42 H       -1.1620    -7.1790     2.8240 H     1 <1>   0.1500 
 43 H       -2.4180    -6.5960    -1.8520 H     1 <1>   0.1500 
 44 H       -0.0520    -9.2870     2.8030 H     1 <1>   0.1500 
 45 H       -0.0010   -10.8390    -1.4120 H     1 <1>   0.1500 
 46 H       -2.0500    -7.9870    -3.8120 H     1 <1>   0.1500 
 47 H       -0.8410   -10.1080    -3.6200 H     1 <1>   0.1500 
@<TRIPOS>BOND
  1   1   2  1   
  2   1   3  1   
  3   2   4  2   
  4   3   5  2   
  5   3   6  1   
  6   4   5  1   
  7   4   7  1   
  8   6   8  1   
  9   6  26  1   
 10   6  27  1   
 11   7   9  1   
 12   7  28  1   
 13   7  29  1   
 14   8  10  1   
 15   8  11  1   
 16   9  30  1   
 17   9  31  1   
 18   9  32  1   
 19  10  12  1   
 20  10  33  1   
 21  10  34  1   
 22  11  13  1   
 23  11  35  1   
 24  11  36  1   
 25  12  13  1   
 26  12  14  1   
 27  12  37  1   
 28  13  15  1   
 29  13  38  1   
 30  14  39  1   
 31  15  16  1   
 32  15  40  1   
 33  15  41  1   
 34  16  17  ar  
 35  16  18  ar  
 36  17  19  ar  
 37  17  20  ar  
 38  18  21  ar  
 39  18  42  1   
 40  19  22  ar  
 41  19  23  ar  
 42  20  24  ar  
 43  20  43  1   
 44  21  22  ar  
 45  21  44  1   
 46  23  25  ar  
 47  23  45  1   
 48  24  25  ar  
 49  24  46  1   
 50  25  47  1   
@<TRIPOS>SUBSTRUCTURE
  1 ****   8 GROUP 4 **** **** 0

# MOE 2024.06 (io_trps.svl 2023.06)
