@<TRIPOS>MOLECULE
NONAME
50 52 1 0 0 
SMALL
USER_CHARGES


@<TRIPOS>ATOM
  1 O        0.0730     0.9760    -0.5840 O.2   1 <1>  -0.5700 
  2 C       -0.0730     2.1760    -0.5830 C.2   1 <1>   0.5690 
  3 N       -0.8840     2.8150     0.3170 N.am  1 <1>  -0.6600 
  4 C        0.6650     2.9940    -1.6450 C.3   1 <1>   0.1810 
  5 C       -1.0690     4.3030     0.2740 C.3   1 <1>   0.3640 
  6 C       -1.5610     2.0970     1.4360 C.3   1 <1>   0.0600 
  7 O        0.8580     4.3320    -1.2600 O.3   1 <1>  -0.5600 
  8 C       -2.5560     4.6900     0.3100 C.ar  1 <1>  -0.1430 
  9 C       -0.3370     5.0030    -0.8990 C.3   1 <1>   0.2610 
 10 C       -3.5380     4.1680    -0.5390 C.ar  1 <1>  -0.1430 
 11 C       -2.9270     5.6340     1.2620 C.ar  1 <1>  -0.1500 
 12 C       -0.0920     6.4780    -0.5440 C.2   1 <1>   0.5690 
 13 C       -4.8510     4.5970    -0.4060 C.ar  1 <1>  -0.1500 
 14 C       -3.2590     3.1300    -1.6210 C.3   1 <1>  -0.0960 
 15 C       -4.2380     6.0550     1.3830 C.ar  1 <1>  -0.1500 
 16 O       -0.8160     7.2880    -1.0790 O.2   1 <1>  -0.5700 
 17 N        0.8730     6.8840     0.3540 N.am  1 <1>  -0.6600 
 18 C       -5.2040     5.5330     0.5470 C.ar  1 <1>  -0.1500 
 19 C        1.0840     8.3410     0.6200 C.3   1 <1>   0.3200 
 20 C        1.9240     5.9970     0.9360 C.3   1 <1>   0.0600 
 21 C        2.3950     8.8240     0.0200 C.2   1 <1>  -0.0400 
 22 O        3.5220     8.6470     0.6860 O.3   1 <1>  -0.2800 
 23 C        2.6340     9.4550    -1.1490 C.2   1 <1>  -0.1500 
 24 C        4.4980     9.1530    -0.0380 C.2   1 <1>  -0.0400 
 25 C        4.0160     9.6710    -1.1880 C.2   1 <1>  -0.1500 
 26 C        5.9110     9.0800     0.4960 C.3   1 <1>  -0.0600 
 27 H        0.1120     2.9780    -2.5660 H     1 <1>   0.0800 
 28 H        1.6340     2.5610    -1.8150 H     1 <1>   0.0800 
 29 H       -0.6240     4.6760     1.1780 H     1 <1>   0.0800 
 30 H       -1.2820     2.5380     2.3760 H     1 <1>   0.0800 
 31 H       -1.2800     1.0570     1.4470 H     1 <1>   0.0800 
 32 H       -2.6290     2.1600     1.3210 H     1 <1>   0.0800 
 33 H       -0.9730     4.9960    -1.7640 H     1 <1>   0.0800 
 34 H       -2.1930     6.0620     1.9230 H     1 <1>   0.1500 
 35 H       -5.6190     4.2020    -1.0480 H     1 <1>   0.1500 
 36 H       -4.0890     3.0490    -2.2990 H     1 <1>   0.0800 
 37 H       -3.1020     2.1650    -1.1740 H     1 <1>   0.0800 
 38 H       -2.3950     3.3920    -2.1990 H     1 <1>   0.0800 
 39 H       -4.5050     6.7880     2.1230 H     1 <1>   0.1500 
 40 H       -6.2260     5.8560     0.6350 H     1 <1>   0.1500 
 41 H        0.2810     8.9220     0.2050 H     1 <1>   0.0800 
 42 H        1.0930     8.5150     1.6810 H     1 <1>   0.0800 
 43 H        2.2370     6.3740     1.8940 H     1 <1>   0.0800 
 44 H        2.7770     5.9790     0.2780 H     1 <1>   0.0800 
 45 H        1.5680     4.9930     1.0650 H     1 <1>   0.0800 
 46 H        1.9310     9.7400    -1.9120 H     1 <1>   0.1500 
 47 H        4.5490    10.1530    -1.9880 H     1 <1>   0.1500 
 48 H        6.5950     9.5300    -0.1990 H     1 <1>   0.0800 
 49 H        6.1880     8.0530     0.6470 H     1 <1>   0.0800 
 50 H        5.9700     9.6010     1.4340 H     1 <1>   0.0800 
@<TRIPOS>BOND
  1   1   2  2   
  2   2   3  am  
  3   2   4  1   
  4   3   5  1   
  5   3   6  1   
  6   4   7  1   
  7   4  27  1   
  8   4  28  1   
  9   5   8  1   
 10   5   9  1   
 11   5  29  1   
 12   6  30  1   
 13   6  31  1   
 14   6  32  1   
 15   7   9  1   
 16   8  10  ar  
 17   8  11  ar  
 18   9  12  1   
 19   9  33  1   
 20  10  13  ar  
 21  10  14  1   
 22  11  15  ar  
 23  11  34  1   
 24  12  16  2   
 25  12  17  am  
 26  13  18  ar  
 27  13  35  1   
 28  14  36  1   
 29  14  37  1   
 30  14  38  1   
 31  15  18  ar  
 32  15  39  1   
 33  17  19  1   
 34  17  20  1   
 35  18  40  1   
 36  19  21  1   
 37  19  41  1   
 38  19  42  1   
 39  20  43  1   
 40  20  44  1   
 41  20  45  1   
 42  21  22  1   
 43  21  23  2   
 44  22  24  1   
 45  23  25  1   
 46  23  46  1   
 47  24  25  2   
 48  24  26  1   
 49  25  47  1   
 50  26  48  1   
 51  26  49  1   
 52  26  50  1   
@<TRIPOS>SUBSTRUCTURE
  1 ****  12 GROUP 4 **** **** 0

# MOE 2024.06 (io_trps.svl 2023.06)
