@<TRIPOS>MOLECULE
NONAME
44 46 1 0 0 
SMALL
USER_CHARGES


@<TRIPOS>ATOM
  1 N       -0.0980     0.2110     0.7350 N.ar  1 <1>  -0.6200 
  2 C       -1.1380     0.9990     0.5390 C.ar  1 <1>   0.4100 
  3 C        1.0840     0.7860     0.6550 C.ar  1 <1>   0.4760 
  4 N       -2.3860     0.4230     0.6140 N.pl3 1 <1>  -0.8380 
  5 C       -0.9770     2.3510     0.2680 C.ar  1 <1>  -0.1440 
  6 N        1.3590     2.0520     0.4040 N.ar  1 <1>  -0.6200 
  7 C        2.2780    -0.1090     0.8770 C.3   1 <1>  -0.0970 
  8 C       -2.7480    -0.5960    -0.3800 C.3   1 <1>   0.2090 
  9 C       -2.7920    -0.1480     1.8580 C.3   1 <1>   0.2090 
 10 C        0.3080     2.8230     0.2110 C.ar  1 <1>   0.1600 
 11 C       -2.1590     3.2880     0.0390 C.3   1 <1>  -0.0160 
 12 C       -4.0390    -1.4500    -0.0130 C.3   1 <1>   0.0000 
 13 C       -4.0720    -0.8310     1.4470 C.3   1 <1>  -0.1600 
 14 C       -2.5580     3.3080    -1.4410 C.3   1 <1>  -0.1600 
 15 C       -5.4080    -2.1990     0.2970 C.3   1 <1>  -0.1600 
 16 C       -3.9350    -2.1600    -1.4340 C.3   1 <1>  -0.1600 
 17 C       -3.7410     4.2490    -1.6920 C.3   1 <1>  -0.2400 
 18 C       -6.0820    -2.8270    -0.9070 C.3   1 <1>  -0.1600 
 19 C       -4.8950    -3.3150    -1.6540 C.3   1 <1>  -0.1600 
 20 H        1.9630    -1.1010     1.1440 H     1 <1>   0.0800 
 21 H        2.8830     0.2910     1.6690 H     1 <1>   0.0800 
 22 H        2.8600    -0.1550    -0.0230 H     1 <1>   0.0800 
 23 H       -1.8930    -1.2470    -0.4740 H     1 <1>   0.0800 
 24 H       -2.8690    -0.0700    -1.3120 H     1 <1>   0.0800 
 25 H       -2.9540     0.6140     2.6020 H     1 <1>   0.0800 
 26 H       -2.0590    -0.8610     2.2010 H     1 <1>   0.0800 
 27 H        0.4910     3.8620     0.0020 H     1 <1>   0.1500 
 28 H       -1.8960     4.2820     0.3560 H     1 <1>   0.0800 
 29 H       -2.9960     2.9700     0.6370 H     1 <1>   0.0800 
 30 H       -4.8290    -0.0660     1.4940 H     1 <1>   0.0800 
 31 H       -4.2690    -1.5440     2.2300 H     1 <1>   0.0800 
 32 H       -2.8270     2.3110    -1.7460 H     1 <1>   0.0800 
 33 H       -1.7180     3.6210    -2.0360 H     1 <1>   0.0800 
 34 H       -6.1640    -1.5680     0.7410 H     1 <1>   0.0800 
 35 H       -5.2140    -3.0110     0.9810 H     1 <1>   0.0800 
 36 H       -2.9580    -2.5650    -1.6450 H     1 <1>   0.0800 
 37 H       -4.1690    -1.4420    -2.2050 H     1 <1>   0.0800 
 38 H       -4.5980     3.9320    -1.1240 H     1 <1>   0.0800 
 39 H       -4.0020     4.2400    -2.7360 H     1 <1>   0.0800 
 40 H       -3.4900     5.2560    -1.4110 H     1 <1>   0.0800 
 41 H       -6.6070    -2.0790    -1.4780 H     1 <1>   0.0800 
 42 H       -6.7550    -3.6240    -0.6380 H     1 <1>   0.0800 
 43 H       -4.5100    -4.2150    -1.2030 H     1 <1>   0.0800 
 44 H       -5.1060    -3.4880    -2.6960 H     1 <1>   0.0800 
@<TRIPOS>BOND
  1   1   2  ar  
  2   1   3  ar  
  3   2   4  1   
  4   2   5  ar  
  5   3   6  ar  
  6   3   7  1   
  7   4   8  1   
  8   4   9  1   
  9   5  10  ar  
 10   5  11  1   
 11   6  10  ar  
 12   7  20  1   
 13   7  21  1   
 14   7  22  1   
 15   8  12  1   
 16   8  23  1   
 17   8  24  1   
 18   9  13  1   
 19   9  25  1   
 20   9  26  1   
 21  10  27  1   
 22  11  14  1   
 23  11  28  1   
 24  11  29  1   
 25  12  13  1   
 26  12  15  1   
 27  12  16  1   
 28  13  30  1   
 29  13  31  1   
 30  14  17  1   
 31  14  32  1   
 32  14  33  1   
 33  15  18  1   
 34  15  34  1   
 35  15  35  1   
 36  16  19  1   
 37  16  36  1   
 38  16  37  1   
 39  17  38  1   
 40  17  39  1   
 41  17  40  1   
 42  18  19  1   
 43  18  41  1   
 44  18  42  1   
 45  19  43  1   
 46  19  44  1   
@<TRIPOS>SUBSTRUCTURE
  1 ****   4 GROUP 4 **** **** 0

# MOE 2024.06 (io_trps.svl 2023.06)
