@<TRIPOS>MOLECULE
NONAME
48 50 1 0 0 
SMALL
USER_CHARGES


@<TRIPOS>ATOM
  1 O        3.4250    -1.0800    -1.6250 O.2   1 <1>  -0.5700 
  2 C        3.0480    -1.3020    -0.4910 C.2   1 <1>   0.5440 
  3 N        3.8420    -0.8540     0.5440 N.am  1 <1>  -0.6600 
  4 C        1.7900    -1.9740    -0.2540 C.ar  1 <1>   0.0860 
  5 C        5.2750    -0.5240     0.2900 C.3   1 <1>   0.1400 
  6 C        3.3160    -0.5440     1.8990 C.3   1 <1>   0.1400 
  7 C        1.7160    -3.2030     0.3910 C.ar  1 <1>   0.1660 
  8 C        0.5750    -1.4160    -0.6320 C.ar  1 <1>   0.1660 
  9 C        5.3980     0.8580    -0.3690 C.3   1 <1>   0.3430 
 10 C        3.6110     0.9100     2.2930 C.3   1 <1>  -0.1600 
 11 N        0.5710    -3.7790     0.6800 N.ar  1 <1>  -0.6200 
 12 C        2.9510    -3.9820     0.8160 C.3   1 <1>  -0.0960 
 13 N       -0.5780    -1.9830    -0.3570 N.ar  1 <1>  -0.6200 
 14 C        0.4910    -0.1040    -1.3940 C.3   1 <1>  -0.0970 
 15 N        4.9710     2.0020     0.5170 N.4   1 <1>  -0.9590 
 16 C        3.6090     1.8940     1.1160 C.3   1 <1>   0.3430 
 17 C       -0.5140    -3.1350     0.2860 C.ar  1 <1>   0.4700 
 18 C        5.1820     3.2960    -0.1930 C.3   1 <1>   0.5230 
 19 C        6.6690     3.6150    -0.1710 C.2   1 <1>   0.0060 
 20 N        7.2810     4.5210    -0.9420 N.pl3 1 <1>   0.0330 
 21 N        7.5080     3.0300     0.6150 N.2   1 <1>  -0.3380 
 22 C        8.5540     4.4300    -0.5620 C.2   1 <1>   0.0060 
 23 N        8.7060     3.5460     0.3620 N.2   1 <1>  -0.3380 
 24 C        9.6760     5.2650    -1.1470 C.3   1 <1>  -0.0600 
 25 H        5.6850    -1.2600    -0.3810 H     1 <1>   0.0800 
 26 H        5.8450    -0.5630     1.2020 H     1 <1>   0.0800 
 27 H        3.7530    -1.2180     2.6190 H     1 <1>   0.0800 
 28 H        2.2490    -0.6980     1.9190 H     1 <1>   0.0800 
 29 H        4.8090     0.8510    -1.2710 H     1 <1>   0.0800 
 30 H        6.4290     1.0000    -0.6540 H     1 <1>   0.0800 
 31 H        4.5420     0.9660     2.8280 H     1 <1>   0.0800 
 32 H        2.8440     1.2100     2.9850 H     1 <1>   0.0800 
 33 H        3.8010    -3.7430     0.2050 H     1 <1>   0.0800 
 34 H        2.7630    -5.0370     0.7200 H     1 <1>   0.0800 
 35 H        3.1790    -3.7700     1.8440 H     1 <1>   0.0800 
 36 H        1.1610     0.6250    -0.9820 H     1 <1>   0.0800 
 37 H       -0.5090     0.2910    -1.3520 H     1 <1>   0.0800 
 38 H        0.7450    -0.2740    -2.4250 H     1 <1>   0.0800 
 39 H        5.6710     2.0420     1.2790 H     1 <1>   0.4500 
 40 H        3.3130     2.8610     1.4920 H     1 <1>   0.0800 
 41 H        2.8920     1.5860     0.3720 H     1 <1>   0.0800 
 42 H       -1.4560    -3.6060     0.5150 H     1 <1>   0.1500 
 43 H        4.6530     4.0850     0.3150 H     1 <1>   0.0800 
 44 H        4.8220     3.2290    -1.2060 H     1 <1>   0.0800 
 45 H        6.9040     5.1490    -1.6570 H     1 <1>   0.2700 
 46 H        9.4890     6.3100    -0.9810 H     1 <1>   0.0800 
 47 H        9.7670     5.0810    -2.2020 H     1 <1>   0.0800 
 48 H       10.6070     5.0050    -0.6740 H     1 <1>   0.0800 
@<TRIPOS>BOND
  1   1   2  2   
  2   2   3  am  
  3   2   4  1   
  4   3   5  1   
  5   3   6  1   
  6   4   7  ar  
  7   4   8  ar  
  8   5   9  1   
  9   5  25  1   
 10   5  26  1   
 11   6  10  1   
 12   6  27  1   
 13   6  28  1   
 14   7  11  ar  
 15   7  12  1   
 16   8  13  ar  
 17   8  14  1   
 18   9  15  1   
 19   9  29  1   
 20   9  30  1   
 21  10  16  1   
 22  10  31  1   
 23  10  32  1   
 24  11  17  ar  
 25  12  33  1   
 26  12  34  1   
 27  12  35  1   
 28  13  17  ar  
 29  14  36  1   
 30  14  37  1   
 31  14  38  1   
 32  15  16  1   
 33  15  18  1   
 34  15  39  1   
 35  16  40  1   
 36  16  41  1   
 37  17  42  1   
 38  18  19  1   
 39  18  43  1   
 40  18  44  1   
 41  19  20  1   
 42  19  21  2   
 43  20  22  1   
 44  20  45  1   
 45  21  23  1   
 46  22  23  2   
 47  22  24  1   
 48  24  46  1   
 49  24  47  1   
 50  24  48  1   
@<TRIPOS>SUBSTRUCTURE
  1 ****   3 GROUP 4 **** **** 0

# MOE 2024.06 (io_trps.svl 2023.06)
