@<TRIPOS>MOLECULE
NONAME
54 58 1 0 0 
SMALL
USER_CHARGES


@<TRIPOS>ATOM
  1 O       -2.6440    -1.2970     0.3840 O.2   1 <1>  -0.5700 
  2 C       -2.8450    -0.0930     0.3830 C.2   1 <1>   0.7670 
  3 N       -2.0540     0.6610    -0.4500 N.2   1 <1>  -0.6610 
  4 C       -3.8470     0.5180     1.1950 C.2   1 <1>   0.0290 
  5 C       -2.2060     1.9310    -0.4500 C.2   1 <1>   0.5000 
  6 C       -4.6850    -0.2890     2.0250 C.2   1 <1>   0.6160 
  7 C       -3.9510     1.8770     1.1580 C.2   1 <1>  -0.0500 
  8 N       -3.1250     2.5730     0.3290 N.pl3 1 <1>  -0.5500 
  9 C       -1.3540     2.8160    -1.3430 C.3   1 <1>  -0.1000 
 10 O       -4.6120    -0.1390     3.2320 O.2   1 <1>  -0.5700 
 11 N       -5.6320    -1.1570     1.5150 N.am  1 <1>  -0.6600 
 12 C        0.1230     2.5910    -1.4780 C.3   1 <1>  -0.2000 
 13 C       -0.3850     3.7980    -0.7510 C.3   1 <1>  -0.2000 
 14 C       -6.3750    -2.1160     2.3800 C.3   1 <1>   0.1400 
 15 C       -5.9810    -1.2740     0.0710 C.3   1 <1>   0.1400 
 16 C       -6.0600    -3.5450     1.9330 C.3   1 <1>  -0.1600 
 17 C       -5.6710    -2.6900    -0.4160 C.3   1 <1>  -0.1600 
 18 C       -6.3640    -3.7650     0.4370 C.3   1 <1>   0.4240 
 19 O       -7.7390    -3.4990     0.2570 O.3   1 <1>  -0.5600 
 20 C       -5.9870    -5.1910    -0.0560 C.ar  1 <1>  -0.1430 
 21 C       -8.6340    -4.5370     0.4910 C.3   1 <1>   0.1200 
 22 C       -4.6690    -5.6620    -0.0280 C.ar  1 <1>   0.0830 
 23 C       -6.9710    -6.0410    -0.5590 C.ar  1 <1>  -0.1430 
 24 C       -8.4190    -5.5970    -0.5790 C.3   1 <1>  -0.0160 
 25 O       -3.6850    -4.8930     0.4930 O.3   1 <1>  -0.3620 
 26 C       -4.3560    -6.9290    -0.5060 C.ar  1 <1>  -0.1500 
 27 C       -6.6510    -7.3010    -1.0410 C.ar  1 <1>  -0.1500 
 28 C       -2.4690    -4.7400    -0.2060 C.3   1 <1>   0.0400 
 29 C       -5.3440    -7.7460    -1.0180 C.ar  1 <1>  -0.1500 
 30 H       -4.6640     2.4120     1.7660 H     1 <1>   0.1500 
 31 H       -3.1500     3.5950     0.2770 H     1 <1>   0.4000 
 32 H       -1.8790     3.1010    -2.2370 H     1 <1>   0.1000 
 33 H        0.5740     2.7120    -2.4470 H     1 <1>   0.1000 
 34 H        0.5710     1.7890    -0.9140 H     1 <1>   0.1000 
 35 H       -0.2480     3.8330     0.3160 H     1 <1>   0.1000 
 36 H       -0.2670     4.7610    -1.2160 H     1 <1>   0.1000 
 37 H       -7.4300    -1.9240     2.2950 H     1 <1>   0.0800 
 38 H       -6.0960    -1.9960     3.4130 H     1 <1>   0.0800 
 39 H       -5.4360    -0.5610    -0.5220 H     1 <1>   0.0800 
 40 H       -7.0310    -1.0700    -0.0520 H     1 <1>   0.0800 
 41 H       -6.6080    -4.2480     2.5280 H     1 <1>   0.0800 
 42 H       -5.0200    -3.7170     2.1310 H     1 <1>   0.0800 
 43 H       -4.6090    -2.8190    -0.3930 H     1 <1>   0.0800 
 44 H       -5.9800    -2.8020    -1.4380 H     1 <1>   0.0800 
 45 H       -9.6300    -4.1350     0.4310 H     1 <1>   0.0800 
 46 H       -8.4700    -4.9360     1.4760 H     1 <1>   0.0800 
 47 H       -8.6640    -5.1920    -1.5440 H     1 <1>   0.0800 
 48 H       -9.0680    -6.4320    -0.3840 H     1 <1>   0.0800 
 49 H       -3.3450    -7.2860    -0.4710 H     1 <1>   0.1500 
 50 H       -7.4190    -7.9420    -1.4350 H     1 <1>   0.1500 
 51 H       -1.9540    -3.8910     0.2080 H     1 <1>   0.0800 
 52 H       -2.6830    -4.5630    -1.2450 H     1 <1>   0.0800 
 53 H       -1.8740    -5.6250    -0.0800 H     1 <1>   0.0800 
 54 H       -5.0990    -8.7250    -1.3910 H     1 <1>   0.1500 
@<TRIPOS>BOND
  1   1   2  2   
  2   2   3  1   
  3   2   4  1   
  4   3   5  2   
  5   4   6  1   
  6   4   7  2   
  7   5   8  1   
  8   5   9  1   
  9   6  10  2   
 10   6  11  am  
 11   7   8  1   
 12   7  30  1   
 13   8  31  1   
 14   9  12  1   
 15   9  13  1   
 16   9  32  1   
 17  11  14  1   
 18  11  15  1   
 19  12  13  1   
 20  12  33  1   
 21  12  34  1   
 22  13  35  1   
 23  13  36  1   
 24  14  16  1   
 25  14  37  1   
 26  14  38  1   
 27  15  17  1   
 28  15  39  1   
 29  15  40  1   
 30  16  18  1   
 31  16  41  1   
 32  16  42  1   
 33  17  18  1   
 34  17  43  1   
 35  17  44  1   
 36  18  19  1   
 37  18  20  1   
 38  19  21  1   
 39  20  22  ar  
 40  20  23  ar  
 41  21  24  1   
 42  21  45  1   
 43  21  46  1   
 44  22  25  1   
 45  22  26  ar  
 46  23  24  1   
 47  23  27  ar  
 48  24  47  1   
 49  24  48  1   
 50  25  28  1   
 51  26  29  ar  
 52  26  49  1   
 53  27  29  ar  
 54  27  50  1   
 55  28  51  1   
 56  28  52  1   
 57  28  53  1   
 58  29  54  1   
@<TRIPOS>SUBSTRUCTURE
  1 ****  17 GROUP 4 **** **** 0

# MOE 2024.06 (io_trps.svl 2023.06)
