@<TRIPOS>MOLECULE
NONAME
51 52 1 0 0 
SMALL
USER_CHARGES


@<TRIPOS>ATOM
  1 N       -2.4700    -0.6010     1.1540 N.ar  1 <1>  -0.6200 
  2 C       -2.5810     0.2160     0.1070 C.ar  1 <1>   0.7200 
  3 C       -2.0460    -1.8130     0.9060 C.ar  1 <1>   0.1600 
  4 N       -2.2980    -0.1040    -1.1560 N.ar  1 <1>  -0.6200 
  5 N       -3.0690     1.4840     0.3470 N.pl3 1 <1>  -0.8380 
  6 C       -1.7600    -2.2480    -0.3650 C.ar  1 <1>  -0.1430 
  7 C       -1.8760    -1.3230    -1.3760 C.ar  1 <1>   0.1600 
  8 C       -3.0900     2.0460     1.7300 C.3   1 <1>   0.1290 
  9 C       -3.0890     2.5160    -0.7320 C.3   1 <1>   0.1290 
 10 C       -1.4100    -3.6980    -0.6170 C.3   1 <1>   0.2530 
 11 N       -2.6420    -4.4730    -0.3790 N.3   1 <1>  -0.8100 
 12 C       -2.3710    -5.8840    -0.0560 C.3   1 <1>   0.2900 
 13 C       -3.6250    -4.3290    -1.5000 C.3   1 <1>   0.1100 
 14 C       -3.4770    -6.3440     0.8670 C.2   1 <1>  -0.3320 
 15 C       -5.0820    -4.2680    -0.9990 C.3   1 <1>   0.3430 
 16 N       -3.5190    -5.9880     2.1660 N.pl3 1 <1>   0.0330 
 17 C       -4.5560    -7.1320     0.6570 C.2   1 <1>   0.0460 
 18 N       -5.1420    -3.4480     0.2380 N.4   1 <1>  -0.9590 
 19 C       -4.6380    -6.5590     2.6530 C.2   1 <1>   0.0360 
 20 N       -5.3000    -7.2320     1.7710 N.2   1 <1>  -0.5650 
 21 C       -4.9890    -7.8700    -0.5920 C.3   1 <1>  -0.0590 
 22 C       -6.2350    -3.9090     1.1410 C.3   1 <1>   0.2630 
 23 C       -5.2020    -1.9760    -0.0260 C.3   1 <1>   0.2630 
 24 H       -1.9440    -2.4870     1.7390 H     1 <1>   0.1500 
 25 H       -1.6380    -1.5920    -2.3910 H     1 <1>   0.1500 
 26 H       -3.5080     1.3330     2.4200 H     1 <1>   0.0800 
 27 H       -3.6890     2.9390     1.7640 H     1 <1>   0.0800 
 28 H       -2.0860     2.2830     2.0390 H     1 <1>   0.0800 
 29 H       -3.4570     2.0930    -1.6510 H     1 <1>   0.0800 
 30 H       -2.0920     2.8890    -0.8940 H     1 <1>   0.0800 
 31 H       -3.7330     3.3330    -0.4580 H     1 <1>   0.0800 
 32 H       -0.6370    -3.9910     0.0740 H     1 <1>   0.0800 
 33 H       -1.0480    -3.8520    -1.6210 H     1 <1>   0.0800 
 34 H       -1.4300    -5.9890     0.4580 H     1 <1>   0.0800 
 35 H       -2.3290    -6.4860    -0.9490 H     1 <1>   0.0800 
 36 H       -3.5190    -5.1340    -2.2080 H     1 <1>   0.0800 
 37 H       -3.4410    -3.4180    -2.0410 H     1 <1>   0.0800 
 38 H       -5.4050    -5.2700    -0.7770 H     1 <1>   0.0800 
 39 H       -5.7320    -3.8670    -1.7590 H     1 <1>   0.0800 
 40 H       -2.8360    -5.4310     2.6880 H     1 <1>   0.2700 
 41 H       -4.2210    -3.6660     0.6690 H     1 <1>   0.4500 
 42 H       -4.9350    -6.4550     3.6840 H     1 <1>   0.1500 
 43 H       -4.3180    -7.6810    -1.4070 H     1 <1>   0.0800 
 44 H       -5.9830    -7.5700    -0.8690 H     1 <1>   0.0800 
 45 H       -4.9980    -8.9260    -0.3900 H     1 <1>   0.0800 
 46 H       -7.1970    -3.7060     0.7000 H     1 <1>   0.0800 
 47 H       -6.1740    -3.4020     2.0900 H     1 <1>   0.0800 
 48 H       -6.1540    -4.9700     1.3120 H     1 <1>   0.0800 
 49 H       -6.1430    -1.7100    -0.4760 H     1 <1>   0.0800 
 50 H       -4.4060    -1.6800    -0.6890 H     1 <1>   0.0800 
 51 H       -5.0880    -1.4250     0.8940 H     1 <1>   0.0800 
@<TRIPOS>BOND
  1   1   2  ar  
  2   1   3  ar  
  3   2   4  ar  
  4   2   5  1   
  5   3   6  ar  
  6   3  24  1   
  7   4   7  ar  
  8   5   8  1   
  9   5   9  1   
 10   6   7  ar  
 11   6  10  1   
 12   7  25  1   
 13   8  26  1   
 14   8  27  1   
 15   8  28  1   
 16   9  29  1   
 17   9  30  1   
 18   9  31  1   
 19  10  11  1   
 20  10  32  1   
 21  10  33  1   
 22  11  12  1   
 23  11  13  1   
 24  12  14  1   
 25  12  34  1   
 26  12  35  1   
 27  13  15  1   
 28  13  36  1   
 29  13  37  1   
 30  14  16  1   
 31  14  17  2   
 32  15  18  1   
 33  15  38  1   
 34  15  39  1   
 35  16  19  1   
 36  16  40  1   
 37  17  20  1   
 38  17  21  1   
 39  18  22  1   
 40  18  23  1   
 41  18  41  1   
 42  19  20  2   
 43  19  42  1   
 44  21  43  1   
 45  21  44  1   
 46  21  45  1   
 47  22  46  1   
 48  22  47  1   
 49  22  48  1   
 50  23  49  1   
 51  23  50  1   
 52  23  51  1   
@<TRIPOS>SUBSTRUCTURE
  1 ****  18 GROUP 4 **** **** 0

# MOE 2024.06 (io_trps.svl 2023.06)
