@<TRIPOS>MOLECULE
NONAME
52 54 1 0 0 
SMALL
USER_CHARGES


@<TRIPOS>ATOM
  1 O        0.4130    -0.6080    -0.7000 O.2   1 <1>  -0.5700 
  2 C        1.5000    -0.9650    -0.3180 C.2   1 <1>   0.5690 
  3 N        2.5240    -0.0970    -0.0640 N.am  1 <1>  -0.4940 
  4 C        1.7820    -2.4550    -0.1140 C.3   1 <1>  -0.0190 
  5 C        2.5490     1.2970    -0.1290 C.2   1 <1>   0.2040 
  6 C        2.5330    -3.0450    -1.3220 C.3   1 <1>  -0.1600 
  7 C        0.5050    -3.2770     0.1540 C.3   1 <1>  -0.1600 
  8 O        1.4770     2.0240    -0.3250 O.3   1 <1>  -0.0190 
  9 C        3.6030     2.1350     0.0090 C.2   1 <1>  -0.0540 
 10 C        2.8330    -4.5330    -1.1280 C.3   1 <1>   0.1400 
 11 C        0.8120    -4.7660     0.3350 C.3   1 <1>   0.1400 
 12 N        1.7490     3.3040    -0.3240 N.2   1 <1>  -0.4100 
 13 C        4.9870     1.8130     0.2340 C.ar  1 <1>   0.0540 
 14 C        3.0130     3.3960    -0.1280 C.2   1 <1>   0.1080 
 15 N        1.5720    -5.2710    -0.8430 N.am  1 <1>  -0.6600 
 16 C        5.6390     2.2100     1.3980 C.ar  1 <1>  -0.1500 
 17 C        5.7080     1.0840    -0.7080 C.ar  1 <1>  -0.1500 
 18 C        3.7550     4.7150    -0.0660 C.3   1 <1>  -0.0590 
 19 C        1.2190    -6.3830    -1.5780 C.2   1 <1>   0.5690 
 20 C        6.9660     1.8870     1.6170 C.ar  1 <1>  -0.1500 
 21 C        7.0350     0.7580    -0.4940 C.ar  1 <1>  -0.1500 
 22 O        1.8880    -6.7530    -2.5170 O.2   1 <1>  -0.5700 
 23 C       -0.0520    -7.1890    -1.2820 C.3   1 <1>   0.1810 
 24 C        7.6660     1.1590     0.6710 C.ar  1 <1>  -0.1500 
 25 O       -0.0820    -7.7000     0.0290 O.3   1 <1>  -0.5600 
 26 C       -1.1670    -8.5230     0.2890 C.3   1 <1>   0.1200 
 27 C       -1.0780    -8.9470     1.7500 C.3   1 <1>  -0.2400 
 28 H        3.4080    -0.5190     0.2120 H     1 <1>   0.3700 
 29 H        2.4120    -2.5490     0.7530 H     1 <1>   0.0800 
 30 H        3.4590    -2.5200    -1.4760 H     1 <1>   0.0800 
 31 H        1.9380    -2.9250    -2.2120 H     1 <1>   0.0800 
 32 H       -0.1810    -3.1650    -0.6680 H     1 <1>   0.0800 
 33 H        0.0150    -2.9050     1.0370 H     1 <1>   0.0800 
 34 H        3.5100    -4.6720    -0.3030 H     1 <1>   0.0800 
 35 H        3.3090    -4.9190    -2.0140 H     1 <1>   0.0800 
 36 H       -0.1140    -5.2970     0.4620 H     1 <1>   0.0800 
 37 H        1.4040    -4.9180     1.2210 H     1 <1>   0.0800 
 38 H        5.0990     2.7720     2.1390 H     1 <1>   0.1500 
 39 H        5.2240     0.7780    -1.6190 H     1 <1>   0.1500 
 40 H        4.6580     4.6560    -0.6450 H     1 <1>   0.0800 
 41 H        4.0010     4.9470     0.9530 H     1 <1>   0.0800 
 42 H        3.1390     5.5010    -0.4630 H     1 <1>   0.0800 
 43 H        7.4560     2.2000     2.5230 H     1 <1>   0.1500 
 44 H        7.5800     0.1960    -1.2330 H     1 <1>   0.1500 
 45 H       -0.1020    -8.0150    -1.9680 H     1 <1>   0.0800 
 46 H       -0.9100    -6.5580    -1.4240 H     1 <1>   0.0800 
 47 H        8.7000     0.9080     0.8390 H     1 <1>   0.1500 
 48 H       -1.1160    -9.3820    -0.3590 H     1 <1>   0.0800 
 49 H       -2.0760    -7.9740     0.1080 H     1 <1>   0.0800 
 50 H       -0.1620    -9.4820     1.9220 H     1 <1>   0.0800 
 51 H       -1.9030    -9.5910     1.9940 H     1 <1>   0.0800 
 52 H       -1.1150    -8.0820     2.3880 H     1 <1>   0.0800 
@<TRIPOS>BOND
  1   1   2  2   
  2   2   3  am  
  3   2   4  1   
  4   3   5  1   
  5   3  28  1   
  6   4   6  1   
  7   4   7  1   
  8   4  29  1   
  9   5   8  1   
 10   5   9  2   
 11   6  10  1   
 12   6  30  1   
 13   6  31  1   
 14   7  11  1   
 15   7  32  1   
 16   7  33  1   
 17   8  12  1   
 18   9  13  1   
 19   9  14  1   
 20  10  15  1   
 21  10  34  1   
 22  10  35  1   
 23  11  15  1   
 24  11  36  1   
 25  11  37  1   
 26  12  14  2   
 27  13  16  ar  
 28  13  17  ar  
 29  14  18  1   
 30  15  19  am  
 31  16  20  ar  
 32  16  38  1   
 33  17  21  ar  
 34  17  39  1   
 35  18  40  1   
 36  18  41  1   
 37  18  42  1   
 38  19  22  2   
 39  19  23  1   
 40  20  24  ar  
 41  20  43  1   
 42  21  24  ar  
 43  21  44  1   
 44  23  25  1   
 45  23  45  1   
 46  23  46  1   
 47  24  47  1   
 48  25  26  1   
 49  26  27  1   
 50  26  48  1   
 51  26  49  1   
 52  27  50  1   
 53  27  51  1   
 54  27  52  1   
@<TRIPOS>SUBSTRUCTURE
  1 ****   4 GROUP 4 **** **** 0

# MOE 2024.06 (io_trps.svl 2023.06)
