@<TRIPOS>MOLECULE
NONAME
39 40 1 0 0 
SMALL
USER_CHARGES


@<TRIPOS>ATOM
  1 O        8.1730     0.3090     1.0850 O.2   1 <1>  -0.5700 
  2 C        8.0710     0.1330    -0.1120 C.2   1 <1>   0.7800 
  3 O        7.2160    -0.7390    -0.6360 O.3   1 <1>  -0.4300 
  4 N        8.8260     0.8060    -1.0090 N.am  1 <1>  -0.7300 
  5 C        6.3070    -1.5620     0.0630 C.3   1 <1>   0.2800 
  6 C        9.7510     1.9170    -0.6940 C.3   1 <1>   0.1400 
  7 C        5.5680    -2.3510    -1.0190 C.3   1 <1>  -0.2400 
  8 C        5.3000    -0.7030     0.8380 C.3   1 <1>  -0.2400 
  9 C        7.0640    -2.5380     0.9720 C.3   1 <1>  -0.2400 
 10 C       10.9480     1.3990     0.1150 C.3   1 <1>   0.0000 
 11 C       12.1970     2.3320     0.1430 C.3   1 <1>   0.0000 
 12 C       11.8280     0.3220    -0.5910 C.3   1 <1>   0.0000 
 13 C       13.0180     1.0220     0.0950 C.3   1 <1>   0.0000 
 14 C       13.5690     0.4560     1.4140 C.3   1 <1>   0.4720 
 15 C       14.4520     0.9850    -0.4500 C.3   1 <1>   0.4720 
 16 N       14.9000     1.0200     0.9890 N.4   1 <1>  -0.8440 
 17 H        8.6060     0.6360    -1.9900 H     1 <1>   0.3700 
 18 H        9.2260     2.6640    -0.1230 H     1 <1>   0.0800 
 19 H       10.0860     2.3640    -1.6140 H     1 <1>   0.0800 
 20 H        5.0500    -1.6810    -1.6810 H     1 <1>   0.0800 
 21 H        4.8460    -3.0110    -0.5730 H     1 <1>   0.0800 
 22 H        6.2610    -2.9430    -1.5890 H     1 <1>   0.0800 
 23 H        4.8390     0.0150     0.1840 H     1 <1>   0.0800 
 24 H        5.7750    -0.1870     1.6520 H     1 <1>   0.0800 
 25 H        4.5310    -1.3270     1.2550 H     1 <1>   0.0800 
 26 H        7.8070    -3.0730     0.4090 H     1 <1>   0.0800 
 27 H        6.3790    -3.2500     1.3950 H     1 <1>   0.0800 
 28 H        7.5370    -2.0210     1.7860 H     1 <1>   0.0800 
 29 H       10.6760     1.1030     1.1140 H     1 <1>   0.0000 
 30 H       12.3060     2.8930     1.0540 H     1 <1>   0.0000 
 31 H       12.3080     2.9220    -0.7510 H     1 <1>   0.0000 
 32 H       11.8480     0.4260    -1.6630 H     1 <1>   0.0000 
 33 H       11.6480    -0.6830    -0.2520 H     1 <1>   0.0000 
 34 H       13.5920    -0.6190     1.4400 H     1 <1>   0.0000 
 35 H       13.1860     0.9280     2.3010 H     1 <1>   0.0000 
 36 H       14.7480     1.8620    -0.9950 H     1 <1>   0.0000 
 37 H       14.7070     0.0490    -0.9140 H     1 <1>   0.0000 
 38 H       15.6900     0.3990     1.1900 H     1 <1>   0.4500 
 39 H       15.0390     1.9760     1.3300 H     1 <1>   0.4500 
@<TRIPOS>BOND
  1   1   2  2   
  2   2   3  1   
  3   2   4  am  
  4   3   5  1   
  5   4   6  1   
  6   4  17  1   
  7   5   7  1   
  8   5   8  1   
  9   5   9  1   
 10   6  10  1   
 11   6  18  1   
 12   6  19  1   
 13   7  20  1   
 14   7  21  1   
 15   7  22  1   
 16   8  23  1   
 17   8  24  1   
 18   8  25  1   
 19   9  26  1   
 20   9  27  1   
 21   9  28  1   
 22  10  11  1   
 23  10  12  1   
 24  10  29  1   
 25  11  13  1   
 26  11  30  1   
 27  11  31  1   
 28  12  13  1   
 29  12  32  1   
 30  12  33  1   
 31  13  14  1   
 32  13  15  1   
 33  14  16  1   
 34  14  34  1   
 35  14  35  1   
 36  15  16  1   
 37  15  36  1   
 38  15  37  1   
 39  16  38  1   
 40  16  39  1   
@<TRIPOS>SUBSTRUCTURE
  1 ****   4 GROUP 4 **** **** 0

# MOE 2024.06 (io_trps.svl 2023.06)
