@<TRIPOS>MOLECULE
NONAME
42 43 1 0 0 
SMALL
USER_CHARGES


@<TRIPOS>ATOM
  1 F        0.6280     1.8500    -0.3000 F     1 <1>  -0.1900 
  2 C        1.9020     2.1240    -0.3620 C.ar  1 <1>   0.1900 
  3 C        2.8130     1.1030    -0.2800 C.ar  1 <1>  -0.1500 
  4 C        2.2800     3.4530    -0.5120 C.ar  1 <1>  -0.1500 
  5 C        4.1890     1.3850    -0.3460 C.ar  1 <1>   0.0000 
  6 C        3.6220     3.7480    -0.5790 C.ar  1 <1>  -0.1500 
  7 C        4.5840     2.7310    -0.4990 C.ar  1 <1>   0.3610 
  8 C        5.2140     0.3930    -0.2670 C.ar  1 <1>  -0.1440 
  9 N        5.9330     3.0250    -0.5620 N.ar  1 <1>  -0.1790 
 10 C        6.5210     0.7700    -0.3390 C.ar  1 <1>  -0.1500 
 11 C        4.8460    -1.0770    -0.1090 C.3   1 <1>  -0.0970 
 12 C        6.9150     2.1250    -0.4880 C.ar  1 <1>   0.4610 
 13 N        8.2020     2.5330    -0.5460 N.pl3 1 <1>  -0.8380 
 14 C        8.6320     3.8970    -1.0130 C.3   1 <1>   0.2090 
 15 C        9.3660     1.6440    -0.2280 C.3   1 <1>   0.1290 
 16 C        8.6600     4.9980     0.0940 C.3   1 <1>   0.0000 
 17 C        7.7650     6.1850    -0.3320 C.3   1 <1>   0.1200 
 18 C       10.1020     5.5250     0.2210 C.3   1 <1>  -0.2400 
 19 C        8.2370     4.5190     1.5030 C.3   1 <1>  -0.2400 
 20 O        6.4490     5.7780    -0.5610 O.3   1 <1>  -0.6800 
 21 H        2.4560     0.0950    -0.1640 H     1 <1>   0.1500 
 22 H        1.5200     4.2150    -0.5710 H     1 <1>   0.1500 
 23 H        3.9310     4.7710    -0.6930 H     1 <1>   0.1500 
 24 H        6.2180     4.0120    -0.5970 H     1 <1>   0.4570 
 25 H        7.2940     0.0270    -0.2940 H     1 <1>   0.1500 
 26 H        4.2480    -1.4040    -0.9410 H     1 <1>   0.0800 
 27 H        4.2910    -1.2270     0.8010 H     1 <1>   0.0800 
 28 H        5.7250    -1.6960    -0.0680 H     1 <1>   0.0800 
 29 H        7.9920     4.2030    -1.8220 H     1 <1>   0.0800 
 30 H        9.6110     3.8110    -1.4560 H     1 <1>   0.0800 
 31 H        9.0990     0.9090     0.5120 H     1 <1>   0.0800 
 32 H       10.1800     2.2250     0.1730 H     1 <1>   0.0800 
 33 H        9.7040     1.1460    -1.1210 H     1 <1>   0.0800 
 34 H        8.1370     6.6320    -1.2400 H     1 <1>   0.0800 
 35 H        7.7540     6.9370     0.4400 H     1 <1>   0.0800 
 36 H       10.4550     5.9150    -0.7180 H     1 <1>   0.0800 
 37 H       10.7660     4.7370     0.5300 H     1 <1>   0.0800 
 38 H       10.1590     6.3140     0.9520 H     1 <1>   0.0800 
 39 H        7.2170     4.1880     1.5260 H     1 <1>   0.0800 
 40 H        8.3330     5.3190     2.2170 H     1 <1>   0.0800 
 41 H        8.8640     3.7090     1.8350 H     1 <1>   0.0800 
 42 H        5.9050     6.5840    -0.7230 H     1 <1>   0.4000 
@<TRIPOS>BOND
  1   1   2  1   
  2   2   3  ar  
  3   2   4  ar  
  4   3   5  ar  
  5   3  21  1   
  6   4   6  ar  
  7   4  22  1   
  8   5   7  ar  
  9   5   8  ar  
 10   6   7  ar  
 11   6  23  1   
 12   7   9  ar  
 13   8  10  ar  
 14   8  11  1   
 15   9  12  ar  
 16   9  24  1   
 17  10  12  ar  
 18  10  25  1   
 19  11  26  1   
 20  11  27  1   
 21  11  28  1   
 22  12  13  1   
 23  13  14  1   
 24  13  15  1   
 25  14  16  1   
 26  14  29  1   
 27  14  30  1   
 28  15  31  1   
 29  15  32  1   
 30  15  33  1   
 31  16  17  1   
 32  16  18  1   
 33  16  19  1   
 34  17  20  1   
 35  17  34  1   
 36  17  35  1   
 37  18  36  1   
 38  18  37  1   
 39  18  38  1   
 40  19  39  1   
 41  19  40  1   
 42  19  41  1   
 43  20  42  1   
@<TRIPOS>SUBSTRUCTURE
  1 ****   9 GROUP 4 **** **** 0

# MOE 2024.06 (io_trps.svl 2023.06)
