@<TRIPOS>MOLECULE
NONAME
51 54 1 0 0 
SMALL
USER_CHARGES


@<TRIPOS>ATOM
  1 F        0.1330    -0.8350    -1.0180 F     1 <1>  -0.1900 
  2 C       -0.5430    -1.8420    -0.5230 C.ar  1 <1>   0.1900 
  3 C       -0.3070    -3.1040    -1.0040 C.ar  1 <1>  -0.1500 
  4 C       -1.4780    -1.5690     0.4810 C.ar  1 <1>  -0.1500 
  5 C       -1.0440    -4.1640    -0.4590 C.ar  1 <1>   0.0000 
  6 C       -2.2020    -2.6070     1.0190 C.ar  1 <1>  -0.1500 
  7 C       -1.9760    -3.9040     0.5420 C.ar  1 <1>  -0.1520 
  8 C       -1.0810    -5.5530    -0.6900 C.2   1 <1>  -0.1810 
  9 N       -2.5480    -5.0930     0.9000 N.pl3 1 <1>   0.0330 
 10 C       -2.0100    -6.1090     0.1470 C.2   1 <1>  -0.2370 
 11 C       -0.2000    -6.2430    -1.7160 C.3   1 <1>  -0.0590 
 12 C       -2.4380    -7.4730     0.3370 C.2   1 <1>   0.7150 
 13 O       -1.6770    -8.4070     0.1610 O.2   1 <1>  -0.5700 
 14 N       -3.7240    -7.7540     0.7340 N.am  1 <1>  -0.6600 
 15 C       -4.0370    -9.0720     1.3590 C.3   1 <1>   0.1400 
 16 C       -4.8950    -7.1200     0.0590 C.3   1 <1>   0.1400 
 17 C       -4.5160   -10.0370     0.2510 C.3   1 <1>   0.4230 
 18 C       -5.4700    -8.0880    -0.9910 C.3   1 <1>  -0.1600 
 19 N       -4.7360   -11.4560     0.6890 N.4   1 <1>  -0.9590 
 20 C       -5.8050    -9.4910    -0.4050 C.3   1 <1>  -0.1060 
 21 C       -5.0930   -12.3840    -0.4260 C.3   1 <1>   0.3430 
 22 C       -3.7000   -12.0220     1.5930 C.3   1 <1>   0.2630 
 23 C       -6.8820    -9.3980     0.6920 C.2   1 <1>   0.9060 
 24 C       -6.3020   -10.4320    -1.5420 C.3   1 <1>  -0.1600 
 25 C       -5.3870   -11.6510    -1.7430 C.3   1 <1>  -0.1600 
 26 O       -6.9820   -10.3400     1.4930 O.co2 1 <1>  -0.9000 
 27 O       -7.5910    -8.3970     0.7810 O.co2 1 <1>  -0.9000 
 28 H        0.4170    -3.2850    -1.7750 H     1 <1>   0.1500 
 29 H       -1.6120    -0.5550     0.8120 H     1 <1>   0.1500 
 30 H       -2.9290    -2.4360     1.7940 H     1 <1>   0.1500 
 31 H       -3.2640    -5.2190     1.6230 H     1 <1>   0.2700 
 32 H       -0.3370    -5.7880    -2.6800 H     1 <1>   0.0800 
 33 H       -0.4420    -7.2870    -1.7930 H     1 <1>   0.0800 
 34 H        0.8320    -6.1500    -1.4290 H     1 <1>   0.0800 
 35 H       -3.1490    -9.4520     1.8300 H     1 <1>   0.0800 
 36 H       -4.7920    -8.9390     2.1140 H     1 <1>   0.0800 
 37 H       -5.6430    -6.8780     0.7960 H     1 <1>   0.0800 
 38 H       -4.6060    -6.2060    -0.4300 H     1 <1>   0.0800 
 39 H       -3.7380   -10.0430    -0.4940 H     1 <1>   0.0800 
 40 H       -6.3650    -7.6480    -1.3990 H     1 <1>   0.0800 
 41 H       -4.7610    -8.1810    -1.7950 H     1 <1>   0.0800 
 42 H       -5.6320   -11.3390     1.2360 H     1 <1>   0.4500 
 43 H       -4.2920   -13.0850    -0.5910 H     1 <1>   0.0800 
 44 H       -5.9690   -12.9420    -0.1360 H     1 <1>   0.0800 
 45 H       -2.7440   -12.0440     1.0960 H     1 <1>   0.0800 
 46 H       -3.9690   -13.0240     1.8840 H     1 <1>   0.0800 
 47 H       -3.6170   -11.4220     2.4840 H     1 <1>   0.0800 
 48 H       -7.2910   -10.7850    -1.2990 H     1 <1>   0.0800 
 49 H       -6.3900    -9.8970    -2.4720 H     1 <1>   0.0800 
 50 H       -4.4580   -11.3390    -2.1890 H     1 <1>   0.0800 
 51 H       -5.8510   -12.3370    -2.4290 H     1 <1>   0.0800 
@<TRIPOS>BOND
  1   1   2  1   
  2   2   3  ar  
  3   2   4  ar  
  4   3   5  ar  
  5   3  28  1   
  6   4   6  ar  
  7   4  29  1   
  8   5   7  ar  
  9   5   8  1   
 10   6   7  ar  
 11   6  30  1   
 12   7   9  1   
 13   8  10  2   
 14   8  11  1   
 15   9  10  1   
 16   9  31  1   
 17  10  12  1   
 18  11  32  1   
 19  11  33  1   
 20  11  34  1   
 21  12  13  2   
 22  12  14  am  
 23  14  15  1   
 24  14  16  1   
 25  15  17  1   
 26  15  35  1   
 27  15  36  1   
 28  16  18  1   
 29  16  37  1   
 30  16  38  1   
 31  17  19  1   
 32  17  20  1   
 33  17  39  1   
 34  18  20  1   
 35  18  40  1   
 36  18  41  1   
 37  19  21  1   
 38  19  22  1   
 39  19  42  1   
 40  20  23  1   
 41  20  24  1   
 42  21  25  1   
 43  21  43  1   
 44  21  44  1   
 45  22  45  1   
 46  22  46  1   
 47  22  47  1   
 48  23  26  ar  
 49  23  27  ar  
 50  24  25  1   
 51  24  48  1   
 52  24  49  1   
 53  25  50  1   
 54  25  51  1   
@<TRIPOS>SUBSTRUCTURE
  1 ****  14 GROUP 4 **** **** 0

# MOE 2024.06 (io_trps.svl 2023.06)
