@<TRIPOS>MOLECULE
NONAME
51 54 1 0 0 
SMALL
USER_CHARGES


@<TRIPOS>ATOM
  1 O        2.3230     1.8900    -1.1490 O.3   1 <1>  -0.0190 
  2 N        3.1330     0.9480    -0.7700 N.2   1 <1>  -0.4100 
  3 C        1.4110     2.1380    -0.2480 C.2   1 <1>  -0.0400 
  4 C        2.7220     0.5650     0.3850 C.2   1 <1>   0.1080 
  5 C        1.6100     1.3030     0.7820 C.2   1 <1>  -0.1500 
  6 C        0.3970     3.2420    -0.4850 C.3   1 <1>   0.0200 
  7 C        3.3670    -0.5390     1.1950 C.3   1 <1>  -0.0590 
  8 C        1.1040     4.5120    -0.9960 C.3   1 <1>  -0.0800 
  9 C        0.2530     5.7770    -1.0560 C.3   1 <1>   0.2000 
 10 C        2.3030     4.9170    -0.1360 C.3   1 <1>   0.3430 
 11 O       -0.4150     5.9330     0.1650 O.3   1 <1>  -0.5600 
 12 C        1.3230     6.8660    -1.1430 C.3   1 <1>   0.3430 
 13 N        2.4440     6.4000    -0.2620 N.4   1 <1>  -0.9590 
 14 C       -1.8090     5.9380     0.0790 C.3   1 <1>   0.0400 
 15 C        2.3700     7.0460     1.0720 C.3   1 <1>   0.5230 
 16 C        2.6100     8.5280     0.9110 C.2   1 <1>  -0.3320 
 17 N        3.7670     9.0370     0.4150 N.pl3 1 <1>   0.5930 
 18 C        1.7970     9.5670     1.2000 C.2   1 <1>  -0.1500 
 19 N        3.6860    10.3810     0.3490 N.2   1 <1>  -0.7070 
 20 C        4.8290     8.2740    -0.1390 C.ar  1 <1>  -0.0230 
 21 C        2.5240    10.6910     0.8300 C.2   1 <1>   0.1390 
 22 C        5.0460     8.2780    -1.5130 C.ar  1 <1>  -0.1500 
 23 C        5.6260     7.4680     0.6670 C.ar  1 <1>  -0.1500 
 24 C        6.0120     7.4620    -2.0740 C.ar  1 <1>  -0.1500 
 25 C        6.5920     6.6520     0.1060 C.ar  1 <1>  -0.1500 
 26 C        6.7800     6.6440    -1.2650 C.ar  1 <1>  -0.1500 
 27 H        1.0700     1.1940     1.7050 H     1 <1>   0.1500 
 28 H       -0.3220     2.9100    -1.2130 H     1 <1>   0.0800 
 29 H       -0.1230     3.4300     0.4370 H     1 <1>   0.0800 
 30 H        3.6620    -0.1650     2.1580 H     1 <1>   0.0800 
 31 H        4.2380    -0.9090     0.6840 H     1 <1>   0.0800 
 32 H        2.6730    -1.3480     1.3250 H     1 <1>   0.0800 
 33 H        1.4750     4.3090    -1.9860 H     1 <1>   0.0800 
 34 H       -0.4360     5.8020    -1.8840 H     1 <1>   0.0800 
 35 H        3.1950     4.4050    -0.4630 H     1 <1>   0.0800 
 36 H        2.1060     4.6500     0.8900 H     1 <1>   0.0800 
 37 H        0.9310     7.8230    -0.8410 H     1 <1>   0.0800 
 38 H        1.6720     6.9330    -2.1600 H     1 <1>   0.0800 
 39 H        3.3550     6.6320    -0.6860 H     1 <1>   0.4500 
 40 H       -2.2080     6.0390     1.0740 H     1 <1>   0.0800 
 41 H       -2.1470     5.0100    -0.3510 H     1 <1>   0.0800 
 42 H       -2.1290     6.7720    -0.5220 H     1 <1>   0.0800 
 43 H        1.3970     6.8780     1.5080 H     1 <1>   0.0800 
 44 H        3.1160     6.6270     1.7280 H     1 <1>   0.0800 
 45 H        0.8040     9.5780     1.6180 H     1 <1>   0.1500 
 46 H        2.1720    11.7070     0.9230 H     1 <1>   0.1500 
 47 H        4.4620     8.9280    -2.1450 H     1 <1>   0.1500 
 48 H        5.5020     7.4790     1.7370 H     1 <1>   0.1500 
 49 H        6.1760     7.4690    -3.1390 H     1 <1>   0.1500 
 50 H        7.2080     6.0290     0.7330 H     1 <1>   0.1500 
 51 H        7.5350     6.0110    -1.7010 H     1 <1>   0.1500 
@<TRIPOS>BOND
  1   1   2  1   
  2   1   3  1   
  3   2   4  2   
  4   3   5  2   
  5   3   6  1   
  6   4   5  1   
  7   4   7  1   
  8   5  27  1   
  9   6   8  1   
 10   6  28  1   
 11   6  29  1   
 12   7  30  1   
 13   7  31  1   
 14   7  32  1   
 15   8   9  1   
 16   8  10  1   
 17   8  33  1   
 18   9  11  1   
 19   9  12  1   
 20   9  34  1   
 21  10  13  1   
 22  10  35  1   
 23  10  36  1   
 24  11  14  1   
 25  12  13  1   
 26  12  37  1   
 27  12  38  1   
 28  13  15  1   
 29  13  39  1   
 30  14  40  1   
 31  14  41  1   
 32  14  42  1   
 33  15  16  1   
 34  15  43  1   
 35  15  44  1   
 36  16  17  1   
 37  16  18  2   
 38  17  19  1   
 39  17  20  1   
 40  18  21  1   
 41  18  45  1   
 42  19  21  2   
 43  20  22  ar  
 44  20  23  ar  
 45  21  46  1   
 46  22  24  ar  
 47  22  47  1   
 48  23  25  ar  
 49  23  48  1   
 50  24  26  ar  
 51  24  49  1   
 52  25  26  ar  
 53  25  50  1   
 54  26  51  1   
@<TRIPOS>SUBSTRUCTURE
  1 ****  13 GROUP 4 **** **** 0

# MOE 2024.06 (io_trps.svl 2023.06)
