@<TRIPOS>MOLECULE
NONAME
46 48 1 0 0 
SMALL
USER_CHARGES


@<TRIPOS>ATOM
  1 O       -0.4960     0.2490     1.0890 O.2   1 <1>  -0.5700 
  2 C       -1.4720     0.8800     0.7290 C.2   1 <1>   0.5440 
  3 N       -2.6020     0.1880     0.3580 N.am  1 <1>  -0.6600 
  4 C       -1.4230     2.3280     0.6840 C.ar  1 <1>   0.0860 
  5 C       -3.7760     0.7670    -0.3460 C.3   1 <1>   0.1400 
  6 C       -2.6550    -1.2960     0.3000 C.3   1 <1>   0.1400 
  7 C       -0.4930     2.9850    -0.1160 C.ar  1 <1>  -0.1500 
  8 C       -2.2970     3.1130     1.4310 C.ar  1 <1>  -0.1500 
  9 C       -4.7930    -0.3720    -0.3730 C.3   1 <1>   0.2000 
 10 C       -3.9200    -1.6230    -0.5020 C.3   1 <1>  -0.0800 
 11 C       -0.4390     4.3680    -0.1950 C.ar  1 <1>  -0.1440 
 12 C       -2.2550     4.4920     1.3630 C.ar  1 <1>  -0.1500 
 13 O       -5.4460    -0.3860     0.8510 O.3   1 <1>  -0.6800 
 14 C       -4.5910    -2.9460    -0.0930 C.3   1 <1>   0.0210 
 15 C       -1.3320     5.1300     0.5500 C.ar  1 <1>  -0.1430 
 16 C        0.6030     5.0170    -1.0940 C.3   1 <1>  -0.0970 
 17 C       -3.6370    -4.1100    -0.2740 C.2   1 <1>   0.1080 
 18 C       -1.3150     6.6520     0.5000 C.3   1 <1>  -0.0970 
 19 N       -3.1920    -4.4800    -1.4340 N.2   1 <1>  -0.7070 
 20 C       -3.1300    -4.8920     0.7590 C.2   1 <1>  -0.1500 
 21 N       -2.3800    -5.5210    -1.1700 N.pl3 1 <1>   0.3000 
 22 C       -2.3240    -5.7880     0.1520 C.2   1 <1>  -0.3320 
 23 C       -1.4920    -6.9000     0.7630 C.3   1 <1>  -0.0600 
 24 H       -4.1680     1.6340     0.1540 H     1 <1>   0.0800 
 25 H       -3.4870     1.0270    -1.3500 H     1 <1>   0.0800 
 26 H       -1.7750    -1.6950    -0.1790 H     1 <1>   0.0800 
 27 H       -2.7170    -1.6840     1.3020 H     1 <1>   0.0800 
 28 H        0.1970     2.3830    -0.6810 H     1 <1>   0.1500 
 29 H       -3.0120     2.6310     2.0740 H     1 <1>   0.1500 
 30 H       -5.5250    -0.2740    -1.1560 H     1 <1>   0.0800 
 31 H       -3.6250    -1.7090    -1.5330 H     1 <1>   0.0800 
 32 H       -2.9470     5.0690     1.9520 H     1 <1>   0.1500 
 33 H       -4.7690    -0.3420     1.5570 H     1 <1>   0.4000 
 34 H       -5.4580    -3.1130    -0.7060 H     1 <1>   0.0800 
 35 H       -4.9110    -2.9100     0.9330 H     1 <1>   0.0800 
 36 H        1.2070     4.2740    -1.5840 H     1 <1>   0.0800 
 37 H        1.2520     5.6450    -0.5120 H     1 <1>   0.0800 
 38 H        0.1210     5.6120    -1.8480 H     1 <1>   0.0800 
 39 H       -2.0770     7.0680     1.1330 H     1 <1>   0.0800 
 40 H       -1.4910     6.9890    -0.5050 H     1 <1>   0.0800 
 41 H       -0.3620     7.0200     0.8330 H     1 <1>   0.0800 
 42 H       -3.3480    -4.7820     1.8060 H     1 <1>   0.1500 
 43 H       -1.8790    -6.0250    -1.9110 H     1 <1>   0.2700 
 44 H       -1.6150    -6.9090     1.8310 H     1 <1>   0.0800 
 45 H       -0.4500    -6.7500     0.5400 H     1 <1>   0.0800 
 46 H       -1.8010    -7.8540     0.3740 H     1 <1>   0.0800 
@<TRIPOS>BOND
  1   1   2  2   
  2   2   3  am  
  3   2   4  1   
  4   3   5  1   
  5   3   6  1   
  6   4   7  ar  
  7   4   8  ar  
  8   5   9  1   
  9   5  24  1   
 10   5  25  1   
 11   6  10  1   
 12   6  26  1   
 13   6  27  1   
 14   7  11  ar  
 15   7  28  1   
 16   8  12  ar  
 17   8  29  1   
 18   9  10  1   
 19   9  13  1   
 20   9  30  1   
 21  10  14  1   
 22  10  31  1   
 23  11  15  ar  
 24  11  16  1   
 25  12  15  ar  
 26  12  32  1   
 27  13  33  1   
 28  14  17  1   
 29  14  34  1   
 30  14  35  1   
 31  15  18  1   
 32  16  36  1   
 33  16  37  1   
 34  16  38  1   
 35  17  19  2   
 36  17  20  1   
 37  18  39  1   
 38  18  40  1   
 39  18  41  1   
 40  19  21  1   
 41  20  22  2   
 42  20  42  1   
 43  21  22  1   
 44  21  43  1   
 45  22  23  1   
 46  23  44  1   
 47  23  45  1   
 48  23  46  1   
@<TRIPOS>SUBSTRUCTURE
  1 ****   3 GROUP 4 **** **** 0

# MOE 2024.06 (io_trps.svl 2023.06)
