@<TRIPOS>MOLECULE
NONAME
47 48 1 0 0 
SMALL
USER_CHARGES


@<TRIPOS>ATOM
  1 O        2.7270     0.1460    -2.4990 O.2   1 <1>  -0.5700 
  2 C        3.0870    -0.4820    -1.5290 C.2   1 <1>   0.5690 
  3 N        4.1370    -0.0590    -0.7780 N.am  1 <1>  -0.7300 
  4 C        2.3080    -1.7540    -1.1100 C.3   1 <1>   0.2510 
  5 C        4.6400     1.3200    -0.7410 C.3   1 <1>   0.3200 
  6 N        1.2260    -1.5210    -0.1010 N.3   1 <1>  -0.8100 
  7 C        3.2420    -2.8890    -0.6340 C.3   1 <1>  -0.1600 
  8 C        4.3780     1.8380     0.6650 C.2   1 <1>   0.0060 
  9 C        0.0710    -0.8360    -0.7160 C.3   1 <1>   0.1100 
 10 C        1.6660    -0.7830     1.1080 C.3   1 <1>   0.1100 
 11 C        2.5090    -4.2170    -0.3880 C.3   1 <1>  -0.2400 
 12 N        4.9600     1.3360     1.7110 N.2   1 <1>  -0.5650 
 13 N        3.4940     2.8270     0.9580 N.pl3 1 <1>   0.0480 
 14 C       -1.0430    -0.5740     0.3140 C.3   1 <1>   0.1200 
 15 C        0.4930    -0.5350     2.0700 C.3   1 <1>   0.1200 
 16 C        4.4400     2.0330     2.7360 C.2   1 <1>   0.0770 
 17 C        3.5450     2.9410     2.2970 C.2   1 <1>  -0.3020 
 18 C        2.6190     3.6180     0.0640 C.3   1 <1>   0.0960 
 19 O       -0.5460     0.1340     1.4130 O.3   1 <1>  -0.5600 
 20 C        1.3430     2.8380    -0.2700 C.3   1 <1>  -0.1600 
 21 C        0.3960     3.6590    -1.1510 C.3   1 <1>  -0.2400 
 22 H        4.3590    -0.5530     0.0900 H     1 <1>   0.3700 
 23 H        1.8370    -2.1170    -2.0070 H     1 <1>   0.0800 
 24 H        4.1520     1.9230    -1.4860 H     1 <1>   0.0800 
 25 H        5.6990     1.3180    -0.9320 H     1 <1>   0.0800 
 26 H        3.7550    -2.5960     0.2640 H     1 <1>   0.0800 
 27 H        3.9890    -3.0490    -1.3910 H     1 <1>   0.0800 
 28 H       -0.3260    -1.4480    -1.5070 H     1 <1>   0.0800 
 29 H        0.3750     0.1020    -1.1450 H     1 <1>   0.0800 
 30 H        2.0750     0.1740     0.8400 H     1 <1>   0.0800 
 31 H        2.4250    -1.3420     1.6230 H     1 <1>   0.0800 
 32 H        1.7870    -4.1070     0.4030 H     1 <1>   0.0800 
 33 H        3.2100    -4.9810    -0.1050 H     1 <1>   0.0800 
 34 H        1.9940    -4.5320    -1.2790 H     1 <1>   0.0800 
 35 H       -1.4590    -1.5030     0.6610 H     1 <1>   0.0800 
 36 H       -1.8270     0.0150    -0.1290 H     1 <1>   0.0800 
 37 H        0.8120     0.0790     2.8930 H     1 <1>   0.0800 
 38 H        0.1170    -1.4680     2.4540 H     1 <1>   0.0800 
 39 H        4.7410     1.8400     3.7530 H     1 <1>   0.1500 
 40 H        2.9540     3.6440     2.8550 H     1 <1>   0.1500 
 41 H        3.1570     3.8570    -0.8360 H     1 <1>   0.0800 
 42 H        2.3650     4.5370     0.5600 H     1 <1>   0.0800 
 43 H        0.8330     2.5670     0.6400 H     1 <1>   0.0800 
 44 H        1.6060     1.9370    -0.7920 H     1 <1>   0.0800 
 45 H        0.1010     4.5640    -0.6500 H     1 <1>   0.0800 
 46 H       -0.4880     3.0850    -1.3650 H     1 <1>   0.0800 
 47 H        0.8710     3.9120    -2.0820 H     1 <1>   0.0800 
@<TRIPOS>BOND
  1   1   2  2   
  2   2   3  am  
  3   2   4  1   
  4   3   5  1   
  5   3  22  1   
  6   4   6  1   
  7   4   7  1   
  8   4  23  1   
  9   5   8  1   
 10   5  24  1   
 11   5  25  1   
 12   6   9  1   
 13   6  10  1   
 14   7  11  1   
 15   7  26  1   
 16   7  27  1   
 17   8  12  2   
 18   8  13  1   
 19   9  14  1   
 20   9  28  1   
 21   9  29  1   
 22  10  15  1   
 23  10  30  1   
 24  10  31  1   
 25  11  32  1   
 26  11  33  1   
 27  11  34  1   
 28  12  16  1   
 29  13  17  1   
 30  13  18  1   
 31  14  19  1   
 32  14  35  1   
 33  14  36  1   
 34  15  19  1   
 35  15  37  1   
 36  15  38  1   
 37  16  17  2   
 38  16  39  1   
 39  17  40  1   
 40  18  20  1   
 41  18  41  1   
 42  18  42  1   
 43  20  21  1   
 44  20  43  1   
 45  20  44  1   
 46  21  45  1   
 47  21  46  1   
 48  21  47  1   
@<TRIPOS>SUBSTRUCTURE
  1 ****  10 GROUP 4 **** **** 0

# MOE 2024.06 (io_trps.svl 2023.06)
