@<TRIPOS>MOLECULE
NONAME
51 54 1 0 0 
SMALL
USER_CHARGES


@<TRIPOS>ATOM
  1 O        0.3720     1.0070    -0.4340 O.2   1 <1>  -0.5700 
  2 C        0.3270     2.1690    -0.1230 C.2   1 <1>   0.5690 
  3 N       -0.8060     2.7070     0.3770 N.am  1 <1>  -0.7300 
  4 C        1.5510     3.0650    -0.3330 C.3   1 <1>   0.1810 
  5 C       -0.9410     4.1330     0.7640 C.3   1 <1>   0.3640 
  6 O        1.4860     4.2720     0.3950 O.3   1 <1>  -0.5600 
  7 C       -2.2510     4.6670     0.1850 C.ar  1 <1>  -0.1440 
  8 C        0.2630     4.9840     0.2720 C.3   1 <1>   0.2610 
  9 C       -3.0800     5.4550     0.9710 C.ar  1 <1>  -0.1500 
 10 C       -2.6320     4.3890    -1.1230 C.ar  1 <1>  -0.1500 
 11 C        0.3530     6.3410     0.9990 C.2   1 <1>   0.5690 
 12 C       -4.2660     5.9540     0.4640 C.ar  1 <1>  -0.1500 
 13 C       -3.8180     4.8870    -1.6310 C.ar  1 <1>  -0.1500 
 14 O       -0.2640     6.4810     2.0330 O.2   1 <1>  -0.5700 
 15 N        1.1090     7.3790     0.4860 N.am  1 <1>  -0.6600 
 16 C       -4.6370     5.6700    -0.8380 C.ar  1 <1>  -0.1500 
 17 C        1.9900     7.2650    -0.7140 C.3   1 <1>   0.1400 
 18 C        1.1760     8.6940     1.1920 C.3   1 <1>   0.1400 
 19 C        3.4370     7.5780    -0.3280 C.3   1 <1>  -0.1600 
 20 C        2.6250     9.0140     1.5710 C.3   1 <1>  -0.1600 
 21 C        3.5880     8.9340     0.3780 C.3   1 <1>   0.4240 
 22 O        3.1770     9.9030    -0.5320 O.3   1 <1>  -0.6800 
 23 C        5.0560     9.1760     0.8220 C.ar  1 <1>   0.1670 
 24 N        5.5720     8.2900     1.6750 N.ar  1 <1>  -0.6200 
 25 C        5.7840    10.2650     0.3490 C.ar  1 <1>  -0.1500 
 26 C        6.8220     8.4930     2.0570 C.ar  1 <1>   0.1600 
 27 C        7.0860    10.4650     0.7550 C.ar  1 <1>  -0.1500 
 28 C        7.6120     9.5470     1.6350 C.ar  1 <1>  -0.1500 
 29 H       -1.6240     2.1090     0.5090 H     1 <1>   0.3700 
 30 H        1.6450     3.3020    -1.3760 H     1 <1>   0.0800 
 31 H        2.4330     2.5400    -0.0150 H     1 <1>   0.0800 
 32 H       -0.9850     4.1730     1.8390 H     1 <1>   0.0800 
 33 H        0.1130     5.1860    -0.7720 H     1 <1>   0.0800 
 34 H       -2.8040     5.6900     1.9860 H     1 <1>   0.1500 
 35 H       -2.0100     3.7780    -1.7550 H     1 <1>   0.1500 
 36 H       -4.9000     6.5640     1.0830 H     1 <1>   0.1500 
 37 H       -4.1070     4.6640    -2.6440 H     1 <1>   0.1500 
 38 H       -5.5610     6.0580    -1.2320 H     1 <1>   0.1500 
 39 H        1.9580     6.2770    -1.1350 H     1 <1>   0.0800 
 40 H        1.6490     7.9510    -1.4700 H     1 <1>   0.0800 
 41 H        0.7760     9.4600     0.5510 H     1 <1>   0.0800 
 42 H        0.5770     8.6810     2.0870 H     1 <1>   0.0800 
 43 H        4.0670     7.5590    -1.1980 H     1 <1>   0.0800 
 44 H        3.7820     6.8000     0.3290 H     1 <1>   0.0800 
 45 H        2.9360     8.3060     2.3190 H     1 <1>   0.0800 
 46 H        2.6860     9.9900     2.0160 H     1 <1>   0.0800 
 47 H        2.2370     9.7590    -0.7350 H     1 <1>   0.4000 
 48 H        5.3440    10.9650    -0.3380 H     1 <1>   0.1500 
 49 H        7.2410     7.7800     2.7460 H     1 <1>   0.1500 
 50 H        7.6640    11.3010     0.3990 H     1 <1>   0.1500 
 51 H        8.6210     9.6430     1.9910 H     1 <1>   0.1500 
@<TRIPOS>BOND
  1   1   2  2   
  2   2   3  am  
  3   2   4  1   
  4   3   5  1   
  5   3  29  1   
  6   4   6  1   
  7   4  30  1   
  8   4  31  1   
  9   5   7  1   
 10   5   8  1   
 11   5  32  1   
 12   6   8  1   
 13   7   9  ar  
 14   7  10  ar  
 15   8  11  1   
 16   8  33  1   
 17   9  12  ar  
 18   9  34  1   
 19  10  13  ar  
 20  10  35  1   
 21  11  14  2   
 22  11  15  am  
 23  12  16  ar  
 24  12  36  1   
 25  13  16  ar  
 26  13  37  1   
 27  15  17  1   
 28  15  18  1   
 29  16  38  1   
 30  17  19  1   
 31  17  39  1   
 32  17  40  1   
 33  18  20  1   
 34  18  41  1   
 35  18  42  1   
 36  19  21  1   
 37  19  43  1   
 38  19  44  1   
 39  20  21  1   
 40  20  45  1   
 41  20  46  1   
 42  21  22  1   
 43  21  23  1   
 44  22  47  1   
 45  23  24  ar  
 46  23  25  ar  
 47  24  26  ar  
 48  25  27  ar  
 49  25  48  1   
 50  26  28  ar  
 51  26  49  1   
 52  27  28  ar  
 53  27  50  1   
 54  28  51  1   
@<TRIPOS>SUBSTRUCTURE
  1 ****  15 GROUP 4 **** **** 0

# MOE 2024.06 (io_trps.svl 2023.06)
