@<TRIPOS>MOLECULE
NONAME
51 53 1 0 0 
SMALL
USER_CHARGES


@<TRIPOS>ATOM
  1 O        1.5110    -1.5380    -2.3010 O.2   1 <1>  -0.5700 
  2 C        1.8160    -1.3330    -1.1490 C.2   1 <1>   0.5690 
  3 N        1.9790    -0.0760    -0.6680 N.am  1 <1>  -0.7300 
  4 C        1.9970    -2.5310    -0.2030 C.3   1 <1>   0.1710 
  5 C        1.9190     1.1610    -1.4640 C.3   1 <1>   0.2840 
  6 N        0.7380    -3.1430     0.3220 N.3   1 <1>  -0.8100 
  7 C        3.1250     2.0120    -1.1060 C.ar  1 <1>  -0.1430 
  8 C       -0.0960    -3.6500    -0.7950 C.3   1 <1>   0.2780 
  9 C        0.0060    -2.1950     1.1780 C.3   1 <1>   0.0300 
 10 C        3.1920     2.6730     0.1180 C.ar  1 <1>   0.0820 
 11 C        4.1710     2.1290    -2.0090 C.ar  1 <1>  -0.1500 
 12 C       -1.2810    -4.4910    -0.3150 C.2   1 <1>   0.1820 
 13 O        2.1500     2.5170     0.9790 O.3   1 <1>  -0.3630 
 14 C        4.3070     3.4540     0.4170 C.ar  1 <1>  -0.1500 
 15 C        5.2760     2.9040    -1.7050 C.ar  1 <1>  -0.1500 
 16 N       -1.1510    -5.5750     0.5370 N.pl3 1 <1>  -0.6290 
 17 C       -2.5940    -4.3560    -0.6090 C.2   1 <1>   0.1820 
 18 C        2.0600     3.2680     2.1700 C.3   1 <1>   0.0400 
 19 C        5.3420     3.5680    -0.4930 C.ar  1 <1>  -0.1500 
 20 C       -2.3880    -6.0780     0.7400 C.cat 1 <1>   0.7910 
 21 C       -0.0580    -6.1240     1.1720 C.2   1 <1>   0.2290 
 22 N       -3.2730    -5.3450     0.0460 N.pl3 1 <1>  -0.7000 
 23 C       -3.3280    -3.3560    -1.4830 C.3   1 <1>  -0.0720 
 24 C       -2.5770    -7.1930     1.5750 C.2   1 <1>  -0.1410 
 25 C       -0.2210    -7.2040     1.9910 C.2   1 <1>  -0.1500 
 26 C       -1.5000    -7.7600     2.2010 C.2   1 <1>  -0.1500 
 27 H        2.2550     0.0990     0.3010 H     1 <1>   0.3700 
 28 H        2.6070    -2.2220     0.6280 H     1 <1>   0.0800 
 29 H        2.5540    -3.2820    -0.7340 H     1 <1>   0.0800 
 30 H        1.0130     1.6930    -1.2310 H     1 <1>   0.0800 
 31 H        1.9160     0.9290    -2.5150 H     1 <1>   0.0800 
 32 H        0.5130    -4.2660    -1.4340 H     1 <1>   0.0800 
 33 H       -0.4550    -2.8250    -1.3840 H     1 <1>   0.0800 
 34 H        0.6510    -1.8370     1.9630 H     1 <1>   0.0800 
 35 H       -0.8370    -2.6820     1.6380 H     1 <1>   0.0800 
 36 H       -0.3450    -1.3520     0.6050 H     1 <1>   0.0800 
 37 H        4.1310     1.6150    -2.9540 H     1 <1>   0.1500 
 38 H        4.3900     3.9760     1.3500 H     1 <1>   0.1500 
 39 H        6.0830     2.9900    -2.4120 H     1 <1>   0.1500 
 40 H        1.1290     3.0270     2.6500 H     1 <1>   0.0800 
 41 H        2.0830     4.3160     1.9250 H     1 <1>   0.0800 
 42 H        2.8810     3.0050     2.8130 H     1 <1>   0.0800 
 43 H        6.2020     4.1710    -0.2590 H     1 <1>   0.1500 
 44 H        0.9080    -5.6730     1.0030 H     1 <1>   0.1500 
 45 H       -4.2800    -5.5110     0.0260 H     1 <1>   0.4500 
 46 H       -2.6450    -2.6540    -1.9260 H     1 <1>   0.0800 
 47 H       -4.0430    -2.8100    -0.8940 H     1 <1>   0.0800 
 48 H       -3.8470    -3.8690    -2.2730 H     1 <1>   0.0800 
 49 H       -3.5710    -7.5760     1.7060 H     1 <1>   0.1500 
 50 H        0.6250    -7.6450     2.4910 H     1 <1>   0.1500 
 51 H       -1.6040    -8.6160     2.8490 H     1 <1>   0.1500 
@<TRIPOS>BOND
  1   1   2  2   
  2   2   3  am  
  3   2   4  1   
  4   3   5  1   
  5   3  27  1   
  6   4   6  1   
  7   4  28  1   
  8   4  29  1   
  9   5   7  1   
 10   5  30  1   
 11   5  31  1   
 12   6   8  1   
 13   6   9  1   
 14   7  10  ar  
 15   7  11  ar  
 16   8  12  1   
 17   8  32  1   
 18   8  33  1   
 19   9  34  1   
 20   9  35  1   
 21   9  36  1   
 22  10  13  1   
 23  10  14  ar  
 24  11  15  ar  
 25  11  37  1   
 26  12  16  1   
 27  12  17  2   
 28  13  18  1   
 29  14  19  ar  
 30  14  38  1   
 31  15  19  ar  
 32  15  39  1   
 33  16  20  ar  
 34  16  21  1   
 35  17  22  1   
 36  17  23  1   
 37  18  40  1   
 38  18  41  1   
 39  18  42  1   
 40  19  43  1   
 41  20  22  ar  
 42  20  24  1   
 43  21  25  2   
 44  21  44  1   
 45  22  45  1   
 46  23  46  1   
 47  23  47  1   
 48  23  48  1   
 49  24  26  2   
 50  24  49  1   
 51  25  26  1   
 52  25  50  1   
 53  26  51  1   
@<TRIPOS>SUBSTRUCTURE
  1 ****   6 GROUP 4 **** **** 0

# MOE 2024.06 (io_trps.svl 2023.06)
