@<TRIPOS>MOLECULE
NONAME
49 51 1 0 0 
SMALL
USER_CHARGES


@<TRIPOS>ATOM
  1 O       -0.5950     0.9290     0.8550 O.co2 1 <1>  -0.9000 
  2 C       -1.2770     1.4900    -0.0180 C.2   1 <1>   0.9060 
  3 O       -2.1510     0.9370    -0.6810 O.co2 1 <1>  -0.9000 
  4 C       -0.9190     2.9560    -0.2830 C.3   1 <1>   0.2370 
  5 N        0.4150     3.2970     0.3550 N.4   1 <1>  -0.9590 
  6 C        0.6020     4.7240     0.7550 C.3   1 <1>   0.3430 
  7 C        1.5510     2.7500    -0.4530 C.3   1 <1>   0.3430 
  8 C        1.9500     4.9350     1.4770 C.3   1 <1>   0.2090 
  9 C        2.9140     2.9610     0.2450 C.3   1 <1>   0.2090 
 10 N        3.1110     4.3910     0.6810 N.pl3 1 <1>  -0.8380 
 11 C        4.1910     5.1540     0.3570 C.ar  1 <1>   0.4100 
 12 N        4.0040     6.4540     0.2390 N.ar  1 <1>  -0.6200 
 13 C        5.4630     4.5780     0.1640 C.ar  1 <1>  -0.1500 
 14 C        5.0440     7.2140    -0.0820 C.ar  1 <1>   0.7710 
 15 C        6.5120     5.3710    -0.1630 C.ar  1 <1>   0.2180 
 16 N        6.2670     6.6960    -0.2840 N.ar  1 <1>  -0.1790 
 17 N        4.8730     8.5510    -0.2100 N.pl3 1 <1>  -0.8380 
 18 C        7.9280     4.8550    -0.3880 C.3   1 <1>  -0.0170 
 19 C        5.8730     9.5750    -0.6230 C.3   1 <1>   0.2090 
 20 C        3.5590     9.2050     0.0450 C.3   1 <1>   0.2090 
 21 C        8.9180     5.4100     0.6450 C.3   1 <1>  -0.2400 
 22 C        5.0640    10.8380    -0.8830 C.3   1 <1>  -0.1600 
 23 C        3.8410    10.7000     0.0140 C.3   1 <1>  -0.1600 
 24 H       -1.7020     3.5540     0.1450 H     1 <1>   0.0800 
 25 H       -0.8950     3.1190    -1.3450 H     1 <1>   0.0800 
 26 H        0.3790     2.6700     1.1900 H     1 <1>   0.4500 
 27 H       -0.2010     5.0270     1.4060 H     1 <1>   0.0800 
 28 H        0.5790     5.3500    -0.1210 H     1 <1>   0.0800 
 29 H        1.5740     3.2340    -1.4140 H     1 <1>   0.0800 
 30 H        1.3980     1.6940    -0.6140 H     1 <1>   0.0800 
 31 H        1.9170     4.4330     2.4280 H     1 <1>   0.0800 
 32 H        2.0760     5.9840     1.6790 H     1 <1>   0.0800 
 33 H        3.6870     2.6630    -0.4400 H     1 <1>   0.0800 
 34 H        2.9690     2.3150     1.1060 H     1 <1>   0.0800 
 35 H        5.5820     3.5210     0.2980 H     1 <1>   0.1500 
 36 H        6.9950     7.3620    -0.5070 H     1 <1>   0.4570 
 37 H        8.2560     5.1140    -1.3810 H     1 <1>   0.0800 
 38 H        7.9320     3.7800    -0.3230 H     1 <1>   0.0800 
 39 H        6.4060     9.2810    -1.5120 H     1 <1>   0.0800 
 40 H        6.5630     9.7510     0.1860 H     1 <1>   0.0800 
 41 H        3.1490     8.9070     0.9960 H     1 <1>   0.0800 
 42 H        2.8710     8.9400    -0.7420 H     1 <1>   0.0800 
 43 H        9.0130     6.4790     0.5690 H     1 <1>   0.0800 
 44 H        9.8910     4.9780     0.4850 H     1 <1>   0.0800 
 45 H        8.6020     5.1580     1.6430 H     1 <1>   0.0800 
 46 H        4.7600    10.8570    -1.9150 H     1 <1>   0.0800 
 47 H        5.6280    11.7300    -0.6700 H     1 <1>   0.0800 
 48 H        4.0730    11.0350     1.0100 H     1 <1>   0.0800 
 49 H        2.9970    11.2580    -0.3540 H     1 <1>   0.0800 
@<TRIPOS>BOND
  1   1   2  ar  
  2   2   3  ar  
  3   2   4  1   
  4   4   5  1   
  5   4  24  1   
  6   4  25  1   
  7   5   6  1   
  8   5   7  1   
  9   5  26  1   
 10   6   8  1   
 11   6  27  1   
 12   6  28  1   
 13   7   9  1   
 14   7  29  1   
 15   7  30  1   
 16   8  10  1   
 17   8  31  1   
 18   8  32  1   
 19   9  10  1   
 20   9  33  1   
 21   9  34  1   
 22  10  11  1   
 23  11  12  ar  
 24  11  13  ar  
 25  12  14  ar  
 26  13  15  ar  
 27  13  35  1   
 28  14  16  ar  
 29  14  17  1   
 30  15  16  ar  
 31  15  18  1   
 32  16  36  1   
 33  17  19  1   
 34  17  20  1   
 35  18  21  1   
 36  18  37  1   
 37  18  38  1   
 38  19  22  1   
 39  19  39  1   
 40  19  40  1   
 41  20  23  1   
 42  20  41  1   
 43  20  42  1   
 44  21  43  1   
 45  21  44  1   
 46  21  45  1   
 47  22  23  1   
 48  22  46  1   
 49  22  47  1   
 50  23  48  1   
 51  23  49  1   
@<TRIPOS>SUBSTRUCTURE
  1 ****  11 GROUP 4 **** **** 0

# MOE 2024.06 (io_trps.svl 2023.06)
