@<TRIPOS>MOLECULE
NONAME
50 53 1 0 0 
SMALL
USER_CHARGES


@<TRIPOS>ATOM
  1 CL       0.0970    -0.5670     0.1460 Cl    1 <1>  -0.1770 
  2 C       -0.3280    -2.2530     0.3540 C.ar  1 <1>   0.1770 
  3 C        0.4360    -3.0840     1.1650 C.ar  1 <1>   0.0830 
  4 C       -1.4430    -2.7320    -0.3060 C.ar  1 <1>  -0.1500 
  5 O        1.5290    -2.6390     1.8280 O.3   1 <1>  -0.3630 
  6 C        0.0580    -4.4080     1.3170 C.ar  1 <1>  -0.1500 
  7 C       -1.8270    -4.0610    -0.1630 C.ar  1 <1>   0.1170 
  8 C        2.7130    -2.5440     1.0690 C.3   1 <1>   0.0400 
  9 C       -1.0590    -4.8890     0.6550 C.ar  1 <1>  -0.1500 
 10 N       -2.9630    -4.5060    -0.8570 N.am  1 <1>  -0.5470 
 11 C       -3.7890    -5.5650    -0.6530 C.2   1 <1>   0.6900 
 12 O       -3.6430    -6.3720     0.2480 O.2   1 <1>  -0.5700 
 13 N       -4.8640    -5.7070    -1.4770 N.am  1 <1>  -0.6600 
 14 C       -6.1840    -5.2610    -0.9300 C.3   1 <1>   0.1400 
 15 C       -4.9660    -6.9990    -2.2330 C.3   1 <1>   0.1400 
 16 C       -6.8020    -6.3190     0.0280 C.3   1 <1>   0.4230 
 17 C       -5.8500    -8.0440    -1.5070 C.3   1 <1>   0.3430 
 18 N       -6.0990    -7.6520    -0.0770 N.4   1 <1>  -0.9590 
 19 C       -8.3230    -6.4750    -0.2040 C.3   1 <1>   0.1200 
 20 C       -6.7610    -8.6730     0.7870 C.3   1 <1>   0.5180 
 21 O       -8.8580    -7.4570     0.6400 O.3   1 <1>  -0.5600 
 22 C       -6.0810   -10.0340     0.6030 C.3   1 <1>  -0.1950 
 23 C       -8.2820    -8.7320     0.5220 C.3   1 <1>   0.1200 
 24 C       -5.8140   -10.9060     1.7910 C.3   1 <1>  -0.2000 
 25 C       -4.6720   -10.2670     1.0580 C.3   1 <1>  -0.2000 
 26 H       -2.0080    -2.0620    -0.9250 H     1 <1>   0.1500 
 27 H        0.6390    -5.0530     1.9520 H     1 <1>   0.1500 
 28 H        3.5000    -2.2040     1.7170 H     1 <1>   0.0800 
 29 H        2.5660    -1.8400     0.2700 H     1 <1>   0.0800 
 30 H        2.9530    -3.5160     0.6750 H     1 <1>   0.0800 
 31 H       -1.3240    -5.9230     0.7810 H     1 <1>   0.1500 
 32 H       -3.2520    -3.9260    -1.6410 H     1 <1>   0.3700 
 33 H       -6.0610    -4.3340    -0.3950 H     1 <1>   0.0800 
 34 H       -6.8520    -5.0670    -1.7520 H     1 <1>   0.0800 
 35 H       -5.3580    -6.8130    -3.2180 H     1 <1>   0.0800 
 36 H       -3.9780    -7.4130    -2.3580 H     1 <1>   0.0800 
 37 H       -6.6750    -5.9500     1.0330 H     1 <1>   0.0800 
 38 H       -5.3550    -9.0000    -1.5520 H     1 <1>   0.0800 
 39 H       -6.7890    -8.1380    -2.0260 H     1 <1>   0.0800 
 40 H       -5.1480    -7.4770     0.3120 H     1 <1>   0.4500 
 41 H       -8.5380    -6.7460    -1.2230 H     1 <1>   0.0800 
 42 H       -8.8290    -5.5510     0.0170 H     1 <1>   0.0800 
 43 H       -6.6280    -8.3790     1.8150 H     1 <1>   0.0800 
 44 H       -6.4150   -10.5520    -0.2800 H     1 <1>   0.1000 
 45 H       -8.7540    -9.3720     1.2470 H     1 <1>   0.0800 
 46 H       -8.4910    -9.1170    -0.4610 H     1 <1>   0.0800 
 47 H       -6.0340   -10.5560     2.7860 H     1 <1>   0.1000 
 48 H       -5.9420   -11.9730     1.7000 H     1 <1>   0.1000 
 49 H       -4.0250   -10.9030     0.4760 H     1 <1>   0.1000 
 50 H       -4.1250    -9.4850     1.5600 H     1 <1>   0.1000 
@<TRIPOS>BOND
  1   1   2  1   
  2   2   3  ar  
  3   2   4  ar  
  4   3   5  1   
  5   3   6  ar  
  6   4   7  ar  
  7   4  26  1   
  8   5   8  1   
  9   6   9  ar  
 10   6  27  1   
 11   7   9  ar  
 12   7  10  1   
 13   8  28  1   
 14   8  29  1   
 15   8  30  1   
 16   9  31  1   
 17  10  11  am  
 18  10  32  1   
 19  11  12  2   
 20  11  13  am  
 21  13  14  1   
 22  13  15  1   
 23  14  16  1   
 24  14  33  1   
 25  14  34  1   
 26  15  17  1   
 27  15  35  1   
 28  15  36  1   
 29  16  18  1   
 30  16  19  1   
 31  16  37  1   
 32  17  18  1   
 33  17  38  1   
 34  17  39  1   
 35  18  20  1   
 36  18  40  1   
 37  19  21  1   
 38  19  41  1   
 39  19  42  1   
 40  20  22  1   
 41  20  23  1   
 42  20  43  1   
 43  21  23  1   
 44  22  24  1   
 45  22  25  1   
 46  22  44  1   
 47  23  45  1   
 48  23  46  1   
 49  24  25  1   
 50  24  47  1   
 51  24  48  1   
 52  25  49  1   
 53  25  50  1   
@<TRIPOS>SUBSTRUCTURE
  1 ****  12 GROUP 4 **** **** 0

# MOE 2024.06 (io_trps.svl 2023.06)
