@<TRIPOS>MOLECULE
NONAME
50 53 1 0 0 
SMALL
USER_CHARGES


@<TRIPOS>ATOM
  1 S       -0.0900    -0.2950     2.1820 S.o2  1 <1>   1.5000 
  2 O       -0.8250    -1.3460     2.8540 O.2   1 <1>  -0.6500 
  3 O        0.2520     0.9050     2.9150 O.2   1 <1>  -0.6500 
  4 N       -1.0210     0.1880     0.8510 N.am  1 <1>  -0.8490 
  5 C        1.3700    -1.0320     1.4060 C.2   1 <1>  -0.0220 
  6 C       -2.4130     0.4620     1.2450 C.3   1 <1>   0.1960 
  7 C       -0.4530     1.3600     0.1770 C.3   1 <1>   0.1960 
  8 S        2.8640    -0.1010     1.3640 S.3   1 <1>  -0.0800 
  9 C        1.5730    -2.2110     0.7830 C.2   1 <1>  -0.1500 
 10 C       -3.3120     0.7030     0.0160 C.3   1 <1>   0.0000 
 11 C       -1.2270     1.6650    -1.1090 C.3   1 <1>  -0.1600 
 12 C        3.7360    -1.3610     0.4910 C.2   1 <1>   0.0400 
 13 C        2.8910    -2.3990     0.2750 C.2   1 <1>  -0.1500 
 14 C       -4.7640     0.9560     0.4590 C.3   1 <1>   0.2000 
 15 C       -2.7250     1.8660    -0.8290 C.3   1 <1>  -0.1600 
 16 C       -3.4790    -0.5650    -0.8420 C.3   1 <1>  -0.1600 
 17 C        5.1120    -1.1510     0.1460 C.2   1 <1>   0.1400 
 18 O       -4.9560     2.2720     0.8830 O.3   1 <1>  -0.5600 
 19 C       -5.6260     0.6210    -0.7610 C.3   1 <1>  -0.1600 
 20 C       -4.8180    -0.4020    -1.5710 C.3   1 <1>  -0.1600 
 21 O        5.7430    -0.0360     0.4420 O.3   1 <1>  -0.0190 
 22 C        6.0090    -1.9330    -0.4930 C.2   1 <1>  -0.1500 
 23 C       -6.1480     2.5040     1.5640 C.3   1 <1>   0.0400 
 24 N        6.9830    -0.0340     0.0420 N.2   1 <1>  -0.4100 
 25 C        7.1680    -1.1710    -0.5260 C.2   1 <1>   0.1080 
 26 C        8.4850    -1.5930    -1.1390 C.3   1 <1>  -0.0590 
 27 H       -2.8060    -0.3740     1.7980 H     1 <1>   0.0800 
 28 H       -2.4460     1.3260     1.8890 H     1 <1>   0.0800 
 29 H       -0.4880     2.2160     0.8320 H     1 <1>   0.0800 
 30 H        0.5780     1.1750    -0.0770 H     1 <1>   0.0800 
 31 H        0.8160    -2.9690     0.6610 H     1 <1>   0.1500 
 32 H       -0.8270     2.5560    -1.5580 H     1 <1>   0.0800 
 33 H       -1.0780     0.8600    -1.8060 H     1 <1>   0.0800 
 34 H        3.1590    -3.3070    -0.2360 H     1 <1>   0.1500 
 35 H       -5.0080     0.2890     1.2690 H     1 <1>   0.0800 
 36 H       -3.2600     1.9750    -1.7550 H     1 <1>   0.0800 
 37 H       -2.8350     2.7880    -0.2850 H     1 <1>   0.0800 
 38 H       -2.6660    -0.7230    -1.5280 H     1 <1>   0.0800 
 39 H       -3.5400    -1.4250    -0.1980 H     1 <1>   0.0800 
 40 H       -6.5740     0.2130    -0.4600 H     1 <1>   0.0800 
 41 H       -5.7820     1.5060    -1.3530 H     1 <1>   0.0800 
 42 H       -5.3320    -1.3460    -1.6390 H     1 <1>   0.0800 
 43 H       -4.6530    -0.0260    -2.5670 H     1 <1>   0.0800 
 44 H        5.8780    -2.9200    -0.8930 H     1 <1>   0.1500 
 45 H       -6.1670     3.5390     1.8590 H     1 <1>   0.0800 
 46 H       -6.1870     1.8780     2.4380 H     1 <1>   0.0800 
 47 H       -6.9800     2.3010     0.9130 H     1 <1>   0.0800 
 48 H        8.4090    -2.5800    -1.5560 H     1 <1>   0.0800 
 49 H        9.2510    -1.5870    -0.3850 H     1 <1>   0.0800 
 50 H        8.7570    -0.9020    -1.9160 H     1 <1>   0.0800 
@<TRIPOS>BOND
  1   1   2  2   
  2   1   3  2   
  3   1   4  am  
  4   1   5  1   
  5   4   6  1   
  6   4   7  1   
  7   5   8  1   
  8   5   9  2   
  9   6  10  1   
 10   6  27  1   
 11   6  28  1   
 12   7  11  1   
 13   7  29  1   
 14   7  30  1   
 15   8  12  1   
 16   9  13  1   
 17   9  31  1   
 18  10  14  1   
 19  10  15  1   
 20  10  16  1   
 21  11  15  1   
 22  11  32  1   
 23  11  33  1   
 24  12  13  2   
 25  12  17  1   
 26  13  34  1   
 27  14  18  1   
 28  14  19  1   
 29  14  35  1   
 30  15  36  1   
 31  15  37  1   
 32  16  20  1   
 33  16  38  1   
 34  16  39  1   
 35  17  21  1   
 36  17  22  2   
 37  18  23  1   
 38  19  20  1   
 39  19  40  1   
 40  19  41  1   
 41  20  42  1   
 42  20  43  1   
 43  21  24  1   
 44  22  25  1   
 45  22  44  1   
 46  23  45  1   
 47  23  46  1   
 48  23  47  1   
 49  24  25  2   
 50  25  26  1   
 51  26  48  1   
 52  26  49  1   
 53  26  50  1   
@<TRIPOS>SUBSTRUCTURE
  1 ****   4 GROUP 4 **** **** 0

# MOE 2024.06 (io_trps.svl 2023.06)
