@<TRIPOS>MOLECULE
NONAME
50 53 1 0 0 
SMALL
USER_CHARGES


@<TRIPOS>ATOM
  1 O       -0.2930    -0.6570    -0.3170 O.3   1 <1>  -0.5600 
  2 C        0.4270     0.5180    -0.5540 C.3   1 <1>   0.1200 
  3 C       -1.6530    -0.3790    -0.2400 C.3   1 <1>   0.1200 
  4 C       -0.5030     1.6880    -0.2200 C.3   1 <1>   0.2890 
  5 C       -1.7340     1.0170     0.3660 C.3   1 <1>  -0.0800 
  6 N        0.0840     2.6210     0.7630 N.pl3 1 <1>  -0.8690 
  7 C       -3.0330     1.7780     0.0390 C.3   1 <1>  -0.0170 
  8 C        0.7770     3.7370     0.4520 C.ar  1 <1>   0.7200 
  9 C       -4.3300     1.1560     0.5710 C.ar  1 <1>  -0.1440 
 10 N        1.5250     4.1970     1.4390 N.ar  1 <1>  -0.6200 
 11 N        0.6530     4.2370    -0.7710 N.ar  1 <1>  -0.6200 
 12 C       -5.5840     1.5500     0.0390 C.ar  1 <1>   0.0000 
 13 C       -4.3500     0.2230     1.5710 C.ar  1 <1>  -0.1500 
 14 C        2.2130     5.2800     1.1680 C.ar  1 <1>   0.1600 
 15 C        1.3540     5.3200    -1.0090 C.ar  1 <1>   0.1600 
 16 C       -6.7480     0.9200     0.5440 C.ar  1 <1>   0.3100 
 17 C       -5.7560     2.5400    -0.9590 C.ar  1 <1>  -0.1500 
 18 C       -5.5600    -0.3280     2.0070 C.ar  1 <1>   0.1600 
 19 C        2.1690     5.9010    -0.0610 C.ar  1 <1>  -0.1430 
 20 N       -6.7190    -0.0150     1.5250 N.ar  1 <1>  -0.6200 
 21 C       -8.0010     1.2750     0.0190 C.ar  1 <1>  -0.1500 
 22 C       -6.9930     2.8660    -1.4470 C.ar  1 <1>  -0.1500 
 23 C        2.9710     7.1610    -0.3720 C.3   1 <1>   0.0630 
 24 C       -8.1320     2.2240    -0.9560 C.ar  1 <1>  -0.1500 
 25 C        4.4740     6.8940    -0.2470 C.3   1 <1>  -0.2400 
 26 C        2.5470     8.3150     0.5420 C.3   1 <1>  -0.2400 
 27 H        1.3040     0.5090     0.0690 H     1 <1>   0.0800 
 28 H        0.7090     0.5380    -1.5910 H     1 <1>   0.0800 
 29 H       -2.0530    -0.4010    -1.2400 H     1 <1>   0.0800 
 30 H       -2.1320    -1.1290     0.3640 H     1 <1>   0.0800 
 31 H       -0.7500     2.2030    -1.1330 H     1 <1>   0.0800 
 32 H       -1.6100     0.9320     1.4300 H     1 <1>   0.0800 
 33 H        0.3630     2.2250     1.6590 H     1 <1>   0.4000 
 34 H       -3.0970     1.8500    -1.0320 H     1 <1>   0.0800 
 35 H       -2.9520     2.7790     0.4290 H     1 <1>   0.0800 
 36 H       -3.4600    -0.1230     2.0600 H     1 <1>   0.1500 
 37 H        2.8300     5.6840     1.9510 H     1 <1>   0.1500 
 38 H        1.2760     5.7560    -1.9900 H     1 <1>   0.1500 
 39 H       -4.9000     3.0590    -1.3460 H     1 <1>   0.1500 
 40 H       -5.5220    -1.0610     2.7940 H     1 <1>   0.1500 
 41 H       -8.8620     0.7710     0.4170 H     1 <1>   0.1500 
 42 H       -7.1060     3.6190    -2.2080 H     1 <1>   0.1500 
 43 H        2.7720     7.4560    -1.3890 H     1 <1>   0.0800 
 44 H       -9.0990     2.4870    -1.3490 H     1 <1>   0.1500 
 45 H        4.7380     6.6410     0.7640 H     1 <1>   0.0800 
 46 H        5.0320     7.7660    -0.5380 H     1 <1>   0.0800 
 47 H        4.7580     6.0790    -0.8890 H     1 <1>   0.0800 
 48 H        2.7680     8.0940     1.5710 H     1 <1>   0.0800 
 49 H        1.4900     8.4900     0.4490 H     1 <1>   0.0800 
 50 H        3.0660     9.2160     0.2670 H     1 <1>   0.0800 
@<TRIPOS>BOND
  1   1   2  1   
  2   1   3  1   
  3   2   4  1   
  4   2  27  1   
  5   2  28  1   
  6   3   5  1   
  7   3  29  1   
  8   3  30  1   
  9   4   5  1   
 10   4   6  1   
 11   4  31  1   
 12   5   7  1   
 13   5  32  1   
 14   6   8  1   
 15   6  33  1   
 16   7   9  1   
 17   7  34  1   
 18   7  35  1   
 19   8  10  ar  
 20   8  11  ar  
 21   9  12  ar  
 22   9  13  ar  
 23  10  14  ar  
 24  11  15  ar  
 25  12  16  ar  
 26  12  17  ar  
 27  13  18  ar  
 28  13  36  1   
 29  14  19  ar  
 30  14  37  1   
 31  15  19  ar  
 32  15  38  1   
 33  16  20  ar  
 34  16  21  ar  
 35  17  22  ar  
 36  17  39  1   
 37  18  20  ar  
 38  18  40  1   
 39  19  23  1   
 40  21  24  ar  
 41  21  41  1   
 42  22  24  ar  
 43  22  42  1   
 44  23  25  1   
 45  23  26  1   
 46  23  43  1   
 47  24  44  1   
 48  25  45  1   
 49  25  46  1   
 50  25  47  1   
 51  26  48  1   
 52  26  49  1   
 53  26  50  1   
@<TRIPOS>SUBSTRUCTURE
  1 ****   7 GROUP 4 **** **** 0

# MOE 2024.06 (io_trps.svl 2023.06)
