@<TRIPOS>MOLECULE
NONAME
57 60 1 0 0 
SMALL
USER_CHARGES


@<TRIPOS>ATOM
  1 CL      -2.9890     1.4640    -4.4910 Cl    1 <1>  -0.1770 
  2 C       -3.8210     1.7360    -2.9850 C.ar  1 <1>   0.1770 
  3 C       -3.5790     0.8970    -1.9130 C.ar  1 <1>  -0.1500 
  4 C       -4.7100     2.7880    -2.8780 C.ar  1 <1>  -0.1500 
  5 C       -4.2450     1.1160    -0.7200 C.ar  1 <1>  -0.1500 
  6 C       -5.3700     2.9960    -1.6790 C.ar  1 <1>  -0.1500 
  7 C       -5.1610     2.1630    -0.5780 C.ar  1 <1>   0.0860 
  8 C       -5.8650     2.3930     0.6700 C.2   1 <1>   0.5440 
  9 O       -5.9210     3.5230     1.1190 O.2   1 <1>  -0.5700 
 10 N       -6.4890     1.3730     1.3590 N.am  1 <1>  -0.6600 
 11 C       -6.9380     1.5490     2.7660 C.3   1 <1>   0.1400 
 12 C       -7.0410     0.1590     0.7020 C.3   1 <1>   0.1400 
 13 C       -8.4590     1.7080     2.7940 C.3   1 <1>  -0.1600 
 14 C       -8.5660     0.2720     0.6530 C.3   1 <1>  -0.1600 
 15 C       -9.1680     0.5560     2.0480 C.3   1 <1>  -0.0190 
 16 C      -10.6980     0.6810     2.0380 C.2   1 <1>   0.5690 
 17 O      -11.2930    -0.2040     2.6110 O.2   1 <1>  -0.5700 
 18 N      -11.3860     1.7070     1.4250 N.am  1 <1>  -0.6600 
 19 C      -12.8800     1.7510     1.4730 C.3   1 <1>   0.1400 
 20 C      -10.8240     2.8190     0.6080 C.3   1 <1>   0.1400 
 21 C      -13.4670     1.5660     0.0600 C.3   1 <1>   0.0000 
 22 C      -11.3430     2.7150    -0.8310 C.3   1 <1>  -0.1600 
 23 C      -15.0080     1.5680     0.1150 C.3   1 <1>   0.2000 
 24 C      -12.8810     2.6540    -0.8850 C.3   1 <1>  -0.1600 
 25 C      -13.1960     0.1550    -0.4910 C.3   1 <1>  -0.1600 
 26 O      -15.5500     2.8400     0.1080 O.3   1 <1>  -0.6800 
 27 C      -15.4840     0.7830    -1.1070 C.3   1 <1>  -0.1600 
 28 C      -14.3080    -0.1180    -1.5090 C.3   1 <1>  -0.1600 
 29 H       -2.8760     0.0900    -2.0170 H     1 <1>   0.1500 
 30 H       -4.8780     3.4330    -3.7220 H     1 <1>   0.1500 
 31 H       -4.0550     0.4740     0.1230 H     1 <1>   0.1500 
 32 H       -6.0580     3.8190    -1.5810 H     1 <1>   0.1500 
 33 H       -6.6470     0.6850     3.3380 H     1 <1>   0.0800 
 34 H       -6.4700     2.4120     3.2080 H     1 <1>   0.0800 
 35 H       -6.6600     0.0510    -0.2980 H     1 <1>   0.0800 
 36 H       -6.7520    -0.7100     1.2680 H     1 <1>   0.0800 
 37 H       -8.7910     1.7230     3.8170 H     1 <1>   0.0800 
 38 H       -8.6970     2.6650     2.3740 H     1 <1>   0.0800 
 39 H       -8.8210     1.0420    -0.0480 H     1 <1>   0.0800 
 40 H       -8.9760    -0.6480     0.2750 H     1 <1>   0.0800 
 41 H       -8.9580    -0.3250     2.6300 H     1 <1>   0.0800 
 42 H      -13.2660     0.9920     2.1300 H     1 <1>   0.0800 
 43 H      -13.1900     2.7030     1.8680 H     1 <1>   0.0800 
 44 H      -11.1370     3.7560     1.0370 H     1 <1>   0.0800 
 45 H       -9.7530     2.8120     0.5960 H     1 <1>   0.0800 
 46 H      -11.0010     3.5690    -1.3890 H     1 <1>   0.0800 
 47 H      -10.9170     1.8430    -1.2940 H     1 <1>   0.0800 
 48 H      -15.3430     1.0700     1.0090 H     1 <1>   0.0800 
 49 H      -13.1990     2.4880    -1.8990 H     1 <1>   0.0800 
 50 H      -13.2440     3.6200    -0.5830 H     1 <1>   0.0800 
 51 H      -12.2190     0.0440    -0.9240 H     1 <1>   0.0800 
 52 H      -13.2800    -0.5600     0.3110 H     1 <1>   0.0800 
 53 H      -15.3160     3.2870    -0.7260 H     1 <1>   0.4000 
 54 H      -16.3470     0.1940    -0.8530 H     1 <1>   0.0800 
 55 H      -15.7280     1.4410    -1.9230 H     1 <1>   0.0800 
 56 H      -14.5870    -1.1590    -1.5020 H     1 <1>   0.0800 
 57 H      -13.9720     0.1430    -2.4970 H     1 <1>   0.0800 
@<TRIPOS>BOND
  1   1   2  1   
  2   2   3  ar  
  3   2   4  ar  
  4   3   5  ar  
  5   3  29  1   
  6   4   6  ar  
  7   4  30  1   
  8   5   7  ar  
  9   5  31  1   
 10   6   7  ar  
 11   6  32  1   
 12   7   8  1   
 13   8   9  2   
 14   8  10  am  
 15  10  11  1   
 16  10  12  1   
 17  11  13  1   
 18  11  33  1   
 19  11  34  1   
 20  12  14  1   
 21  12  35  1   
 22  12  36  1   
 23  13  15  1   
 24  13  37  1   
 25  13  38  1   
 26  14  15  1   
 27  14  39  1   
 28  14  40  1   
 29  15  16  1   
 30  15  41  1   
 31  16  17  2   
 32  16  18  am  
 33  18  19  1   
 34  18  20  1   
 35  19  21  1   
 36  19  42  1   
 37  19  43  1   
 38  20  22  1   
 39  20  44  1   
 40  20  45  1   
 41  21  23  1   
 42  21  24  1   
 43  21  25  1   
 44  22  24  1   
 45  22  46  1   
 46  22  47  1   
 47  23  26  1   
 48  23  27  1   
 49  23  48  1   
 50  24  49  1   
 51  24  50  1   
 52  25  28  1   
 53  25  51  1   
 54  25  52  1   
 55  26  53  1   
 56  27  28  1   
 57  27  54  1   
 58  27  55  1   
 59  28  56  1   
 60  28  57  1   
@<TRIPOS>SUBSTRUCTURE
  1 ****  14 GROUP 4 **** **** 0

# MOE 2024.06 (io_trps.svl 2023.06)
