@<TRIPOS>MOLECULE
NONAME
48 51 1 0 0 
SMALL
USER_CHARGES


@<TRIPOS>ATOM
  1 CL      -1.2470    -2.1580     0.7990 Cl    1 <1>  -0.1230 
  2 C       -2.2330    -0.7190     0.5910 C.2   1 <1>   0.1230 
  3 C       -3.1510    -0.4910    -0.4350 C.2   1 <1>   0.2030 
  4 C       -2.2550     0.3510     1.4000 C.2   1 <1>  -0.3020 
  5 N       -3.7270     0.6900    -0.2410 N.2   1 <1>  -0.7070 
  6 C       -3.3890    -1.4400    -1.5090 C.2   1 <1>   0.7160 
  7 N       -3.1650     1.1900     0.8700 N.pl3 1 <1>   0.3140 
  8 O       -2.4520    -1.7960    -2.2070 O.2   1 <1>  -0.5700 
  9 N       -4.6370    -1.9940    -1.7520 N.am  1 <1>  -0.6600 
 10 C       -3.5380     2.5070     1.4020 C.3   1 <1>   0.0160 
 11 C       -5.8320    -1.7390    -0.9070 C.3   1 <1>   0.1400 
 12 C       -4.8250    -3.1390    -2.6820 C.3   1 <1>   0.1400 
 13 C       -6.0760    -2.9660    -0.0270 C.3   1 <1>  -0.1600 
 14 C       -5.0510    -4.4070    -1.8550 C.3   1 <1>  -0.1600 
 15 C       -6.2210    -4.2570    -0.8630 C.3   1 <1>   0.4240 
 16 O       -7.3420    -4.0670    -1.7000 O.3   1 <1>  -0.5600 
 17 C       -6.3730    -5.5250     0.0260 C.ar  1 <1>  -0.1430 
 18 C       -8.5990    -4.3560    -1.1830 C.3   1 <1>   0.1200 
 19 C       -5.3630    -5.9450     0.9020 C.ar  1 <1>   0.0830 
 20 C       -7.5440    -6.2810    -0.0350 C.ar  1 <1>  -0.1430 
 21 C       -8.6790    -5.8560    -0.9440 C.3   1 <1>  -0.0170 
 22 O       -4.2230    -5.2100     0.9930 O.3   1 <1>  -0.3630 
 23 C       -5.5320    -7.0950     1.6700 C.ar  1 <1>  -0.1500 
 24 C       -7.7000    -7.4240     0.7300 C.ar  1 <1>  -0.1500 
 25 C       -3.0870    -5.6370     1.7100 C.3   1 <1>   0.0400 
 26 C       -6.6950    -7.8330     1.5820 C.ar  1 <1>  -0.1500 
 27 H       -1.6950     0.5540     2.2930 H     1 <1>   0.1500 
 28 H       -2.6590     3.1170     1.4860 H     1 <1>   0.0800 
 29 H       -3.9940     2.3830     2.3660 H     1 <1>   0.0800 
 30 H       -4.2360     2.9730     0.7310 H     1 <1>   0.0800 
 31 H       -6.6830    -1.5660    -1.5440 H     1 <1>   0.0800 
 32 H       -5.7030    -0.8680    -0.2910 H     1 <1>   0.0800 
 33 H       -3.9660    -3.2660    -3.3190 H     1 <1>   0.0800 
 34 H       -5.6780    -2.9480    -3.3110 H     1 <1>   0.0800 
 35 H       -6.9490    -2.8190     0.5780 H     1 <1>   0.0800 
 36 H       -5.2460    -3.0470     0.6460 H     1 <1>   0.0800 
 37 H       -4.1360    -4.6210    -1.3410 H     1 <1>   0.0800 
 38 H       -5.2490    -5.2370    -2.5060 H     1 <1>   0.0800 
 39 H       -9.3330    -4.0490    -1.9070 H     1 <1>   0.0800 
 40 H       -8.7470    -3.8070    -0.2700 H     1 <1>   0.0800 
 41 H       -8.6080    -6.3750    -1.8830 H     1 <1>   0.0800 
 42 H       -9.6270    -6.0920    -0.4950 H     1 <1>   0.0800 
 43 H       -4.7720    -7.4340     2.3460 H     1 <1>   0.1500 
 44 H       -8.6060    -8.0020     0.6670 H     1 <1>   0.1500 
 45 H       -2.3050    -4.9160     1.5540 H     1 <1>   0.0800 
 46 H       -2.7780    -6.5970     1.3360 H     1 <1>   0.0800 
 47 H       -3.3320    -5.6880     2.7560 H     1 <1>   0.0800 
 48 H       -6.8190    -8.7220     2.1760 H     1 <1>   0.1500 
@<TRIPOS>BOND
  1   1   2  1   
  2   2   3  1   
  3   2   4  2   
  4   3   5  2   
  5   3   6  1   
  6   4   7  1   
  7   4  27  1   
  8   5   7  1   
  9   6   8  2   
 10   6   9  am  
 11   7  10  1   
 12   9  11  1   
 13   9  12  1   
 14  10  28  1   
 15  10  29  1   
 16  10  30  1   
 17  11  13  1   
 18  11  31  1   
 19  11  32  1   
 20  12  14  1   
 21  12  33  1   
 22  12  34  1   
 23  13  15  1   
 24  13  35  1   
 25  13  36  1   
 26  14  15  1   
 27  14  37  1   
 28  14  38  1   
 29  15  16  1   
 30  15  17  1   
 31  16  18  1   
 32  17  19  ar  
 33  17  20  ar  
 34  18  21  1   
 35  18  39  1   
 36  18  40  1   
 37  19  22  1   
 38  19  23  ar  
 39  20  21  1   
 40  20  24  ar  
 41  21  41  1   
 42  21  42  1   
 43  22  25  1   
 44  23  26  ar  
 45  23  43  1   
 46  24  26  ar  
 47  24  44  1   
 48  25  45  1   
 49  25  46  1   
 50  25  47  1   
 51  26  48  1   
@<TRIPOS>SUBSTRUCTURE
  1 ****  13 GROUP 4 **** **** 0

# MOE 2024.06 (io_trps.svl 2023.06)
