@<TRIPOS>MOLECULE
NONAME
53 56 1 0 0 
SMALL
USER_CHARGES


@<TRIPOS>ATOM
  1 O        0.3810    -1.6810    -2.4450 O.3   1 <1>  -0.3630 
  2 C        1.0040    -1.5650    -1.2430 C.ar  1 <1>   0.0830 
  3 C        0.9940    -1.2870    -3.6530 C.3   1 <1>   0.0400 
  4 C        0.4110    -2.1860    -0.1340 C.ar  1 <1>   0.0000 
  5 C        2.1990    -0.8630    -1.0990 C.ar  1 <1>  -0.1500 
  6 C       -0.8360    -2.9160    -0.2210 C.ar  1 <1>   0.3100 
  7 C        1.0630    -2.0860     1.0950 C.ar  1 <1>  -0.1500 
  8 C        2.8190    -0.7760     0.1340 C.ar  1 <1>  -0.1500 
  9 N       -0.8770    -4.1580     0.2790 N.ar  1 <1>  -0.3100 
 10 C       -1.9660    -2.3380    -0.7780 C.ar  1 <1>  -0.1500 
 11 C        2.2490    -1.3920     1.2330 C.ar  1 <1>  -0.1500 
 12 N       -1.9850    -4.8570     0.2500 N.ar  1 <1>  -0.3100 
 13 C       -3.1260    -3.0690    -0.8090 C.ar  1 <1>  -0.1500 
 14 C       -3.1090    -4.3450    -0.2720 C.ar  1 <1>   0.4100 
 15 N       -4.2570    -5.1270    -0.2710 N.pl3 1 <1>  -0.8380 
 16 C       -5.6130    -4.5410    -0.0910 C.3   1 <1>   0.2090 
 17 C       -4.2420    -6.5160     0.2560 C.3   1 <1>   0.2090 
 18 C       -6.3760    -5.5590     0.7580 C.3   1 <1>  -0.0800 
 19 C       -5.7160    -6.8980     0.3990 C.3   1 <1>  -0.0800 
 20 C       -7.9160    -5.5320     0.6060 C.3   1 <1>   0.2800 
 21 C       -6.2460    -7.4880    -0.9260 C.3   1 <1>  -0.1600 
 22 O       -8.3210    -4.2140     0.5950 O.3   1 <1>  -0.6800 
 23 C       -8.3630    -6.1350    -0.7390 C.3   1 <1>  -0.1600 
 24 C       -8.6420    -6.2310     1.7830 C.3   1 <1>  -0.1600 
 25 C       -7.7760    -7.5340    -0.9760 C.3   1 <1>  -0.1600 
 26 C       -8.5210    -5.5530     3.1610 C.3   1 <1>  -0.2400 
 27 H        0.3420    -1.5650    -4.4620 H     1 <1>   0.0800 
 28 H        1.9350    -1.8000    -3.7500 H     1 <1>   0.0800 
 29 H        1.1320    -0.2210    -3.6440 H     1 <1>   0.0800 
 30 H        2.6640    -0.3770    -1.9340 H     1 <1>   0.1500 
 31 H        0.6280    -2.5650     1.9550 H     1 <1>   0.1500 
 32 H        3.7420    -0.2340     0.2400 H     1 <1>   0.1500 
 33 H       -1.9240    -1.3420    -1.1770 H     1 <1>   0.1500 
 34 H        2.7300    -1.3310     2.1950 H     1 <1>   0.1500 
 35 H       -4.0210    -2.6710    -1.2430 H     1 <1>   0.1500 
 36 H       -5.5710    -3.5880     0.4070 H     1 <1>   0.0800 
 37 H       -6.0740    -4.4210    -1.0560 H     1 <1>   0.0800 
 38 H       -3.7120    -7.1720    -0.4130 H     1 <1>   0.0800 
 39 H       -3.7630    -6.5280     1.2210 H     1 <1>   0.0800 
 40 H       -6.1270    -5.3340     1.7770 H     1 <1>   0.0800 
 41 H       -5.8460    -7.6160     1.1890 H     1 <1>   0.0800 
 42 H       -5.8960    -6.8900    -1.7520 H     1 <1>   0.0800 
 43 H       -5.8510    -8.4800    -1.0600 H     1 <1>   0.0800 
 44 H       -9.2940    -4.1790     0.6320 H     1 <1>   0.4000 
 45 H       -9.4360    -6.1940    -0.7810 H     1 <1>   0.0800 
 46 H       -8.0400    -5.4950    -1.5410 H     1 <1>   0.0800 
 47 H       -9.6870    -6.3170     1.5450 H     1 <1>   0.0800 
 48 H       -8.2670    -7.2350     1.8740 H     1 <1>   0.0800 
 49 H       -8.1430    -8.2260    -0.2380 H     1 <1>   0.0800 
 50 H       -8.0880    -7.8930    -1.9420 H     1 <1>   0.0800 
 51 H       -8.8800    -4.5400     3.1260 H     1 <1>   0.0800 
 52 H       -7.5020    -5.5440     3.5040 H     1 <1>   0.0800 
 53 H       -9.1080    -6.0920     3.8840 H     1 <1>   0.0800 
@<TRIPOS>BOND
  1   1   2  1   
  2   1   3  1   
  3   2   4  ar  
  4   2   5  ar  
  5   3  27  1   
  6   3  28  1   
  7   3  29  1   
  8   4   6  1   
  9   4   7  ar  
 10   5   8  ar  
 11   5  30  1   
 12   6   9  ar  
 13   6  10  ar  
 14   7  11  ar  
 15   7  31  1   
 16   8  11  ar  
 17   8  32  1   
 18   9  12  ar  
 19  10  13  ar  
 20  10  33  1   
 21  11  34  1   
 22  12  14  ar  
 23  13  14  ar  
 24  13  35  1   
 25  14  15  1   
 26  15  16  1   
 27  15  17  1   
 28  16  18  1   
 29  16  36  1   
 30  16  37  1   
 31  17  19  1   
 32  17  38  1   
 33  17  39  1   
 34  18  19  1   
 35  18  20  1   
 36  18  40  1   
 37  19  21  1   
 38  19  41  1   
 39  20  22  1   
 40  20  23  1   
 41  20  24  1   
 42  21  25  1   
 43  21  42  1   
 44  21  43  1   
 45  22  44  1   
 46  23  25  1   
 47  23  45  1   
 48  23  46  1   
 49  24  26  1   
 50  24  47  1   
 51  24  48  1   
 52  25  49  1   
 53  25  50  1   
 54  26  51  1   
 55  26  52  1   
 56  26  53  1   
@<TRIPOS>SUBSTRUCTURE
  1 ****  14 GROUP 4 **** **** 0

# MOE 2024.06 (io_trps.svl 2023.06)
