@<TRIPOS>MOLECULE
NONAME
53 55 1 0 0 
SMALL
USER_CHARGES


@<TRIPOS>ATOM
  1 O        0.4230     1.7690    -1.7860 O.2   1 <1>  -0.5700 
  2 C        0.0610     2.8610    -1.4160 C.2   1 <1>   0.5690 
  3 N       -0.8260     3.0320    -0.3870 N.am  1 <1>  -0.6600 
  4 C        0.6030     4.0880    -2.1490 C.3   1 <1>   0.1810 
  5 C       -1.3010     4.3980     0.0140 C.3   1 <1>   0.3640 
  6 C       -1.3340     1.8910     0.4290 C.3   1 <1>   0.0600 
  7 O        0.5650     5.2480    -1.3560 O.3   1 <1>  -0.5600 
  8 C       -2.8370     4.4520     0.0660 C.ar  1 <1>  -0.1440 
  9 C       -0.7210     5.5600    -0.8370 C.3   1 <1>   0.2610 
 10 C       -3.6860     4.0520    -0.9720 C.ar  1 <1>  -0.1440 
 11 C       -3.4020     4.9390     1.2400 C.ar  1 <1>  -0.1500 
 12 C       -0.6440     6.8280     0.0200 C.2   1 <1>   0.5690 
 13 C       -5.0610     4.1400    -0.8010 C.ar  1 <1>  -0.1500 
 14 C       -3.1940     3.5020    -2.3060 C.3   1 <1>  -0.0960 
 15 C       -4.7720     5.0240     1.3970 C.ar  1 <1>  -0.1500 
 16 O       -1.6490     7.4510     0.2650 O.2   1 <1>  -0.5700 
 17 N        0.5600     7.2330     0.4950 N.am  1 <1>  -0.7300 
 18 C       -5.6050     4.6220     0.3740 C.ar  1 <1>  -0.1500 
 19 C        0.8110     8.4850     1.2230 C.3   1 <1>   0.2840 
 20 C        2.2500     8.8930     0.9690 C.ar  1 <1>  -0.1440 
 21 C        2.5910     9.5460    -0.2040 C.ar  1 <1>  -0.1500 
 22 C        3.2380     8.6110     1.8980 C.ar  1 <1>  -0.1500 
 23 C        3.9010     9.9230    -0.4570 C.ar  1 <1>  -0.1440 
 24 C        4.5470     8.9830     1.6530 C.ar  1 <1>  -0.1500 
 25 C        4.8890     9.6390     0.4810 C.ar  1 <1>  -0.1440 
 26 C        4.2250    10.6410    -1.7590 C.3   1 <1>  -0.0970 
 27 C        6.3410    10.0310     0.2500 C.3   1 <1>  -0.0970 
 28 H        0.0310     4.2620    -3.0420 H     1 <1>   0.0800 
 29 H        1.6270     3.9130    -2.4210 H     1 <1>   0.0800 
 30 H       -0.9360     4.5500     1.0150 H     1 <1>   0.0800 
 31 H       -1.1460     2.0750     1.4720 H     1 <1>   0.0800 
 32 H       -0.8440     0.9740     0.1480 H     1 <1>   0.0800 
 33 H       -2.3930     1.7740     0.2770 H     1 <1>   0.0800 
 34 H       -1.3690     5.7670    -1.6670 H     1 <1>   0.0800 
 35 H       -2.7760     5.2680     2.0510 H     1 <1>   0.1500 
 36 H       -5.7270     3.8310    -1.5870 H     1 <1>   0.1500 
 37 H       -3.9910     3.4710    -3.0270 H     1 <1>   0.0800 
 38 H       -2.8250     2.5000    -2.1790 H     1 <1>   0.0800 
 39 H       -2.4150     4.1150    -2.7140 H     1 <1>   0.0800 
 40 H       -5.1880     5.4070     2.3130 H     1 <1>   0.1500 
 41 H        1.4020     6.7590     0.1510 H     1 <1>   0.3700 
 42 H       -6.6730     4.6860     0.4890 H     1 <1>   0.1500 
 43 H        0.1390     9.2520     0.8780 H     1 <1>   0.0800 
 44 H        0.6420     8.3290     2.2740 H     1 <1>   0.0800 
 45 H        1.8230     9.7590    -0.9260 H     1 <1>   0.1500 
 46 H        2.9950     8.1010     2.8130 H     1 <1>   0.1500 
 47 H        5.3010     8.7580     2.3860 H     1 <1>   0.1500 
 48 H        3.3430    10.7680    -2.3600 H     1 <1>   0.0800 
 49 H        4.9400    10.0720    -2.3260 H     1 <1>   0.0800 
 50 H        4.6340    11.6120    -1.5510 H     1 <1>   0.0800 
 51 H        6.9580     9.7350     1.0790 H     1 <1>   0.0800 
 52 H        6.4200    11.0960     0.1340 H     1 <1>   0.0800 
 53 H        6.7150     9.5510    -0.6360 H     1 <1>   0.0800 
@<TRIPOS>BOND
  1   1   2  2   
  2   2   3  am  
  3   2   4  1   
  4   3   5  1   
  5   3   6  1   
  6   4   7  1   
  7   4  28  1   
  8   4  29  1   
  9   5   8  1   
 10   5   9  1   
 11   5  30  1   
 12   6  31  1   
 13   6  32  1   
 14   6  33  1   
 15   7   9  1   
 16   8  10  ar  
 17   8  11  ar  
 18   9  12  1   
 19   9  34  1   
 20  10  13  ar  
 21  10  14  1   
 22  11  15  ar  
 23  11  35  1   
 24  12  16  2   
 25  12  17  am  
 26  13  18  ar  
 27  13  36  1   
 28  14  37  1   
 29  14  38  1   
 30  14  39  1   
 31  15  18  ar  
 32  15  40  1   
 33  17  19  1   
 34  17  41  1   
 35  18  42  1   
 36  19  20  1   
 37  19  43  1   
 38  19  44  1   
 39  20  21  ar  
 40  20  22  ar  
 41  21  23  ar  
 42  21  45  1   
 43  22  24  ar  
 44  22  46  1   
 45  23  25  ar  
 46  23  26  1   
 47  24  25  ar  
 48  24  47  1   
 49  25  27  1   
 50  26  48  1   
 51  26  49  1   
 52  26  50  1   
 53  27  51  1   
 54  27  52  1   
 55  27  53  1   
@<TRIPOS>SUBSTRUCTURE
  1 ****  12 GROUP 4 **** **** 0

# MOE 2024.06 (io_trps.svl 2023.06)
