@<TRIPOS>MOLECULE
NONAME
50 51 1 0 0 
SMALL
USER_CHARGES


@<TRIPOS>ATOM
  1 S        0.1710     0.3570    -0.5370 S.o2  1 <1>   1.3330 
  2 O       -0.3200     0.2120     0.8150 O.2   1 <1>  -0.6500 
  3 O       -0.1660     1.5410    -1.2940 O.2   1 <1>  -0.6500 
  4 N       -0.3330    -1.0020    -1.4210 N.am  1 <1>  -0.8490 
  5 C        1.9570     0.1920    -0.5570 C.3   1 <1>  -0.0550 
  6 C       -0.4390    -2.2180    -0.6070 C.3   1 <1>   0.1160 
  7 C       -1.5930    -0.7670    -2.1320 C.3   1 <1>   0.1160 
  8 C        2.6930     1.3340     0.1730 C.3   1 <1>  -0.0800 
  9 C        4.1880     1.2810    -0.0950 C.3   1 <1>   0.2200 
 10 C        2.6450     1.1630     1.6950 C.3   1 <1>   0.1200 
 11 N        4.7770     2.6160     0.1530 N.am  1 <1>  -0.7300 
 12 C        4.6640     0.3040     0.9740 C.3   1 <1>   0.1200 
 13 O        3.7860     0.4400     2.0530 O.3   1 <1>  -0.5600 
 14 C        5.3300     3.4040    -0.7980 C.2   1 <1>   0.5690 
 15 O        5.3620     3.0840    -1.9600 O.2   1 <1>  -0.5700 
 16 C        5.9100     4.7350    -0.3960 C.3   1 <1>  -0.0990 
 17 C        5.0000     5.8620    -0.8890 C.3   1 <1>   0.0960 
 18 N        5.5400     7.1660    -0.4670 N.pl3 1 <1>   0.3140 
 19 N        5.3570     7.6090     0.7900 N.2   1 <1>  -0.7070 
 20 C        6.2750     8.0380    -1.1950 C.2   1 <1>  -0.3320 
 21 C        5.9670     8.7500     0.8330 C.2   1 <1>   0.1080 
 22 C        6.5630     9.0740    -0.3800 C.2   1 <1>  -0.1500 
 23 C        6.6760     7.8440    -2.6480 C.3   1 <1>  -0.0600 
 24 C        6.0050     9.6010     2.0800 C.3   1 <1>  -0.0590 
 25 H        2.2340    -0.7490    -0.1240 H     1 <1>   0.0800 
 26 H        2.2710     0.1840    -1.5830 H     1 <1>   0.0800 
 27 H       -0.6690    -3.0630    -1.2340 H     1 <1>   0.0800 
 28 H       -1.2150    -2.1100     0.1340 H     1 <1>   0.0800 
 29 H        0.4930    -2.4130    -0.1040 H     1 <1>   0.0800 
 30 H       -1.8750    -1.6410    -2.6920 H     1 <1>   0.0800 
 31 H       -1.4800     0.0520    -2.8230 H     1 <1>   0.0800 
 32 H       -2.3770    -0.5230    -1.4340 H     1 <1>   0.0800 
 33 H        2.2750     2.2770    -0.1360 H     1 <1>   0.0800 
 34 H        4.4310     0.9430    -1.0890 H     1 <1>   0.0800 
 35 H        1.7750     0.6370     2.0470 H     1 <1>   0.0800 
 36 H        2.7010     2.1200     2.1860 H     1 <1>   0.0800 
 37 H        4.7720     2.9080     1.1330 H     1 <1>   0.3700 
 38 H        5.6710     0.5030     1.2990 H     1 <1>   0.0800 
 39 H        4.5910    -0.7100     0.6220 H     1 <1>   0.0800 
 40 H        6.0060     4.7860     0.6730 H     1 <1>   0.0800 
 41 H        6.8840     4.8340    -0.8380 H     1 <1>   0.0800 
 42 H        4.0170     5.7560    -0.4680 H     1 <1>   0.0800 
 43 H        4.9190     5.8390    -1.9600 H     1 <1>   0.0800 
 44 H        7.1260     9.9650    -0.5920 H     1 <1>   0.1500 
 45 H        7.2770     8.6730    -2.9790 H     1 <1>   0.0800 
 46 H        5.8020     7.7860    -3.2710 H     1 <1>   0.0800 
 47 H        7.2490     6.9400    -2.7590 H     1 <1>   0.0800 
 48 H        6.5720    10.4960     1.9060 H     1 <1>   0.0800 
 49 H        6.4580     9.0440     2.8790 H     1 <1>   0.0800 
 50 H        5.0030     9.8650     2.3620 H     1 <1>   0.0800 
@<TRIPOS>BOND
  1   1   2  2   
  2   1   3  2   
  3   1   4  am  
  4   1   5  1   
  5   4   6  1   
  6   4   7  1   
  7   5   8  1   
  8   5  25  1   
  9   5  26  1   
 10   6  27  1   
 11   6  28  1   
 12   6  29  1   
 13   7  30  1   
 14   7  31  1   
 15   7  32  1   
 16   8   9  1   
 17   8  10  1   
 18   8  33  1   
 19   9  11  1   
 20   9  12  1   
 21   9  34  1   
 22  10  13  1   
 23  10  35  1   
 24  10  36  1   
 25  11  14  am  
 26  11  37  1   
 27  12  13  1   
 28  12  38  1   
 29  12  39  1   
 30  14  15  2   
 31  14  16  1   
 32  16  17  1   
 33  16  40  1   
 34  16  41  1   
 35  17  18  1   
 36  17  42  1   
 37  17  43  1   
 38  18  19  1   
 39  18  20  1   
 40  19  21  2   
 41  20  22  2   
 42  20  23  1   
 43  21  22  1   
 44  21  24  1   
 45  22  44  1   
 46  23  45  1   
 47  23  46  1   
 48  23  47  1   
 49  24  48  1   
 50  24  49  1   
 51  24  50  1   
@<TRIPOS>SUBSTRUCTURE
  1 ****  11 GROUP 4 **** **** 0

# MOE 2024.06 (io_trps.svl 2023.06)
