@<TRIPOS>MOLECULE
NONAME
41 42 1 0 0 
SMALL
USER_CHARGES


@<TRIPOS>ATOM
  1 O       -0.5850     0.3040    -0.0690 O.2   1 <1>  -0.5700 
  2 C       -1.6930     0.7910     0.0660 C.2   1 <1>   0.5440 
  3 N       -1.8380     2.1600    -0.0660 N.am  1 <1>  -0.6600 
  4 C       -2.8110    -0.0800     0.3450 C.ar  1 <1>   0.0860 
  5 C       -0.6540     3.0640    -0.0840 C.3   1 <1>   0.0600 
  6 C       -3.1250     2.8250    -0.4110 C.3   1 <1>   0.0600 
  7 C       -2.9610    -1.2760    -0.3510 C.ar  1 <1>   0.1600 
  8 C       -3.7750     0.2090     1.3060 C.ar  1 <1>  -0.1500 
  9 N       -3.9490    -2.1430    -0.2060 N.ar  1 <1>  -0.6200 
 10 C       -4.8050    -0.6830     1.4760 C.ar  1 <1>  -0.1500 
 11 C       -4.8660    -1.8390     0.7040 C.ar  1 <1>   0.4100 
 12 N       -5.9100    -2.7070     0.8750 N.pl3 1 <1>  -0.8690 
 13 C       -6.2100    -3.8030    -0.0920 C.3   1 <1>   0.2890 
 14 C       -7.5020    -4.5220     0.2520 C.3   1 <1>   0.2000 
 15 C       -5.1980    -4.9510    -0.0690 C.3   1 <1>   0.1200 
 16 O       -8.6080    -3.8500    -0.2870 O.3   1 <1>  -0.5600 
 17 C       -7.2810    -5.8950    -0.3680 C.3   1 <1>   0.1200 
 18 O       -5.9110    -6.1470    -0.2590 O.3   1 <1>  -0.5600 
 19 C       -9.8420    -4.2970     0.1680 C.3   1 <1>   0.1200 
 20 C      -10.9100    -3.4400    -0.4970 C.3   1 <1>  -0.2400 
 21 H       -0.8650     3.9580     0.4750 H     1 <1>   0.0800 
 22 H       -0.4140     3.3250    -1.1000 H     1 <1>   0.0800 
 23 H        0.1990     2.5780     0.3580 H     1 <1>   0.0800 
 24 H       -2.9740     3.5040    -1.2320 H     1 <1>   0.0800 
 25 H       -3.4870     3.3770     0.4390 H     1 <1>   0.0800 
 26 H       -3.8650     2.1020    -0.7050 H     1 <1>   0.0800 
 27 H       -2.2050    -1.5200    -1.0790 H     1 <1>   0.1500 
 28 H       -3.7020     1.1050     1.8970 H     1 <1>   0.1500 
 29 H       -5.5700    -0.5040     2.2070 H     1 <1>   0.1500 
 30 H       -6.7700    -2.2860     1.2320 H     1 <1>   0.4000 
 31 H       -6.2660    -3.4090    -1.0930 H     1 <1>   0.0800 
 32 H       -7.6090    -4.6070     1.3200 H     1 <1>   0.0800 
 33 H       -4.7060    -5.0060     0.8860 H     1 <1>   0.0800 
 34 H       -4.4720    -4.8480    -0.8550 H     1 <1>   0.0800 
 35 H       -7.5300    -5.8880    -1.4150 H     1 <1>   0.0800 
 36 H       -7.8170    -6.6700     0.1480 H     1 <1>   0.0800 
 37 H       -9.9660    -5.3320    -0.1040 H     1 <1>   0.0800 
 38 H       -9.8810    -4.1880     1.2390 H     1 <1>   0.0800 
 39 H      -10.8540    -3.5440    -1.5660 H     1 <1>   0.0800 
 40 H      -10.7740    -2.4070    -0.2310 H     1 <1>   0.0800 
 41 H      -11.8850    -3.7530    -0.1720 H     1 <1>   0.0800 
@<TRIPOS>BOND
  1   1   2  2   
  2   2   3  am  
  3   2   4  1   
  4   3   5  1   
  5   3   6  1   
  6   4   7  ar  
  7   4   8  ar  
  8   5  21  1   
  9   5  22  1   
 10   5  23  1   
 11   6  24  1   
 12   6  25  1   
 13   6  26  1   
 14   7   9  ar  
 15   7  27  1   
 16   8  10  ar  
 17   8  28  1   
 18   9  11  ar  
 19  10  11  ar  
 20  10  29  1   
 21  11  12  1   
 22  12  13  1   
 23  12  30  1   
 24  13  14  1   
 25  13  15  1   
 26  13  31  1   
 27  14  16  1   
 28  14  17  1   
 29  14  32  1   
 30  15  18  1   
 31  15  33  1   
 32  15  34  1   
 33  16  19  1   
 34  17  18  1   
 35  17  35  1   
 36  17  36  1   
 37  19  20  1   
 38  19  37  1   
 39  19  38  1   
 40  20  39  1   
 41  20  40  1   
 42  20  41  1   
@<TRIPOS>SUBSTRUCTURE
  1 ****  11 GROUP 4 **** **** 0

# MOE 2024.06 (io_trps.svl 2023.06)
