@<TRIPOS>MOLECULE
NONAME
54 56 1 0 0 
SMALL
USER_CHARGES


@<TRIPOS>ATOM
  1 S       -2.1260     0.6590    -2.1420 S.o2  1 <1>   1.3330 
  2 O       -3.2290    -0.0780    -2.7120 O.2   1 <1>  -0.6500 
  3 O       -1.5980     1.8090    -2.8340 O.2   1 <1>  -0.6500 
  4 N       -2.6280     1.1570    -0.5620 N.am  1 <1>  -0.6930 
  5 C       -0.7920    -0.4640    -1.7870 C.3   1 <1>  -0.1350 
  6 C       -1.8940     2.0620     0.2020 C.ar  1 <1>   0.1990 
  7 C       -3.7570     0.4010     0.0620 C.3   1 <1>   0.2570 
  8 C       -1.7330     3.3770    -0.2210 C.ar  1 <1>  -0.1500 
  9 C       -1.3100     1.6800     1.4050 C.ar  1 <1>  -0.1500 
 10 C       -3.4900    -1.1000     0.2680 C.2   1 <1>   0.5690 
 11 C       -1.0130     4.2910     0.5270 C.ar  1 <1>  -0.1440 
 12 C       -0.5910     2.5860     2.1630 C.ar  1 <1>  -0.1500 
 13 O       -2.5600    -1.4190     0.9740 O.2   1 <1>  -0.5700 
 14 N       -4.2740    -2.0630    -0.3120 N.am  1 <1>  -0.6600 
 15 C       -0.4430     3.8900     1.7250 C.ar  1 <1>  -0.1500 
 16 C       -0.8470     5.7200     0.0440 C.3   1 <1>  -0.0970 
 17 C       -5.4240    -1.8680    -1.2380 C.3   1 <1>   0.1400 
 18 C       -3.9970    -3.5160    -0.1560 C.3   1 <1>   0.1400 
 19 C       -6.1590    -3.2060    -1.2100 C.3   1 <1>   0.2000 
 20 C       -5.0300    -4.2250    -1.0390 C.3   1 <1>  -0.0800 
 21 O       -6.9750    -3.2200    -0.0880 O.3   1 <1>  -0.6800 
 22 C       -5.4550    -5.6070    -0.5100 C.3   1 <1>   0.0210 
 23 C       -4.2550    -6.5190    -0.3490 C.2   1 <1>   0.1080 
 24 N       -3.5140    -6.8930    -1.3450 N.2   1 <1>  -0.7070 
 25 C       -3.8110    -7.0420     0.8610 C.2   1 <1>  -0.1500 
 26 N       -2.5710    -7.6800    -0.7920 N.pl3 1 <1>   0.3000 
 27 C       -2.7280    -7.7820     0.5450 C.2   1 <1>  -0.3320 
 28 C       -1.8200    -8.5930     1.4500 C.3   1 <1>  -0.0600 
 29 H       -1.1430    -1.3020    -1.2200 H     1 <1>   0.0800 
 30 H       -0.0290     0.0370    -1.2250 H     1 <1>   0.0800 
 31 H       -0.3640    -0.8250    -2.7010 H     1 <1>   0.0800 
 32 H       -3.9740     0.8290     1.0240 H     1 <1>   0.0800 
 33 H       -4.6270     0.5390    -0.5500 H     1 <1>   0.0800 
 34 H       -2.1820     3.6770    -1.1510 H     1 <1>   0.1500 
 35 H       -1.4120     0.6680     1.7500 H     1 <1>   0.1500 
 36 H       -0.1450     2.2770     3.0920 H     1 <1>   0.1500 
 37 H        0.1170     4.5910     2.3190 H     1 <1>   0.1500 
 38 H        0.1460     6.0720     0.2560 H     1 <1>   0.0800 
 39 H       -1.5570     6.3570     0.5410 H     1 <1>   0.0800 
 40 H       -1.0090     5.7820    -1.0170 H     1 <1>   0.0800 
 41 H       -6.0680    -1.0610    -0.9360 H     1 <1>   0.0800 
 42 H       -5.0520    -1.6860    -2.2310 H     1 <1>   0.0800 
 43 H       -2.9930    -3.7510    -0.4680 H     1 <1>   0.0800 
 44 H       -4.1180    -3.7880     0.8790 H     1 <1>   0.0800 
 45 H       -6.7660    -3.3770    -2.0830 H     1 <1>   0.0800 
 46 H       -4.5730    -4.3700    -2.0030 H     1 <1>   0.0800 
 47 H       -6.4390    -2.9630     0.6890 H     1 <1>   0.4000 
 48 H       -6.1410    -6.0610    -1.2020 H     1 <1>   0.0800 
 49 H       -5.9530    -5.5160     0.4380 H     1 <1>   0.0800 
 50 H       -4.2550    -6.8760     1.8270 H     1 <1>   0.1500 
 51 H       -1.8390    -8.1320    -1.3520 H     1 <1>   0.2700 
 52 H       -2.1510    -8.5150     2.4710 H     1 <1>   0.0800 
 53 H       -0.8100    -8.2290     1.3890 H     1 <1>   0.0800 
 54 H       -1.8380    -9.6300     1.1630 H     1 <1>   0.0800 
@<TRIPOS>BOND
  1   1   2  2   
  2   1   3  2   
  3   1   4  am  
  4   1   5  1   
  5   4   6  1   
  6   4   7  1   
  7   5  29  1   
  8   5  30  1   
  9   5  31  1   
 10   6   8  ar  
 11   6   9  ar  
 12   7  10  1   
 13   7  32  1   
 14   7  33  1   
 15   8  11  ar  
 16   8  34  1   
 17   9  12  ar  
 18   9  35  1   
 19  10  13  2   
 20  10  14  am  
 21  11  15  ar  
 22  11  16  1   
 23  12  15  ar  
 24  12  36  1   
 25  14  17  1   
 26  14  18  1   
 27  15  37  1   
 28  16  38  1   
 29  16  39  1   
 30  16  40  1   
 31  17  19  1   
 32  17  41  1   
 33  17  42  1   
 34  18  20  1   
 35  18  43  1   
 36  18  44  1   
 37  19  20  1   
 38  19  21  1   
 39  19  45  1   
 40  20  22  1   
 41  20  46  1   
 42  21  47  1   
 43  22  23  1   
 44  22  48  1   
 45  22  49  1   
 46  23  24  2   
 47  23  25  1   
 48  24  26  1   
 49  25  27  2   
 50  25  50  1   
 51  26  27  1   
 52  26  51  1   
 53  27  28  1   
 54  28  52  1   
 55  28  53  1   
 56  28  54  1   
@<TRIPOS>SUBSTRUCTURE
  1 ****  10 GROUP 4 **** **** 0

# MOE 2024.06 (io_trps.svl 2023.06)
