@<TRIPOS>MOLECULE
NONAME
51 54 1 0 0 
SMALL
USER_CHARGES


@<TRIPOS>ATOM
  1 O       -3.4540    -0.5760     1.2730 O.3   1 <1>  -0.6800 
  2 C       -3.5250    -1.5980     0.3400 C.3   1 <1>   0.2000 
  3 C       -3.2750    -2.9520     1.0290 C.3   1 <1>   0.2090 
  4 C       -2.4690    -1.3220    -0.7340 C.3   1 <1>  -0.1600 
  5 N       -3.2240    -4.0560     0.0140 N.pl3 1 <1>  -0.8380 
  6 C       -2.3800    -2.5000    -1.7200 C.3   1 <1>  -0.1600 
  7 C       -3.9510    -5.2040     0.0760 C.ar  1 <1>   0.4100 
  8 C       -2.1510    -3.8380    -1.0070 C.3   1 <1>   0.2090 
  9 N       -3.4180    -6.2970    -0.4390 N.ar  1 <1>  -0.6200 
 10 C       -5.2320    -5.2260     0.6660 C.ar  1 <1>  -0.1500 
 11 C       -4.1020    -7.4190    -0.3540 C.ar  1 <1>   0.7710 
 12 C       -5.9110    -6.3960     0.7320 C.ar  1 <1>   0.2110 
 13 N       -5.3160    -7.4940     0.2180 N.ar  1 <1>  -0.1790 
 14 N       -3.5270    -8.5040    -0.8860 N.pl3 1 <1>  -0.8690 
 15 C       -3.9720    -9.9140    -0.8910 C.3   1 <1>   0.2090 
 16 C       -5.0620   -10.0930    -1.9560 C.3   1 <1>  -0.1600 
 17 C       -6.0360   -11.2370    -1.6220 C.3   1 <1>   0.0960 
 18 N       -6.8160   -11.0150    -0.3740 N.pl3 1 <1>   0.3140 
 19 N       -6.8840    -9.8270     0.3010 N.2   1 <1>  -0.7070 
 20 C       -7.5580   -11.9820     0.2380 C.ar  1 <1>  -0.1520 
 21 C       -7.6670   -10.0680     1.3060 C.2   1 <1>   0.1390 
 22 C       -8.1280   -11.3910     1.3440 C.ar  1 <1>   0.0000 
 23 C       -7.7970   -13.3300    -0.0590 C.ar  1 <1>  -0.1500 
 24 C       -8.9580   -12.1390     2.1900 C.ar  1 <1>  -0.1500 
 25 C       -8.6110   -14.0580     0.7750 C.ar  1 <1>  -0.1500 
 26 C       -9.1930   -13.4620     1.9020 C.ar  1 <1>  -0.1500 
 27 H       -4.2470    -0.5590     1.8410 H     1 <1>   0.4000 
 28 H       -4.5090    -1.5840    -0.0970 H     1 <1>   0.0800 
 29 H       -4.0340    -3.1350     1.7650 H     1 <1>   0.0800 
 30 H       -2.3250    -2.9120     1.5340 H     1 <1>   0.0800 
 31 H       -1.5100    -1.1860    -0.2630 H     1 <1>   0.0800 
 32 H       -2.7210    -0.4220    -1.2660 H     1 <1>   0.0800 
 33 H       -1.5750    -2.3270    -2.4120 H     1 <1>   0.0800 
 34 H       -3.2900    -2.5660    -2.2900 H     1 <1>   0.0800 
 35 H       -2.1470    -4.6270    -1.7400 H     1 <1>   0.0800 
 36 H       -1.1920    -3.8350    -0.5170 H     1 <1>   0.0800 
 37 H       -5.6570    -4.3150     1.0380 H     1 <1>   0.1500 
 38 H       -6.8950    -6.4880     1.1630 H     1 <1>   0.1500 
 39 H       -5.7820    -8.4110     0.2130 H     1 <1>   0.4570 
 40 H       -2.6100    -8.3310    -1.3130 H     1 <1>   0.4000 
 41 H       -4.3280   -10.1740     0.0920 H     1 <1>   0.0800 
 42 H       -3.1350   -10.5580    -1.1080 H     1 <1>   0.0800 
 43 H       -4.5850   -10.3090    -2.8970 H     1 <1>   0.0800 
 44 H       -5.6330    -9.1920    -2.0900 H     1 <1>   0.0800 
 45 H       -5.4910   -12.1580    -1.5190 H     1 <1>   0.0800 
 46 H       -6.7380   -11.3540    -2.4280 H     1 <1>   0.0800 
 47 H       -7.9530    -9.3460     2.0530 H     1 <1>   0.1500 
 48 H       -7.3530   -13.7890    -0.9250 H     1 <1>   0.1500 
 49 H       -9.4000   -11.6710     3.0510 H     1 <1>   0.1500 
 50 H       -8.8130   -15.0960     0.5730 H     1 <1>   0.1500 
 51 H       -9.8270   -14.0560     2.5380 H     1 <1>   0.1500 
@<TRIPOS>BOND
  1   1   2  1   
  2   1  27  1   
  3   2   3  1   
  4   2   4  1   
  5   2  28  1   
  6   3   5  1   
  7   3  29  1   
  8   3  30  1   
  9   4   6  1   
 10   4  31  1   
 11   4  32  1   
 12   5   7  1   
 13   5   8  1   
 14   6   8  1   
 15   6  33  1   
 16   6  34  1   
 17   7   9  ar  
 18   7  10  ar  
 19   8  35  1   
 20   8  36  1   
 21   9  11  ar  
 22  10  12  ar  
 23  10  37  1   
 24  11  13  ar  
 25  11  14  1   
 26  12  13  ar  
 27  12  38  1   
 28  13  39  1   
 29  14  15  1   
 30  14  40  1   
 31  15  16  1   
 32  15  41  1   
 33  15  42  1   
 34  16  17  1   
 35  16  43  1   
 36  16  44  1   
 37  17  18  1   
 38  17  45  1   
 39  17  46  1   
 40  18  19  1   
 41  18  20  1   
 42  19  21  2   
 43  20  22  ar  
 44  20  23  ar  
 45  21  22  1   
 46  21  47  1   
 47  22  24  ar  
 48  23  25  ar  
 49  23  48  1   
 50  24  26  ar  
 51  24  49  1   
 52  25  26  ar  
 53  25  50  1   
 54  26  51  1   
@<TRIPOS>SUBSTRUCTURE
  1 ****  13 GROUP 4 **** **** 0

# MOE 2024.06 (io_trps.svl 2023.06)
