@<TRIPOS>MOLECULE
NONAME
48 51 1 0 0 
SMALL
USER_CHARGES


@<TRIPOS>ATOM
  1 O       -0.6250    -0.0060    -2.4050 O.2   1 <1>  -0.5700 
  2 C       -0.7940     0.8370    -1.5600 C.2   1 <1>   0.5690 
  3 N       -1.7820     0.8570    -0.6430 N.am  1 <1>  -0.6600 
  4 C        0.1030     2.0320    -1.4000 C.3   1 <1>  -0.0990 
  5 C       -1.7350     2.0500     0.2160 C.3   1 <1>   0.1400 
  6 C       -2.9310    -0.0750    -0.5930 C.3   1 <1>   0.2840 
  7 C       -0.3260     2.6070    -0.0350 C.3   1 <1>  -0.0190 
  8 C       -4.2270     0.7000    -0.7900 C.ar  1 <1>  -0.1440 
  9 C       -0.2860     4.1250     0.0360 C.2   1 <1>   0.5690 
 10 C       -5.0240     1.0700     0.2910 C.ar  1 <1>   0.0820 
 11 C       -4.6070     1.0490    -2.0760 C.ar  1 <1>  -0.1500 
 12 O       -0.9880     4.7660    -0.7040 O.2   1 <1>  -0.5700 
 13 N        0.5370     4.7070     0.9510 N.am  1 <1>  -0.4940 
 14 O       -4.6050     0.7230     1.5380 O.3   1 <1>  -0.3630 
 15 C       -6.2000     1.7810     0.0620 C.ar  1 <1>  -0.1500 
 16 C       -5.7750     1.7570    -2.2960 C.ar  1 <1>  -0.1500 
 17 C        0.6850     6.0520     1.3090 C.2   1 <1>   0.2510 
 18 C       -5.3860     0.9920     2.6810 C.3   1 <1>   0.0400 
 19 C       -6.5710     2.1220    -1.2260 C.ar  1 <1>  -0.1500 
 20 N        1.0160     6.3610     2.5220 N.2   1 <1>  -0.3380 
 21 N        0.5420     7.1500     0.5310 N.pl3 1 <1>   0.3340 
 22 N        1.0810     7.6880     2.5960 N.2   1 <1>  -0.3380 
 23 C        0.8010     8.1570     1.4160 C.2   1 <1>   0.3120 
 24 C        0.3310     7.4670    -0.8080 C.2   1 <1>  -0.1810 
 25 N        0.7760     9.4890     1.0660 N.2   1 <1>  -0.5760 
 26 C        0.3230     8.7760    -1.1600 C.2   1 <1>  -0.1360 
 27 C        0.5430     9.7730    -0.1680 C.2   1 <1>   0.3750 
 28 C        0.5060    11.2240    -0.5910 C.3   1 <1>  -0.1790 
 29 H       -0.1010     2.7180    -2.2030 H     1 <1>   0.0800 
 30 H        1.1360     1.7420    -1.4130 H     1 <1>   0.0800 
 31 H       -1.8880     1.7880     1.2490 H     1 <1>   0.0800 
 32 H       -2.4970     2.7440    -0.1020 H     1 <1>   0.0800 
 33 H       -2.9290    -0.5920     0.3500 H     1 <1>   0.0800 
 34 H       -2.8310    -0.8120    -1.3710 H     1 <1>   0.0800 
 35 H        0.3180     2.1940     0.7200 H     1 <1>   0.0800 
 36 H       -3.9860     0.7720    -2.9120 H     1 <1>   0.1500 
 37 H        0.9880     4.0860     1.6210 H     1 <1>   0.3700 
 38 H       -6.8390     2.0820     0.8700 H     1 <1>   0.1500 
 39 H       -6.0600     2.0240    -3.2980 H     1 <1>   0.1500 
 40 H       -4.8700     0.5990     3.5390 H     1 <1>   0.0800 
 41 H       -6.3400     0.5060     2.5750 H     1 <1>   0.0800 
 42 H       -5.5040     2.0560     2.7820 H     1 <1>   0.0800 
 43 H       -7.4800     2.6730    -1.3980 H     1 <1>   0.1500 
 44 H        0.1860     6.6590    -1.5010 H     1 <1>   0.1500 
 45 H        0.1570     9.0930    -2.1730 H     1 <1>   0.1500 
 46 H       -0.4570    11.4600    -1.0060 H     1 <1>   0.0800 
 47 H        1.2670    11.4120    -1.3250 H     1 <1>   0.0800 
 48 H        0.6810    11.8630     0.2570 H     1 <1>   0.0800 
@<TRIPOS>BOND
  1   1   2  2   
  2   2   3  am  
  3   2   4  1   
  4   3   5  1   
  5   3   6  1   
  6   4   7  1   
  7   4  29  1   
  8   4  30  1   
  9   5   7  1   
 10   5  31  1   
 11   5  32  1   
 12   6   8  1   
 13   6  33  1   
 14   6  34  1   
 15   7   9  1   
 16   7  35  1   
 17   8  10  ar  
 18   8  11  ar  
 19   9  12  2   
 20   9  13  am  
 21  10  14  1   
 22  10  15  ar  
 23  11  16  ar  
 24  11  36  1   
 25  13  17  1   
 26  13  37  1   
 27  14  18  1   
 28  15  19  ar  
 29  15  38  1   
 30  16  19  ar  
 31  16  39  1   
 32  17  20  2   
 33  17  21  1   
 34  18  40  1   
 35  18  41  1   
 36  18  42  1   
 37  19  43  1   
 38  20  22  1   
 39  21  23  1   
 40  21  24  1   
 41  22  23  2   
 42  23  25  1   
 43  24  26  2   
 44  24  44  1   
 45  25  27  2   
 46  26  27  1   
 47  26  45  1   
 48  27  28  1   
 49  28  46  1   
 50  28  47  1   
 51  28  48  1   
@<TRIPOS>SUBSTRUCTURE
  1 ****  12 GROUP 4 **** **** 0

# MOE 2024.06 (io_trps.svl 2023.06)
