@<TRIPOS>MOLECULE
NONAME
49 52 1 0 0 
SMALL
USER_CHARGES


@<TRIPOS>ATOM
  1 O        1.6620    -1.0170    -2.1070 O.2   1 <1>  -0.5700 
  2 C        2.6380    -1.4120    -1.5120 C.2   1 <1>   0.5690 
  3 N        3.8300    -0.7420    -1.5630 N.am  1 <1>  -0.6600 
  4 C        2.5170    -2.6850    -0.6800 C.3   1 <1>  -0.0990 
  5 C        3.9000     0.6140    -2.1870 C.3   1 <1>   0.3210 
  6 C        5.0740    -1.1340    -0.8420 C.3   1 <1>   0.0600 
  7 C        1.0700    -3.1810    -0.4910 C.3   1 <1>  -0.1600 
  8 C        3.9250     1.6930    -1.1140 C.2   1 <1>   0.1080 
  9 C        1.0060    -4.4390     0.3870 C.3   1 <1>   0.0200 
 10 N        4.9980     2.3290    -0.7220 N.2   1 <1>  -0.7070 
 11 C        2.8020     2.1210    -0.4180 C.2   1 <1>  -0.1810 
 12 C       -0.4190    -4.9300     0.5560 C.2   1 <1>   0.2980 
 13 N        4.5640     3.1820     0.2370 N.pl3 1 <1>   0.3000 
 14 C        3.2370     3.0540     0.4200 C.2   1 <1>  -0.3320 
 15 C        1.3250     1.8790    -0.2980 C.3   1 <1>   0.0210 
 16 O       -1.2620    -4.1980     1.2360 O.3   1 <1>  -0.0190 
 17 N       -0.8870    -6.0130     0.0930 N.2   1 <1>  -0.5650 
 18 C        2.1610     3.6520     1.2800 C.3   1 <1>   0.0200 
 19 C        0.8900     2.9570     0.7290 C.3   1 <1>  -0.1600 
 20 N       -2.3660    -4.8740     1.2020 N.2   1 <1>  -0.4100 
 21 C       -2.1500    -5.9460     0.5260 C.2   1 <1>   0.4620 
 22 C       -3.1280    -6.9800     0.2460 C.ar  1 <1>   0.0540 
 23 C       -4.4390    -6.9090     0.6980 C.ar  1 <1>  -0.1500 
 24 C       -2.8350    -8.1200    -0.4920 C.ar  1 <1>  -0.1500 
 25 C       -5.3380    -7.9170     0.4080 C.ar  1 <1>   0.1600 
 26 C       -3.8060    -9.0740    -0.7280 C.ar  1 <1>   0.1600 
 27 N       -5.0530    -9.0010    -0.2950 N.ar  1 <1>  -0.6200 
 28 H        2.9420    -2.4930     0.2880 H     1 <1>   0.0800 
 29 H        3.0950    -3.4510    -1.1620 H     1 <1>   0.0800 
 30 H        3.0560     0.7820    -2.8320 H     1 <1>   0.0800 
 31 H        4.7900     0.6890    -2.7860 H     1 <1>   0.0800 
 32 H        5.1060    -2.1940    -0.6670 H     1 <1>   0.0800 
 33 H        5.1220    -0.6140     0.0990 H     1 <1>   0.0800 
 34 H        5.9360    -0.8620    -1.4270 H     1 <1>   0.0800 
 35 H        0.6390    -3.3990    -1.4550 H     1 <1>   0.0800 
 36 H        0.4840    -2.3980    -0.0400 H     1 <1>   0.0800 
 37 H        1.4160    -4.2330     1.3590 H     1 <1>   0.0800 
 38 H        1.5880    -5.2230    -0.0640 H     1 <1>   0.0800 
 39 H        5.1910     3.8240     0.7340 H     1 <1>   0.2700 
 40 H        1.1440     0.8860     0.0730 H     1 <1>   0.0800 
 41 H        0.8350     2.0090    -1.2470 H     1 <1>   0.0800 
 42 H        2.1090     4.7200     1.1570 H     1 <1>   0.0800 
 43 H        2.3240     3.4020     2.3140 H     1 <1>   0.0800 
 44 H        0.3230     2.5110     1.5270 H     1 <1>   0.0800 
 45 H        0.2740     3.6860     0.2340 H     1 <1>   0.0800 
 46 H       -4.7610    -6.0630     1.2780 H     1 <1>   0.1500 
 47 H       -1.8450    -8.2640    -0.8850 H     1 <1>   0.1500 
 48 H       -6.3480    -7.8310     0.7740 H     1 <1>   0.1500 
 49 H       -3.5450    -9.9450    -1.3040 H     1 <1>   0.1500 
@<TRIPOS>BOND
  1   1   2  2   
  2   2   3  am  
  3   2   4  1   
  4   3   5  1   
  5   3   6  1   
  6   4   7  1   
  7   4  28  1   
  8   4  29  1   
  9   5   8  1   
 10   5  30  1   
 11   5  31  1   
 12   6  32  1   
 13   6  33  1   
 14   6  34  1   
 15   7   9  1   
 16   7  35  1   
 17   7  36  1   
 18   8  10  2   
 19   8  11  1   
 20   9  12  1   
 21   9  37  1   
 22   9  38  1   
 23  10  13  1   
 24  11  14  2   
 25  11  15  1   
 26  12  16  1   
 27  12  17  2   
 28  13  14  1   
 29  13  39  1   
 30  14  18  1   
 31  15  19  1   
 32  15  40  1   
 33  15  41  1   
 34  16  20  1   
 35  17  21  1   
 36  18  19  1   
 37  18  42  1   
 38  18  43  1   
 39  19  44  1   
 40  19  45  1   
 41  20  21  2   
 42  21  22  1   
 43  22  23  ar  
 44  22  24  ar  
 45  23  25  ar  
 46  23  46  1   
 47  24  26  ar  
 48  24  47  1   
 49  25  27  ar  
 50  25  48  1   
 51  26  27  ar  
 52  26  49  1   
@<TRIPOS>SUBSTRUCTURE
  1 ****   7 GROUP 4 **** **** 0

# MOE 2024.06 (io_trps.svl 2023.06)
