@<TRIPOS>MOLECULE
NONAME
57 59 1 0 0 
SMALL
USER_CHARGES


@<TRIPOS>ATOM
  1 CL      -0.7340    -1.0190    -1.0100 Cl    1 <1>  -0.1770 
  2 C       -1.5230     0.5180    -0.7370 C.ar  1 <1>   0.1770 
  3 C       -2.7460     0.5860    -0.0670 C.ar  1 <1>   0.0540 
  4 C       -0.8920     1.6460    -1.2290 C.ar  1 <1>  -0.1500 
  5 C       -3.4130    -0.5790     0.4690 C.2   1 <1>   0.4620 
  6 C       -3.3200     1.8510     0.0690 C.ar  1 <1>  -0.1500 
  7 C       -1.4800     2.8870    -1.0700 C.ar  1 <1>  -0.1500 
  8 N       -2.8910    -1.4750     1.2280 N.2   1 <1>  -0.4100 
  9 N       -4.7050    -0.8170     0.2320 N.2   1 <1>  -0.5650 
 10 C       -2.6990     2.9860    -0.4210 C.ar  1 <1>  -0.1500 
 11 O       -3.8100    -2.3460     1.5000 O.3   1 <1>  -0.0190 
 12 C       -4.8680    -1.8970     0.8760 C.2   1 <1>   0.2980 
 13 C       -6.1650    -2.6780     0.9780 C.3   1 <1>   0.0200 
 14 C       -6.0670    -4.0330     0.2600 C.3   1 <1>  -0.1600 
 15 C       -7.3890    -4.8230     0.3360 C.3   1 <1>  -0.0990 
 16 C       -7.3480    -6.1870    -0.3490 C.2   1 <1>   0.5690 
 17 O       -6.3180    -6.5330    -0.8780 O.2   1 <1>  -0.5700 
 18 N       -8.4650    -6.9850    -0.3560 N.am  1 <1>  -0.6600 
 19 C       -8.4210    -8.3430    -0.9910 C.3   1 <1>   0.1400 
 20 C       -9.7990    -6.5270     0.1410 C.3   1 <1>   0.1400 
 21 C       -8.9810    -9.4750    -0.0830 C.3   1 <1>   0.0000 
 22 C      -10.7880    -7.6860     0.2970 C.3   1 <1>  -0.1600 
 23 C      -10.0590    -8.8930     0.8840 C.3   1 <1>   0.2000 
 24 C       -9.6200   -10.5450    -1.0110 C.3   1 <1>   0.1200 
 25 C       -7.8540   -10.1580     0.7470 C.3   1 <1>  -0.1600 
 26 O      -11.0110    -9.8310     1.2540 O.3   1 <1>  -0.6800 
 27 O       -8.7230   -11.0260    -1.9610 O.3   1 <1>  -0.6800 
 28 C       -6.9330    -9.2210     1.5530 C.3   1 <1>  -0.1600 
 29 C       -5.9520   -10.0270     2.4090 C.3   1 <1>  -0.2400 
 30 H        0.0520     1.5490    -1.7360 H     1 <1>   0.1500 
 31 H       -4.2690     1.9400     0.5710 H     1 <1>   0.1500 
 32 H       -0.9950     3.7710    -1.4500 H     1 <1>   0.1500 
 33 H       -3.1640     3.9500    -0.2990 H     1 <1>   0.1500 
 34 H       -6.3960    -2.8260     2.0170 H     1 <1>   0.0800 
 35 H       -6.9520    -2.0930     0.5380 H     1 <1>   0.0800 
 36 H       -5.2780    -4.6170     0.7050 H     1 <1>   0.0800 
 37 H       -5.8090    -3.8690    -0.7730 H     1 <1>   0.0800 
 38 H       -8.1680    -4.2410    -0.1210 H     1 <1>   0.0800 
 39 H       -7.6400    -4.9790     1.3690 H     1 <1>   0.0800 
 40 H       -9.0070    -8.2820    -1.8920 H     1 <1>   0.0800 
 41 H       -7.4180    -8.5940    -1.2900 H     1 <1>   0.0800 
 42 H       -9.6700    -6.0630     1.1040 H     1 <1>   0.0800 
 43 H      -10.2020    -5.7930    -0.5370 H     1 <1>   0.0800 
 44 H      -11.2150    -7.9260    -0.6600 H     1 <1>   0.0800 
 45 H      -11.5800    -7.3750     0.9560 H     1 <1>   0.0800 
 46 H       -9.5910    -8.5760     1.7980 H     1 <1>   0.0800 
 47 H      -10.4650   -10.1380    -1.5390 H     1 <1>   0.0800 
 48 H       -9.9490   -11.3930    -0.4350 H     1 <1>   0.0800 
 49 H       -8.3120   -10.8600     1.4230 H     1 <1>   0.0800 
 50 H       -7.2240   -10.7310     0.0880 H     1 <1>   0.0800 
 51 H      -11.5940   -10.0510     0.5040 H     1 <1>   0.4000 
 52 H       -8.3570   -10.3080    -2.5110 H     1 <1>   0.4000 
 53 H       -6.3650    -8.6020     0.8820 H     1 <1>   0.0800 
 54 H       -7.5020    -8.5770     2.1970 H     1 <1>   0.0800 
 55 H       -5.3460   -10.6620     1.7880 H     1 <1>   0.0800 
 56 H       -6.4840   -10.6380     3.1170 H     1 <1>   0.0800 
 57 H       -5.3040    -9.3600     2.9500 H     1 <1>   0.0800 
@<TRIPOS>BOND
  1   1   2  1   
  2   2   3  ar  
  3   2   4  ar  
  4   3   5  1   
  5   3   6  ar  
  6   4   7  ar  
  7   4  30  1   
  8   5   8  2   
  9   5   9  1   
 10   6  10  ar  
 11   6  31  1   
 12   7  10  ar  
 13   7  32  1   
 14   8  11  1   
 15   9  12  2   
 16  10  33  1   
 17  11  12  1   
 18  12  13  1   
 19  13  14  1   
 20  13  34  1   
 21  13  35  1   
 22  14  15  1   
 23  14  36  1   
 24  14  37  1   
 25  15  16  1   
 26  15  38  1   
 27  15  39  1   
 28  16  17  2   
 29  16  18  am  
 30  18  19  1   
 31  18  20  1   
 32  19  21  1   
 33  19  40  1   
 34  19  41  1   
 35  20  22  1   
 36  20  42  1   
 37  20  43  1   
 38  21  23  1   
 39  21  24  1   
 40  21  25  1   
 41  22  23  1   
 42  22  44  1   
 43  22  45  1   
 44  23  26  1   
 45  23  46  1   
 46  24  27  1   
 47  24  47  1   
 48  24  48  1   
 49  25  28  1   
 50  25  49  1   
 51  25  50  1   
 52  26  51  1   
 53  27  52  1   
 54  28  29  1   
 55  28  53  1   
 56  28  54  1   
 57  29  55  1   
 58  29  56  1   
 59  29  57  1   
@<TRIPOS>SUBSTRUCTURE
  1 ****  14 GROUP 4 **** **** 0

# MOE 2024.06 (io_trps.svl 2023.06)
