@<TRIPOS>MOLECULE
NONAME
47 49 1 0 0 
SMALL
USER_CHARGES


@<TRIPOS>ATOM
  1 O       -0.2870     0.8630     0.8240 O.2   1 <1>  -0.5700 
  2 C       -0.2800     1.9380     0.2810 C.2   1 <1>   0.5690 
  3 N       -0.6130     3.0550     0.9660 N.am  1 <1>  -0.7300 
  4 C        0.0860     2.0520    -1.2020 C.3   1 <1>   0.1810 
  5 C       -0.6000     4.4150     0.3740 C.3   1 <1>   0.3640 
  6 O        0.4970     3.3540    -1.5570 O.3   1 <1>  -0.5600 
  7 C       -1.8780     5.1510     0.7530 C.ar  1 <1>  -0.1440 
  8 C       -0.4040     4.3800    -1.1620 C.3   1 <1>   0.2610 
  9 C       -3.1080     4.5040     0.7850 C.ar  1 <1>   0.1600 
 10 C       -1.8340     6.4970     1.0610 C.ar  1 <1>  -0.1500 
 11 C        0.0310     5.7670    -1.6560 C.2   1 <1>   0.5690 
 12 N       -4.2600     5.0760     1.0980 N.ar  1 <1>  -0.6200 
 13 C       -3.0250     7.1090     1.3860 C.ar  1 <1>  -0.1500 
 14 O       -0.7980     6.3940    -2.2760 O.2   1 <1>  -0.5700 
 15 N        1.2690     6.3150    -1.3810 N.am  1 <1>  -0.6600 
 16 C       -4.1920     6.3640     1.3900 C.ar  1 <1>   0.1600 
 17 C        1.6130     7.6920    -1.8350 C.3   1 <1>   0.1400 
 18 C        2.4200     5.6030    -0.7540 C.3   1 <1>   0.1400 
 19 C        2.1090     8.5200    -0.6460 C.3   1 <1>  -0.1600 
 20 C        2.9240     6.4040     0.4500 C.3   1 <1>  -0.1600 
 21 C        3.2980     7.8460     0.0670 C.3   1 <1>  -0.0800 
 22 C        3.7450     8.6220     1.3190 C.3   1 <1>  -0.1600 
 23 C        4.2830    10.0160     0.9920 C.3   1 <1>   0.1200 
 24 O        4.7760    10.5740     2.1540 O.3   1 <1>  -0.6800 
 25 H       -0.8530     2.9670     1.9560 H     1 <1>   0.3700 
 26 H       -0.7620     1.7850    -1.8050 H     1 <1>   0.0800 
 27 H        0.8960     1.3810    -1.4230 H     1 <1>   0.0800 
 28 H        0.2270     4.9450     0.8110 H     1 <1>   0.0800 
 29 H       -1.3490     4.1590    -1.6250 H     1 <1>   0.0800 
 30 H       -3.1560     3.4570     0.5390 H     1 <1>   0.1500 
 31 H       -0.9150     7.0590     1.0430 H     1 <1>   0.1500 
 32 H       -3.0550     8.1550     1.6310 H     1 <1>   0.1500 
 33 H       -5.1170     6.8530     1.6440 H     1 <1>   0.1500 
 34 H        2.3800     7.6300    -2.5870 H     1 <1>   0.0800 
 35 H        0.7580     8.1780    -2.2750 H     1 <1>   0.0800 
 36 H        2.1540     4.6150    -0.4310 H     1 <1>   0.0800 
 37 H        3.2070     5.5080    -1.4840 H     1 <1>   0.0800 
 38 H        2.3960     9.4890    -1.0120 H     1 <1>   0.0800 
 39 H        1.2930     8.6570     0.0420 H     1 <1>   0.0800 
 40 H        2.1620     6.4110     1.2090 H     1 <1>   0.0800 
 41 H        3.7860     5.9050     0.8590 H     1 <1>   0.0800 
 42 H        4.1260     7.8030    -0.6210 H     1 <1>   0.0800 
 43 H        4.5300     8.0670     1.8040 H     1 <1>   0.0800 
 44 H        2.9180     8.7080     2.0020 H     1 <1>   0.0800 
 45 H        3.5130    10.6640     0.6090 H     1 <1>   0.0800 
 46 H        5.0930     9.9610     0.2840 H     1 <1>   0.0800 
 47 H        4.0720    10.6530     2.8250 H     1 <1>   0.4000 
@<TRIPOS>BOND
  1   1   2  2   
  2   2   3  am  
  3   2   4  1   
  4   3   5  1   
  5   3  25  1   
  6   4   6  1   
  7   4  26  1   
  8   4  27  1   
  9   5   7  1   
 10   5   8  1   
 11   5  28  1   
 12   6   8  1   
 13   7   9  ar  
 14   7  10  ar  
 15   8  11  1   
 16   8  29  1   
 17   9  12  ar  
 18   9  30  1   
 19  10  13  ar  
 20  10  31  1   
 21  11  14  2   
 22  11  15  am  
 23  12  16  ar  
 24  13  16  ar  
 25  13  32  1   
 26  15  17  1   
 27  15  18  1   
 28  16  33  1   
 29  17  19  1   
 30  17  34  1   
 31  17  35  1   
 32  18  20  1   
 33  18  36  1   
 34  18  37  1   
 35  19  21  1   
 36  19  38  1   
 37  19  39  1   
 38  20  21  1   
 39  20  40  1   
 40  20  41  1   
 41  21  22  1   
 42  21  42  1   
 43  22  23  1   
 44  22  43  1   
 45  22  44  1   
 46  23  24  1   
 47  23  45  1   
 48  23  46  1   
 49  24  47  1   
@<TRIPOS>SUBSTRUCTURE
  1 ****   5 GROUP 4 **** **** 0

# MOE 2024.06 (io_trps.svl 2023.06)
