@<TRIPOS>MOLECULE
NONAME
42 44 1 0 0 
SMALL
USER_CHARGES


@<TRIPOS>ATOM
  1 O       -0.4490     0.2450     0.4760 O.2   1 <1>  -0.5700 
  2 C       -1.4980     0.8350     0.3120 C.2   1 <1>   0.5440 
  3 N       -2.6500     0.1020     0.1520 N.am  1 <1>  -0.6600 
  4 C       -1.5030     2.2790     0.2700 C.ar  1 <1>   0.0860 
  5 C       -3.9480     0.6240    -0.3540 C.3   1 <1>   0.1400 
  6 C       -2.6530    -1.3850     0.1080 C.3   1 <1>   0.1400 
  7 C       -0.6830     2.9520    -0.6320 C.ar  1 <1>   0.1600 
  8 C       -2.2970     3.0560     1.1020 C.ar  1 <1>  -0.1500 
  9 C       -4.9080    -0.5560    -0.2140 C.3   1 <1>   0.2000 
 10 C       -4.0150    -1.7700    -0.4800 C.3   1 <1>  -0.0800 
 11 N       -0.6160     4.2650    -0.7860 N.ar  1 <1>  -0.6200 
 12 C       -2.2350     4.4260     0.9620 C.ar  1 <1>  -0.1500 
 13 O       -5.3540    -0.5860     1.0990 O.3   1 <1>  -0.6800 
 14 C       -4.5540    -3.1190     0.0300 C.3   1 <1>   0.0210 
 15 C       -1.3910     4.9790     0.0120 C.ar  1 <1>   0.1670 
 16 C       -3.5830    -4.2400    -0.2840 C.2   1 <1>   0.1080 
 17 C       -1.3100     6.4810    -0.1590 C.3   1 <1>  -0.0970 
 18 N       -3.2500    -4.5620    -1.4960 N.2   1 <1>  -0.7070 
 19 C       -2.9410    -5.0270     0.6650 C.2   1 <1>  -0.1500 
 20 N       -2.3770    -5.5770    -1.3490 N.pl3 1 <1>   0.3000 
 21 C       -2.1720    -5.8750    -0.0490 C.2   1 <1>  -0.3320 
 22 C       -1.2390    -6.9680     0.4380 C.3   1 <1>  -0.0600 
 23 H       -4.2940     1.4770     0.2010 H     1 <1>   0.0800 
 24 H       -3.8390     0.8860    -1.3920 H     1 <1>   0.0800 
 25 H       -1.8470    -1.7560    -0.5040 H     1 <1>   0.0800 
 26 H       -2.5390    -1.7660     1.1080 H     1 <1>   0.0800 
 27 H       -0.0470     2.3550    -1.2630 H     1 <1>   0.1500 
 28 H       -2.9350     2.5960     1.8360 H     1 <1>   0.1500 
 29 H       -5.7600    -0.4950    -0.8690 H     1 <1>   0.0800 
 30 H       -3.8850    -1.8510    -1.5460 H     1 <1>   0.0800 
 31 H       -2.8360     5.0600     1.5890 H     1 <1>   0.1500 
 32 H       -4.5750    -0.5320     1.6890 H     1 <1>   0.4000 
 33 H       -5.4940    -3.3330    -0.4460 H     1 <1>   0.0800 
 34 H       -4.7190    -3.0860     1.0920 H     1 <1>   0.0800 
 35 H       -1.9670     6.9870     0.5230 H     1 <1>   0.0800 
 36 H       -1.5840     6.7420    -1.1650 H     1 <1>   0.0800 
 37 H       -0.3020     6.8080     0.0190 H     1 <1>   0.0800 
 38 H       -3.0510    -4.9530     1.7320 H     1 <1>   0.1500 
 39 H       -1.9410    -6.0420    -2.1530 H     1 <1>   0.2700 
 40 H       -1.2480    -7.0090     1.5130 H     1 <1>   0.0800 
 41 H       -0.2330    -6.7720     0.1120 H     1 <1>   0.0800 
 42 H       -1.5540    -7.9230     0.0570 H     1 <1>   0.0800 
@<TRIPOS>BOND
  1   1   2  2   
  2   2   3  am  
  3   2   4  1   
  4   3   5  1   
  5   3   6  1   
  6   4   7  ar  
  7   4   8  ar  
  8   5   9  1   
  9   5  23  1   
 10   5  24  1   
 11   6  10  1   
 12   6  25  1   
 13   6  26  1   
 14   7  11  ar  
 15   7  27  1   
 16   8  12  ar  
 17   8  28  1   
 18   9  10  1   
 19   9  13  1   
 20   9  29  1   
 21  10  14  1   
 22  10  30  1   
 23  11  15  ar  
 24  12  15  ar  
 25  12  31  1   
 26  13  32  1   
 27  14  16  1   
 28  14  33  1   
 29  14  34  1   
 30  15  17  1   
 31  16  18  2   
 32  16  19  1   
 33  17  35  1   
 34  17  36  1   
 35  17  37  1   
 36  18  20  1   
 37  19  21  2   
 38  19  38  1   
 39  20  21  1   
 40  20  39  1   
 41  21  22  1   
 42  22  40  1   
 43  22  41  1   
 44  22  42  1   
@<TRIPOS>SUBSTRUCTURE
  1 ****   3 GROUP 4 **** **** 0

# MOE 2024.06 (io_trps.svl 2023.06)
