@<TRIPOS>MOLECULE
NONAME
59 63 1 0 0 
SMALL
USER_CHARGES


@<TRIPOS>ATOM
  1 O       -0.9510     1.2450     1.7090 O.2   1 <1>  -0.5700 
  2 C       -1.8730     1.4330     0.9460 C.2   1 <1>   0.5690 
  3 N       -3.0700     0.7730     1.1200 N.am  1 <1>  -0.6600 
  4 C       -1.7100     2.4250    -0.2330 C.3   1 <1>   0.1710 
  5 C       -3.2690    -0.1970     2.2360 C.3   1 <1>   0.1400 
  6 C       -4.2760     0.9150     0.2570 C.3   1 <1>   0.1400 
  7 N       -0.3740     3.0110    -0.5420 N.3   1 <1>  -0.8100 
  8 C       -3.5910    -1.5730     1.6500 C.3   1 <1>  -0.1600 
  9 C       -4.5950    -0.4440    -0.3680 C.3   1 <1>  -0.1600 
 10 C        0.1340     3.8540     0.5580 C.3   1 <1>   0.2530 
 11 C        0.6030     1.9830    -0.9310 C.3   1 <1>   0.0300 
 12 C       -4.7980    -1.5190     0.7090 C.3   1 <1>   0.4600 
 13 C        1.3240     4.6940     0.1070 C.ar  1 <1>  -0.1430 
 14 O       -5.9060    -1.1620     1.5080 O.3   1 <1>  -0.5600 
 15 C       -5.0450    -2.8870     0.0850 C.2   1 <1>  -0.3320 
 16 C        1.2180     5.5290    -0.9950 C.ar  1 <1>  -0.1500 
 17 C        2.5260     4.6360     0.7980 C.ar  1 <1>  -0.1500 
 18 C       -7.1960    -1.4690     1.0330 C.3   1 <1>   0.1200 
 19 N       -4.1470    -3.6280    -0.6340 N.pl3 1 <1>   0.0330 
 20 C       -6.2090    -3.5600     0.1680 C.2   1 <1>  -0.1810 
 21 C        2.2940     6.2990    -1.4010 C.ar  1 <1>  -0.1500 
 22 C        3.6040     5.4050     0.3940 C.ar  1 <1>  -0.1500 
 23 C       -7.3960    -2.9880     0.9020 C.3   1 <1>   0.0210 
 24 C       -4.7640    -4.7970    -1.0070 C.ar  1 <1>  -0.1520 
 25 C       -6.0660    -4.7850    -0.5150 C.ar  1 <1>   0.0000 
 26 C        3.4890     6.2390    -0.7050 C.ar  1 <1>  -0.1500 
 27 C       -4.2880    -5.8840    -1.7450 C.ar  1 <1>  -0.1500 
 28 C       -6.9090    -5.8740    -0.7590 C.ar  1 <1>  -0.1500 
 29 C       -5.1280    -6.9480    -1.9790 C.ar  1 <1>  -0.1500 
 30 C       -6.4380    -6.9440    -1.4850 C.ar  1 <1>  -0.1500 
 31 H       -2.3920     3.2370    -0.0600 H     1 <1>   0.0800 
 32 H       -2.0440     1.9210    -1.1200 H     1 <1>   0.0800 
 33 H       -4.0840     0.1390     2.8560 H     1 <1>   0.0800 
 34 H       -2.3900    -0.2640     2.8530 H     1 <1>   0.0800 
 35 H       -4.1300     1.6460    -0.5170 H     1 <1>   0.0800 
 36 H       -5.1050     1.2400     0.8640 H     1 <1>   0.0800 
 37 H       -3.7930    -2.2700     2.4420 H     1 <1>   0.0800 
 38 H       -2.7270    -1.9240     1.1190 H     1 <1>   0.0800 
 39 H       -3.7790    -0.7290    -1.0050 H     1 <1>   0.0800 
 40 H       -5.4700    -0.3730    -0.9860 H     1 <1>   0.0800 
 41 H        0.4190     3.2410     1.3940 H     1 <1>   0.0800 
 42 H       -0.6440     4.5220     0.8850 H     1 <1>   0.0800 
 43 H        0.2080     1.3830    -1.7320 H     1 <1>   0.0800 
 44 H        0.8390     1.3460    -0.0960 H     1 <1>   0.0800 
 45 H        1.5090     2.4500    -1.2770 H     1 <1>   0.0800 
 46 H        0.2900     5.5690    -1.5400 H     1 <1>   0.1500 
 47 H        2.6250     3.9900     1.6520 H     1 <1>   0.1500 
 48 H       -7.3330    -0.9910     0.0800 H     1 <1>   0.0800 
 49 H       -7.9070    -1.0610     1.7300 H     1 <1>   0.0800 
 50 H       -3.1760    -3.3810    -0.8470 H     1 <1>   0.2700 
 51 H        2.2000     6.9420    -2.2570 H     1 <1>   0.1500 
 52 H        4.5320     5.3540     0.9360 H     1 <1>   0.1500 
 53 H       -8.3010    -3.1890     0.3590 H     1 <1>   0.0800 
 54 H       -7.4710    -3.4350     1.8760 H     1 <1>   0.0800 
 55 H        4.3260     6.8370    -1.0190 H     1 <1>   0.1500 
 56 H       -3.2800    -5.8810    -2.1190 H     1 <1>   0.1500 
 57 H       -7.9110    -5.8570    -0.3730 H     1 <1>   0.1500 
 58 H       -4.7850    -7.7970    -2.5440 H     1 <1>   0.1500 
 59 H       -7.0750    -7.7890    -1.6820 H     1 <1>   0.1500 
@<TRIPOS>BOND
  1   1   2  2   
  2   2   3  am  
  3   2   4  1   
  4   3   5  1   
  5   3   6  1   
  6   4   7  1   
  7   4  31  1   
  8   4  32  1   
  9   5   8  1   
 10   5  33  1   
 11   5  34  1   
 12   6   9  1   
 13   6  35  1   
 14   6  36  1   
 15   7  10  1   
 16   7  11  1   
 17   8  12  1   
 18   8  37  1   
 19   8  38  1   
 20   9  12  1   
 21   9  39  1   
 22   9  40  1   
 23  10  13  1   
 24  10  41  1   
 25  10  42  1   
 26  11  43  1   
 27  11  44  1   
 28  11  45  1   
 29  12  14  1   
 30  12  15  1   
 31  13  16  ar  
 32  13  17  ar  
 33  14  18  1   
 34  15  19  1   
 35  15  20  2   
 36  16  21  ar  
 37  16  46  1   
 38  17  22  ar  
 39  17  47  1   
 40  18  23  1   
 41  18  48  1   
 42  18  49  1   
 43  19  24  1   
 44  19  50  1   
 45  20  23  1   
 46  20  25  1   
 47  21  26  ar  
 48  21  51  1   
 49  22  26  ar  
 50  22  52  1   
 51  23  53  1   
 52  23  54  1   
 53  24  25  ar  
 54  24  27  ar  
 55  25  28  ar  
 56  26  55  1   
 57  27  29  ar  
 58  27  56  1   
 59  28  30  ar  
 60  28  57  1   
 61  29  30  ar  
 62  29  58  1   
 63  30  59  1   
@<TRIPOS>SUBSTRUCTURE
  1 ****   3 GROUP 4 **** **** 0

# MOE 2024.06 (io_trps.svl 2023.06)
