@<TRIPOS>MOLECULE
NONAME
35 36 1 0 0 
SMALL
USER_CHARGES


@<TRIPOS>ATOM
  1 O       -2.5210    -1.0200     3.1360 O.co2 1 <1>  -0.9000 
  2 C       -2.9470    -0.0750     2.4480 C.2   1 <1>   0.9790 
  3 O       -2.8820     1.0820     2.8950 O.co2 1 <1>  -0.9000 
  4 C       -3.5400    -0.3430     1.1450 C.ar  1 <1>  -0.1790 
  5 C       -3.5480    -1.6350     0.6240 C.ar  1 <1>  -0.1500 
  6 C       -4.1300     0.6580     0.3740 C.ar  1 <1>  -0.1500 
  7 C       -4.1490    -1.9350    -0.5850 C.ar  1 <1>  -0.1440 
  8 C       -4.7150     0.3780    -0.8480 C.ar  1 <1>  -0.1500 
  9 C       -4.7300    -0.9190    -1.3300 C.ar  1 <1>  -0.1500 
 10 C       -4.1860    -3.3710    -1.0600 C.3   1 <1>   0.4870 
 11 N       -4.8540    -4.2040    -0.0220 N.4   1 <1>  -0.9590 
 12 C       -5.0610    -5.6370    -0.3710 C.3   1 <1>   0.3430 
 13 C       -6.1620    -3.6690     0.4660 C.3   1 <1>   0.3430 
 14 C       -6.1850    -6.0980     0.5580 C.3   1 <1>   0.2800 
 15 C       -7.0930    -4.8730     0.6120 C.3   1 <1>  -0.1600 
 16 O       -5.6520    -6.2620     1.8250 O.3   1 <1>  -0.6800 
 17 C       -6.8890    -7.4070     0.1480 C.3   1 <1>   0.1200 
 18 O       -7.8110    -7.7700     1.1280 O.3   1 <1>  -0.6800 
 19 H       -3.0700    -2.4020     1.2110 H     1 <1>   0.1500 
 20 H       -4.1230     1.6670     0.7550 H     1 <1>   0.1500 
 21 H       -5.1570     1.1760    -1.4170 H     1 <1>   0.1500 
 22 H       -5.1960    -1.1170    -2.2790 H     1 <1>   0.1500 
 23 H       -3.1790    -3.7190    -1.2240 H     1 <1>   0.0800 
 24 H       -4.7290    -3.4290    -1.9880 H     1 <1>   0.0800 
 25 H       -4.2530    -4.1870     0.8180 H     1 <1>   0.4500 
 26 H       -4.1690    -6.2230    -0.2200 H     1 <1>   0.0800 
 27 H       -5.3860    -5.7210    -1.3930 H     1 <1>   0.0800 
 28 H       -6.5740    -2.9530    -0.2270 H     1 <1>   0.0800 
 29 H       -6.0200    -3.1840     1.4200 H     1 <1>   0.0800 
 30 H       -7.7730    -4.8800    -0.2200 H     1 <1>   0.0800 
 31 H       -7.6710    -4.8280     1.5180 H     1 <1>   0.0800 
 32 H       -6.3210    -6.7460     2.3620 H     1 <1>   0.4000 
 33 H       -6.1710    -8.2040     0.0480 H     1 <1>   0.0800 
 34 H       -7.4150    -7.2860    -0.7830 H     1 <1>   0.0800 
 35 H       -8.2550    -8.6160     0.9080 H     1 <1>   0.4000 
@<TRIPOS>BOND
  1   1   2  ar  
  2   2   3  ar  
  3   2   4  1   
  4   4   5  ar  
  5   4   6  ar  
  6   5   7  ar  
  7   5  19  1   
  8   6   8  ar  
  9   6  20  1   
 10   7   9  ar  
 11   7  10  1   
 12   8   9  ar  
 13   8  21  1   
 14   9  22  1   
 15  10  11  1   
 16  10  23  1   
 17  10  24  1   
 18  11  12  1   
 19  11  13  1   
 20  11  25  1   
 21  12  14  1   
 22  12  26  1   
 23  12  27  1   
 24  13  15  1   
 25  13  28  1   
 26  13  29  1   
 27  14  15  1   
 28  14  16  1   
 29  14  17  1   
 30  15  30  1   
 31  15  31  1   
 32  16  32  1   
 33  17  18  1   
 34  17  33  1   
 35  17  34  1   
 36  18  35  1   
@<TRIPOS>SUBSTRUCTURE
  1 ****  11 GROUP 4 **** **** 0

# MOE 2024.06 (io_trps.svl 2023.06)
