@<TRIPOS>MOLECULE
NONAME
47 49 1 0 0 
SMALL
USER_CHARGES


@<TRIPOS>ATOM
  1 O       -0.4400    -2.3190    -1.4980 O.2   1 <1>  -0.5700 
  2 C        0.2680    -2.0470    -0.5500 C.2   1 <1>   0.6900 
  3 N        1.0760    -2.9820     0.0330 N.am  1 <1>  -0.6600 
  4 N        0.2430    -0.7910    -0.0920 N.am  1 <1>  -0.8000 
  5 C        1.3000    -4.3150    -0.6280 C.3   1 <1>   0.2010 
  6 C        1.7910    -2.7900     1.3270 C.3   1 <1>   0.0600 
  7 C        0.7740    -5.5200     0.1610 C.2   1 <1>   0.5690 
  8 O        1.5870    -6.3000     0.6020 O.2   1 <1>  -0.5700 
  9 N       -0.5680    -5.7240     0.3470 N.am  1 <1>  -0.6600 
 10 C       -1.6670    -4.8590    -0.1590 C.3   1 <1>   0.1400 
 11 C       -1.1210    -6.9700     0.9290 C.3   1 <1>   0.1400 
 12 C       -2.9570    -5.5700     0.2630 C.3   1 <1>   0.2000 
 13 C       -2.5610    -7.0420     0.4050 C.3   1 <1>  -0.0800 
 14 O       -3.3310    -5.1070     1.5140 O.3   1 <1>  -0.6800 
 15 C       -2.6410    -7.7630    -0.9570 C.3   1 <1>  -0.0170 
 16 C       -2.2560    -9.2350    -0.8480 C.ar  1 <1>  -0.1440 
 17 C       -3.1320   -10.2170    -0.3280 C.ar  1 <1>   0.0000 
 18 C       -1.0220    -9.6460    -1.2590 C.ar  1 <1>  -0.1500 
 19 C       -2.6600   -11.5510    -0.2630 C.ar  1 <1>   0.3100 
 20 C       -4.4460    -9.9570     0.1290 C.ar  1 <1>  -0.1500 
 21 C       -0.6540   -10.9920    -1.1530 C.ar  1 <1>   0.1600 
 22 N       -1.4220   -11.9210    -0.6790 N.ar  1 <1>  -0.6200 
 23 C       -3.5050   -12.5470     0.2530 C.ar  1 <1>  -0.1500 
 24 C       -5.2440   -10.9520     0.6260 C.ar  1 <1>  -0.1500 
 25 C       -4.7700   -12.2640     0.6910 C.ar  1 <1>  -0.1500 
 26 H       -0.2890    -0.1060    -0.6260 H     1 <1>   0.3700 
 27 H        0.9810    -0.4390     0.5080 H     1 <1>   0.3700 
 28 H        0.8460    -4.3320    -1.6020 H     1 <1>   0.0800 
 29 H        2.3560    -4.4470    -0.7730 H     1 <1>   0.0800 
 30 H        1.7340    -3.6880     1.9180 H     1 <1>   0.0800 
 31 H        1.3480    -1.9910     1.8950 H     1 <1>   0.0800 
 32 H        2.8250    -2.5630     1.1390 H     1 <1>   0.0800 
 33 H       -1.6170    -3.8680     0.2570 H     1 <1>   0.0800 
 34 H       -1.6090    -4.8000    -1.2320 H     1 <1>   0.0800 
 35 H       -0.5300    -7.8260     0.6520 H     1 <1>   0.0800 
 36 H       -1.1190    -6.8830     2.0020 H     1 <1>   0.0800 
 37 H       -3.7750    -5.3990    -0.4160 H     1 <1>   0.0800 
 38 H       -3.1970    -7.5470     1.1100 H     1 <1>   0.0800 
 39 H       -2.5430    -5.0830     2.0940 H     1 <1>   0.4000 
 40 H       -1.9860    -7.2780    -1.6600 H     1 <1>   0.0800 
 41 H       -3.6360    -7.6840    -1.3580 H     1 <1>   0.0800 
 42 H       -0.3030    -8.9570    -1.6640 H     1 <1>   0.1500 
 43 H       -4.8320    -8.9570     0.0870 H     1 <1>   0.1500 
 44 H        0.3310   -11.2710    -1.4860 H     1 <1>   0.1500 
 45 H       -3.1180   -13.5480     0.2920 H     1 <1>   0.1500 
 46 H       -6.2410   -10.7390     0.9710 H     1 <1>   0.1500 
 47 H       -5.4060   -13.0380     1.0840 H     1 <1>   0.1500 
@<TRIPOS>BOND
  1   1   2  2   
  2   2   3  am  
  3   2   4  am  
  4   3   5  1   
  5   3   6  1   
  6   4  26  1   
  7   4  27  1   
  8   5   7  1   
  9   5  28  1   
 10   5  29  1   
 11   6  30  1   
 12   6  31  1   
 13   6  32  1   
 14   7   8  2   
 15   7   9  am  
 16   9  10  1   
 17   9  11  1   
 18  10  12  1   
 19  10  33  1   
 20  10  34  1   
 21  11  13  1   
 22  11  35  1   
 23  11  36  1   
 24  12  13  1   
 25  12  14  1   
 26  12  37  1   
 27  13  15  1   
 28  13  38  1   
 29  14  39  1   
 30  15  16  1   
 31  15  40  1   
 32  15  41  1   
 33  16  17  ar  
 34  16  18  ar  
 35  17  19  ar  
 36  17  20  ar  
 37  18  21  ar  
 38  18  42  1   
 39  19  22  ar  
 40  19  23  ar  
 41  20  24  ar  
 42  20  43  1   
 43  21  22  ar  
 44  21  44  1   
 45  23  25  ar  
 46  23  45  1   
 47  24  25  ar  
 48  24  46  1   
 49  25  47  1   
@<TRIPOS>SUBSTRUCTURE
  1 ****  11 GROUP 4 **** **** 0

# MOE 2024.06 (io_trps.svl 2023.06)
