@<TRIPOS>MOLECULE
NONAME
46 47 1 0 0 
SMALL
USER_CHARGES


@<TRIPOS>ATOM
  1 F       -0.8920    -1.3900     1.9610 F     1 <1>  -0.3400 
  2 C       -0.5140    -1.2750     0.6950 C.3   1 <1>   1.0200 
  3 F        0.6440    -0.6330     0.6990 F     1 <1>  -0.3400 
  4 F       -1.3950    -0.4730     0.1150 F     1 <1>  -0.3400 
  5 C       -0.4230    -2.6310    -0.0020 C.3   1 <1>  -0.1600 
  6 C       -1.7640    -3.4050    -0.0310 C.3   1 <1>  -0.0990 
  7 C       -1.6820    -4.7630    -0.7180 C.2   1 <1>   0.5690 
  8 O       -0.6220    -5.0850    -1.1990 O.2   1 <1>  -0.5700 
  9 N       -2.7840    -5.5810    -0.7780 N.am  1 <1>  -0.6600 
 10 C       -2.7160    -6.9180    -1.4640 C.3   1 <1>   0.1400 
 11 C       -4.1480    -5.2020    -0.3140 C.3   1 <1>   0.1400 
 12 C       -3.2420    -8.0640    -0.5630 C.3   1 <1>   0.0000 
 13 C       -4.6920    -6.2810     0.6200 C.3   1 <1>  -0.1600 
 14 C       -4.6560    -7.6400    -0.0800 C.3   1 <1>   0.2000 
 15 C       -3.4280    -9.3450    -1.4160 C.3   1 <1>   0.1200 
 16 C       -2.2750    -8.3080     0.6390 C.3   1 <1>  -0.0160 
 17 O       -5.2040    -8.5790     0.7770 O.3   1 <1>  -0.6800 
 18 O       -2.3120    -9.6120    -2.1970 O.3   1 <1>  -0.6800 
 19 C       -0.9790    -9.0390     0.3020 C.ar  1 <1>  -0.1440 
 20 C       -0.8990   -10.4170     0.4470 C.ar  1 <1>  -0.1500 
 21 C        0.1310    -8.3450    -0.1530 C.ar  1 <1>  -0.1500 
 22 C        0.2660   -11.0910     0.1260 C.ar  1 <1>  -0.1500 
 23 C        1.2960    -9.0160    -0.4760 C.ar  1 <1>  -0.1500 
 24 C        1.3650   -10.3910    -0.3380 C.ar  1 <1>  -0.1500 
 25 H       -0.0830    -2.4680    -1.0090 H     1 <1>   0.0800 
 26 H        0.3190    -3.2200     0.5050 H     1 <1>   0.0800 
 27 H       -2.4980    -2.8140    -0.5480 H     1 <1>   0.0800 
 28 H       -2.0990    -3.5620     0.9780 H     1 <1>   0.0800 
 29 H       -3.3110    -6.8680    -2.3600 H     1 <1>   0.0800 
 30 H       -1.7090    -7.1330    -1.7750 H     1 <1>   0.0800 
 31 H       -4.1470    -4.2580     0.2000 H     1 <1>   0.0800 
 32 H       -4.7910    -5.1070    -1.1730 H     1 <1>   0.0800 
 33 H       -5.7090    -6.0370     0.8730 H     1 <1>   0.0800 
 34 H       -4.1100    -6.2930     1.5230 H     1 <1>   0.0800 
 35 H       -5.3110    -7.5930    -0.9350 H     1 <1>   0.0800 
 36 H       -4.2590    -9.2330    -2.0920 H     1 <1>   0.0800 
 37 H       -3.6160   -10.1990    -0.7890 H     1 <1>   0.0800 
 38 H       -2.0210    -7.3700     1.0990 H     1 <1>   0.0800 
 39 H       -2.7730    -8.8890     1.3920 H     1 <1>   0.0800 
 40 H       -4.7640    -8.5500     1.6470 H     1 <1>   0.4000 
 41 H       -1.5170    -9.7030    -1.6210 H     1 <1>   0.4000 
 42 H       -1.7450   -10.9760     0.8070 H     1 <1>   0.1500 
 43 H        0.0970    -7.2750    -0.2620 H     1 <1>   0.1500 
 44 H        0.3180   -12.1600     0.2370 H     1 <1>   0.1500 
 45 H        2.1480    -8.4650    -0.8340 H     1 <1>   0.1500 
 46 H        2.2710   -10.9120    -0.5910 H     1 <1>   0.1500 
@<TRIPOS>BOND
  1   1   2  1   
  2   2   3  1   
  3   2   4  1   
  4   2   5  1   
  5   5   6  1   
  6   5  25  1   
  7   5  26  1   
  8   6   7  1   
  9   6  27  1   
 10   6  28  1   
 11   7   8  2   
 12   7   9  am  
 13   9  10  1   
 14   9  11  1   
 15  10  12  1   
 16  10  29  1   
 17  10  30  1   
 18  11  13  1   
 19  11  31  1   
 20  11  32  1   
 21  12  14  1   
 22  12  15  1   
 23  12  16  1   
 24  13  14  1   
 25  13  33  1   
 26  13  34  1   
 27  14  17  1   
 28  14  35  1   
 29  15  18  1   
 30  15  36  1   
 31  15  37  1   
 32  16  19  1   
 33  16  38  1   
 34  16  39  1   
 35  17  40  1   
 36  18  41  1   
 37  19  20  ar  
 38  19  21  ar  
 39  20  22  ar  
 40  20  42  1   
 41  21  23  ar  
 42  21  43  1   
 43  22  24  ar  
 44  22  44  1   
 45  23  24  ar  
 46  23  45  1   
 47  24  46  1   
@<TRIPOS>SUBSTRUCTURE
  1 ****   9 GROUP 4 **** **** 0

# MOE 2024.06 (io_trps.svl 2023.06)
