@<TRIPOS>MOLECULE
NONAME
57 59 1 0 0 
SMALL
USER_CHARGES


@<TRIPOS>ATOM
  1 O        1.2810     0.7050    -1.2890 O.2   1 <1>  -0.5700 
  2 C        1.9850    -0.1680    -0.8360 C.2   1 <1>   0.5690 
  3 N        1.5340    -1.4570    -0.7120 N.am  1 <1>  -0.6600 
  4 C        3.4000     0.2010    -0.3970 C.3   1 <1>  -0.0990 
  5 C        2.2690    -2.5900    -0.0700 C.3   1 <1>   0.1400 
  6 C        0.1840    -1.8580    -1.2180 C.3   1 <1>   0.1400 
  7 C        3.8570     1.5940    -0.8820 C.3   1 <1>  -0.1600 
  8 C        1.3670    -3.3240     0.9370 C.3   1 <1>   0.1200 
  9 C       -0.5950    -2.6330    -0.1440 C.3   1 <1>   0.1200 
 10 C        5.3150     1.9440    -0.5310 C.3   1 <1>  -0.0800 
 11 O        0.1630    -3.7070     0.3370 O.3   1 <1>  -0.5600 
 12 C        5.5330     2.0750     0.9880 C.3   1 <1>  -0.1600 
 13 C        5.7040     3.2600    -1.2270 C.3   1 <1>  -0.1600 
 14 C        6.9420     2.5610     1.3330 C.3   1 <1>   0.3430 
 15 C        7.1130     3.7180    -0.8560 C.3   1 <1>   0.3430 
 16 N        7.2180     3.8360     0.6230 N.4   1 <1>  -0.9590 
 17 C        8.4880     4.4860     1.0460 C.3   1 <1>   0.5240 
 18 C        8.3690     5.9660     0.7240 C.2   1 <1>   0.0460 
 19 N        7.1990     6.6150     0.9330 N.2   1 <1>  -0.5650 
 20 C        9.2660     6.8230     0.2160 C.2   1 <1>  -0.0100 
 21 C        7.4560     7.8170     0.5470 C.2   1 <1>   0.2980 
 22 O        8.6830     7.9830     0.1080 O.3   1 <1>  -0.2800 
 23 C        6.5170     9.0240     0.5440 C.3   1 <1>   0.1000 
 24 C        5.2620     8.7940     1.4000 C.3   1 <1>  -0.2400 
 25 C        6.1090     9.3860    -0.8910 C.3   1 <1>  -0.2400 
 26 H        4.0760    -0.5360    -0.7870 H     1 <1>   0.0800 
 27 H        3.4240     0.1610     0.6750 H     1 <1>   0.0800 
 28 H        3.1450    -2.2420     0.4440 H     1 <1>   0.0800 
 29 H        2.5800    -3.2840    -0.8310 H     1 <1>   0.0800 
 30 H        0.3040    -2.4810    -2.0860 H     1 <1>   0.0800 
 31 H       -0.3870    -0.9940    -1.5100 H     1 <1>   0.0800 
 32 H        3.1950     2.3410    -0.4750 H     1 <1>   0.0800 
 33 H        3.7400     1.6220    -1.9540 H     1 <1>   0.0800 
 34 H        1.1450    -2.6930     1.7800 H     1 <1>   0.0800 
 35 H        1.8530    -4.2160     1.2910 H     1 <1>   0.0800 
 36 H       -1.5030    -3.0310    -0.5600 H     1 <1>   0.0800 
 37 H       -0.8460    -1.9870     0.6800 H     1 <1>   0.0800 
 38 H        5.9540     1.1610    -0.9090 H     1 <1>   0.0800 
 39 H        5.3830     1.1220     1.4620 H     1 <1>   0.0800 
 40 H        4.8140     2.7590     1.4050 H     1 <1>   0.0800 
 41 H        5.0060     4.0370    -0.9680 H     1 <1>   0.0800 
 42 H        5.6560     3.1300    -2.2940 H     1 <1>   0.0800 
 43 H        7.6620     1.8150     1.0370 H     1 <1>   0.0800 
 44 H        7.0180     2.7070     2.3990 H     1 <1>   0.0800 
 45 H        7.3090     4.6730    -1.3180 H     1 <1>   0.0800 
 46 H        7.8340     3.0050    -1.2220 H     1 <1>   0.0800 
 47 H        6.5050     4.5360     0.8980 H     1 <1>   0.4500 
 48 H        9.3360     4.0500     0.5460 H     1 <1>   0.0800 
 49 H        8.6130     4.3800     2.1110 H     1 <1>   0.0800 
 50 H       10.2930     6.7200    -0.0900 H     1 <1>   0.1500 
 51 H        7.0580     9.8540     0.9640 H     1 <1>   0.0800 
 52 H        4.6790     7.9800     1.0050 H     1 <1>   0.0800 
 53 H        4.6520     9.6790     1.4170 H     1 <1>   0.0800 
 54 H        5.5440     8.5550     2.4100 H     1 <1>   0.0800 
 55 H        5.5730     8.5720    -1.3450 H     1 <1>   0.0800 
 56 H        6.9830     9.5950    -1.4830 H     1 <1>   0.0800 
 57 H        5.4820    10.2600    -0.8940 H     1 <1>   0.0800 
@<TRIPOS>BOND
  1   1   2  2   
  2   2   3  am  
  3   2   4  1   
  4   3   5  1   
  5   3   6  1   
  6   4   7  1   
  7   4  26  1   
  8   4  27  1   
  9   5   8  1   
 10   5  28  1   
 11   5  29  1   
 12   6   9  1   
 13   6  30  1   
 14   6  31  1   
 15   7  10  1   
 16   7  32  1   
 17   7  33  1   
 18   8  11  1   
 19   8  34  1   
 20   8  35  1   
 21   9  11  1   
 22   9  36  1   
 23   9  37  1   
 24  10  12  1   
 25  10  13  1   
 26  10  38  1   
 27  12  14  1   
 28  12  39  1   
 29  12  40  1   
 30  13  15  1   
 31  13  41  1   
 32  13  42  1   
 33  14  16  1   
 34  14  43  1   
 35  14  44  1   
 36  15  16  1   
 37  15  45  1   
 38  15  46  1   
 39  16  17  1   
 40  16  47  1   
 41  17  18  1   
 42  17  48  1   
 43  17  49  1   
 44  18  19  1   
 45  18  20  2   
 46  19  21  2   
 47  20  22  1   
 48  20  50  1   
 49  21  22  1   
 50  21  23  1   
 51  23  24  1   
 52  23  25  1   
 53  23  51  1   
 54  24  52  1   
 55  24  53  1   
 56  24  54  1   
 57  25  55  1   
 58  25  56  1   
 59  25  57  1   
@<TRIPOS>SUBSTRUCTURE
  1 ****  10 GROUP 4 **** **** 0

# MOE 2024.06 (io_trps.svl 2023.06)
