@<TRIPOS>MOLECULE
NONAME
41 42 1 0 0 
SMALL
USER_CHARGES


@<TRIPOS>ATOM
  1 S       -0.7660     0.1510    -0.3080 S.3   1 <1>  -0.0800 
  2 C       -0.5110     1.8660    -0.5200 C.2   1 <1>   0.1980 
  3 C        0.7560    -0.1500    -1.0920 C.2   1 <1>  -0.1100 
  4 N        0.5810     2.1520    -1.1080 N.2   1 <1>  -0.5650 
  5 C       -1.5980     2.8010    -0.0100 C.3   1 <1>   0.0200 
  6 C        1.3550     1.0120    -1.4330 C.2   1 <1>  -0.0060 
  7 C       -1.4700     3.1450     1.4880 C.3   1 <1>   0.2090 
  8 C        2.6980     1.0870    -2.0280 C.2   1 <1>   1.0330 
  9 N       -0.5430     4.2890     1.7180 N.pl3 1 <1>  -0.8690 
 10 O        3.3790     2.1420    -1.9890 O.co2 1 <1>  -0.9000 
 11 O        3.2580     0.0680    -2.4550 O.co2 1 <1>  -0.9000 
 12 C        0.7390     4.2370     1.3370 C.ar  1 <1>   0.4100 
 13 N        1.0940     5.1250     0.4410 N.ar  1 <1>  -0.6200 
 14 C        1.5830     3.2040     1.7740 C.ar  1 <1>  -0.1500 
 15 C        2.1560     4.8120    -0.3000 C.ar  1 <1>   0.7710 
 16 C        2.7050     2.9550     1.0620 C.ar  1 <1>   0.2180 
 17 N        2.9200     3.7420    -0.0140 N.ar  1 <1>  -0.1790 
 18 N        2.4590     5.5790    -1.3880 N.pl3 1 <1>  -0.8380 
 19 C        3.6830     1.8290     1.3710 C.3   1 <1>  -0.0170 
 20 C        3.4280     5.1570    -2.4510 C.3   1 <1>   0.1290 
 21 C        1.6530     6.7780    -1.7680 C.3   1 <1>   0.1290 
 22 C        5.0680     2.3640     1.7540 C.3   1 <1>  -0.2400 
 23 H        1.0840    -1.1660    -1.2190 H     1 <1>   0.1500 
 24 H       -2.5440     2.3200    -0.1730 H     1 <1>   0.0800 
 25 H       -1.5920     3.7050    -0.5910 H     1 <1>   0.0800 
 26 H       -1.1330     2.2810     2.0370 H     1 <1>   0.0800 
 27 H       -2.4390     3.4180     1.8690 H     1 <1>   0.0800 
 28 H       -0.9820     5.1970     1.5380 H     1 <1>   0.4000 
 29 H        1.2930     2.6270     2.6300 H     1 <1>   0.1500 
 30 H        3.4360     3.3470    -0.8210 H     1 <1>   0.4570 
 31 H        3.7760     1.1810     0.5170 H     1 <1>   0.0800 
 32 H        3.3000     1.2350     2.1820 H     1 <1>   0.0800 
 33 H        4.2900     4.6720    -2.0280 H     1 <1>   0.0800 
 34 H        3.7710     6.0110    -3.0090 H     1 <1>   0.0800 
 35 H        2.9460     4.4720    -3.1300 H     1 <1>   0.0800 
 36 H        1.1280     7.1840    -0.9200 H     1 <1>   0.0800 
 37 H        0.9340     6.5060    -2.5220 H     1 <1>   0.0800 
 38 H        2.2970     7.5480    -2.1560 H     1 <1>   0.0800 
 39 H        5.5070     2.9040     0.9320 H     1 <1>   0.0800 
 40 H        5.7200     1.5450     2.0020 H     1 <1>   0.0800 
 41 H        5.0000     3.0180     2.6060 H     1 <1>   0.0800 
@<TRIPOS>BOND
  1   1   2  1   
  2   1   3  1   
  3   2   4  2   
  4   2   5  1   
  5   3   6  2   
  6   3  23  1   
  7   4   6  1   
  8   5   7  1   
  9   5  24  1   
 10   5  25  1   
 11   6   8  1   
 12   7   9  1   
 13   7  26  1   
 14   7  27  1   
 15   8  10  ar  
 16   8  11  ar  
 17   9  12  1   
 18   9  28  1   
 19  12  13  ar  
 20  12  14  ar  
 21  13  15  ar  
 22  14  16  ar  
 23  14  29  1   
 24  15  17  ar  
 25  15  18  1   
 26  16  17  ar  
 27  16  19  1   
 28  17  30  1   
 29  18  20  1   
 30  18  21  1   
 31  19  22  1   
 32  19  31  1   
 33  19  32  1   
 34  20  33  1   
 35  20  34  1   
 36  20  35  1   
 37  21  36  1   
 38  21  37  1   
 39  21  38  1   
 40  22  39  1   
 41  22  40  1   
 42  22  41  1   
@<TRIPOS>SUBSTRUCTURE
  1 ****   4 GROUP 4 **** **** 0

# MOE 2024.06 (io_trps.svl 2023.06)
