@<TRIPOS>MOLECULE
NONAME
43 45 1 0 0 
SMALL
USER_CHARGES


@<TRIPOS>ATOM
  1 S       -3.5000    -2.3300     3.1950 S.3   1 <1>  -0.0800 
  2 C       -3.9210    -3.3630     1.8430 C.2   1 <1>  -0.1100 
  3 C       -2.5900    -1.2580     2.1490 C.2   1 <1>  -0.1100 
  4 C       -3.3950    -2.8880     0.6960 C.2   1 <1>  -0.1810 
  5 C       -2.6290    -1.6870     0.8750 C.2   1 <1>  -0.1500 
  6 C       -3.5750    -3.5210    -0.6660 C.3   1 <1>   0.5240 
  7 N       -4.9480    -3.2090    -1.1220 N.4   1 <1>  -0.9590 
  8 C       -5.4320    -4.1150    -2.2100 C.3   1 <1>   0.3430 
  9 C       -5.1990    -1.7660    -1.3810 C.3   1 <1>   0.3430 
 10 C       -6.9750    -4.1470    -2.2820 C.3   1 <1>   0.1400 
 11 C       -6.4900    -1.3340    -0.6780 C.3   1 <1>  -0.1600 
 12 N       -7.6090    -3.5120    -1.0790 N.am  1 <1>  -0.6600 
 13 C       -7.7640    -2.0310    -1.1740 C.3   1 <1>   0.1400 
 14 C       -7.9910    -4.2080     0.0620 C.2   1 <1>   0.5440 
 15 O       -8.6320    -3.6030     0.8990 O.2   1 <1>  -0.5700 
 16 C       -7.6210    -5.5960     0.3260 C.ar  1 <1>   0.3960 
 17 N       -6.3860    -6.0440     0.0230 N.ar  1 <1>  -0.6200 
 18 C       -8.5760    -6.4300     0.9170 C.ar  1 <1>   0.1600 
 19 C       -6.2140    -7.3180     0.3420 C.ar  1 <1>   0.1600 
 20 N       -8.3970    -7.7040     1.2190 N.ar  1 <1>  -0.6200 
 21 C       -7.1860    -8.1300     0.9200 C.ar  1 <1>   0.1670 
 22 C       -6.8970    -9.5810     1.2460 C.3   1 <1>  -0.0970 
 23 H       -4.5300    -4.2230     2.0660 H     1 <1>   0.1500 
 24 H       -2.1120    -0.4100     2.6110 H     1 <1>   0.1500 
 25 H       -2.1360    -1.1950     0.0540 H     1 <1>   0.1500 
 26 H       -3.4550    -4.5880    -0.5730 H     1 <1>   0.0800 
 27 H       -2.8420    -3.1470    -1.3620 H     1 <1>   0.0800 
 28 H       -5.5590    -3.4350    -0.3200 H     1 <1>   0.4500 
 29 H       -5.0950    -5.1190    -2.0090 H     1 <1>   0.0800 
 30 H       -5.0240    -3.8190    -3.1630 H     1 <1>   0.0800 
 31 H       -5.2710    -1.5800    -2.4400 H     1 <1>   0.0800 
 32 H       -4.3860    -1.1760    -0.9900 H     1 <1>   0.0800 
 33 H       -7.3040    -5.1670    -2.3780 H     1 <1>   0.0800 
 34 H       -7.2990    -3.6350    -3.1710 H     1 <1>   0.0800 
 35 H       -6.6150    -0.2760    -0.8250 H     1 <1>   0.0800 
 36 H       -6.3920    -1.4850     0.3840 H     1 <1>   0.0800 
 37 H       -7.9720    -1.7490    -2.1920 H     1 <1>   0.0800 
 38 H       -8.6030    -1.7080    -0.5790 H     1 <1>   0.0800 
 39 H       -9.5390    -6.0070     1.1490 H     1 <1>   0.1500 
 40 H       -5.2510    -7.7520     0.1380 H     1 <1>   0.1500 
 41 H       -5.8940    -9.8540     0.9770 H     1 <1>   0.0800 
 42 H       -7.5840   -10.2140     0.7120 H     1 <1>   0.0800 
 43 H       -7.0310    -9.7460     2.3000 H     1 <1>   0.0800 
@<TRIPOS>BOND
  1   1   2  1   
  2   1   3  1   
  3   2   4  2   
  4   2  23  1   
  5   3   5  2   
  6   3  24  1   
  7   4   5  1   
  8   4   6  1   
  9   5  25  1   
 10   6   7  1   
 11   6  26  1   
 12   6  27  1   
 13   7   8  1   
 14   7   9  1   
 15   7  28  1   
 16   8  10  1   
 17   8  29  1   
 18   8  30  1   
 19   9  11  1   
 20   9  31  1   
 21   9  32  1   
 22  10  12  1   
 23  10  33  1   
 24  10  34  1   
 25  11  13  1   
 26  11  35  1   
 27  11  36  1   
 28  12  13  1   
 29  12  14  am  
 30  13  37  1   
 31  13  38  1   
 32  14  15  2   
 33  14  16  1   
 34  16  17  ar  
 35  16  18  ar  
 36  17  19  ar  
 37  18  20  ar  
 38  18  39  1   
 39  19  21  ar  
 40  19  40  1   
 41  20  21  ar  
 42  21  22  1   
 43  22  41  1   
 44  22  42  1   
 45  22  43  1   
@<TRIPOS>SUBSTRUCTURE
  1 ****  17 GROUP 4 **** **** 0

# MOE 2024.06 (io_trps.svl 2023.06)
