@<TRIPOS>MOLECULE
NONAME
47 48 1 0 0 
SMALL
USER_CHARGES


@<TRIPOS>ATOM
  1 F       -1.7340    -0.5150     1.7520 F     1 <1>  -0.1900 
  2 C       -2.1000    -1.6670     1.2530 C.ar  1 <1>   0.1900 
  3 C       -2.4510    -2.6870     2.1170 C.ar  1 <1>  -0.1500 
  4 C       -2.1210    -1.8230    -0.1200 C.ar  1 <1>  -0.1500 
  5 C       -2.8390    -3.9030     1.5800 C.ar  1 <1>  -0.1500 
  6 C       -2.5100    -3.0450    -0.6410 C.ar  1 <1>  -0.1500 
  7 C       -2.8760    -4.0940     0.2020 C.ar  1 <1>   0.1000 
  8 N       -3.2670    -5.3320    -0.3030 N.pl3 1 <1>  -0.8380 
  9 C       -4.2750    -5.3470    -1.4170 C.3   1 <1>   0.2090 
 10 C       -2.1970    -6.3550    -0.4280 C.3   1 <1>   0.2090 
 11 C       -5.1420    -6.6220    -1.4170 C.3   1 <1>   0.3430 
 12 C       -2.6020    -7.6110     0.3450 C.3   1 <1>  -0.1600 
 13 N       -5.0310    -7.3810    -0.1240 N.4   1 <1>  -0.9590 
 14 C       -3.8640    -8.3010    -0.1770 C.3   1 <1>   0.3430 
 15 C       -6.2840    -8.2080     0.1010 C.3   1 <1>   0.3170 
 16 C       -6.5590    -9.1880    -1.0720 C.2   1 <1>   0.9060 
 17 C       -7.4630    -7.2720     0.4420 C.3   1 <1>  -0.1600 
 18 O       -6.1620   -10.3510    -0.9460 O.co2 1 <1>  -0.9000 
 19 O       -6.9900    -8.7400    -2.1430 O.co2 1 <1>  -0.9000 
 20 C       -8.5000    -7.9110     1.3830 C.3   1 <1>  -0.1600 
 21 C       -9.2110    -9.1290     0.7760 C.3   1 <1>  -0.1600 
 22 C      -10.3520    -9.6040     1.6790 C.3   1 <1>  -0.2400 
 23 H       -2.4190    -2.5260     3.1800 H     1 <1>   0.1500 
 24 H       -1.8370    -1.0060    -0.7580 H     1 <1>   0.1500 
 25 H       -3.1170    -4.7130     2.2280 H     1 <1>   0.1500 
 26 H       -2.5220    -3.1870    -1.7050 H     1 <1>   0.1500 
 27 H       -3.7810    -5.2510    -2.3680 H     1 <1>   0.0800 
 28 H       -4.9280    -4.4970    -1.3060 H     1 <1>   0.0800 
 29 H       -1.2780    -5.9670    -0.0190 H     1 <1>   0.0800 
 30 H       -2.0230    -6.5910    -1.4650 H     1 <1>   0.0800 
 31 H       -4.8580    -7.2620    -2.2360 H     1 <1>   0.0800 
 32 H       -6.1660    -6.3410    -1.5930 H     1 <1>   0.0800 
 33 H       -2.7270    -7.3650     1.3840 H     1 <1>   0.0800 
 34 H       -1.7930    -8.3160     0.2850 H     1 <1>   0.0800 
 35 H       -4.8580    -6.6830     0.6120 H     1 <1>   0.4500 
 36 H       -4.0640    -9.1670     0.4350 H     1 <1>   0.0800 
 37 H       -3.7190    -8.6510    -1.1860 H     1 <1>   0.0800 
 38 H       -6.1140    -8.8310     0.9600 H     1 <1>   0.0800 
 39 H       -7.9550    -6.9650    -0.4650 H     1 <1>   0.0800 
 40 H       -7.0880    -6.3920     0.9320 H     1 <1>   0.0800 
 41 H       -9.2400    -7.1640     1.6200 H     1 <1>   0.0800 
 42 H       -8.0250    -8.1990     2.3060 H     1 <1>   0.0800 
 43 H       -8.5180    -9.9430     0.6460 H     1 <1>   0.0800 
 44 H       -9.6080    -8.8760    -0.1930 H     1 <1>   0.0800 
 45 H       -9.9750    -9.8830     2.6470 H     1 <1>   0.0800 
 46 H      -10.8300   -10.4620     1.2390 H     1 <1>   0.0800 
 47 H      -11.0870    -8.8280     1.7990 H     1 <1>   0.0800 
@<TRIPOS>BOND
  1   1   2  1   
  2   2   3  ar  
  3   2   4  ar  
  4   3   5  ar  
  5   3  23  1   
  6   4   6  ar  
  7   4  24  1   
  8   5   7  ar  
  9   5  25  1   
 10   6   7  ar  
 11   6  26  1   
 12   7   8  1   
 13   8   9  1   
 14   8  10  1   
 15   9  11  1   
 16   9  27  1   
 17   9  28  1   
 18  10  12  1   
 19  10  29  1   
 20  10  30  1   
 21  11  13  1   
 22  11  31  1   
 23  11  32  1   
 24  12  14  1   
 25  12  33  1   
 26  12  34  1   
 27  13  14  1   
 28  13  15  1   
 29  13  35  1   
 30  14  36  1   
 31  14  37  1   
 32  15  16  1   
 33  15  17  1   
 34  15  38  1   
 35  16  18  ar  
 36  16  19  ar  
 37  17  20  1   
 38  17  39  1   
 39  17  40  1   
 40  20  21  1   
 41  20  41  1   
 42  20  42  1   
 43  21  22  1   
 44  21  43  1   
 45  21  44  1   
 46  22  45  1   
 47  22  46  1   
 48  22  47  1   
@<TRIPOS>SUBSTRUCTURE
  1 ****  13 GROUP 4 **** **** 0

# MOE 2024.06 (io_trps.svl 2023.06)
