@<TRIPOS>MOLECULE
NONAME
58 61 1 0 0 
SMALL
USER_CHARGES


@<TRIPOS>ATOM
  1 S        1.4690    -0.6710    -1.3370 S.3   1 <1>  -0.4600 
  2 C        1.0300     0.7510    -0.2640 C.3   1 <1>   0.1310 
  3 C       -0.1260    -1.1740    -2.0380 C.3   1 <1>  -0.0100 
  4 C        2.2460     1.3340     0.4480 C.2   1 <1>   0.5690 
  5 O        2.0790     2.2760     1.1860 O.2   1 <1>  -0.5700 
  6 N        3.4690     0.7770     0.2360 N.am  1 <1>  -0.7300 
  7 C        4.7750     1.1020     0.8610 C.3   1 <1>   0.3000 
  8 C        5.0860     2.6270     0.7580 C.3   1 <1>   0.2000 
  9 C        5.8440     0.3510     0.0470 C.3   1 <1>  -0.1600 
 10 C        4.7080     0.5780     2.3070 C.3   1 <1>  -0.2400 
 11 O        4.4760     3.3520     1.7780 O.3   1 <1>  -0.6800 
 12 C        6.5940     2.9390     0.7340 C.3   1 <1>   0.1200 
 13 C        7.3000     0.6400     0.4980 C.3   1 <1>   0.2800 
 14 O        7.3700     1.8590     1.1870 O.3   1 <1>  -0.5600 
 15 C        7.8120    -0.4190     1.5060 C.3   1 <1>  -0.1600 
 16 C        8.2430     0.7310    -0.7220 C.3   1 <1>  -0.1600 
 17 C        8.7670    -1.4460     0.8910 C.3   1 <1>   0.1400 
 18 C        9.7080     0.5850    -0.3100 C.3   1 <1>   0.1400 
 19 N        9.9440    -0.7690     0.2700 N.am  1 <1>  -0.6600 
 20 C       11.1560    -1.4310     0.1740 C.2   1 <1>   0.7150 
 21 O       11.1620    -2.6350     0.3710 O.2   1 <1>  -0.5700 
 22 C       12.4140    -0.7860    -0.1610 C.2   1 <1>   0.0550 
 23 O       12.5870     0.5450    -0.0730 O.3   1 <1>  -0.2800 
 24 C       13.5770    -1.3540    -0.5730 C.2   1 <1>  -0.1500 
 25 C       13.8390     0.8290    -0.4280 C.ar  1 <1>   0.1400 
 26 C       14.5170    -0.3280    -0.7580 C.ar  1 <1>   0.0000 
 27 C       14.4440     2.0770    -0.4840 C.ar  1 <1>  -0.1500 
 28 C       15.8510    -0.2500    -1.1610 C.ar  1 <1>  -0.1500 
 29 C       15.7630     2.1480    -0.8850 C.ar  1 <1>  -0.1500 
 30 C       16.4630     0.9850    -1.2220 C.ar  1 <1>  -0.1500 
 31 H        0.5790     1.4980    -0.8900 H     1 <1>   0.0800 
 32 H        0.3170     0.4000     0.4580 H     1 <1>   0.0800 
 33 H        0.0510    -2.0130    -2.6870 H     1 <1>   0.0800 
 34 H       -0.5270    -0.3430    -2.5900 H     1 <1>   0.0800 
 35 H       -0.7760    -1.4510    -1.2260 H     1 <1>   0.0800 
 36 H        3.4790    -0.0500    -0.3690 H     1 <1>   0.3700 
 37 H        4.6710     3.0010    -0.1610 H     1 <1>   0.0800 
 38 H        5.7420     0.6550    -0.9800 H     1 <1>   0.0800 
 39 H        5.6610    -0.7080     0.0720 H     1 <1>   0.0800 
 40 H        5.5990     0.8440     2.8450 H     1 <1>   0.0800 
 41 H        4.5990    -0.4910     2.3220 H     1 <1>   0.0800 
 42 H        3.8780     1.0140     2.8320 H     1 <1>   0.0800 
 43 H        3.5130     3.1100     1.7800 H     1 <1>   0.4000 
 44 H        6.8090     3.7830     1.3660 H     1 <1>   0.0800 
 45 H        6.9020     3.1790    -0.2660 H     1 <1>   0.0800 
 46 H        8.3430     0.0690     2.3060 H     1 <1>   0.0800 
 47 H        6.9940    -0.9500     1.9520 H     1 <1>   0.0800 
 48 H        8.0180    -0.0560    -1.4200 H     1 <1>   0.0800 
 49 H        8.1070     1.6590    -1.2420 H     1 <1>   0.0800 
 50 H        8.2570    -2.0230     0.1380 H     1 <1>   0.0800 
 51 H        9.1030    -2.1230     1.6590 H     1 <1>   0.0800 
 52 H        9.9600     1.3350     0.4220 H     1 <1>   0.0800 
 53 H       10.3320     0.7250    -1.1760 H     1 <1>   0.0800 
 54 H       13.7710    -2.4000    -0.7310 H     1 <1>   0.1500 
 55 H       13.8820     2.9540    -0.2180 H     1 <1>   0.1500 
 56 H       16.3810    -1.1500    -1.4180 H     1 <1>   0.1500 
 57 H       16.2620     3.1000    -0.9390 H     1 <1>   0.1500 
 58 H       17.4910     1.0630    -1.5320 H     1 <1>   0.1500 
@<TRIPOS>BOND
  1   1   2  1   
  2   1   3  1   
  3   2   4  1   
  4   2  31  1   
  5   2  32  1   
  6   3  33  1   
  7   3  34  1   
  8   3  35  1   
  9   4   5  2   
 10   4   6  am  
 11   6   7  1   
 12   6  36  1   
 13   7   8  1   
 14   7   9  1   
 15   7  10  1   
 16   8  11  1   
 17   8  12  1   
 18   8  37  1   
 19   9  13  1   
 20   9  38  1   
 21   9  39  1   
 22  10  40  1   
 23  10  41  1   
 24  10  42  1   
 25  11  43  1   
 26  12  14  1   
 27  12  44  1   
 28  12  45  1   
 29  13  14  1   
 30  13  15  1   
 31  13  16  1   
 32  15  17  1   
 33  15  46  1   
 34  15  47  1   
 35  16  18  1   
 36  16  48  1   
 37  16  49  1   
 38  17  19  1   
 39  17  50  1   
 40  17  51  1   
 41  18  19  1   
 42  18  52  1   
 43  18  53  1   
 44  19  20  am  
 45  20  21  2   
 46  20  22  1   
 47  22  23  1   
 48  22  24  2   
 49  23  25  1   
 50  24  26  1   
 51  24  54  1   
 52  25  26  ar  
 53  25  27  ar  
 54  26  28  ar  
 55  27  29  ar  
 56  27  55  1   
 57  28  30  ar  
 58  28  56  1   
 59  29  30  ar  
 60  29  57  1   
 61  30  58  1   
@<TRIPOS>SUBSTRUCTURE
  1 ****  16 GROUP 4 **** **** 0

# MOE 2024.06 (io_trps.svl 2023.06)
