@<TRIPOS>MOLECULE
F1911-4944
27 28 1 0 0 
SMALL
USER_CHARGES


@<TRIPOS>ATOM
  1 F       -3.1600    -1.3180     1.3720 F     1 <1>  -0.3400 
  2 C       -3.4320    -1.2320     0.0750 C.3   1 <1>   1.0200 
  3 F       -4.1670    -2.2990    -0.2250 F     1 <1>  -0.3400 
  4 F       -2.2790    -1.3860    -0.5610 F     1 <1>  -0.3400 
  5 C       -4.1250     0.1060    -0.3160 C.3   1 <1>   0.1100 
  6 N       -5.4050     0.4760     0.3750 N.3   1 <1>  -0.8100 
  7 C       -5.8110     1.8810     0.1770 C.3   1 <1>   0.1100 
  8 C       -6.5610    -0.4140     0.1060 C.3   1 <1>   0.1100 
  9 C       -7.2970     1.7940     0.4530 C.3   1 <1>  -0.0800 
 10 C       -7.6580     0.5530    -0.3100 C.3   1 <1>  -0.0800 
 11 C       -8.3850     2.7560     0.0220 C.3   1 <1>   0.3430 
 12 C       -9.1400     0.4290    -0.0170 C.3   1 <1>   0.3430 
 13 N       -9.6000     1.8650    -0.0380 N.4   1 <1>  -0.9060 
 14 H       -4.2920     0.0870    -1.3780 H     1 <1>   0.0800 
 15 H       -3.4060     0.8800    -0.1180 H     1 <1>   0.0800 
 16 H       -5.6200     2.1910    -0.8380 H     1 <1>   0.0800 
 17 H       -5.2990     2.5310     0.8680 H     1 <1>   0.0800 
 18 H       -6.8200    -0.9380     1.0120 H     1 <1>   0.0800 
 19 H       -6.3560    -1.1260    -0.6770 H     1 <1>   0.0800 
 20 H       -7.4080     1.6320     1.5140 H     1 <1>   0.0800 
 21 H       -7.5460     0.7190    -1.3700 H     1 <1>   0.0800 
 22 H       -8.1620     3.1500    -0.9570 H     1 <1>   0.0800 
 23 H       -8.5080     3.5640     0.7250 H     1 <1>   0.0800 
 24 H       -9.2830     0.0060     0.9650 H     1 <1>   0.0800 
 25 H       -9.6470    -0.1720    -0.7550 H     1 <1>   0.0800 
 26 H      -10.1410     2.0610    -0.8900 H     1 <1>   0.4500 
 27 H      -10.2150     2.0440     0.7660 H     1 <1>   0.4500 
@<TRIPOS>BOND
  1   1   2  1   
  2   2   3  1   
  3   2   4  1   
  4   2   5  1   
  5   5   6  1   
  6   5  14  1   
  7   5  15  1   
  8   6   7  1   
  9   6   8  1   
 10   7   9  1   
 11   7  16  1   
 12   7  17  1   
 13   8  10  1   
 14   8  18  1   
 15   8  19  1   
 16   9  10  1   
 17   9  11  1   
 18   9  20  1   
 19  10  12  1   
 20  10  21  1   
 21  11  13  1   
 22  11  22  1   
 23  11  23  1   
 24  12  13  1   
 25  12  24  1   
 26  12  25  1   
 27  13  26  1   
 28  13  27  1   
@<TRIPOS>SUBSTRUCTURE
  1 ****   6 GROUP 4 **** **** 0

# MOE 2024.06 (io_trps.svl 2023.06)
