@<TRIPOS>MOLECULE
NONAME
56 59 1 0 0 
SMALL
USER_CHARGES


@<TRIPOS>ATOM
  1 O        0.0020    -0.6130    -0.7820 O.2   1 <1>  -0.5700 
  2 C       -0.8880    -0.2270    -0.0650 C.2   1 <1>   0.5690 
  3 N       -1.8820    -0.9810     0.4970 N.am  1 <1>  -0.4770 
  4 C       -1.0140     1.2220     0.3200 C.3   1 <1>  -0.0990 
  5 C       -2.1350    -2.3550     0.3310 C.ar  1 <1>   0.1170 
  6 C       -2.7640    -0.1380     1.3320 C.3   1 <1>   0.1400 
  7 C       -2.4020     1.3050     0.9650 C.3   1 <1>  -0.1600 
  8 C       -2.6730    -3.1180     1.3650 C.ar  1 <1>  -0.1500 
  9 C       -1.8690    -3.0020    -0.8730 C.ar  1 <1>  -0.1500 
 10 C       -2.9440    -4.4620     1.1950 C.ar  1 <1>  -0.1500 
 11 C       -2.1410    -4.3460    -1.0390 C.ar  1 <1>  -0.1500 
 12 C       -2.6970    -5.1110    -0.0150 C.ar  1 <1>   0.0860 
 13 C       -2.9920    -6.5190    -0.2020 C.2   1 <1>   0.5440 
 14 O       -2.1650    -7.2340    -0.7390 O.2   1 <1>  -0.5700 
 15 N       -4.1860    -7.0730     0.2100 N.am  1 <1>  -0.6600 
 16 C       -4.3500    -8.5470     0.4220 C.3   1 <1>   0.1400 
 17 C       -5.4390    -6.2890     0.4060 C.3   1 <1>   0.1400 
 18 C       -5.4690    -9.0900    -0.4780 C.3   1 <1>   0.2000 
 19 C       -6.5630    -6.8500    -0.4760 C.3   1 <1>  -0.1600 
 20 O       -5.6120   -10.4510    -0.2550 O.3   1 <1>  -0.6800 
 21 C       -6.8180    -8.3660    -0.2360 C.3   1 <1>  -0.1060 
 22 C       -7.2900    -8.6470     1.2050 C.2   1 <1>   0.9060 
 23 C       -7.8710    -8.9080    -1.2410 C.3   1 <1>  -0.0160 
 24 O       -7.2760    -9.8190     1.6150 O.co2 1 <1>  -0.9000 
 25 O       -7.6600    -7.7270     1.9430 O.co2 1 <1>  -0.9000 
 26 C       -9.1040    -8.0270    -1.4360 C.ar  1 <1>  -0.1440 
 27 C       -9.3110    -7.3670    -2.6390 C.ar  1 <1>  -0.1500 
 28 C      -10.0320    -7.8770    -0.4170 C.ar  1 <1>  -0.1500 
 29 C      -10.4280    -6.5700    -2.8210 C.ar  1 <1>  -0.1500 
 30 C      -11.1490    -7.0800    -0.5950 C.ar  1 <1>  -0.1500 
 31 C      -11.3490    -6.4260    -1.7980 C.ar  1 <1>  -0.1500 
 32 H       -0.2400     1.4610     1.0270 H     1 <1>   0.0800 
 33 H       -0.9310     1.8560    -0.5440 H     1 <1>   0.0800 
 34 H       -3.7990    -0.3490     1.1230 H     1 <1>   0.0800 
 35 H       -2.5530    -0.3260     2.3700 H     1 <1>   0.0800 
 36 H       -3.1130     1.6700     0.2440 H     1 <1>   0.0800 
 37 H       -2.4150     1.9520     1.8240 H     1 <1>   0.0800 
 38 H       -2.8750    -2.6640     2.3170 H     1 <1>   0.1500 
 39 H       -1.4420    -2.4460    -1.6890 H     1 <1>   0.1500 
 40 H       -3.3540    -5.0330     2.0110 H     1 <1>   0.1500 
 41 H       -1.9190    -4.8260    -1.9770 H     1 <1>   0.1500 
 42 H       -3.4340    -9.0630     0.1950 H     1 <1>   0.0800 
 43 H       -4.5960    -8.7250     1.4540 H     1 <1>   0.0800 
 44 H       -5.7230    -6.3330     1.4440 H     1 <1>   0.0800 
 45 H       -5.2870    -5.2560     0.1490 H     1 <1>   0.0800 
 46 H       -5.1590    -8.9730    -1.5010 H     1 <1>   0.0800 
 47 H       -7.4590    -6.2960    -0.2590 H     1 <1>   0.0800 
 48 H       -6.3150    -6.6770    -1.5080 H     1 <1>   0.0800 
 49 H       -6.2180   -10.5270     0.5460 H     1 <1>   0.4000 
 50 H       -7.3990    -9.0460    -2.1970 H     1 <1>   0.0800 
 51 H       -8.1970    -9.8830    -0.9190 H     1 <1>   0.0800 
 52 H       -8.5990    -7.4710    -3.4380 H     1 <1>   0.1500 
 53 H       -9.8820    -8.3760     0.5270 H     1 <1>   0.1500 
 54 H      -10.5800    -6.0630    -3.7570 H     1 <1>   0.1500 
 55 H      -11.8550    -6.9710     0.2080 H     1 <1>   0.1500 
 56 H      -12.2170    -5.8060    -1.9350 H     1 <1>   0.1500 
@<TRIPOS>BOND
  1   1   2  2   
  2   2   3  am  
  3   2   4  1   
  4   3   5  1   
  5   3   6  1   
  6   4   7  1   
  7   4  32  1   
  8   4  33  1   
  9   5   8  ar  
 10   5   9  ar  
 11   6   7  1   
 12   6  34  1   
 13   6  35  1   
 14   7  36  1   
 15   7  37  1   
 16   8  10  ar  
 17   8  38  1   
 18   9  11  ar  
 19   9  39  1   
 20  10  12  ar  
 21  10  40  1   
 22  11  12  ar  
 23  11  41  1   
 24  12  13  1   
 25  13  14  2   
 26  13  15  am  
 27  15  16  1   
 28  15  17  1   
 29  16  18  1   
 30  16  42  1   
 31  16  43  1   
 32  17  19  1   
 33  17  44  1   
 34  17  45  1   
 35  18  20  1   
 36  18  21  1   
 37  18  46  1   
 38  19  21  1   
 39  19  47  1   
 40  19  48  1   
 41  20  49  1   
 42  21  22  1   
 43  21  23  1   
 44  22  24  ar  
 45  22  25  ar  
 46  23  26  1   
 47  23  50  1   
 48  23  51  1   
 49  26  27  ar  
 50  26  28  ar  
 51  27  29  ar  
 52  27  52  1   
 53  28  30  ar  
 54  28  53  1   
 55  29  31  ar  
 56  29  54  1   
 57  30  31  ar  
 58  30  55  1   
 59  31  56  1   
@<TRIPOS>SUBSTRUCTURE
  1 ****  17 GROUP 4 **** **** 0

# MOE 2024.06 (io_trps.svl 2023.06)
