@<TRIPOS>MOLECULE
NONAME
41 42 1 0 0 
SMALL
USER_CHARGES


@<TRIPOS>ATOM
  1 O        0.0400     0.2430    -0.6430 O.2   1 <1>  -0.5700 
  2 C        0.9990    -0.4840    -0.4790 C.2   1 <1>   0.5440 
  3 N        2.2590     0.0500    -0.3570 N.am  1 <1>  -0.4940 
  4 C        0.8320    -1.9230    -0.4510 C.ar  1 <1>   0.0860 
  5 C        2.6550     1.3810    -0.1870 C.2   1 <1>   0.2040 
  6 C        1.6150    -2.7440     0.3660 C.ar  1 <1>  -0.1500 
  7 C       -0.1260    -2.5480    -1.2510 C.ar  1 <1>  -0.1500 
  8 O        1.8080     2.3320     0.1300 O.3   1 <1>  -0.0190 
  9 C        3.8800     1.9400    -0.2730 C.2   1 <1>  -0.1810 
 10 C        1.4640    -4.1190     0.3710 C.ar  1 <1>  -0.1500 
 11 C       -0.2820    -3.9200    -1.2510 C.ar  1 <1>  -0.1500 
 12 N        2.4010     3.4910     0.2610 N.2   1 <1>  -0.4100 
 13 C        3.6460     3.2830     0.0230 C.2   1 <1>   0.1080 
 14 C        5.2180     1.3040    -0.6110 C.3   1 <1>  -0.0590 
 15 C        0.5100    -4.7210    -0.4450 C.ar  1 <1>   0.0830 
 16 C        4.6920     4.3840     0.0680 C.3   1 <1>   0.0210 
 17 O        0.2920    -6.0540    -0.5110 O.3   1 <1>  -0.3620 
 18 C        5.3730     4.4490     1.4400 C.3   1 <1>  -0.2400 
 19 C        0.9460    -7.0020     0.3030 C.3   1 <1>   0.2000 
 20 C        0.8010    -8.3580    -0.3840 C.3   1 <1>  -0.2400 
 21 C        0.2850    -7.0120     1.6830 C.3   1 <1>  -0.2400 
 22 H        3.0200    -0.6170    -0.4410 H     1 <1>   0.3700 
 23 H        2.3460    -2.3000     1.0180 H     1 <1>   0.1500 
 24 H       -0.7550    -1.9390    -1.8800 H     1 <1>   0.1500 
 25 H        2.0900    -4.7050     1.0160 H     1 <1>   0.1500 
 26 H       -1.0240    -4.3840    -1.8760 H     1 <1>   0.1500 
 27 H        5.1000     0.2550    -0.8140 H     1 <1>   0.0800 
 28 H        5.8990     1.4210     0.2120 H     1 <1>   0.0800 
 29 H        5.6380     1.7750    -1.4810 H     1 <1>   0.0800 
 30 H        4.2120     5.3250    -0.1350 H     1 <1>   0.0800 
 31 H        5.4260     4.2170    -0.6990 H     1 <1>   0.0800 
 32 H        4.6370     4.6320     2.2030 H     1 <1>   0.0800 
 33 H        6.0960     5.2450     1.4580 H     1 <1>   0.0800 
 34 H        5.8710     3.5210     1.6570 H     1 <1>   0.0800 
 35 H        1.9900    -6.7490     0.3650 H     1 <1>   0.0800 
 36 H       -0.2370    -8.6170    -0.4890 H     1 <1>   0.0800 
 37 H        1.2900    -9.1200     0.1950 H     1 <1>   0.0800 
 38 H        1.2580    -8.3250    -1.3570 H     1 <1>   0.0800 
 39 H       -0.7590    -7.2540     1.5920 H     1 <1>   0.0800 
 40 H        0.3820    -6.0530     2.1590 H     1 <1>   0.0800 
 41 H        0.7550    -7.7480     2.3090 H     1 <1>   0.0800 
@<TRIPOS>BOND
  1   1   2  2   
  2   2   3  am  
  3   2   4  1   
  4   3   5  1   
  5   3  22  1   
  6   4   6  ar  
  7   4   7  ar  
  8   5   8  1   
  9   5   9  2   
 10   6  10  ar  
 11   6  23  1   
 12   7  11  ar  
 13   7  24  1   
 14   8  12  1   
 15   9  13  1   
 16   9  14  1   
 17  10  15  ar  
 18  10  25  1   
 19  11  15  ar  
 20  11  26  1   
 21  12  13  2   
 22  13  16  1   
 23  14  27  1   
 24  14  28  1   
 25  14  29  1   
 26  15  17  1   
 27  16  18  1   
 28  16  30  1   
 29  16  31  1   
 30  17  19  1   
 31  18  32  1   
 32  18  33  1   
 33  18  34  1   
 34  19  20  1   
 35  19  21  1   
 36  19  35  1   
 37  20  36  1   
 38  20  37  1   
 39  20  38  1   
 40  21  39  1   
 41  21  40  1   
 42  21  41  1   
@<TRIPOS>SUBSTRUCTURE
  1 ****   2 GROUP 4 **** **** 0

# MOE 2024.06 (io_trps.svl 2023.06)
