@<TRIPOS>MOLECULE
NONAME
50 54 1 0 0 
SMALL
USER_CHARGES


@<TRIPOS>ATOM
  1 O       -0.4900     0.1400    -0.7510 O.2   1 <1>  -0.5700 
  2 C       -1.4890     0.8240    -0.9140 C.2   1 <1>   0.7160 
  3 N       -2.6930     0.1590    -1.0860 N.am  1 <1>  -0.6600 
  4 C       -1.3540     2.2820    -0.9030 C.2   1 <1>   0.2030 
  5 C       -4.0380     0.7820    -0.8830 C.3   1 <1>   0.1400 
  6 C       -2.7610    -1.2940    -1.4340 C.3   1 <1>   0.1400 
  7 N       -2.1870     3.1870    -1.4000 N.2   1 <1>  -0.7070 
  8 C       -0.2430     2.9280    -0.3420 C.2   1 <1>  -0.1500 
  9 C       -4.9020    -0.0520     0.0830 C.3   1 <1>   0.1900 
 10 C       -3.6530    -2.0630    -0.4470 C.3   1 <1>   0.1100 
 11 N       -1.6120     4.3750    -1.1570 N.pl3 1 <1>   0.3000 
 12 C       -0.4390     4.2480    -0.5140 C.2   1 <1>  -0.2370 
 13 N       -5.0030    -1.4630    -0.3640 N.3   1 <1>  -0.8100 
 14 C       -6.3040     0.5750     0.2210 C.3   1 <1>   0.1200 
 15 C        0.4220     5.4270    -0.1090 C.3   1 <1>  -0.0150 
 16 C       -5.8890    -2.2200     0.5520 C.3   1 <1>   0.3330 
 17 O       -7.0910    -0.1730     1.1040 O.3   1 <1>  -0.5600 
 18 C        1.2560     5.3540     1.1290 C.3   1 <1>  -0.2000 
 19 C        0.0410     6.2330     1.0900 C.3   1 <1>  -0.2000 
 20 C       -6.1170    -3.6440     0.0460 C.ar  1 <1>  -0.1440 
 21 C       -7.2510    -1.5080     0.7040 C.3   1 <1>   0.1200 
 22 C       -5.9980    -4.7190     0.9160 C.ar  1 <1>  -0.1500 
 23 C       -6.4500    -3.8840    -1.2800 C.ar  1 <1>  -0.1500 
 24 C       -6.2080    -6.0110     0.4670 C.ar  1 <1>  -0.1500 
 25 C       -6.6610    -5.1750    -1.7310 C.ar  1 <1>  -0.1500 
 26 C       -6.5400    -6.2400    -0.8560 C.ar  1 <1>  -0.1500 
 27 H       -3.9420     1.7670    -0.4690 H     1 <1>   0.0800 
 28 H       -4.5330     0.8640    -1.8340 H     1 <1>   0.0800 
 29 H       -3.1690    -1.3970    -2.4240 H     1 <1>   0.0800 
 30 H       -1.7800    -1.7350    -1.4390 H     1 <1>   0.0800 
 31 H        0.5870     2.4270     0.1250 H     1 <1>   0.1500 
 32 H       -4.4330    -0.0170     1.0520 H     1 <1>   0.0800 
 33 H       -3.1860    -2.0640     0.5230 H     1 <1>   0.0800 
 34 H       -3.7260    -3.0830    -0.7830 H     1 <1>   0.0800 
 35 H       -2.0380     5.2670    -1.4370 H     1 <1>   0.2700 
 36 H       -6.7980     0.6120    -0.7340 H     1 <1>   0.0800 
 37 H       -6.2310     1.5720     0.6160 H     1 <1>   0.0800 
 38 H        0.8450     5.9470    -0.9520 H     1 <1>   0.1000 
 39 H       -5.4300    -2.2640     1.5250 H     1 <1>   0.0800 
 40 H        1.2240     4.4590     1.7260 H     1 <1>   0.1000 
 41 H        2.2300     5.8090     1.1190 H     1 <1>   0.1000 
 42 H        0.1770     7.3000     1.0630 H     1 <1>   0.1000 
 43 H       -0.8200     5.9380     1.6650 H     1 <1>   0.1000 
 44 H       -7.8430    -2.0070     1.4500 H     1 <1>   0.0800 
 45 H       -7.7870    -1.5260    -0.2280 H     1 <1>   0.0800 
 46 H       -5.7410    -4.5570     1.9480 H     1 <1>   0.1500 
 47 H       -6.5380    -3.0570    -1.9650 H     1 <1>   0.1500 
 48 H       -6.1130    -6.8390     1.1470 H     1 <1>   0.1500 
 49 H       -6.9180    -5.3500    -2.7610 H     1 <1>   0.1500 
 50 H       -6.7040    -7.2450    -1.2050 H     1 <1>   0.1500 
@<TRIPOS>BOND
  1   1   2  2   
  2   2   3  am  
  3   2   4  1   
  4   3   5  1   
  5   3   6  1   
  6   4   7  2   
  7   4   8  1   
  8   5   9  1   
  9   5  27  1   
 10   5  28  1   
 11   6  10  1   
 12   6  29  1   
 13   6  30  1   
 14   7  11  1   
 15   8  12  2   
 16   8  31  1   
 17   9  13  1   
 18   9  14  1   
 19   9  32  1   
 20  10  13  1   
 21  10  33  1   
 22  10  34  1   
 23  11  12  1   
 24  11  35  1   
 25  12  15  1   
 26  13  16  1   
 27  14  17  1   
 28  14  36  1   
 29  14  37  1   
 30  15  18  1   
 31  15  19  1   
 32  15  38  1   
 33  16  20  1   
 34  16  21  1   
 35  16  39  1   
 36  17  21  1   
 37  18  19  1   
 38  18  40  1   
 39  18  41  1   
 40  19  42  1   
 41  19  43  1   
 42  20  22  ar  
 43  20  23  ar  
 44  21  44  1   
 45  21  45  1   
 46  22  24  ar  
 47  22  46  1   
 48  23  25  ar  
 49  23  47  1   
 50  24  26  ar  
 51  24  48  1   
 52  25  26  ar  
 53  25  49  1   
 54  26  50  1   
@<TRIPOS>SUBSTRUCTURE
  1 ****   5 GROUP 4 **** **** 0

# MOE 2024.06 (io_trps.svl 2023.06)
