@<TRIPOS>MOLECULE
NONAME
43 45 1 0 0 
SMALL
USER_CHARGES


@<TRIPOS>ATOM
  1 CL      -1.4350     2.6880     2.7810 Cl    1 <1>  -0.1770 
  2 C       -0.8450     2.8370     1.1430 C.ar  1 <1>   0.1770 
  3 C       -1.6430     2.4480     0.0690 C.ar  1 <1>   0.0860 
  4 C        0.4270     3.3470     0.9630 C.ar  1 <1>  -0.1500 
  5 C       -2.9780     1.9270     0.2490 C.2   1 <1>   0.5440 
  6 C       -1.1010     2.5810    -1.2090 C.ar  1 <1>  -0.1500 
  7 C        0.9380     3.4780    -0.3160 C.ar  1 <1>  -0.1500 
  8 O       -3.1830     0.7500     0.0170 O.2   1 <1>  -0.5700 
  9 N       -4.0250     2.7370     0.6370 N.am  1 <1>  -0.6600 
 10 C        0.1710     3.0910    -1.4020 C.ar  1 <1>  -0.1500 
 11 C       -5.4000     2.1950     0.8510 C.3   1 <1>   0.1400 
 12 C       -3.8940     4.2170     0.7860 C.3   1 <1>   0.1400 
 13 C       -6.4110     2.7790    -0.1740 C.3   1 <1>   0.0000 
 14 C       -5.2420     4.9310     0.5960 C.3   1 <1>  -0.1600 
 15 C       -7.8360     2.5560     0.3840 C.3   1 <1>   0.2000 
 16 C       -6.0650     4.2600    -0.5130 C.3   1 <1>  -0.1600 
 17 C       -6.4160     1.9110    -1.4440 C.3   1 <1>  -0.1600 
 18 O       -8.7670     3.3170    -0.3330 O.3   1 <1>  -0.5600 
 19 C       -8.1280     1.0760     0.1100 C.3   1 <1>  -0.1600 
 20 C       -7.3200     0.7080    -1.1430 C.3   1 <1>  -0.1600 
 21 C       -9.9410     3.6150     0.3520 C.3   1 <1>   0.0400 
 22 H        1.0120     3.6370     1.8180 H     1 <1>   0.1500 
 23 H       -1.6930     2.2740    -2.0550 H     1 <1>   0.1500 
 24 H        1.9290     3.8740    -0.4670 H     1 <1>   0.1500 
 25 H        0.5670     3.1850    -2.4000 H     1 <1>   0.1500 
 26 H       -5.3940     1.1200     0.8040 H     1 <1>   0.0800 
 27 H       -5.7000     2.4630     1.8490 H     1 <1>   0.0800 
 28 H       -3.4950     4.4470     1.7590 H     1 <1>   0.0800 
 29 H       -3.2060     4.5830     0.0420 H     1 <1>   0.0800 
 30 H       -5.7940     4.9140     1.5190 H     1 <1>   0.0800 
 31 H       -5.0620     5.9620     0.3480 H     1 <1>   0.0800 
 32 H       -7.9000     2.8110     1.4290 H     1 <1>   0.0800 
 33 H       -5.4730     4.2820    -1.4120 H     1 <1>   0.0800 
 34 H       -6.9470     4.8410    -0.7110 H     1 <1>   0.0800 
 35 H       -6.8540     2.4700    -2.2530 H     1 <1>   0.0800 
 36 H       -5.4240     1.6060    -1.7300 H     1 <1>   0.0800 
 37 H       -7.7740     0.4890     0.9380 H     1 <1>   0.0800 
 38 H       -9.1770     0.8830    -0.0220 H     1 <1>   0.0800 
 39 H       -6.7270    -0.1720    -0.9580 H     1 <1>   0.0800 
 40 H       -7.9740     0.5200    -1.9780 H     1 <1>   0.0800 
 41 H      -10.5810     4.1710    -0.3100 H     1 <1>   0.0800 
 42 H       -9.7050     4.2150     1.2140 H     1 <1>   0.0800 
 43 H      -10.4290     2.7030     0.6470 H     1 <1>   0.0800 
@<TRIPOS>BOND
  1   1   2  1   
  2   2   3  ar  
  3   2   4  ar  
  4   3   5  1   
  5   3   6  ar  
  6   4   7  ar  
  7   4  22  1   
  8   5   8  2   
  9   5   9  am  
 10   6  10  ar  
 11   6  23  1   
 12   7  10  ar  
 13   7  24  1   
 14   9  11  1   
 15   9  12  1   
 16  10  25  1   
 17  11  13  1   
 18  11  26  1   
 19  11  27  1   
 20  12  14  1   
 21  12  28  1   
 22  12  29  1   
 23  13  15  1   
 24  13  16  1   
 25  13  17  1   
 26  14  16  1   
 27  14  30  1   
 28  14  31  1   
 29  15  18  1   
 30  15  19  1   
 31  15  32  1   
 32  16  33  1   
 33  16  34  1   
 34  17  20  1   
 35  17  35  1   
 36  17  36  1   
 37  18  21  1   
 38  19  20  1   
 39  19  37  1   
 40  19  38  1   
 41  20  39  1   
 42  20  40  1   
 43  21  41  1   
 44  21  42  1   
 45  21  43  1   
@<TRIPOS>SUBSTRUCTURE
  1 ****   9 GROUP 4 **** **** 0

# MOE 2024.06 (io_trps.svl 2023.06)
