@<TRIPOS>MOLECULE
NONAME
44 45 1 0 0 
SMALL
USER_CHARGES


@<TRIPOS>ATOM
  1 CL       0.9430    -0.1560     0.5970 Cl    1 <1>  -0.1770 
  2 C        0.5860    -1.8550     0.3970 C.ar  1 <1>   0.1770 
  3 C       -0.6260    -2.2450    -0.1560 C.ar  1 <1>   0.0830 
  4 C        1.5150    -2.7980     0.7920 C.ar  1 <1>  -0.1500 
  5 O       -1.5370    -1.3340    -0.5430 O.3   1 <1>  -0.5330 
  6 C       -0.9060    -3.5890    -0.3140 C.ar  1 <1>  -0.1500 
  7 C        1.2200    -4.1430     0.6350 C.ar  1 <1>  -0.1500 
  8 C        0.0040    -4.5670     0.0900 C.ar  1 <1>   0.0860 
  9 C       -0.2910    -5.9800    -0.0590 C.2   1 <1>   0.5440 
 10 O        0.5470    -6.7100    -0.5520 O.2   1 <1>  -0.5700 
 11 N       -1.4910    -6.5290     0.3470 N.am  1 <1>  -0.6600 
 12 C       -1.9350    -7.8630    -0.1650 C.3   1 <1>   0.1400 
 13 C       -2.3570    -5.9300     1.4000 C.3   1 <1>   0.1400 
 14 C       -3.4040    -7.8050    -0.6240 C.3   1 <1>   0.2000 
 15 C       -3.8040    -5.8520     0.8960 C.3   1 <1>  -0.1600 
 16 O       -3.8040    -9.0760    -1.0280 O.3   1 <1>  -0.6800 
 17 C       -4.3690    -7.2300     0.4550 C.3   1 <1>   0.0000 
 18 C       -4.4320    -8.2040     1.6670 C.3   1 <1>   0.1200 
 19 C       -5.8140    -7.0620    -0.1040 C.3   1 <1>  -0.1600 
 20 O       -5.2130    -7.6990     2.6980 O.3   1 <1>  -0.6800 
 21 C       -5.9720    -6.2270    -1.3890 C.3   1 <1>  -0.1600 
 22 C       -7.4470    -6.1240    -1.7890 C.3   1 <1>  -0.2400 
 23 H        2.4540    -2.4840     1.2130 H     1 <1>   0.1500 
 24 H       -1.2260    -0.4160    -0.4090 H     1 <1>   0.4500 
 25 H       -1.8390    -3.8800    -0.7600 H     1 <1>   0.1500 
 26 H        1.9390    -4.8880     0.9330 H     1 <1>   0.1500 
 27 H       -1.3290    -8.1530    -1.0060 H     1 <1>   0.0800 
 28 H       -1.8050    -8.5930     0.6120 H     1 <1>   0.0800 
 29 H       -2.2990    -6.5380     2.2870 H     1 <1>   0.0800 
 30 H       -2.0140    -4.9460     1.6660 H     1 <1>   0.0800 
 31 H       -3.4310    -7.1830    -1.5000 H     1 <1>   0.0800 
 32 H       -4.4230    -5.4180     1.6590 H     1 <1>   0.0800 
 33 H       -3.8130    -5.1690     0.0670 H     1 <1>   0.0800 
 34 H       -3.7890    -9.7040    -0.2830 H     1 <1>   0.4000 
 35 H       -3.4560    -8.4030     2.0720 H     1 <1>   0.0800 
 36 H       -4.8720    -9.1410     1.3730 H     1 <1>   0.0800 
 37 H       -6.2180    -8.0410    -0.2980 H     1 <1>   0.0800 
 38 H       -6.4320    -6.6210     0.6590 H     1 <1>   0.0800 
 39 H       -4.9100    -6.8110     2.9640 H     1 <1>   0.4000 
 40 H       -5.5890    -5.2330    -1.2490 H     1 <1>   0.0800 
 41 H       -5.4350    -6.6870    -2.2010 H     1 <1>   0.0800 
 42 H       -8.0160    -5.6460    -1.0110 H     1 <1>   0.0800 
 43 H       -7.8560    -7.1030    -1.9670 H     1 <1>   0.0800 
 44 H       -7.5440    -5.5450    -2.6900 H     1 <1>   0.0800 
@<TRIPOS>BOND
  1   1   2  1   
  2   2   3  ar  
  3   2   4  ar  
  4   3   5  1   
  5   3   6  ar  
  6   4   7  ar  
  7   4  23  1   
  8   5  24  1   
  9   6   8  ar  
 10   6  25  1   
 11   7   8  ar  
 12   7  26  1   
 13   8   9  1   
 14   9  10  2   
 15   9  11  am  
 16  11  12  1   
 17  11  13  1   
 18  12  14  1   
 19  12  27  1   
 20  12  28  1   
 21  13  15  1   
 22  13  29  1   
 23  13  30  1   
 24  14  16  1   
 25  14  17  1   
 26  14  31  1   
 27  15  17  1   
 28  15  32  1   
 29  15  33  1   
 30  16  34  1   
 31  17  18  1   
 32  17  19  1   
 33  18  20  1   
 34  18  35  1   
 35  18  36  1   
 36  19  21  1   
 37  19  37  1   
 38  19  38  1   
 39  20  39  1   
 40  21  22  1   
 41  21  40  1   
 42  21  41  1   
 43  22  42  1   
 44  22  43  1   
 45  22  44  1   
@<TRIPOS>SUBSTRUCTURE
  1 ****  11 GROUP 4 **** **** 0

# MOE 2024.06 (io_trps.svl 2023.06)
