@<TRIPOS>MOLECULE
NONAME
54 57 1 0 0 
SMALL
USER_CHARGES


@<TRIPOS>ATOM
  1 O       -0.7040     0.5010    -1.4960 O.2   1 <1>  -0.5700 
  2 C       -1.6350     1.0410    -0.9340 C.2   1 <1>   0.5440 
  3 N       -2.7090     0.2800    -0.5120 N.am  1 <1>  -0.6600 
  4 C       -1.5800     2.4670    -0.7230 C.ar  1 <1>   0.0860 
  5 C       -2.8560    -1.1640    -0.9130 C.3   1 <1>   0.1400 
  6 C       -3.8680     0.8460     0.2340 C.3   1 <1>   0.1400 
  7 C       -0.6660     3.0510     0.1580 C.ar  1 <1>   0.0000 
  8 C       -2.4220     3.3590    -1.3640 C.ar  1 <1>  -0.1500 
  9 C       -3.1560    -2.0850     0.2970 C.3   1 <1>   0.0000 
 10 C       -4.1780    -0.0170     1.4550 C.3   1 <1>  -0.1600 
 11 C       -0.7030     4.4100     0.3390 C.ar  1 <1>   0.3970 
 12 C        0.3780     2.6570     1.0140 C.2   1 <1>   0.1080 
 13 C       -2.3570     4.7300    -1.1050 C.ar  1 <1>   0.1660 
 14 C       -4.3780    -1.4730     1.0310 C.3   1 <1>   0.2000 
 15 C       -3.5940    -3.4800    -0.2170 C.3   1 <1>   0.1200 
 16 C       -1.9140    -2.1840     1.2380 C.3   1 <1>  -0.0170 
 17 O        0.2250     4.7240     1.2260 O.3   1 <1>  -0.0190 
 18 N       -1.5200     5.2800    -0.2560 N.ar  1 <1>  -0.5670 
 19 N        0.8770     3.6590     1.6340 N.2   1 <1>  -0.4100 
 20 C        0.8740     1.2370     1.1910 C.3   1 <1>  -0.0590 
 21 C       -3.2940     5.6770    -1.8250 C.3   1 <1>  -0.0960 
 22 O       -4.7140    -2.2050     2.1580 O.3   1 <1>  -0.6800 
 23 O       -2.7280    -3.9660    -1.1880 O.3   1 <1>  -0.6800 
 24 C       -0.7770    -3.0720     0.7420 C.ar  1 <1>  -0.1440 
 25 C       -0.7000    -4.3950     1.1530 C.ar  1 <1>  -0.1500 
 26 C        0.1890    -2.5780    -0.1200 C.ar  1 <1>  -0.1500 
 27 C        0.3170    -5.2150     0.6960 C.ar  1 <1>  -0.1500 
 28 C        1.2070    -3.3950    -0.5790 C.ar  1 <1>  -0.1500 
 29 C        1.2700    -4.7160    -0.1730 C.ar  1 <1>  -0.1500 
 30 H       -3.6650    -1.2350    -1.6190 H     1 <1>   0.0800 
 31 H       -1.9730    -1.5080    -1.4210 H     1 <1>   0.0800 
 32 H       -3.6670     1.8510     0.5640 H     1 <1>   0.0800 
 33 H       -4.7240     0.8730    -0.4200 H     1 <1>   0.0800 
 34 H       -3.1360     2.9840    -2.0750 H     1 <1>   0.1500 
 35 H       -5.0800     0.3480     1.9140 H     1 <1>   0.0800 
 36 H       -3.3760     0.0750     2.1640 H     1 <1>   0.0800 
 37 H       -5.2320    -1.5180     0.3750 H     1 <1>   0.0800 
 38 H       -4.5700    -3.4290    -0.6690 H     1 <1>   0.0800 
 39 H       -3.6330    -4.1920     0.5900 H     1 <1>   0.0800 
 40 H       -1.5190    -1.2010     1.4200 H     1 <1>   0.0800 
 41 H       -2.2150    -2.5700     2.1940 H     1 <1>   0.0800 
 42 H        0.0640     0.5950     1.4800 H     1 <1>   0.0800 
 43 H        1.6320     1.2010     1.9530 H     1 <1>   0.0800 
 44 H        1.2960     0.8790     0.2700 H     1 <1>   0.0800 
 45 H       -3.9430     5.1510    -2.5010 H     1 <1>   0.0800 
 46 H       -2.7200     6.3940    -2.3840 H     1 <1>   0.0800 
 47 H       -3.8950     6.2050    -1.1070 H     1 <1>   0.0800 
 48 H       -4.0740    -2.0430     2.8760 H     1 <1>   0.4000 
 49 H       -1.8140    -4.0190    -0.8220 H     1 <1>   0.4000 
 50 H       -1.4350    -4.8000     1.8280 H     1 <1>   0.1500 
 51 H        0.1580    -1.5540    -0.4450 H     1 <1>   0.1500 
 52 H        0.3660    -6.2420     1.0150 H     1 <1>   0.1500 
 53 H        1.9470    -3.0010    -1.2540 H     1 <1>   0.1500 
 54 H        2.0610    -5.3520    -0.5310 H     1 <1>   0.1500 
@<TRIPOS>BOND
  1   1   2  2   
  2   2   3  am  
  3   2   4  1   
  4   3   5  1   
  5   3   6  1   
  6   4   7  ar  
  7   4   8  ar  
  8   5   9  1   
  9   5  30  1   
 10   5  31  1   
 11   6  10  1   
 12   6  32  1   
 13   6  33  1   
 14   7  11  ar  
 15   7  12  1   
 16   8  13  ar  
 17   8  34  1   
 18   9  14  1   
 19   9  15  1   
 20   9  16  1   
 21  10  14  1   
 22  10  35  1   
 23  10  36  1   
 24  11  17  1   
 25  11  18  ar  
 26  12  19  2   
 27  12  20  1   
 28  13  18  ar  
 29  13  21  1   
 30  14  22  1   
 31  14  37  1   
 32  15  23  1   
 33  15  38  1   
 34  15  39  1   
 35  16  24  1   
 36  16  40  1   
 37  16  41  1   
 38  17  19  1   
 39  20  42  1   
 40  20  43  1   
 41  20  44  1   
 42  21  45  1   
 43  21  46  1   
 44  21  47  1   
 45  22  48  1   
 46  23  49  1   
 47  24  25  ar  
 48  24  26  ar  
 49  25  27  ar  
 50  25  50  1   
 51  26  28  ar  
 52  26  51  1   
 53  27  29  ar  
 54  27  52  1   
 55  28  29  ar  
 56  28  53  1   
 57  29  54  1   
@<TRIPOS>SUBSTRUCTURE
  1 ****   3 GROUP 4 **** **** 0

# MOE 2024.06 (io_trps.svl 2023.06)
