@<TRIPOS>MOLECULE
NONAME
17 18 1 0 0 
SMALL
USER_CHARGES


@<TRIPOS>ATOM
  1 O       -0.3570    -1.3340     2.0790 O.co2 1 <1>  -0.9000 
  2 C       -0.2440    -1.4870     0.8600 C.2   1 <1>   0.9470 
  3 O       -1.0420    -0.9970     0.0540 O.co2 1 <1>  -0.9000 
  4 C        0.9440    -2.2460     0.3160 C.3   1 <1>  -0.1380 
  5 N        1.9520    -1.2750    -0.1560 N.pl3 1 <1>   0.5610 
  6 C        0.7570    -3.5290    -0.4570 C.3   1 <1>  -0.2000 
  7 C        1.3610    -3.5710     0.9120 C.3   1 <1>  -0.2000 
  8 N        3.2370    -1.5950    -0.3570 N.2   1 <1>  -0.7070 
  9 C        1.7960     0.0110    -0.5090 C.2   1 <1>   0.0360 
 10 C        3.7380    -0.4890    -0.7940 C.2   1 <1>   0.3660 
 11 N        2.8980     0.5430    -0.9140 N.2   1 <1>  -0.5650 
 12 H        1.3850    -3.7120    -1.3100 H     1 <1>   0.1000 
 13 H       -0.2480    -3.8930    -0.5890 H     1 <1>   0.1000 
 14 H        0.7730    -3.9530     1.7290 H     1 <1>   0.1000 
 15 H        2.4100    -3.7790     1.0230 H     1 <1>   0.1000 
 16 H        0.8430     0.5090    -0.4520 H     1 <1>   0.1500 
 17 H        4.7770    -0.3800    -1.0590 H     1 <1>   0.1500 
@<TRIPOS>BOND
  1   1   2  ar  
  2   2   3  ar  
  3   2   4  1   
  4   4   5  1   
  5   4   6  1   
  6   4   7  1   
  7   5   8  1   
  8   5   9  1   
  9   6   7  1   
 10   6  12  1   
 11   6  13  1   
 12   7  14  1   
 13   7  15  1   
 14   8  10  2   
 15   9  11  2   
 16   9  16  1   
 17  10  11  1   
 18  10  17  1   
@<TRIPOS>SUBSTRUCTURE
  1 ****   5 GROUP 4 **** **** 0

# MOE 2024.06 (io_trps.svl 2023.06)
