@<TRIPOS>MOLECULE
NONAME
44 46 1 0 0 
SMALL
USER_CHARGES


@<TRIPOS>ATOM
  1 S       -1.3810     0.4770     1.7510 S.3   1 <1>  -0.0800 
  2 C       -2.4830    -0.2650     0.6050 C.2   1 <1>  -0.1100 
  3 C       -1.6130     2.0510     1.0140 C.2   1 <1>  -0.1100 
  4 C       -2.9770     0.6500    -0.2530 C.2   1 <1>  -0.1810 
  5 C       -2.4730     1.9710    -0.0180 C.2   1 <1>  -0.1500 
  6 C       -3.9680     0.3920    -1.3850 C.3   1 <1>   0.0820 
  7 C       -4.6630    -0.9650    -1.3200 C.2   1 <1>   0.5690 
  8 O       -4.4690    -1.7260    -2.2410 O.2   1 <1>  -0.5700 
  9 N       -5.4960    -1.3120    -0.2800 N.am  1 <1>  -0.6600 
 10 C       -6.1020    -2.6750    -0.2480 C.3   1 <1>   0.1400 
 11 C       -5.8580    -0.4130     0.8570 C.3   1 <1>   0.1400 
 12 C       -7.4140    -2.7150    -1.0460 C.3   1 <1>   0.1400 
 13 C       -7.3660    -0.3760     1.1450 C.3   1 <1>  -0.1600 
 14 N       -8.5220    -1.9750    -0.3580 N.am  1 <1>  -0.6600 
 15 C       -8.2590    -0.5300    -0.0920 C.3   1 <1>   0.1400 
 16 C       -9.7120    -2.5390     0.0590 C.2   1 <1>   0.5690 
 17 O      -10.4180    -1.9530     0.8520 O.2   1 <1>  -0.5700 
 18 C      -10.1560    -3.9430    -0.4260 C.3   1 <1>   0.2610 
 19 O      -11.5260    -4.0060    -0.7310 O.3   1 <1>  -0.5600 
 20 C       -9.9210    -5.0360     0.6270 C.3   1 <1>  -0.1600 
 21 C      -12.2290    -4.5410     0.3370 C.3   1 <1>   0.1200 
 22 C      -11.3050    -5.6080     0.8980 C.3   1 <1>  -0.1600 
 23 H       -2.6460    -1.3250     0.6970 H     1 <1>   0.1500 
 24 H       -1.0720     2.8780     1.4370 H     1 <1>   0.1500 
 25 H       -2.7750     2.8010    -0.6330 H     1 <1>   0.1500 
 26 H       -3.4410     0.4630    -2.3190 H     1 <1>   0.0800 
 27 H       -4.7230     1.1550    -1.3870 H     1 <1>   0.0800 
 28 H       -5.4110    -3.3760    -0.6860 H     1 <1>   0.0800 
 29 H       -6.2770    -2.9860     0.7670 H     1 <1>   0.0800 
 30 H       -5.3330    -0.7340     1.7410 H     1 <1>   0.0800 
 31 H       -5.5390     0.5910     0.6450 H     1 <1>   0.0800 
 32 H       -7.6720    -3.7480    -1.1770 H     1 <1>   0.0800 
 33 H       -7.2500    -2.2950    -2.0240 H     1 <1>   0.0800 
 34 H       -7.5840     0.5710     1.6040 H     1 <1>   0.0800 
 35 H       -7.6240    -1.1290     1.8680 H     1 <1>   0.0800 
 36 H       -7.8070    -0.0710    -0.9540 H     1 <1>   0.0800 
 37 H       -9.1950    -0.0260     0.0860 H     1 <1>   0.0800 
 38 H       -9.6530    -4.1880    -1.3400 H     1 <1>   0.0800 
 39 H       -9.2450    -5.7870     0.2630 H     1 <1>   0.0800 
 40 H       -9.5120    -4.6020     1.5240 H     1 <1>   0.0800 
 41 H      -12.4000    -3.7520     1.0520 H     1 <1>   0.0800 
 42 H      -13.1660    -4.9370    -0.0140 H     1 <1>   0.0800 
 43 H      -11.4870    -5.7820     1.9430 H     1 <1>   0.0800 
 44 H      -11.4500    -6.5230     0.3500 H     1 <1>   0.0800 
@<TRIPOS>BOND
  1   1   2  1   
  2   1   3  1   
  3   2   4  2   
  4   2  23  1   
  5   3   5  2   
  6   3  24  1   
  7   4   5  1   
  8   4   6  1   
  9   5  25  1   
 10   6   7  1   
 11   6  26  1   
 12   6  27  1   
 13   7   8  2   
 14   7   9  am  
 15   9  10  1   
 16   9  11  1   
 17  10  12  1   
 18  10  28  1   
 19  10  29  1   
 20  11  13  1   
 21  11  30  1   
 22  11  31  1   
 23  12  14  1   
 24  12  32  1   
 25  12  33  1   
 26  13  15  1   
 27  13  34  1   
 28  13  35  1   
 29  14  15  1   
 30  14  16  am  
 31  15  36  1   
 32  15  37  1   
 33  16  17  2   
 34  16  18  1   
 35  18  19  1   
 36  18  20  1   
 37  18  38  1   
 38  19  21  1   
 39  20  22  1   
 40  20  39  1   
 41  20  40  1   
 42  21  22  1   
 43  21  41  1   
 44  21  42  1   
 45  22  43  1   
 46  22  44  1   
@<TRIPOS>SUBSTRUCTURE
  1 ****  10 GROUP 4 **** **** 0

# MOE 2024.06 (io_trps.svl 2023.06)
