@<TRIPOS>MOLECULE
NONAME
53 55 1 0 0 
SMALL
USER_CHARGES


@<TRIPOS>ATOM
  1 O        0.0770     0.2270     0.3740 O.3   1 <1>  -0.5600 
  2 C        0.5400     0.8210    -0.7900 C.3   1 <1>   0.1200 
  3 C       -1.3170     0.1430     0.3020 C.3   1 <1>   0.1200 
  4 C       -0.4280     1.9890    -0.9580 C.3   1 <1>   0.4230 
  5 C       -1.7380     1.2440    -0.6880 C.3   1 <1>  -0.0800 
  6 N       -0.1670     2.9690     0.1430 N.4   1 <1>  -0.9060 
  7 C       -2.9550     2.0730    -0.2280 C.3   1 <1>  -0.0170 
  8 C        0.6900     4.1470    -0.1520 C.3   1 <1>   0.4230 
  9 C       -4.1850     1.1880    -0.1180 C.ar  1 <1>  -0.1440 
 10 C        2.1420     3.7440    -0.4260 C.3   1 <1>  -0.1600 
 11 C        0.6220     5.0930     1.0490 C.3   1 <1>  -0.1600 
 12 C       -4.9250     0.8320    -1.2280 C.ar  1 <1>  -0.1500 
 13 C       -4.6270     0.6910     1.0930 C.ar  1 <1>  -0.1500 
 14 C        3.0430     4.9710    -0.5920 C.3   1 <1>   0.3430 
 15 C        1.5320     6.3080     0.8600 C.3   1 <1>   0.3430 
 16 C       -6.0340     0.0150    -1.0800 C.ar  1 <1>   0.1600 
 17 C       -5.7500    -0.1200     1.1320 C.ar  1 <1>   0.1600 
 18 N        2.9310     5.8640     0.6020 N.4   1 <1>  -0.9590 
 19 N       -6.4590    -0.4710     0.0730 N.ar  1 <1>  -0.6200 
 20 C        3.8520     7.0410     0.5590 C.3   1 <1>   0.4230 
 21 C        3.6930     7.8560    -0.7260 C.3   1 <1>  -0.2400 
 22 C        5.2890     6.5570     0.7250 C.3   1 <1>  -0.2400 
 23 H        1.5700     1.0990    -0.6670 H     1 <1>   0.0800 
 24 H        0.4520     0.1100    -1.5960 H     1 <1>   0.0800 
 25 H       -1.5900    -0.8380    -0.0520 H     1 <1>   0.0800 
 26 H       -1.7140     0.2900     1.2930 H     1 <1>   0.0800 
 27 H       -0.3970     2.4450    -1.9350 H     1 <1>   0.0800 
 28 H       -2.0180     0.7460    -1.6020 H     1 <1>   0.0800 
 29 H       -1.0760     3.2890     0.4900 H     1 <1>   0.4500 
 30 H        0.2260     2.3880     0.9050 H     1 <1>   0.4500 
 31 H       -3.1600     2.8540    -0.9410 H     1 <1>   0.0800 
 32 H       -2.7810     2.5300     0.7290 H     1 <1>   0.0800 
 33 H        0.2990     4.6610    -1.0180 H     1 <1>   0.0800 
 34 H        2.5280     3.1370     0.3750 H     1 <1>   0.0800 
 35 H        2.2010     3.1810    -1.3400 H     1 <1>   0.0800 
 36 H       -0.3850     5.4490     1.1740 H     1 <1>   0.0800 
 37 H        0.9120     4.5830     1.9520 H     1 <1>   0.0800 
 38 H       -4.6610     1.1780    -2.2100 H     1 <1>   0.1500 
 39 H       -4.1220     0.9200     2.0130 H     1 <1>   0.1500 
 40 H        2.7560     5.5130    -1.4790 H     1 <1>   0.0800 
 41 H        4.0660     4.6490    -0.7180 H     1 <1>   0.0800 
 42 H        1.5000     6.9240     1.7470 H     1 <1>   0.0800 
 43 H        1.1790     6.9030     0.0320 H     1 <1>   0.0800 
 44 H       -6.6020    -0.2530    -1.9550 H     1 <1>   0.1500 
 45 H       -6.0830    -0.5000     2.0830 H     1 <1>   0.1500 
 46 H        3.2500     5.3300     1.4230 H     1 <1>   0.4500 
 47 H        3.6270     7.6860     1.3950 H     1 <1>   0.0800 
 48 H        4.0090     7.3070    -1.5950 H     1 <1>   0.0800 
 49 H        4.3150     8.7320    -0.6620 H     1 <1>   0.0800 
 50 H        2.6820     8.1950    -0.8580 H     1 <1>   0.0800 
 51 H        5.6190     5.9750    -0.1170 H     1 <1>   0.0800 
 52 H        5.4000     5.9840     1.6270 H     1 <1>   0.0800 
 53 H        5.9420     7.4090     0.8020 H     1 <1>   0.0800 
@<TRIPOS>BOND
  1   1   2  1   
  2   1   3  1   
  3   2   4  1   
  4   2  23  1   
  5   2  24  1   
  6   3   5  1   
  7   3  25  1   
  8   3  26  1   
  9   4   5  1   
 10   4   6  1   
 11   4  27  1   
 12   5   7  1   
 13   5  28  1   
 14   6   8  1   
 15   6  29  1   
 16   6  30  1   
 17   7   9  1   
 18   7  31  1   
 19   7  32  1   
 20   8  10  1   
 21   8  11  1   
 22   8  33  1   
 23   9  12  ar  
 24   9  13  ar  
 25  10  14  1   
 26  10  34  1   
 27  10  35  1   
 28  11  15  1   
 29  11  36  1   
 30  11  37  1   
 31  12  16  ar  
 32  12  38  1   
 33  13  17  ar  
 34  13  39  1   
 35  14  18  1   
 36  14  40  1   
 37  14  41  1   
 38  15  18  1   
 39  15  42  1   
 40  15  43  1   
 41  16  19  ar  
 42  16  44  1   
 43  17  19  ar  
 44  17  45  1   
 45  18  20  1   
 46  18  46  1   
 47  20  21  1   
 48  20  22  1   
 49  20  47  1   
 50  21  48  1   
 51  21  49  1   
 52  21  50  1   
 53  22  51  1   
 54  22  52  1   
 55  22  53  1   
@<TRIPOS>SUBSTRUCTURE
  1 ****   6 GROUP 4 **** **** 0

# MOE 2024.06 (io_trps.svl 2023.06)
