@<TRIPOS>MOLECULE
NONAME
42 44 1 0 0 
SMALL
USER_CHARGES


@<TRIPOS>ATOM
  1 N        0.3950    -5.8010     0.7810 N.2   1 <1>   0.0000 
  2 N       -0.4860    -5.3490    -0.0370 N.2   1 <1>  -0.4180 
  3 N        0.4000    -5.0910     1.9040 N.2   1 <1>  -0.3380 
  4 N       -1.0600    -4.3290     0.5610 N.pl3 1 <1>   0.3140 
  5 C       -0.4940    -4.1940     1.7440 C.2   1 <1>   0.0360 
  6 C       -2.1760    -3.5620    -0.0340 C.3   1 <1>   0.0960 
  7 C       -3.4870    -4.3730    -0.0170 C.3   1 <1>  -0.1600 
  8 C       -3.4410    -5.5870    -0.9580 C.3   1 <1>   0.3430 
  9 N       -4.4430    -6.5940    -0.5370 N.4   1 <1>  -0.9590 
 10 C       -4.1380    -7.9240    -1.1280 C.3   1 <1>   0.4860 
 11 C       -5.8680    -6.1810    -0.7250 C.3   1 <1>   0.2630 
 12 C       -4.9670    -8.9860    -0.4190 C.ar  1 <1>  -0.1430 
 13 C       -4.6390    -9.4390     0.8660 C.ar  1 <1>  -0.0230 
 14 C       -6.0700    -9.5130    -1.0760 C.ar  1 <1>  -0.1500 
 15 N       -3.5060    -8.9550     1.5830 N.pl3 1 <1>   0.5930 
 16 C       -5.4470   -10.4030     1.4620 C.ar  1 <1>  -0.1500 
 17 C       -6.8580   -10.4730    -0.4680 C.ar  1 <1>  -0.1500 
 18 N       -3.2780    -7.6320     1.8200 N.2   1 <1>  -0.7070 
 19 C       -2.4770    -9.6920     2.0590 C.2   1 <1>  -0.3020 
 20 C       -6.5470   -10.9160     0.8030 C.ar  1 <1>  -0.1500 
 21 C       -2.1350    -7.5880     2.4380 C.2   1 <1>   0.1390 
 22 C       -1.5830    -8.8500     2.6130 C.2   1 <1>  -0.1500 
 23 H       -0.7590    -3.4390     2.4610 H     1 <1>   0.1500 
 24 H       -1.9080    -3.2940    -1.0410 H     1 <1>   0.0800 
 25 H       -2.3020    -2.6550     0.5320 H     1 <1>   0.0800 
 26 H       -4.2920    -3.7290    -0.3200 H     1 <1>   0.0800 
 27 H       -3.6710    -4.6920     0.9950 H     1 <1>   0.0800 
 28 H       -2.4670    -6.0440    -0.9080 H     1 <1>   0.0800 
 29 H       -3.6140    -5.2810    -1.9770 H     1 <1>   0.0800 
 30 H       -4.2750    -6.7540     0.4810 H     1 <1>   0.4500 
 31 H       -3.0910    -8.1500    -0.9980 H     1 <1>   0.0800 
 32 H       -4.3590    -7.9240    -2.1830 H     1 <1>   0.0800 
 33 H       -6.0850    -6.0420    -1.7710 H     1 <1>   0.0800 
 34 H       -6.0630    -5.2580    -0.2030 H     1 <1>   0.0800 
 35 H       -6.5290    -6.9370    -0.3310 H     1 <1>   0.0800 
 36 H       -6.3310    -9.1890    -2.0690 H     1 <1>   0.1500 
 37 H       -5.2170   -10.7600     2.4530 H     1 <1>   0.1500 
 38 H       -7.7140   -10.8790    -0.9820 H     1 <1>   0.1500 
 39 H       -2.4460   -10.7630     1.9720 H     1 <1>   0.1500 
 40 H       -7.1630   -11.6630     1.2780 H     1 <1>   0.1500 
 41 H       -1.6600    -6.6820     2.7780 H     1 <1>   0.1500 
 42 H       -0.6420    -9.0660     3.0900 H     1 <1>   0.1500 
@<TRIPOS>BOND
  1   1   2  2   
  2   1   3  1   
  3   2   4  1   
  4   3   5  2   
  5   4   5  1   
  6   4   6  1   
  7   5  23  1   
  8   6   7  1   
  9   6  24  1   
 10   6  25  1   
 11   7   8  1   
 12   7  26  1   
 13   7  27  1   
 14   8   9  1   
 15   8  28  1   
 16   8  29  1   
 17   9  10  1   
 18   9  11  1   
 19   9  30  1   
 20  10  12  1   
 21  10  31  1   
 22  10  32  1   
 23  11  33  1   
 24  11  34  1   
 25  11  35  1   
 26  12  13  ar  
 27  12  14  ar  
 28  13  15  1   
 29  13  16  ar  
 30  14  17  ar  
 31  14  36  1   
 32  15  18  1   
 33  15  19  1   
 34  16  20  ar  
 35  16  37  1   
 36  17  20  ar  
 37  17  38  1   
 38  18  21  2   
 39  19  22  2   
 40  19  39  1   
 41  20  40  1   
 42  21  22  1   
 43  21  41  1   
 44  22  42  1   
@<TRIPOS>SUBSTRUCTURE
  1 ****  18 GROUP 4 **** **** 0

# MOE 2024.06 (io_trps.svl 2023.06)
