@<TRIPOS>MOLECULE
NONAME
47 49 1 0 0 
SMALL
USER_CHARGES


@<TRIPOS>ATOM
  1 CL       0.7680     1.9780    -1.0230 Cl    1 <1>  -0.1770 
  2 C        1.1530     3.2390     0.1270 C.ar  1 <1>   0.1770 
  3 C        2.4260     3.3600     0.6740 C.ar  1 <1>  -0.1440 
  4 C        0.1330     4.1080     0.4720 C.ar  1 <1>  -0.1500 
  5 C        2.6500     4.3850     1.5850 C.ar  1 <1>  -0.1500 
  6 C        3.5840     2.4270     0.3330 C.3   1 <1>   0.3640 
  7 C        0.3740     5.1200     1.3840 C.ar  1 <1>  -0.1500 
  8 C        1.6330     5.2550     1.9400 C.ar  1 <1>  -0.1500 
  9 N        3.2450     1.0440     0.7390 N.am  1 <1>  -0.7300 
 10 C        4.0440     2.4980    -1.1460 C.3   1 <1>   0.2610 
 11 C        3.6090    -0.0440     0.0230 C.2   1 <1>   0.5690 
 12 O        4.9360     1.4310    -1.4260 O.3   1 <1>  -0.5600 
 13 C        4.7030     3.8510    -1.4010 C.2   1 <1>   0.5690 
 14 O        3.3520    -1.1540     0.4160 O.2   1 <1>  -0.5700 
 15 C        4.3450     0.1520    -1.3080 C.3   1 <1>   0.1810 
 16 O        4.0920     4.7050    -1.9990 O.2   1 <1>  -0.5700 
 17 N        5.9460     4.0850    -0.9110 N.am  1 <1>  -0.7300 
 18 C        6.5250     5.4290    -0.7360 C.3   1 <1>   0.3200 
 19 C        5.9310     6.0660     0.5140 C.2   1 <1>   0.0060 
 20 N        6.3230     5.7440     1.7080 N.2   1 <1>  -0.5650 
 21 N        4.9510     7.0110     0.4950 N.pl3 1 <1>   0.0480 
 22 C        5.5840     6.5260     2.5140 C.2   1 <1>   0.0770 
 23 C        4.7460     7.3010     1.7960 C.2   1 <1>  -0.3020 
 24 C        4.2590     7.6420    -0.6670 C.3   1 <1>   0.1760 
 25 C        4.6520     9.1200    -0.7690 C.3   1 <1>  -0.2400 
 26 C        2.7390     7.4880    -0.5510 C.3   1 <1>  -0.2400 
 27 H       -0.8400     3.9880     0.0310 H     1 <1>   0.1500 
 28 H        3.6240     4.5190     2.0290 H     1 <1>   0.1500 
 29 H        4.4270     2.7240     0.9340 H     1 <1>   0.0800 
 30 H       -0.4150     5.7990     1.6590 H     1 <1>   0.1500 
 31 H        1.8280     6.0420     2.6490 H     1 <1>   0.1500 
 32 H        2.7340     0.9130     1.6130 H     1 <1>   0.3700 
 33 H        3.2070     2.4090    -1.8120 H     1 <1>   0.0800 
 34 H        3.6540     0.0200    -2.1210 H     1 <1>   0.0800 
 35 H        5.1270    -0.5810    -1.3940 H     1 <1>   0.0800 
 36 H        6.4320     3.3420    -0.4050 H     1 <1>   0.3700 
 37 H        7.5900     5.3400    -0.6120 H     1 <1>   0.0800 
 38 H        6.3410     6.0260    -1.6100 H     1 <1>   0.0800 
 39 H        5.6980     6.4910     3.5850 H     1 <1>   0.1500 
 40 H        4.0330     8.0310     2.1330 H     1 <1>   0.1500 
 41 H        4.5700     7.1470    -1.5680 H     1 <1>   0.0800 
 42 H        4.3250     9.6610     0.1020 H     1 <1>   0.0800 
 43 H        4.1950     9.5620    -1.6360 H     1 <1>   0.0800 
 44 H        5.7190     9.2130    -0.8630 H     1 <1>   0.0800 
 45 H        2.3650     7.9670     0.3360 H     1 <1>   0.0800 
 46 H        2.4800     6.4450    -0.5300 H     1 <1>   0.0800 
 47 H        2.2600     7.9290    -1.4060 H     1 <1>   0.0800 
@<TRIPOS>BOND
  1   1   2  1   
  2   2   3  ar  
  3   2   4  ar  
  4   3   5  ar  
  5   3   6  1   
  6   4   7  ar  
  7   4  27  1   
  8   5   8  ar  
  9   5  28  1   
 10   6   9  1   
 11   6  10  1   
 12   6  29  1   
 13   7   8  ar  
 14   7  30  1   
 15   8  31  1   
 16   9  11  am  
 17   9  32  1   
 18  10  12  1   
 19  10  13  1   
 20  10  33  1   
 21  11  14  2   
 22  11  15  1   
 23  12  15  1   
 24  13  16  2   
 25  13  17  am  
 26  15  34  1   
 27  15  35  1   
 28  17  18  1   
 29  17  36  1   
 30  18  19  1   
 31  18  37  1   
 32  18  38  1   
 33  19  20  2   
 34  19  21  1   
 35  20  22  1   
 36  21  23  1   
 37  21  24  1   
 38  22  23  2   
 39  22  39  1   
 40  23  40  1   
 41  24  25  1   
 42  24  26  1   
 43  24  41  1   
 44  25  42  1   
 45  25  43  1   
 46  25  44  1   
 47  26  45  1   
 48  26  46  1   
 49  26  47  1   
@<TRIPOS>SUBSTRUCTURE
  1 ****   3 GROUP 4 **** **** 0

# MOE 2024.06 (io_trps.svl 2023.06)
