@<TRIPOS>MOLECULE
NONAME
44 45 1 0 0 
SMALL
USER_CHARGES


@<TRIPOS>ATOM
  1 S        0.4730    -0.0680    -0.2440 S.o2  1 <1>   1.3330 
  2 O        0.5110    -0.1180    -1.6890 O.2   1 <1>  -0.6500 
  3 O        1.7090    -0.0280     0.5050 O.2   1 <1>  -0.6500 
  4 N       -0.4280    -1.3950     0.3100 N.am  1 <1>  -0.8490 
  5 C       -0.5420     1.3310     0.2220 C.3   1 <1>  -0.0550 
  6 C       -0.1570    -2.6100    -0.4650 C.3   1 <1>   0.1160 
  7 C       -0.2460    -1.6670     1.7400 C.3   1 <1>   0.1160 
  8 C        0.0060     2.6770    -0.2920 C.3   1 <1>  -0.0800 
  9 C       -0.9000     3.8760    -0.0080 C.3   1 <1>   0.2000 
 10 C        1.3630     3.0770     0.3040 C.3   1 <1>   0.1400 
 11 O       -1.3330     3.8140     1.3090 O.3   1 <1>  -0.6800 
 12 C        0.0370     5.0720    -0.1390 C.3   1 <1>   0.1400 
 13 N        1.3480     4.5640     0.3420 N.am  1 <1>  -0.6600 
 14 C        2.5040     5.3140     0.3400 C.2   1 <1>   0.5440 
 15 O        3.5730     4.7330     0.4050 O.2   1 <1>  -0.5700 
 16 C        2.4640     6.7550     0.2470 C.ar  1 <1>   0.0860 
 17 C        3.0800     7.4250    -0.8230 C.ar  1 <1>   0.1000 
 18 C        1.8070     7.5120     1.2180 C.ar  1 <1>  -0.1500 
 19 N        3.7750     6.7300    -1.7990 N.pl3 1 <1>  -0.9000 
 20 C        3.0000     8.8110    -0.9100 C.ar  1 <1>  -0.1500 
 21 C        1.7440     8.8870     1.1180 C.ar  1 <1>   0.0820 
 22 C        2.3360     9.5420     0.0520 C.ar  1 <1>  -0.1500 
 23 O        1.1070     9.6120     2.0550 O.3   1 <1>  -0.5330 
 24 H       -1.5260     1.1880    -0.1810 H     1 <1>   0.0800 
 25 H       -0.6310     1.3610     1.2900 H     1 <1>   0.0800 
 26 H       -0.7560    -3.4260    -0.1000 H     1 <1>   0.0800 
 27 H        0.8850    -2.8740    -0.3950 H     1 <1>   0.0800 
 28 H       -0.4050    -2.4490    -1.5010 H     1 <1>   0.0800 
 29 H       -0.9030    -2.4610     2.0520 H     1 <1>   0.0800 
 30 H       -0.4790    -0.7890     2.3190 H     1 <1>   0.0800 
 31 H        0.7730    -1.9550     1.9430 H     1 <1>   0.0800 
 32 H        0.1320     2.6070    -1.3600 H     1 <1>   0.0800 
 33 H       -1.7600     3.9330    -0.6540 H     1 <1>   0.0800 
 34 H        2.1790     2.7140    -0.3000 H     1 <1>   0.0800 
 35 H        1.4770     2.7030     1.3070 H     1 <1>   0.0800 
 36 H       -0.5570     3.9380     1.8930 H     1 <1>   0.4000 
 37 H       -0.3110     5.9120     0.4360 H     1 <1>   0.0800 
 38 H        0.1310     5.3570    -1.1740 H     1 <1>   0.0800 
 39 H        1.3510     7.0050     2.0480 H     1 <1>   0.1500 
 40 H        4.0750     5.7820    -1.5140 H     1 <1>   0.4000 
 41 H        4.5280     7.2260    -2.2830 H     1 <1>   0.4000 
 42 H        3.4630     9.3140    -1.7400 H     1 <1>   0.1500 
 43 H        2.2720    10.6140    -0.0120 H     1 <1>   0.1500 
 44 H        0.7650     9.0710     2.7890 H     1 <1>   0.4500 
@<TRIPOS>BOND
  1   1   2  2   
  2   1   3  2   
  3   1   4  am  
  4   1   5  1   
  5   4   6  1   
  6   4   7  1   
  7   5   8  1   
  8   5  24  1   
  9   5  25  1   
 10   6  26  1   
 11   6  27  1   
 12   6  28  1   
 13   7  29  1   
 14   7  30  1   
 15   7  31  1   
 16   8   9  1   
 17   8  10  1   
 18   8  32  1   
 19   9  11  1   
 20   9  12  1   
 21   9  33  1   
 22  10  13  1   
 23  10  34  1   
 24  10  35  1   
 25  11  36  1   
 26  12  13  1   
 27  12  37  1   
 28  12  38  1   
 29  13  14  am  
 30  14  15  2   
 31  14  16  1   
 32  16  17  ar  
 33  16  18  ar  
 34  17  19  1   
 35  17  20  ar  
 36  18  21  ar  
 37  18  39  1   
 38  19  40  1   
 39  19  41  1   
 40  20  22  ar  
 41  20  42  1   
 42  21  22  ar  
 43  21  23  1   
 44  22  43  1   
 45  23  44  1   
@<TRIPOS>SUBSTRUCTURE
  1 ****  13 GROUP 4 **** **** 0

# MOE 2024.06 (io_trps.svl 2023.06)
