@<TRIPOS>MOLECULE
NONAME
52 54 1 0 0 
SMALL
USER_CHARGES


@<TRIPOS>ATOM
  1 S       -0.6040    -0.1080    -0.3230 S.3   1 <1>  -0.3310 
  2 C       -0.4360    -1.7870     0.1970 C.ar  1 <1>   0.7720 
  3 C        1.0260     0.6640     0.0910 C.3   1 <1>   0.2140 
  4 N       -1.5210    -2.5480    -0.0260 N.ar  1 <1>  -0.1790 
  5 N        0.6670    -2.1830     0.7380 N.ar  1 <1>  -0.6200 
  6 C        0.9660     2.1230    -0.3340 C.ar  1 <1>  -0.1430 
  7 C       -1.5310    -3.8440     0.3170 C.ar  1 <1>   0.4610 
  8 C        0.7020    -3.4720     1.0980 C.ar  1 <1>   0.4100 
  9 C        0.5300     3.1300     0.5240 C.ar  1 <1>  -0.1440 
 10 C        1.3620     2.4480    -1.6240 C.ar  1 <1>  -0.1500 
 11 N       -2.6450    -4.5890     0.0710 N.pl3 1 <1>  -0.8380 
 12 C       -0.3710    -4.3200     0.9040 C.ar  1 <1>  -0.1500 
 13 N        1.8500    -3.8640     1.6570 N.pl3 1 <1>  -0.9000 
 14 C        0.5010     4.4420     0.0740 C.ar  1 <1>  -0.1500 
 15 C        0.0800     2.8380     1.9490 C.3   1 <1>  -0.0970 
 16 C        1.3290     3.7590    -2.0640 C.ar  1 <1>  -0.1500 
 17 C       -2.7020    -6.0700     0.2600 C.3   1 <1>   0.2090 
 18 C       -3.9550    -4.1060    -0.4590 C.3   1 <1>   0.2090 
 19 C        0.8970     4.7570    -1.2120 C.ar  1 <1>  -0.1500 
 20 C       -3.9890    -6.5120    -0.4290 C.3   1 <1>  -0.0800 
 21 C       -4.8990    -5.2910    -0.3290 C.3   1 <1>  -0.1600 
 22 C       -4.6090    -7.7910     0.1660 C.3   1 <1>  -0.0990 
 23 C       -5.8790    -8.1980    -0.5570 C.2   1 <1>   0.5690 
 24 O       -5.8680    -8.2500    -1.7610 O.2   1 <1>  -0.5700 
 25 N       -6.9870    -8.4830     0.1750 N.am  1 <1>  -0.7300 
 26 C       -8.2960    -8.8960    -0.3930 C.3   1 <1>   0.0600 
 27 H        1.7860     0.1290    -0.4510 H     1 <1>   0.0800 
 28 H        1.1900     0.5510     1.1470 H     1 <1>   0.0800 
 29 H       -2.3270    -2.1280    -0.4690 H     1 <1>   0.4570 
 30 H        1.6990     1.6820    -2.3000 H     1 <1>   0.1500 
 31 H       -0.2930    -5.3430     1.2130 H     1 <1>   0.1500 
 32 H        2.0530    -4.8090     1.9950 H     1 <1>   0.4000 
 33 H        2.6210    -3.2000     1.7820 H     1 <1>   0.4000 
 34 H        0.1680     5.2330     0.7240 H     1 <1>   0.1500 
 35 H       -0.6960     2.0950     1.9490 H     1 <1>   0.0800 
 36 H       -0.3080     3.7240     2.4180 H     1 <1>   0.0800 
 37 H        0.9110     2.4860     2.5330 H     1 <1>   0.0800 
 38 H        1.6370     4.0020    -3.0660 H     1 <1>   0.1500 
 39 H       -2.7460    -6.2920     1.3130 H     1 <1>   0.0800 
 40 H       -1.8490    -6.5580    -0.1810 H     1 <1>   0.0800 
 41 H       -3.8500    -3.8450    -1.5000 H     1 <1>   0.0800 
 42 H       -4.3270    -3.2640     0.1010 H     1 <1>   0.0800 
 43 H        0.8700     5.7790    -1.5490 H     1 <1>   0.1500 
 44 H       -3.7610    -6.6880    -1.4680 H     1 <1>   0.0800 
 45 H       -5.6540    -5.2850    -1.0970 H     1 <1>   0.0800 
 46 H       -5.3800    -5.2550     0.6330 H     1 <1>   0.0800 
 47 H       -4.8190    -7.6470     1.2100 H     1 <1>   0.0800 
 48 H       -3.9100    -8.6030     0.0750 H     1 <1>   0.0800 
 49 H       -6.9430    -8.4480     1.1950 H     1 <1>   0.3700 
 50 H       -8.2510    -8.9120    -1.4690 H     1 <1>   0.0800 
 51 H       -9.0610    -8.2030    -0.0890 H     1 <1>   0.0800 
 52 H       -8.5500    -9.8820    -0.0440 H     1 <1>   0.0800 
@<TRIPOS>BOND
  1   1   2  1   
  2   1   3  1   
  3   2   4  ar  
  4   2   5  ar  
  5   3   6  1   
  6   3  27  1   
  7   3  28  1   
  8   4   7  ar  
  9   4  29  1   
 10   5   8  ar  
 11   6   9  ar  
 12   6  10  ar  
 13   7  11  1   
 14   7  12  ar  
 15   8  12  ar  
 16   8  13  1   
 17   9  14  ar  
 18   9  15  1   
 19  10  16  ar  
 20  10  30  1   
 21  11  17  1   
 22  11  18  1   
 23  12  31  1   
 24  13  32  1   
 25  13  33  1   
 26  14  19  ar  
 27  14  34  1   
 28  15  35  1   
 29  15  36  1   
 30  15  37  1   
 31  16  19  ar  
 32  16  38  1   
 33  17  20  1   
 34  17  39  1   
 35  17  40  1   
 36  18  21  1   
 37  18  41  1   
 38  18  42  1   
 39  19  43  1   
 40  20  21  1   
 41  20  22  1   
 42  20  44  1   
 43  21  45  1   
 44  21  46  1   
 45  22  23  1   
 46  22  47  1   
 47  22  48  1   
 48  23  24  2   
 49  23  25  am  
 50  25  26  1   
 51  25  49  1   
 52  26  50  1   
 53  26  51  1   
 54  26  52  1   
@<TRIPOS>SUBSTRUCTURE
  1 ****   4 GROUP 4 **** **** 0

# MOE 2024.06 (io_trps.svl 2023.06)
