@<TRIPOS>MOLECULE
NONAME
44 46 1 0 0 
SMALL
USER_CHARGES


@<TRIPOS>ATOM
  1 O        0.2820     0.9260     1.4070 O.2   1 <1>  -0.5700 
  2 C        0.0030     1.6490     0.4700 C.2   1 <1>   0.5440 
  3 N       -1.3050     1.7160     0.0870 N.am  1 <1>  -0.7300 
  4 C        1.0310     2.3870    -0.2440 C.ar  1 <1>   0.0860 
  5 C       -2.4480     1.0800     0.7920 C.3   1 <1>   0.2200 
  6 C        0.7500     3.5740    -0.9260 C.ar  1 <1>  -0.1500 
  7 C        2.3490     1.9300    -0.2760 C.ar  1 <1>  -0.1500 
  8 C       -2.5660    -0.4210     0.4440 C.3   1 <1>   0.2000 
  9 C       -3.7220     1.8470     0.4220 C.3   1 <1>  -0.1600 
 10 C        1.7330     4.2610    -1.6150 C.ar  1 <1>  -0.1500 
 11 C        3.3370     2.6120    -0.9620 C.ar  1 <1>  -0.1500 
 12 O       -1.4820    -1.1110     0.9690 O.3   1 <1>  -0.6800 
 13 C       -3.8480    -1.0480     1.0080 C.3   1 <1>   0.1400 
 14 C       -4.9530     1.2040     1.0630 C.3   1 <1>   0.1400 
 15 C        3.0290     3.7800    -1.6360 C.ar  1 <1>  -0.1500 
 16 N       -5.0400    -0.2200     0.6450 N.am  1 <1>  -0.6600 
 17 C       -5.9950    -0.6420    -0.2580 C.2   1 <1>   0.7160 
 18 O       -6.5220     0.1890    -0.9750 O.2   1 <1>  -0.5700 
 19 C       -6.3710    -2.0290    -0.3810 C.2   1 <1>  -0.0860 
 20 C       -6.4130    -2.9800     0.6420 C.2   1 <1>   0.1390 
 21 C       -6.7900    -2.7350    -1.4680 C.2   1 <1>  -0.3020 
 22 N       -6.7970    -4.1480     0.2350 N.2   1 <1>  -0.7070 
 23 N       -7.0340    -3.9930    -1.0760 N.pl3 1 <1>   0.3140 
 24 C       -7.5080    -5.1060    -1.9040 C.3   1 <1>   0.0160 
 25 H       -1.5330     2.1500    -0.8080 H     1 <1>   0.3700 
 26 H       -2.2980     1.1680     1.8560 H     1 <1>   0.0800 
 27 H       -0.2480     3.9730    -0.9110 H     1 <1>   0.1500 
 28 H        2.5990     1.0230     0.2490 H     1 <1>   0.1500 
 29 H       -2.5500    -0.5490    -0.6240 H     1 <1>   0.0800 
 30 H       -3.6420     2.8630     0.7640 H     1 <1>   0.0800 
 31 H       -3.8600     1.8530    -0.6450 H     1 <1>   0.0800 
 32 H        1.4940     5.1740    -2.1340 H     1 <1>   0.1500 
 33 H        4.3460     2.2350    -0.9710 H     1 <1>   0.1500 
 34 H       -0.7300    -0.4750     1.1070 H     1 <1>   0.4000 
 35 H       -3.7780    -1.1060     2.0800 H     1 <1>   0.0800 
 36 H       -3.9380    -2.0440     0.6130 H     1 <1>   0.0800 
 37 H       -5.8410     1.7390     0.7680 H     1 <1>   0.0800 
 38 H       -4.8800     1.2520     2.1370 H     1 <1>   0.0800 
 39 H        3.7970     4.3130    -2.1710 H     1 <1>   0.1500 
 40 H       -6.1570    -2.7690     1.6670 H     1 <1>   0.1500 
 41 H       -6.9210    -2.3860    -2.4750 H     1 <1>   0.1500 
 42 H       -7.6380    -4.7750    -2.9170 H     1 <1>   0.0800 
 43 H       -8.4450    -5.4560    -1.5100 H     1 <1>   0.0800 
 44 H       -6.7850    -5.8990    -1.8670 H     1 <1>   0.0800 
@<TRIPOS>BOND
  1   1   2  2   
  2   2   3  am  
  3   2   4  1   
  4   3   5  1   
  5   3  25  1   
  6   4   6  ar  
  7   4   7  ar  
  8   5   8  1   
  9   5   9  1   
 10   5  26  1   
 11   6  10  ar  
 12   6  27  1   
 13   7  11  ar  
 14   7  28  1   
 15   8  12  1   
 16   8  13  1   
 17   8  29  1   
 18   9  14  1   
 19   9  30  1   
 20   9  31  1   
 21  10  15  ar  
 22  10  32  1   
 23  11  15  ar  
 24  11  33  1   
 25  12  34  1   
 26  13  16  1   
 27  13  35  1   
 28  13  36  1   
 29  14  16  1   
 30  14  37  1   
 31  14  38  1   
 32  15  39  1   
 33  16  17  am  
 34  17  18  2   
 35  17  19  1   
 36  19  20  1   
 37  19  21  2   
 38  20  22  2   
 39  20  40  1   
 40  21  23  1   
 41  21  41  1   
 42  22  23  1   
 43  23  24  1   
 44  24  42  1   
 45  24  43  1   
 46  24  44  1   
@<TRIPOS>SUBSTRUCTURE
  1 ****   8 GROUP 4 **** **** 0

# MOE 2024.06 (io_trps.svl 2023.06)
