@<TRIPOS>MOLECULE
NONAME
47 50 1 0 0 
SMALL
USER_CHARGES


@<TRIPOS>ATOM
  1 CL      -1.5050     0.4200     0.1170 Cl    1 <1>  -0.1770 
  2 C       -2.2830    -1.1400     0.1840 C.ar  1 <1>   0.1770 
  3 C       -3.6570    -1.2100     0.3090 C.ar  1 <1>  -0.1500 
  4 C       -1.5150    -2.2860     0.1080 C.ar  1 <1>  -0.1500 
  5 C       -4.2700    -2.4490     0.3610 C.ar  1 <1>  -0.1500 
  6 C       -2.1380    -3.5210     0.1630 C.ar  1 <1>  -0.1500 
  7 C       -3.5220    -3.6250     0.2940 C.ar  1 <1>   0.0530 
  8 C       -4.1500    -4.9190     0.3530 C.2   1 <1>  -0.2050 
  9 N       -5.1800    -5.2340     1.1680 N.pl3 1 <1>   0.3000 
 10 C       -3.8880    -6.0590    -0.3290 C.2   1 <1>  -0.1500 
 11 N       -5.5950    -6.4990     1.0230 N.2   1 <1>  -0.7070 
 12 C       -4.8050    -7.0240     0.0980 C.2   1 <1>   0.2030 
 13 C       -4.8140    -8.3840    -0.4470 C.2   1 <1>   0.7160 
 14 O       -3.7400    -8.8700    -0.7690 O.2   1 <1>  -0.5700 
 15 N       -5.9480    -9.1680    -0.6590 N.am  1 <1>  -0.6600 
 16 C       -7.3470    -8.6910    -0.8780 C.3   1 <1>   0.2200 
 17 C       -5.8060   -10.6470    -0.8100 C.3   1 <1>   0.0600 
 18 C       -8.0860    -8.4810     0.4390 C.3   1 <1>  -0.1600 
 19 C       -7.4770    -7.4080    -1.7030 C.3   1 <1>  -0.1600 
 20 C       -9.0530    -7.3090     0.2210 C.3   1 <1>  -0.0800 
 21 C       -8.6610    -6.6290    -1.1140 C.3   1 <1>  -0.0800 
 22 C       -9.1130    -6.3780     1.4490 C.3   1 <1>   0.1400 
 23 C       -8.3690    -5.1170    -1.0030 C.3   1 <1>  -0.0990 
 24 N       -9.6820    -5.0710     1.0650 N.am  1 <1>  -0.7300 
 25 C       -9.3430    -4.4300    -0.0720 C.2   1 <1>   0.5690 
 26 O       -9.7760    -3.3370    -0.3310 O.2   1 <1>  -0.5700 
 27 H       -4.2340    -0.3030     0.3600 H     1 <1>   0.1500 
 28 H       -0.4470    -2.2090     0.0090 H     1 <1>   0.1500 
 29 H       -5.3410    -2.5000     0.4440 H     1 <1>   0.1500 
 30 H       -1.5470    -4.4190     0.1070 H     1 <1>   0.1500 
 31 H       -5.6040    -4.5860     1.8430 H     1 <1>   0.2700 
 32 H       -3.1280    -6.2280    -1.0720 H     1 <1>   0.1500 
 33 H       -7.8850    -9.4500    -1.4220 H     1 <1>   0.0800 
 34 H       -6.5960   -11.1480    -0.2790 H     1 <1>   0.0800 
 35 H       -4.8650   -10.9830    -0.4100 H     1 <1>   0.0800 
 36 H       -5.8530   -10.9100    -1.8530 H     1 <1>   0.0800 
 37 H       -8.6250    -9.3710     0.7110 H     1 <1>   0.0800 
 38 H       -7.3880    -8.2640     1.2260 H     1 <1>   0.0800 
 39 H       -6.5880    -6.8130    -1.6730 H     1 <1>   0.0800 
 40 H       -7.6690    -7.6530    -2.7320 H     1 <1>   0.0800 
 41 H      -10.0390    -7.7210     0.0900 H     1 <1>   0.0800 
 42 H       -9.5010    -6.7420    -1.7790 H     1 <1>   0.0800 
 43 H       -8.1230    -6.2150     1.8400 H     1 <1>   0.0800 
 44 H       -9.7130    -6.8280     2.2220 H     1 <1>   0.0800 
 45 H       -8.4180    -4.6600    -1.9740 H     1 <1>   0.0800 
 46 H       -7.3850    -4.9550    -0.6080 H     1 <1>   0.0800 
 47 H      -10.3210    -4.5990     1.7070 H     1 <1>   0.3700 
@<TRIPOS>BOND
  1   1   2  1   
  2   2   3  ar  
  3   2   4  ar  
  4   3   5  ar  
  5   3  27  1   
  6   4   6  ar  
  7   4  28  1   
  8   5   7  ar  
  9   5  29  1   
 10   6   7  ar  
 11   6  30  1   
 12   7   8  1   
 13   8   9  1   
 14   8  10  2   
 15   9  11  1   
 16   9  31  1   
 17  10  12  1   
 18  10  32  1   
 19  11  12  2   
 20  12  13  1   
 21  13  14  2   
 22  13  15  am  
 23  15  16  1   
 24  15  17  1   
 25  16  18  1   
 26  16  19  1   
 27  16  33  1   
 28  17  34  1   
 29  17  35  1   
 30  17  36  1   
 31  18  20  1   
 32  18  37  1   
 33  18  38  1   
 34  19  21  1   
 35  19  39  1   
 36  19  40  1   
 37  20  21  1   
 38  20  22  1   
 39  20  41  1   
 40  21  23  1   
 41  21  42  1   
 42  22  24  1   
 43  22  43  1   
 44  22  44  1   
 45  23  25  1   
 46  23  45  1   
 47  23  46  1   
 48  24  25  am  
 49  24  47  1   
 50  25  26  2   
@<TRIPOS>SUBSTRUCTURE
  1 ****   9 GROUP 4 **** **** 0

# MOE 2024.06 (io_trps.svl 2023.06)
