@<TRIPOS>MOLECULE
NONAME
38 39 1 0 0 
SMALL
USER_CHARGES


@<TRIPOS>ATOM
  1 CL      -0.2500    -0.3950     0.4790 Cl    1 <1>  -0.1770 
  2 C       -1.7890    -1.2240     0.4320 C.ar  1 <1>   0.1770 
  3 C       -2.8780    -0.6400    -0.1890 C.ar  1 <1>   0.1600 
  4 C       -1.9130    -2.4640     1.0190 C.ar  1 <1>  -0.1500 
  5 N       -4.0790    -1.1960    -0.2730 N.ar  1 <1>  -0.6200 
  6 C       -3.1580    -3.0480     0.9380 C.ar  1 <1>  -0.1500 
  7 C       -4.2090    -2.3970     0.2870 C.ar  1 <1>   0.4100 
  8 N       -5.4570    -2.9990     0.2150 N.pl3 1 <1>  -0.8380 
  9 C       -6.6050    -2.2720    -0.4020 C.3   1 <1>   0.2090 
 10 C       -5.5680    -4.4430    -0.1350 C.3   1 <1>   0.2090 
 11 C       -7.6720    -3.3460    -0.5890 C.3   1 <1>   0.2000 
 12 C       -6.8530    -4.5800    -0.9630 C.3   1 <1>  -0.0800 
 13 O       -8.2800    -3.5650     0.6380 O.3   1 <1>  -0.6800 
 14 C       -7.6070    -5.9160    -0.7780 C.3   1 <1>  -0.0550 
 15 S       -6.6980    -7.3600    -1.3320 S.o2  1 <1>   1.3330 
 16 O       -6.0860    -7.0370    -2.6010 O.2   1 <1>  -0.6500 
 17 O       -7.5410    -8.5280    -1.2180 O.2   1 <1>  -0.6500 
 18 N       -5.4540    -7.5220    -0.1850 N.am  1 <1>  -0.8490 
 19 C       -4.2920    -8.2290    -0.7340 C.3   1 <1>   0.1160 
 20 C       -5.8910    -8.1840     1.0510 C.3   1 <1>   0.1160 
 21 H       -2.7500     0.3300    -0.6360 H     1 <1>   0.1500 
 22 H       -1.0810    -2.9350     1.5110 H     1 <1>   0.1500 
 23 H       -3.3330    -4.0080     1.3830 H     1 <1>   0.1500 
 24 H       -6.9450    -1.4660     0.2260 H     1 <1>   0.0800 
 25 H       -6.3120    -1.8800    -1.3610 H     1 <1>   0.0800 
 26 H       -4.7110    -4.7760    -0.6970 H     1 <1>   0.0800 
 27 H       -5.6410    -5.0120     0.7760 H     1 <1>   0.0800 
 28 H       -8.4240    -3.0840    -1.3130 H     1 <1>   0.0800 
 29 H       -6.5770    -4.4850    -1.9990 H     1 <1>   0.0800 
 30 H       -7.5870    -3.4680     1.3260 H     1 <1>   0.4000 
 31 H       -8.5190    -5.8590    -1.3390 H     1 <1>   0.0800 
 32 H       -7.8790    -6.0420     0.2520 H     1 <1>   0.0800 
 33 H       -3.5180    -8.3120     0.0080 H     1 <1>   0.0800 
 34 H       -3.8940    -7.6870    -1.5760 H     1 <1>   0.0800 
 35 H       -4.5760    -9.2150    -1.0630 H     1 <1>   0.0800 
 36 H       -5.0920    -8.1870     1.7720 H     1 <1>   0.0800 
 37 H       -6.1850    -9.2010     0.8500 H     1 <1>   0.0800 
 38 H       -6.7300    -7.6620     1.4780 H     1 <1>   0.0800 
@<TRIPOS>BOND
  1   1   2  1   
  2   2   3  ar  
  3   2   4  ar  
  4   3   5  ar  
  5   3  21  1   
  6   4   6  ar  
  7   4  22  1   
  8   5   7  ar  
  9   6   7  ar  
 10   6  23  1   
 11   7   8  1   
 12   8   9  1   
 13   8  10  1   
 14   9  11  1   
 15   9  24  1   
 16   9  25  1   
 17  10  12  1   
 18  10  26  1   
 19  10  27  1   
 20  11  12  1   
 21  11  13  1   
 22  11  28  1   
 23  12  14  1   
 24  12  29  1   
 25  13  30  1   
 26  14  15  1   
 27  14  31  1   
 28  14  32  1   
 29  15  16  2   
 30  15  17  2   
 31  15  18  am  
 32  18  19  1   
 33  18  20  1   
 34  19  33  1   
 35  19  34  1   
 36  19  35  1   
 37  20  36  1   
 38  20  37  1   
 39  20  38  1   
@<TRIPOS>SUBSTRUCTURE
  1 ****  10 GROUP 4 **** **** 0

# MOE 2024.06 (io_trps.svl 2023.06)
