@<TRIPOS>MOLECULE
NONAME
46 49 1 0 0 
SMALL
USER_CHARGES


@<TRIPOS>ATOM
  1 F        1.0190     0.3230     1.2540 F     1 <1>  -0.3400 
  2 C        1.6300    -0.1080     0.1610 C.3   1 <1>   1.1640 
  3 F        1.0960     0.5450    -0.8600 F     1 <1>  -0.3400 
  4 F        2.8920     0.2940     0.2490 F     1 <1>  -0.3400 
  5 C        1.5100    -1.6370    -0.0040 C.ar  1 <1>  -0.1440 
  6 C        2.6030    -2.4740    -0.0740 C.ar  1 <1>  -0.1500 
  7 C        0.2400    -2.2160    -0.1000 C.ar  1 <1>  -0.1500 
  8 C        2.4620    -3.8620    -0.2250 C.ar  1 <1>   0.3610 
  9 C        0.0860    -3.5720    -0.2340 C.ar  1 <1>  -0.1500 
 10 N        3.5800    -4.6530    -0.3670 N.ar  1 <1>  -0.1790 
 11 C        1.1830    -4.4560    -0.2610 C.ar  1 <1>   0.0000 
 12 C        3.5040    -5.9810    -0.5440 C.ar  1 <1>   0.2180 
 13 C        1.0870    -5.8870    -0.3490 C.ar  1 <1>   0.1000 
 14 C        2.2780    -6.5940    -0.5400 C.ar  1 <1>  -0.1500 
 15 C        4.7920    -6.7650    -0.7370 C.3   1 <1>  -0.0970 
 16 N       -0.0700    -6.5880    -0.2390 N.3   1 <1>  -0.5900 
 17 C       -1.4970    -6.3200     0.1720 C.3   1 <1>   0.2450 
 18 C       -0.3940    -8.0580    -0.3290 C.3   1 <1>   0.2450 
 19 C       -1.5760    -7.7950     0.6220 C.3   1 <1>   0.0850 
 20 N       -2.7980    -8.5090     0.2010 N.pl3 1 <1>   0.4850 
 21 N       -3.8570    -7.8920    -0.3640 N.2   1 <1>  -0.7070 
 22 C       -3.0330    -9.8380     0.3400 C.2   1 <1>  -0.3320 
 23 C       -4.7230    -8.8290    -0.5750 C.2   1 <1>   0.1080 
 24 C       -4.2670   -10.0710    -0.1560 C.2   1 <1>  -0.1500 
 25 C       -2.0710   -10.8440     0.9530 C.3   1 <1>  -0.0600 
 26 C       -6.0690    -8.5600    -1.2080 C.3   1 <1>  -0.0590 
 27 H        3.5950    -2.0580    -0.0170 H     1 <1>   0.1500 
 28 H       -0.6350    -1.5820    -0.0730 H     1 <1>   0.1500 
 29 H       -0.9120    -3.9510    -0.3310 H     1 <1>   0.1500 
 30 H        4.4930    -4.1930    -0.3580 H     1 <1>   0.4570 
 31 H        2.2260    -7.6590    -0.6750 H     1 <1>   0.1500 
 32 H        5.3160    -6.4190    -1.6100 H     1 <1>   0.0800 
 33 H        4.5840    -7.8130    -0.8670 H     1 <1>   0.0800 
 34 H        5.4310    -6.6570     0.1220 H     1 <1>   0.0800 
 35 H       -2.0910    -6.0600    -0.6860 H     1 <1>   0.0000 
 36 H       -1.5550    -5.6240     0.9900 H     1 <1>   0.0000 
 37 H        0.3750    -8.6730     0.1020 H     1 <1>   0.0000 
 38 H       -0.6820    -8.3290    -1.3300 H     1 <1>   0.0000 
 39 H       -1.3380    -7.9460     1.6610 H     1 <1>   0.0000 
 40 H       -4.8050   -11.0000    -0.2230 H     1 <1>   0.1500 
 41 H       -1.8190   -10.5560     1.9580 H     1 <1>   0.0800 
 42 H       -1.1710   -10.9080     0.3670 H     1 <1>   0.0800 
 43 H       -2.5260   -11.8180     0.9820 H     1 <1>   0.0800 
 44 H       -6.6170    -7.8640    -0.6010 H     1 <1>   0.0800 
 45 H       -6.6320    -9.4700    -1.2980 H     1 <1>   0.0800 
 46 H       -5.9270    -8.1350    -2.1840 H     1 <1>   0.0800 
@<TRIPOS>BOND
  1   1   2  1   
  2   2   3  1   
  3   2   4  1   
  4   2   5  1   
  5   5   6  ar  
  6   5   7  ar  
  7   6   8  ar  
  8   6  27  1   
  9   7   9  ar  
 10   7  28  1   
 11   8  10  ar  
 12   8  11  ar  
 13   9  11  ar  
 14   9  29  1   
 15  10  12  ar  
 16  10  30  1   
 17  11  13  ar  
 18  12  14  ar  
 19  12  15  1   
 20  13  14  ar  
 21  13  16  1   
 22  14  31  1   
 23  15  32  1   
 24  15  33  1   
 25  15  34  1   
 26  16  17  1   
 27  16  18  1   
 28  17  19  1   
 29  17  35  1   
 30  17  36  1   
 31  18  19  1   
 32  18  37  1   
 33  18  38  1   
 34  19  20  1   
 35  19  39  1   
 36  20  21  1   
 37  20  22  1   
 38  21  23  2   
 39  22  24  2   
 40  22  25  1   
 41  23  24  1   
 42  23  26  1   
 43  24  40  1   
 44  25  41  1   
 45  25  42  1   
 46  25  43  1   
 47  26  44  1   
 48  26  45  1   
 49  26  46  1   
@<TRIPOS>SUBSTRUCTURE
  1 ****  16 GROUP 4 **** **** 0

# MOE 2024.06 (io_trps.svl 2023.06)
