@<TRIPOS>MOLECULE
NONAME
57 61 1 0 0 
SMALL
USER_CHARGES


@<TRIPOS>ATOM
  1 O        0.3760     0.0280    -1.0480 O.2   1 <1>  -0.5700 
  2 C       -0.2700     0.8730    -0.4800 C.2   1 <1>   0.5690 
  3 N       -1.6230     1.0110    -0.6760 N.am  1 <1>  -0.6600 
  4 C        0.4820     1.7870     0.4650 C.3   1 <1>  -0.0990 
  5 C       -2.4740     2.1080    -0.1100 C.3   1 <1>   0.1400 
  6 C       -2.4000    -0.0510    -1.3860 C.3   1 <1>   0.1400 
  7 C        0.9110     3.0630    -0.2640 C.3   1 <1>   0.0960 
  8 C       -3.3610     2.7570    -1.1910 C.3   1 <1>   0.1440 
  9 C       -3.3180     0.5580    -2.4540 C.3   1 <1>  -0.1600 
 10 N        1.2140     4.1340     0.6970 N.pl3 1 <1>   0.3140 
 11 C       -4.1930     3.8330    -0.5200 C.ar  1 <1>   0.1660 
 12 C       -4.2110     1.6710    -1.8780 C.3   1 <1>  -0.1600 
 13 C       -2.5370     3.5750    -2.2220 C.3   1 <1>  -0.1600 
 14 N        2.4690     4.4050     1.0880 N.2   1 <1>  -0.7070 
 15 C        0.3260     4.9530     1.2980 C.2   1 <1>  -0.3020 
 16 N       -5.2060     3.6180     0.2840 N.ar  1 <1>  -0.6200 
 17 C       -3.7440     5.0800    -0.8280 C.ar  1 <1>  -0.1440 
 18 C       -2.5530     5.0410    -1.7540 C.3   1 <1>  -0.0170 
 19 C        2.3540     5.3870     1.9250 C.2   1 <1>   0.1080 
 20 C        1.0320     5.7770     2.0990 C.2   1 <1>  -0.1500 
 21 C       -5.7990     4.7110     0.7840 C.ar  1 <1>   0.6200 
 22 C       -4.3990     6.1480    -0.2750 C.ar  1 <1>   0.1600 
 23 C        3.5490     6.0060     2.6110 C.3   1 <1>  -0.0590 
 24 N       -5.4230     5.9740     0.5290 N.ar  1 <1>  -0.6200 
 25 C       -6.9350     4.5120     1.6750 C.ar  1 <1>   0.0000 
 26 C       -7.0830     3.3420     2.4270 C.ar  1 <1>  -0.1500 
 27 C       -7.9320     5.4820     1.8210 C.ar  1 <1>  -0.1500 
 28 C       -8.1600     3.1510     3.2740 C.ar  1 <1>  -0.1500 
 29 C       -9.0110     5.2980     2.6660 C.ar  1 <1>  -0.1500 
 30 C       -9.1280     4.1300     3.3960 C.ar  1 <1>  -0.1500 
 31 H        1.3600     1.2770     0.8180 H     1 <1>   0.0800 
 32 H       -0.1290     2.0080     1.3180 H     1 <1>   0.0800 
 33 H       -1.8760     2.8730     0.3470 H     1 <1>   0.0800 
 34 H       -3.1070     1.6900     0.6550 H     1 <1>   0.0800 
 35 H       -2.9940    -0.5820    -0.6620 H     1 <1>   0.0800 
 36 H       -1.7370    -0.7610    -1.8500 H     1 <1>   0.0800 
 37 H        0.1300     3.4120    -0.9090 H     1 <1>   0.0800 
 38 H        1.7850     2.8710    -0.8610 H     1 <1>   0.0800 
 39 H       -3.9360    -0.2200    -2.8670 H     1 <1>   0.0800 
 40 H       -2.7100     0.9420    -3.2550 H     1 <1>   0.0800 
 41 H       -4.8130     2.1060    -2.6570 H     1 <1>   0.0800 
 42 H       -4.8830     1.2410    -1.1550 H     1 <1>   0.0800 
 43 H       -3.0310     3.5360    -3.1780 H     1 <1>   0.0800 
 44 H       -1.5410     3.1970    -2.3560 H     1 <1>   0.0800 
 45 H       -0.7340     4.9090     1.1320 H     1 <1>   0.1500 
 46 H       -2.6700     5.7190    -2.5820 H     1 <1>   0.0800 
 47 H       -1.6580     5.2820    -1.2090 H     1 <1>   0.0800 
 48 H        0.6800     6.5660     2.7400 H     1 <1>   0.1500 
 49 H       -4.0820     7.1550    -0.4890 H     1 <1>   0.1500 
 50 H        4.0580     5.2560     3.1870 H     1 <1>   0.0800 
 51 H        3.2390     6.8030     3.2610 H     1 <1>   0.0800 
 52 H        4.2240     6.3950     1.8710 H     1 <1>   0.0800 
 53 H       -6.3410     2.5680     2.3490 H     1 <1>   0.1500 
 54 H       -7.8610     6.3980     1.2600 H     1 <1>   0.1500 
 55 H       -8.2440     2.2390     3.8390 H     1 <1>   0.1500 
 56 H       -9.7610     6.0640     2.7550 H     1 <1>   0.1500 
 57 H       -9.9670     3.9840     4.0540 H     1 <1>   0.1500 
@<TRIPOS>BOND
  1   1   2  2   
  2   2   3  am  
  3   2   4  1   
  4   3   5  1   
  5   3   6  1   
  6   4   7  1   
  7   4  31  1   
  8   4  32  1   
  9   5   8  1   
 10   5  33  1   
 11   5  34  1   
 12   6   9  1   
 13   6  35  1   
 14   6  36  1   
 15   7  10  1   
 16   7  37  1   
 17   7  38  1   
 18   8  11  1   
 19   8  12  1   
 20   8  13  1   
 21   9  12  1   
 22   9  39  1   
 23   9  40  1   
 24  10  14  1   
 25  10  15  1   
 26  11  16  ar  
 27  11  17  ar  
 28  12  41  1   
 29  12  42  1   
 30  13  18  1   
 31  13  43  1   
 32  13  44  1   
 33  14  19  2   
 34  15  20  2   
 35  15  45  1   
 36  16  21  ar  
 37  17  18  1   
 38  17  22  ar  
 39  18  46  1   
 40  18  47  1   
 41  19  20  1   
 42  19  23  1   
 43  20  48  1   
 44  21  24  ar  
 45  21  25  1   
 46  22  24  ar  
 47  22  49  1   
 48  23  50  1   
 49  23  51  1   
 50  23  52  1   
 51  25  26  ar  
 52  25  27  ar  
 53  26  28  ar  
 54  26  53  1   
 55  27  29  ar  
 56  27  54  1   
 57  28  30  ar  
 58  28  55  1   
 59  29  30  ar  
 60  29  56  1   
 61  30  57  1   
@<TRIPOS>SUBSTRUCTURE
  1 ****  11 GROUP 4 **** **** 0

# MOE 2024.06 (io_trps.svl 2023.06)
