@<TRIPOS>MOLECULE
NONAME
54 56 1 0 0 
SMALL
USER_CHARGES


@<TRIPOS>ATOM
  1 O        2.0480    -0.2930     2.4040 O.2   1 <1>  -0.5700 
  2 C        1.4200    -0.5470     1.4050 C.2   1 <1>   0.5690 
  3 N        1.9750    -0.3660     0.1640 N.am  1 <1>  -0.6600 
  4 C        0.0180    -1.0770     1.6040 C.3   1 <1>  -0.0990 
  5 C        3.3040     0.3380     0.1040 C.3   1 <1>   0.2200 
  6 C        1.5090    -1.0760    -1.0670 C.3   1 <1>   0.1400 
  7 C        0.0430    -2.5030     2.1690 C.3   1 <1>   0.0960 
  8 C        3.5470     1.1270    -1.1940 C.3   1 <1>   0.1200 
  9 C        4.4430    -0.6640     0.3850 C.3   1 <1>   0.3430 
 10 C        2.6400    -1.5900    -1.9810 C.3   1 <1>  -0.0800 
 11 N        0.5280    -3.4890     1.1770 N.pl3 1 <1>   0.3140 
 12 O        4.1050     0.3130    -2.1810 O.3   1 <1>  -0.5600 
 13 N        4.0790    -2.1010     0.1110 N.4   1 <1>  -0.9590 
 14 C        3.2070    -0.4810    -2.8780 C.3   1 <1>   0.1200 
 15 C        3.7660    -2.4170    -1.3190 C.3   1 <1>   0.3430 
 16 N        1.8080    -3.9140     1.1680 N.2   1 <1>  -0.7070 
 17 C       -0.1990    -4.1110     0.2280 C.2   1 <1>  -0.3320 
 18 C        5.1290    -2.9970     0.6580 C.3   1 <1>   0.2630 
 19 C        1.8380    -4.8500     0.2750 C.2   1 <1>   0.1080 
 20 C        0.6250    -4.9990    -0.4070 C.2   1 <1>  -0.0860 
 21 C       -1.6760    -3.8260    -0.0340 C.3   1 <1>  -0.0600 
 22 C        3.0480    -5.7380     0.0580 C.3   1 <1>  -0.0590 
 23 C        0.4210    -5.9050    -1.5060 C.2   1 <1>   0.5950 
 24 O        1.2500    -6.0680    -2.3650 O.2   1 <1>  -0.5700 
 25 C       -0.8600    -6.7010    -1.6130 C.3   1 <1>  -0.1790 
 26 H       -0.4620    -0.4400     2.3240 H     1 <1>   0.0800 
 27 H       -0.5580    -1.0200     0.7020 H     1 <1>   0.0800 
 28 H        3.3240     1.0760     0.8880 H     1 <1>   0.0800 
 29 H        0.9100    -1.9200    -0.7910 H     1 <1>   0.0800 
 30 H        0.8730    -0.4110    -1.6270 H     1 <1>   0.0800 
 31 H       -0.9440    -2.7930     2.4780 H     1 <1>   0.0800 
 32 H        0.6850    -2.5460     3.0310 H     1 <1>   0.0800 
 33 H        4.2670     1.9020    -1.0000 H     1 <1>   0.0800 
 34 H        2.6460     1.5920    -1.5560 H     1 <1>   0.0800 
 35 H        4.7000    -0.5670     1.4270 H     1 <1>   0.0800 
 36 H        5.3100    -0.3850    -0.1910 H     1 <1>   0.0800 
 37 H        2.1610    -2.2630    -2.6700 H     1 <1>   0.0800 
 38 H        3.2010    -2.2980     0.6400 H     1 <1>   0.4500 
 39 H        2.4300     0.1420    -3.2890 H     1 <1>   0.0800 
 40 H        3.7510    -0.9170    -3.6990 H     1 <1>   0.0800 
 41 H        4.6600    -2.3090    -1.9100 H     1 <1>   0.0800 
 42 H        3.4710    -3.4510    -1.3710 H     1 <1>   0.0800 
 43 H        6.0740    -2.8040     0.1760 H     1 <1>   0.0800 
 44 H        4.8630    -4.0260     0.4960 H     1 <1>   0.0800 
 45 H        5.2370    -2.8370     1.7180 H     1 <1>   0.0800 
 46 H       -2.0120    -4.3060    -0.9340 H     1 <1>   0.0800 
 47 H       -1.8480    -2.7720    -0.1480 H     1 <1>   0.0800 
 48 H       -2.2720    -4.1880     0.7860 H     1 <1>   0.0800 
 49 H        2.7330    -6.7600    -0.0480 H     1 <1>   0.0800 
 50 H        3.7030    -5.6840     0.9080 H     1 <1>   0.0800 
 51 H        3.5760    -5.4540    -0.8320 H     1 <1>   0.0800 
 52 H       -1.3660    -6.7300    -0.6660 H     1 <1>   0.0800 
 53 H       -0.6300    -7.7070    -1.9120 H     1 <1>   0.0800 
 54 H       -1.4990    -6.2580    -2.3530 H     1 <1>   0.0800 
@<TRIPOS>BOND
  1   1   2  2   
  2   2   3  am  
  3   2   4  1   
  4   3   5  1   
  5   3   6  1   
  6   4   7  1   
  7   4  26  1   
  8   4  27  1   
  9   5   8  1   
 10   5   9  1   
 11   5  28  1   
 12   6  10  1   
 13   6  29  1   
 14   6  30  1   
 15   7  11  1   
 16   7  31  1   
 17   7  32  1   
 18   8  12  1   
 19   8  33  1   
 20   8  34  1   
 21   9  13  1   
 22   9  35  1   
 23   9  36  1   
 24  10  14  1   
 25  10  15  1   
 26  10  37  1   
 27  11  16  1   
 28  11  17  1   
 29  12  14  1   
 30  13  15  1   
 31  13  18  1   
 32  13  38  1   
 33  14  39  1   
 34  14  40  1   
 35  15  41  1   
 36  15  42  1   
 37  16  19  2   
 38  17  20  2   
 39  17  21  1   
 40  18  43  1   
 41  18  44  1   
 42  18  45  1   
 43  19  20  1   
 44  19  22  1   
 45  20  23  1   
 46  21  46  1   
 47  21  47  1   
 48  21  48  1   
 49  22  49  1   
 50  22  50  1   
 51  22  51  1   
 52  23  24  2   
 53  23  25  1   
 54  25  52  1   
 55  25  53  1   
 56  25  54  1   
@<TRIPOS>SUBSTRUCTURE
  1 ****   6 GROUP 4 **** **** 0

# MOE 2024.06 (io_trps.svl 2023.06)
