@<TRIPOS>MOLECULE
NONAME
48 51 1 0 0 
SMALL
USER_CHARGES


@<TRIPOS>ATOM
  1 N        3.7240     3.0620    -0.1940 N.2   1 <1>  -0.5650 
  2 C        2.6950     2.3770     0.2050 C.2   1 <1>   0.0060 
  3 C        4.7790     2.3320     0.2210 C.2   1 <1>   0.0770 
  4 N        3.0280     1.2450     0.8680 N.pl3 1 <1>   0.0330 
  5 C        1.2450     2.7930    -0.0360 C.3   1 <1>   0.1000 
  6 C        4.3710     1.2230     0.8730 C.2   1 <1>  -0.3020 
  7 C        1.1890     3.6970    -1.2830 C.3   1 <1>   0.3430 
  8 C        0.6900     3.5110     1.2220 C.3   1 <1>  -0.1600 
  9 N        1.6790     5.0430    -0.8880 N.4   1 <1>  -0.9590 
 10 C       -0.0760     4.8050     0.8770 C.3   1 <1>  -0.1600 
 11 C        0.7450     5.7820     0.0150 C.3   1 <1>   0.3430 
 12 C        2.2200     5.8510    -2.0070 C.3   1 <1>   0.4860 
 13 C        2.8730     7.0870    -1.4240 C.ar  1 <1>  -0.1430 
 14 C        3.9820     6.9830    -0.5700 C.ar  1 <1>  -0.1520 
 15 C        2.3670     8.3380    -1.7060 C.ar  1 <1>  -0.1500 
 16 N        4.7090     5.9000    -0.1250 N.pl3 1 <1>   0.0330 
 17 C        4.5380     8.1230     0.0030 C.ar  1 <1>   0.0000 
 18 C        2.9360     9.4850    -1.1430 C.ar  1 <1>  -0.1500 
 19 C        5.6800     6.3430     0.7260 C.2   1 <1>  -0.3320 
 20 C        5.6050     7.6920     0.8230 C.2   1 <1>  -0.1810 
 21 C        4.0090     9.3830    -0.2920 C.ar  1 <1>  -0.1500 
 22 C        6.6320     5.3650     1.3920 C.3   1 <1>  -0.0600 
 23 C        6.4600     8.6500     1.6310 C.3   1 <1>  -0.0590 
 24 H        5.7960     2.6370     0.0300 H     1 <1>   0.1500 
 25 H        2.4020     0.5460     1.2830 H     1 <1>   0.2700 
 26 H        0.6610     1.9130    -0.2430 H     1 <1>   0.0800 
 27 H        4.9520     0.4390     1.3260 H     1 <1>   0.1500 
 28 H        0.1790     3.7650    -1.6530 H     1 <1>   0.0800 
 29 H        1.8180     3.2760    -2.0510 H     1 <1>   0.0800 
 30 H        1.5050     3.7740     1.8760 H     1 <1>   0.0800 
 31 H        0.0480     2.8410     1.7690 H     1 <1>   0.0800 
 32 H        2.5090     4.8270    -0.3080 H     1 <1>   0.4500 
 33 H       -0.3740     5.3060     1.7820 H     1 <1>   0.0800 
 34 H       -0.9810     4.5550     0.3490 H     1 <1>   0.0800 
 35 H        0.0760     6.3980    -0.5630 H     1 <1>   0.0800 
 36 H        1.3230     6.4320     0.6550 H     1 <1>   0.0800 
 37 H        1.4280     6.1340    -2.6800 H     1 <1>   0.0800 
 38 H        2.9560     5.2840    -2.5530 H     1 <1>   0.0800 
 39 H        1.5240     8.4660    -2.3640 H     1 <1>   0.1500 
 40 H        4.5690     4.9090    -0.3690 H     1 <1>   0.2700 
 41 H        2.5250    10.4510    -1.3810 H     1 <1>   0.1500 
 42 H        4.4550    10.2540     0.1510 H     1 <1>   0.1500 
 43 H        6.0790     4.6490     1.9730 H     1 <1>   0.0800 
 44 H        7.3150     5.8740     2.0460 H     1 <1>   0.0800 
 45 H        7.2050     4.8440     0.6460 H     1 <1>   0.0800 
 46 H        5.8430     9.1900     2.3260 H     1 <1>   0.0800 
 47 H        6.9380     9.3520     0.9720 H     1 <1>   0.0800 
 48 H        7.2180     8.1260     2.1810 H     1 <1>   0.0800 
@<TRIPOS>BOND
  1   1   2  2   
  2   1   3  1   
  3   2   4  1   
  4   2   5  1   
  5   3   6  2   
  6   3  24  1   
  7   4   6  1   
  8   4  25  1   
  9   5   7  1   
 10   5   8  1   
 11   5  26  1   
 12   6  27  1   
 13   7   9  1   
 14   7  28  1   
 15   7  29  1   
 16   8  10  1   
 17   8  30  1   
 18   8  31  1   
 19   9  11  1   
 20   9  12  1   
 21   9  32  1   
 22  10  11  1   
 23  10  33  1   
 24  10  34  1   
 25  11  35  1   
 26  11  36  1   
 27  12  13  1   
 28  12  37  1   
 29  12  38  1   
 30  13  14  ar  
 31  13  15  ar  
 32  14  16  1   
 33  14  17  ar  
 34  15  18  ar  
 35  15  39  1   
 36  16  19  1   
 37  16  40  1   
 38  17  20  1   
 39  17  21  ar  
 40  18  21  ar  
 41  18  41  1   
 42  19  20  2   
 43  19  22  1   
 44  20  23  1   
 45  21  42  1   
 46  22  43  1   
 47  22  44  1   
 48  22  45  1   
 49  23  46  1   
 50  23  47  1   
 51  23  48  1   
@<TRIPOS>SUBSTRUCTURE
  1 ****  16 GROUP 4 **** **** 0

# MOE 2024.06 (io_trps.svl 2023.06)
