@<TRIPOS>MOLECULE
NONAME
41 43 1 0 0 
SMALL
USER_CHARGES


@<TRIPOS>ATOM
  1 O       -0.3000     0.0400    -0.8140 O.2   1 <1>  -0.5700 
  2 C        0.7560    -0.3940    -1.2070 C.2   1 <1>   0.5690 
  3 N        1.8810     0.3860    -1.2390 N.am  1 <1>  -0.6600 
  4 C        0.8130    -1.8420    -1.6860 C.3   1 <1>  -0.0990 
  5 C        1.8800     1.7330    -0.5700 C.3   1 <1>   0.3210 
  6 C        3.1610     0.0090    -1.9070 C.3   1 <1>   0.0600 
  7 C       -0.3320    -2.7230    -1.1470 C.3   1 <1>  -0.1600 
  8 C        3.0180     1.9060     0.4370 C.2   1 <1>   0.3350 
  9 C       -0.2080    -4.1780    -1.6230 C.3   1 <1>   0.0200 
 10 N        2.9110     1.7410     1.6970 N.2   1 <1>  -0.4100 
 11 N        4.2420     2.2680     0.0590 N.2   1 <1>  -0.5650 
 12 C       -1.3110    -5.0500    -1.0540 C.2   1 <1>   0.2980 
 13 O        4.0750     1.9830     2.2180 O.3   1 <1>  -0.0190 
 14 C        4.8230     2.2920     1.1890 C.2   1 <1>   0.2980 
 15 O       -2.5410    -4.8520    -1.4520 O.3   1 <1>  -0.0190 
 16 N       -1.1520    -5.9820    -0.2090 N.2   1 <1>  -0.5650 
 17 C        6.2740     2.6440     1.4250 C.3   1 <1>  -0.0600 
 18 N       -3.2290    -5.7380    -0.8010 N.2   1 <1>  -0.4100 
 19 C       -2.4130    -6.4060    -0.0640 C.2   1 <1>   0.5150 
 20 C       -2.7510    -7.4920     0.8310 C.2   1 <1>   0.1410 
 21 O       -4.0060    -7.9140     0.9630 O.3   1 <1>  -0.2800 
 22 C       -1.9570    -8.2400     1.6450 C.2   1 <1>  -0.1500 
 23 C       -4.0300    -8.9030     1.8330 C.2   1 <1>  -0.0100 
 24 C       -2.7880    -9.1560     2.2950 C.2   1 <1>  -0.1500 
 25 H        1.7460    -2.2690    -1.3680 H     1 <1>   0.0800 
 26 H        0.7850    -1.8370    -2.7600 H     1 <1>   0.0800 
 27 H        0.9540     1.8920    -0.0480 H     1 <1>   0.0800 
 28 H        1.9640     2.4960    -1.3210 H     1 <1>   0.0800 
 29 H        2.9980    -0.7300    -2.6700 H     1 <1>   0.0800 
 30 H        3.8500    -0.3790    -1.1760 H     1 <1>   0.0800 
 31 H        3.6010     0.8760    -2.3700 H     1 <1>   0.0800 
 32 H       -1.2770    -2.3200    -1.4720 H     1 <1>   0.0800 
 33 H       -0.3200    -2.6990    -0.0700 H     1 <1>   0.0800 
 34 H        0.7400    -4.5800    -1.3120 H     1 <1>   0.0800 
 35 H       -0.2540    -4.2200    -2.6960 H     1 <1>   0.0800 
 36 H        6.7520     2.8730     0.4900 H     1 <1>   0.0800 
 37 H        6.7780     1.8130     1.8830 H     1 <1>   0.0800 
 38 H        6.3380     3.4990     2.0720 H     1 <1>   0.0800 
 39 H       -0.8930    -8.1540     1.7740 H     1 <1>   0.1500 
 40 H       -4.9720    -9.3690     2.0640 H     1 <1>   0.1500 
 41 H       -2.4730    -9.8960     3.0090 H     1 <1>   0.1500 
@<TRIPOS>BOND
  1   1   2  2   
  2   2   3  am  
  3   2   4  1   
  4   3   5  1   
  5   3   6  1   
  6   4   7  1   
  7   4  25  1   
  8   4  26  1   
  9   5   8  1   
 10   5  27  1   
 11   5  28  1   
 12   6  29  1   
 13   6  30  1   
 14   6  31  1   
 15   7   9  1   
 16   7  32  1   
 17   7  33  1   
 18   8  10  2   
 19   8  11  1   
 20   9  12  1   
 21   9  34  1   
 22   9  35  1   
 23  10  13  1   
 24  11  14  2   
 25  12  15  1   
 26  12  16  2   
 27  13  14  1   
 28  14  17  1   
 29  15  18  1   
 30  16  19  1   
 31  17  36  1   
 32  17  37  1   
 33  17  38  1   
 34  18  19  2   
 35  19  20  1   
 36  20  21  1   
 37  20  22  2   
 38  21  23  1   
 39  22  24  1   
 40  22  39  1   
 41  23  24  2   
 42  23  40  1   
 43  24  41  1   
@<TRIPOS>SUBSTRUCTURE
  1 ****   7 GROUP 4 **** **** 0

# MOE 2024.06 (io_trps.svl 2023.06)
