@<TRIPOS>MOLECULE
NONAME
37 38 1 0 0 
SMALL
USER_CHARGES


@<TRIPOS>ATOM
  1 F       -1.4390    -0.9520    -0.0940 F     1 <1>  -0.1900 
  2 C       -2.0810     0.1890    -0.0600 C.ar  1 <1>   0.1900 
  3 C       -1.5890     1.2370     0.6990 C.ar  1 <1>   0.1900 
  4 C       -3.2550     0.3140    -0.7840 C.ar  1 <1>  -0.1440 
  5 F       -0.4830     1.0750     1.3820 F     1 <1>  -0.1900 
  6 C       -2.2530     2.4540     0.7530 C.ar  1 <1>  -0.1440 
  7 C       -3.9230     1.5320    -0.7370 C.ar  1 <1>  -0.1500 
  8 C       -3.7830    -0.8480    -1.6010 C.3   1 <1>   0.4870 
  9 C       -3.4270     2.5860     0.0210 C.ar  1 <1>  -0.1500 
 10 C       -1.7170     3.6130     1.5820 C.3   1 <1>  -0.0970 
 11 N       -4.8450    -1.5310    -0.8250 N.4   1 <1>  -0.9590 
 12 C       -4.2590    -2.2890     0.3540 C.3   1 <1>   0.3430 
 13 C       -5.6780    -2.4210    -1.6840 C.3   1 <1>   0.3430 
 14 C       -5.1160    -3.4840     0.8170 C.3   1 <1>   0.2000 
 15 C       -6.9120    -2.8720    -0.8960 C.3   1 <1>  -0.1600 
 16 O       -4.7690    -4.5900     0.0590 O.3   1 <1>  -0.6800 
 17 C       -6.6050    -3.1990     0.5900 C.3   1 <1>  -0.1860 
 18 C       -7.4260    -4.3570     1.1070 C.2   1 <1>   0.9060 
 19 O       -8.3130    -4.1210     1.9230 O.co2 1 <1>  -0.9000 
 20 O       -7.1460    -5.4890     0.6950 O.co2 1 <1>  -0.9000 
 21 H       -4.8360     1.6820    -1.2910 H     1 <1>   0.1500 
 22 H       -2.9890    -1.5400    -1.8320 H     1 <1>   0.0800 
 23 H       -4.1870    -0.4730    -2.5260 H     1 <1>   0.0800 
 24 H       -3.9630     3.5210     0.0390 H     1 <1>   0.1500 
 25 H       -2.3550     4.4750     1.5050 H     1 <1>   0.0800 
 26 H       -0.7340     3.8850     1.2400 H     1 <1>   0.0800 
 27 H       -1.6530     3.3260     2.6170 H     1 <1>   0.0800 
 28 H       -5.4770    -0.8220    -0.4380 H     1 <1>   0.4500 
 29 H       -3.2810    -2.6690     0.1070 H     1 <1>   0.0800 
 30 H       -4.1470    -1.6080     1.1800 H     1 <1>   0.0800 
 31 H       -5.9890    -1.9120    -2.5820 H     1 <1>   0.0800 
 32 H       -5.1020    -3.2900    -1.9630 H     1 <1>   0.0800 
 33 H       -4.9200    -3.7240     1.8490 H     1 <1>   0.0800 
 34 H       -7.6850    -2.1270    -0.9470 H     1 <1>   0.0800 
 35 H       -7.2970    -3.7540    -1.3800 H     1 <1>   0.0800 
 36 H       -5.5150    -5.2550     0.1960 H     1 <1>   0.4000 
 37 H       -6.8700    -2.3480     1.1890 H     1 <1>   0.0800 
@<TRIPOS>BOND
  1   1   2  1   
  2   2   3  ar  
  3   2   4  ar  
  4   3   5  1   
  5   3   6  ar  
  6   4   7  ar  
  7   4   8  1   
  8   6   9  ar  
  9   6  10  1   
 10   7   9  ar  
 11   7  21  1   
 12   8  11  1   
 13   8  22  1   
 14   8  23  1   
 15   9  24  1   
 16  10  25  1   
 17  10  26  1   
 18  10  27  1   
 19  11  12  1   
 20  11  13  1   
 21  11  28  1   
 22  12  14  1   
 23  12  29  1   
 24  12  30  1   
 25  13  15  1   
 26  13  31  1   
 27  13  32  1   
 28  14  16  1   
 29  14  17  1   
 30  14  33  1   
 31  15  17  1   
 32  15  34  1   
 33  15  35  1   
 34  16  36  1   
 35  17  18  1   
 36  17  37  1   
 37  18  19  ar  
 38  18  20  ar  
@<TRIPOS>SUBSTRUCTURE
  1 ****  12 GROUP 4 **** **** 0

# MOE 2024.06 (io_trps.svl 2023.06)
