@<TRIPOS>MOLECULE
NONAME
38 39 1 0 0 
SMALL
USER_CHARGES


@<TRIPOS>ATOM
  1 CL      -0.1700     0.2740    -0.8390 Cl    1 <1>  -0.1770 
  2 C        1.3770     0.9790    -0.4100 C.ar  1 <1>   0.1770 
  3 C        2.3590     0.3180     0.3410 C.ar  1 <1>   0.0820 
  4 C        1.5820     2.2680    -0.8610 C.ar  1 <1>  -0.1500 
  5 O        2.3150    -0.9370     0.8570 O.3   1 <1>  -0.3630 
  6 C        3.5360     1.0030     0.6050 C.ar  1 <1>  -0.1500 
  7 C        2.7600     2.9650    -0.5890 C.ar  1 <1>   0.0860 
  8 C        1.2690    -1.8570     0.6590 C.3   1 <1>   0.1200 
  9 C        3.7370     2.2920     0.1490 C.ar  1 <1>  -0.1500 
 10 C        2.9430     4.3240    -1.0600 C.2   1 <1>   0.5440 
 11 C        1.6570    -3.1620     1.3470 C.3   1 <1>  -0.2400 
 12 O        2.4190     4.6850    -2.0910 O.2   1 <1>  -0.5700 
 13 N        3.6880     5.2050    -0.3150 N.am  1 <1>  -0.4940 
 14 C        4.0800     6.4970    -0.5990 C.2   1 <1>   0.4420 
 15 S        4.9750     7.3140     0.6390 S.3   1 <1>  -0.0800 
 16 N        3.9130     7.2300    -1.6390 N.2   1 <1>  -0.3380 
 17 C        5.0440     8.6910    -0.4110 C.2   1 <1>   0.1980 
 18 N        4.4630     8.4770    -1.5250 N.2   1 <1>  -0.3380 
 19 C        5.7810     9.9370     0.0840 C.3   1 <1>   0.3800 
 20 O        5.4150    10.1930     1.4130 O.3   1 <1>  -0.5600 
 21 C        5.4520    11.1810    -0.7500 C.3   1 <1>  -0.2400 
 22 C        6.3630    10.8590     2.1880 C.3   1 <1>   0.0400 
 23 H        0.8120     2.7490    -1.4400 H     1 <1>   0.1500 
 24 H        4.3040     0.5050     1.1730 H     1 <1>   0.1500 
 25 H        1.1430    -2.0110    -0.3990 H     1 <1>   0.0800 
 26 H        0.3720    -1.4550     1.0950 H     1 <1>   0.0800 
 27 H        4.6750     2.7740     0.3640 H     1 <1>   0.1500 
 28 H        2.5630    -3.5510     0.9180 H     1 <1>   0.0800 
 29 H        0.8750    -3.8880     1.2140 H     1 <1>   0.0800 
 30 H        1.7980    -2.9980     2.4000 H     1 <1>   0.0800 
 31 H        3.9590     4.8780     0.6060 H     1 <1>   0.3700 
 32 H        6.8370     9.7340     0.0500 H     1 <1>   0.0800 
 33 H        4.4000    11.3950    -0.6840 H     1 <1>   0.0800 
 34 H        5.6950    10.9990    -1.7810 H     1 <1>   0.0800 
 35 H        6.0160    12.0310    -0.4170 H     1 <1>   0.0800 
 36 H        5.9620    10.9710     3.1800 H     1 <1>   0.0800 
 37 H        6.5570    11.8310     1.7700 H     1 <1>   0.0800 
 38 H        7.2660    10.2750     2.2290 H     1 <1>   0.0800 
@<TRIPOS>BOND
  1   1   2  1   
  2   2   3  ar  
  3   2   4  ar  
  4   3   5  1   
  5   3   6  ar  
  6   4   7  ar  
  7   4  23  1   
  8   5   8  1   
  9   6   9  ar  
 10   6  24  1   
 11   7   9  ar  
 12   7  10  1   
 13   8  11  1   
 14   8  25  1   
 15   8  26  1   
 16   9  27  1   
 17  10  12  2   
 18  10  13  am  
 19  11  28  1   
 20  11  29  1   
 21  11  30  1   
 22  13  14  1   
 23  13  31  1   
 24  14  15  1   
 25  14  16  2   
 26  15  17  1   
 27  16  18  1   
 28  17  18  2   
 29  17  19  1   
 30  19  20  1   
 31  19  21  1   
 32  19  32  1   
 33  20  22  1   
 34  21  33  1   
 35  21  34  1   
 36  21  35  1   
 37  22  36  1   
 38  22  37  1   
 39  22  38  1   
@<TRIPOS>SUBSTRUCTURE
  1 ****  13 GROUP 4 **** **** 0

# MOE 2024.06 (io_trps.svl 2023.06)
