@<TRIPOS>MOLECULE
NONAME
45 46 1 0 0 
SMALL
USER_CHARGES


@<TRIPOS>ATOM
  1 S       -0.0870     0.0990    -1.6190 S.o2  1 <1>   1.4470 
  2 O        0.4500    -0.6210    -2.7520 O.2   1 <1>  -0.6500 
  3 O       -1.1410     1.0720    -1.8190 O.2   1 <1>  -0.6500 
  4 N       -0.6220    -1.0210    -0.4650 N.am  1 <1>  -0.8490 
  5 C        1.2990     0.8840    -0.7500 C.ar  1 <1>  -0.0090 
  6 C       -1.3350    -2.1710    -1.0730 C.3   1 <1>   0.1960 
  7 C       -1.2890    -0.4140     0.6990 C.3   1 <1>   0.1960 
  8 C        1.3880     2.2640    -0.6260 C.ar  1 <1>  -0.1500 
  9 C        2.3110     0.1130    -0.1830 C.ar  1 <1>  -0.1500 
 10 C       -1.8560    -3.1560    -0.0060 C.3   1 <1>  -0.1060 
 11 C       -2.7410    -0.8620     0.8510 C.3   1 <1>  -0.1600 
 12 C        2.4560     2.8250     0.0480 C.ar  1 <1>   0.1900 
 13 C        3.3790     0.6870     0.4900 C.ar  1 <1>  -0.1500 
 14 C       -2.5250    -4.3400    -0.7220 C.2   1 <1>   0.9060 
 15 C       -2.8620    -2.3910     0.9100 C.3   1 <1>   0.2000 
 16 C       -0.6960    -3.7100     0.8820 C.3   1 <1>  -0.1600 
 17 F        2.5010     4.1270     0.1470 F     1 <1>  -0.1900 
 18 C        3.4650     2.0640     0.6160 C.ar  1 <1>  -0.1440 
 19 O       -3.3600    -5.0200    -0.1050 O.co2 1 <1>  -0.9000 
 20 O       -2.2310    -4.6020    -1.8940 O.co2 1 <1>  -0.9000 
 21 O       -4.1760    -2.6730     0.5960 O.3   1 <1>  -0.6800 
 22 C        0.4550    -4.3790     0.1100 C.3   1 <1>  -0.1600 
 23 C        4.6290     2.7100     1.3530 C.3   1 <1>  -0.0970 
 24 C        1.5010    -4.9520     1.0700 C.3   1 <1>  -0.2400 
 25 H       -2.1680    -1.8170    -1.6590 H     1 <1>   0.0800 
 26 H       -0.6740    -2.6840    -1.7520 H     1 <1>   0.0800 
 27 H       -0.7460    -0.6980     1.5840 H     1 <1>   0.0800 
 28 H       -1.2590     0.6620     0.6430 H     1 <1>   0.0800 
 29 H        0.6320     2.9010    -1.0500 H     1 <1>   0.1500 
 30 H        2.2560    -0.9600    -0.2750 H     1 <1>   0.1500 
 31 H       -3.2980    -0.4790     0.0130 H     1 <1>   0.0800 
 32 H       -3.1560    -0.4400     1.7460 H     1 <1>   0.0800 
 33 H        4.1400     0.0530     0.9130 H     1 <1>   0.1500 
 34 H       -2.7240    -2.7230     1.9250 H     1 <1>   0.0800 
 35 H       -0.2840    -2.9220     1.4840 H     1 <1>   0.0800 
 36 H       -1.1170    -4.4390     1.5550 H     1 <1>   0.0800 
 37 H       -4.1990    -3.6520     0.3640 H     1 <1>   0.4000 
 38 H        0.0670    -5.1750    -0.5060 H     1 <1>   0.0800 
 39 H        0.9310    -3.6640    -0.5370 H     1 <1>   0.0800 
 40 H        5.3160     1.9680     1.7180 H     1 <1>   0.0800 
 41 H        4.2630     3.2800     2.1880 H     1 <1>   0.0800 
 42 H        5.1600     3.3710     0.6900 H     1 <1>   0.0800 
 43 H        1.0520    -5.6940     1.7070 H     1 <1>   0.0800 
 44 H        1.9180    -4.1710     1.6800 H     1 <1>   0.0800 
 45 H        2.2940    -5.4150     0.5100 H     1 <1>   0.0800 
@<TRIPOS>BOND
  1   1   2  2   
  2   1   3  2   
  3   1   4  am  
  4   1   5  1   
  5   4   6  1   
  6   4   7  1   
  7   5   8  ar  
  8   5   9  ar  
  9   6  10  1   
 10   6  25  1   
 11   6  26  1   
 12   7  11  1   
 13   7  27  1   
 14   7  28  1   
 15   8  12  ar  
 16   8  29  1   
 17   9  13  ar  
 18   9  30  1   
 19  10  14  1   
 20  10  15  1   
 21  10  16  1   
 22  11  15  1   
 23  11  31  1   
 24  11  32  1   
 25  12  17  1   
 26  12  18  ar  
 27  13  18  ar  
 28  13  33  1   
 29  14  19  ar  
 30  14  20  ar  
 31  15  21  1   
 32  15  34  1   
 33  16  22  1   
 34  16  35  1   
 35  16  36  1   
 36  18  23  1   
 37  21  37  1   
 38  22  24  1   
 39  22  38  1   
 40  22  39  1   
 41  23  40  1   
 42  23  41  1   
 43  23  42  1   
 44  24  43  1   
 45  24  44  1   
 46  24  45  1   
@<TRIPOS>SUBSTRUCTURE
  1 ****   4 GROUP 4 **** **** 0

# MOE 2024.06 (io_trps.svl 2023.06)
