@<TRIPOS>MOLECULE
NONAME
35 37 1 0 0 
SMALL
USER_CHARGES


@<TRIPOS>ATOM
  1 S        1.6970    -0.4030    -1.2390 S.3   1 <1>  -0.0800 
  2 C        0.7870    -1.0860     0.1170 C.2   1 <1>   0.4420 
  3 C        1.3860     1.2070    -0.6330 C.ar  1 <1>   0.0400 
  4 N        0.3100    -0.2090     0.9150 N.2   1 <1>  -0.5650 
  5 N        0.6230    -2.4420     0.2550 N.am  1 <1>  -0.4940 
  6 C        0.6320     1.0890     0.5200 C.ar  1 <1>   0.2270 
  7 C        1.7980     2.4120    -1.1750 C.ar  1 <1>  -0.1500 
  8 C        1.0560    -3.5150    -0.4740 C.2   1 <1>   0.5690 
  9 C        0.2860     2.2860     1.1460 C.ar  1 <1>   0.1900 
 10 C        1.4340     3.5800    -0.5210 C.ar  1 <1>  -0.1500 
 11 O        1.8150    -3.3960    -1.4070 O.2   1 <1>  -0.5700 
 12 C        0.5820    -4.9330    -0.0630 C.3   1 <1>   0.2810 
 13 F       -0.4270     2.2610     2.2420 F     1 <1>  -0.1900 
 14 C        0.6740     3.5180     0.6450 C.ar  1 <1>  -0.1500 
 15 N       -0.8650    -5.0510     0.3370 N.am  1 <1>  -0.6600 
 16 C        0.7430    -5.9810    -1.1790 C.3   1 <1>  -0.1600 
 17 C       -1.3430    -4.5570     1.5160 C.2   1 <1>   0.5690 
 18 C       -1.5520    -6.0730    -0.4870 C.3   1 <1>   0.1400 
 19 C       -0.4240    -6.9480    -1.0100 C.3   1 <1>  -0.1600 
 20 O       -0.6430    -3.9080     2.2530 O.2   1 <1>  -0.5700 
 21 C       -2.7760    -4.7950     1.9270 C.3   1 <1>  -0.1790 
 22 H        0.0730    -2.6950     1.0850 H     1 <1>   0.3700 
 23 H        2.3840     2.4320    -2.0770 H     1 <1>   0.1500 
 24 H        1.7370     4.5360    -0.9140 H     1 <1>   0.1500 
 25 H        1.1770    -5.2400     0.7790 H     1 <1>   0.0800 
 26 H        0.3860     4.4170     1.1590 H     1 <1>   0.1500 
 27 H        0.6610    -5.5050    -2.1420 H     1 <1>   0.0800 
 28 H        1.6980    -6.4720    -1.1240 H     1 <1>   0.0800 
 29 H       -2.2540    -6.6530     0.0860 H     1 <1>   0.0800 
 30 H       -2.0590    -5.5860    -1.3030 H     1 <1>   0.0800 
 31 H       -0.1820    -7.6940    -0.2730 H     1 <1>   0.0800 
 32 H       -0.6880    -7.4360    -1.9320 H     1 <1>   0.0800 
 33 H       -3.4360    -4.5930     1.1040 H     1 <1>   0.0800 
 34 H       -3.0320    -4.1410     2.7400 H     1 <1>   0.0800 
 35 H       -2.8970    -5.8110     2.2510 H     1 <1>   0.0800 
@<TRIPOS>BOND
  1   1   2  1   
  2   1   3  1   
  3   2   4  2   
  4   2   5  1   
  5   3   6  ar  
  6   3   7  ar  
  7   4   6  1   
  8   5   8  am  
  9   5  22  1   
 10   6   9  ar  
 11   7  10  ar  
 12   7  23  1   
 13   8  11  2   
 14   8  12  1   
 15   9  13  1   
 16   9  14  ar  
 17  10  14  ar  
 18  10  24  1   
 19  12  15  1   
 20  12  16  1   
 21  12  25  1   
 22  14  26  1   
 23  15  17  am  
 24  15  18  1   
 25  16  19  1   
 26  16  27  1   
 27  16  28  1   
 28  17  20  2   
 29  17  21  1   
 30  18  19  1   
 31  18  29  1   
 32  18  30  1   
 33  19  31  1   
 34  19  32  1   
 35  21  33  1   
 36  21  34  1   
 37  21  35  1   
@<TRIPOS>SUBSTRUCTURE
  1 ****   5 GROUP 4 **** **** 0

# MOE 2024.06 (io_trps.svl 2023.06)
