@<TRIPOS>MOLECULE
NONAME
58 61 1 0 0 
SMALL
USER_CHARGES


@<TRIPOS>ATOM
  1 O       -0.1920    -1.3500     0.5050 O.3   1 <1>  -0.3630 
  2 C        1.0840    -0.9700     0.2340 C.ar  1 <1>   0.0830 
  3 C       -0.5860    -2.6920     0.3750 C.3   1 <1>   0.1200 
  4 C        1.3950     0.3630     0.4490 C.ar  1 <1>  -0.1500 
  5 C        2.0680    -1.8350    -0.2370 C.ar  1 <1>  -0.1500 
  6 C       -2.0570    -2.7770     0.7760 C.3   1 <1>  -0.1600 
  7 C        2.6710     0.8390     0.2030 C.ar  1 <1>  -0.1500 
  8 C        3.3440    -1.3590    -0.4830 C.ar  1 <1>  -0.1500 
  9 C       -2.5450    -4.2160     0.6570 C.3   1 <1>   0.3430 
 10 C        3.6550    -0.0260    -0.2660 C.ar  1 <1>   0.0830 
 11 N       -3.9760    -4.3220     1.0650 N.4   1 <1>  -0.9590 
 12 O        4.9320     0.3520    -0.5340 O.3   1 <1>  -0.3620 
 13 C       -4.9140    -3.7100     0.0600 C.3   1 <1>   0.3430 
 14 C       -4.3570    -5.7630     1.1940 C.3   1 <1>   0.3430 
 15 C        5.3490     1.6860    -0.3470 C.3   1 <1>   0.0400 
 16 C       -5.9350    -4.7950    -0.3120 C.3   1 <1>   0.2000 
 17 C       -5.2050    -6.1050    -0.0370 C.3   1 <1>  -0.0800 
 18 O       -7.0420    -4.7070     0.5240 O.3   1 <1>  -0.6800 
 19 C       -4.3580    -6.5270    -1.2610 C.3   1 <1>  -0.0170 
 20 C       -3.2640    -7.5170    -0.8990 C.ar  1 <1>   0.1670 
 21 N       -2.1190    -7.0230    -0.5320 N.ar  1 <1>  -0.6200 
 22 C       -3.5390    -8.8920    -0.9640 C.ar  1 <1>  -0.1500 
 23 C       -1.1290    -7.9010    -0.2120 C.ar  1 <1>   0.3100 
 24 C       -2.5720    -9.7900    -0.6300 C.ar  1 <1>  -0.1500 
 25 C       -1.3160    -9.3010    -0.2340 C.ar  1 <1>   0.0000 
 26 C        0.1290    -7.4010     0.1610 C.ar  1 <1>  -0.1500 
 27 C       -0.2470   -10.1410     0.1350 C.ar  1 <1>  -0.1500 
 28 C        1.1560    -8.2350     0.5150 C.ar  1 <1>  -0.1500 
 29 C        0.9630    -9.6200     0.5030 C.ar  1 <1>  -0.1500 
 30 H       -0.4440    -2.9870    -0.6510 H     1 <1>   0.0800 
 31 H        0.0320    -3.2870     1.0260 H     1 <1>   0.0800 
 32 H        0.6310     1.0270     0.8110 H     1 <1>   0.1500 
 33 H        1.8710    -2.8730    -0.4200 H     1 <1>   0.1500 
 34 H       -2.1560    -2.4420     1.7940 H     1 <1>   0.0800 
 35 H       -2.6220    -2.1340     0.1260 H     1 <1>   0.0800 
 36 H        2.8770     1.8770     0.3810 H     1 <1>   0.1500 
 37 H        4.1110    -2.0180    -0.8470 H     1 <1>   0.1500 
 38 H       -1.9420    -4.8470     1.2910 H     1 <1>   0.0800 
 39 H       -2.4240    -4.5620    -0.3580 H     1 <1>   0.0800 
 40 H       -4.0890    -3.8580     1.9770 H     1 <1>   0.4500 
 41 H       -5.4110    -2.8360     0.4500 H     1 <1>   0.0800 
 42 H       -4.3640    -3.4330    -0.8240 H     1 <1>   0.0800 
 43 H       -3.4950    -6.4020     1.2880 H     1 <1>   0.0800 
 44 H       -4.9640    -5.8900     2.0760 H     1 <1>   0.0800 
 45 H        6.3870     1.7520    -0.6190 H     1 <1>   0.0800 
 46 H        5.2250     1.9480     0.6890 H     1 <1>   0.0800 
 47 H        4.7630     2.3270    -0.9810 H     1 <1>   0.0800 
 48 H       -6.2840    -4.6990    -1.3270 H     1 <1>   0.0800 
 49 H       -5.8900    -6.9030     0.1910 H     1 <1>   0.0800 
 50 H       -6.8370    -4.8760     1.4630 H     1 <1>   0.4000 
 51 H       -3.8900    -5.6720    -1.7160 H     1 <1>   0.0800 
 52 H       -5.0010    -6.9610    -2.0070 H     1 <1>   0.0800 
 53 H       -4.5110    -9.2280    -1.2790 H     1 <1>   0.1500 
 54 H       -2.7420   -10.8520    -0.6650 H     1 <1>   0.1500 
 55 H        0.2700    -6.3380     0.1590 H     1 <1>   0.1500 
 56 H       -0.3980   -11.2060     0.1200 H     1 <1>   0.1500 
 57 H        2.1180    -7.8440     0.8000 H     1 <1>   0.1500 
 58 H        1.7790   -10.2650     0.7840 H     1 <1>   0.1500 
@<TRIPOS>BOND
  1   1   2  1   
  2   1   3  1   
  3   2   4  ar  
  4   2   5  ar  
  5   3   6  1   
  6   3  30  1   
  7   3  31  1   
  8   4   7  ar  
  9   4  32  1   
 10   5   8  ar  
 11   5  33  1   
 12   6   9  1   
 13   6  34  1   
 14   6  35  1   
 15   7  10  ar  
 16   7  36  1   
 17   8  10  ar  
 18   8  37  1   
 19   9  11  1   
 20   9  38  1   
 21   9  39  1   
 22  10  12  1   
 23  11  13  1   
 24  11  14  1   
 25  11  40  1   
 26  12  15  1   
 27  13  16  1   
 28  13  41  1   
 29  13  42  1   
 30  14  17  1   
 31  14  43  1   
 32  14  44  1   
 33  15  45  1   
 34  15  46  1   
 35  15  47  1   
 36  16  17  1   
 37  16  18  1   
 38  16  48  1   
 39  17  19  1   
 40  17  49  1   
 41  18  50  1   
 42  19  20  1   
 43  19  51  1   
 44  19  52  1   
 45  20  21  ar  
 46  20  22  ar  
 47  21  23  ar  
 48  22  24  ar  
 49  22  53  1   
 50  23  25  ar  
 51  23  26  ar  
 52  24  25  ar  
 53  24  54  1   
 54  25  27  ar  
 55  26  28  ar  
 56  26  55  1   
 57  27  29  ar  
 58  27  56  1   
 59  28  29  ar  
 60  28  57  1   
 61  29  58  1   
@<TRIPOS>SUBSTRUCTURE
  1 ****   9 GROUP 4 **** **** 0

# MOE 2024.06 (io_trps.svl 2023.06)
