@<TRIPOS>MOLECULE
NONAME
59 62 1 0 0 
SMALL
USER_CHARGES


@<TRIPOS>ATOM
  1 O       -0.1140    -0.8910    -1.8060 O.co2 1 <1>  -0.9000 
  2 C       -0.4190    -2.0410    -1.4680 C.2   1 <1>   1.0330 
  3 O       -1.5090    -2.5050    -1.8640 O.co2 1 <1>  -0.9000 
  4 C        0.4320    -2.8380    -0.6290 C.2   1 <1>  -0.2330 
  5 C        0.1980    -4.1840    -0.3600 C.2   1 <1>   0.3720 
  6 C        1.5680    -2.5800     0.0780 C.2   1 <1>   0.0870 
  7 N        1.0800    -4.6850     0.4250 N.2   1 <1>  -0.4100 
  8 N       -0.8760    -4.9040    -0.8530 N.pl3 1 <1>  -0.8520 
  9 O        1.9060    -3.7040     0.6720 O.3   1 <1>  -0.0190 
 10 C        2.3880    -1.4120     0.2980 C.ar  1 <1>   0.0530 
 11 C       -1.9270    -5.1680     0.1740 C.3   1 <1>   0.2090 
 12 C        1.8530    -0.1280     0.3790 C.ar  1 <1>  -0.1500 
 13 C        3.7680    -1.5380     0.4650 C.ar  1 <1>  -0.1500 
 14 C       -2.4760    -6.6200     0.0470 C.3   1 <1>   0.5030 
 15 C        2.6510     0.9760     0.6140 C.ar  1 <1>  -0.1500 
 16 C        4.5740    -0.4400     0.7040 C.ar  1 <1>  -0.1500 
 17 N       -1.3030    -7.5170    -0.2290 N.4   1 <1>  -0.9590 
 18 C       -3.1900    -7.0620     1.3420 C.3   1 <1>  -0.1600 
 19 C       -3.4720    -6.6860    -1.1410 C.3   1 <1>  -0.1600 
 20 C        4.0160     0.8240     0.7790 C.ar  1 <1>  -0.1500 
 21 C       -1.5690    -8.8820    -0.8090 C.3   1 <1>   0.3430 
 22 C       -0.2550    -7.5710     0.8430 C.3   1 <1>   0.3430 
 23 C       -4.4870    -6.2760     1.6060 C.3   1 <1>  -0.1600 
 24 C       -4.7830    -5.9170    -0.8910 C.3   1 <1>  -0.1600 
 25 C       -0.3300    -9.8090    -0.8010 C.3   1 <1>   0.1100 
 26 C        1.0810    -8.1300     0.2920 C.3   1 <1>   0.1100 
 27 C       -5.4480    -6.3670     0.4150 C.3   1 <1>  -0.1600 
 28 N        0.9160    -9.0300    -0.8780 N.3   1 <1>  -0.8100 
 29 C        2.0970    -9.8750    -1.0820 C.3   1 <1>   0.0300 
 30 H       -1.3080    -4.2420    -1.5440 H     1 <1>   0.4000 
 31 H       -2.7110    -4.4410     0.0630 H     1 <1>   0.0800 
 32 H       -1.5170    -5.0260     1.1590 H     1 <1>   0.0800 
 33 H        0.7940     0.0100     0.2520 H     1 <1>   0.1500 
 34 H        4.2140    -2.5140     0.4040 H     1 <1>   0.1500 
 35 H        2.2040     1.9540     0.6630 H     1 <1>   0.1500 
 36 H        5.6350    -0.5660     0.8280 H     1 <1>   0.1500 
 37 H       -0.7990    -6.9770    -0.9630 H     1 <1>   0.4500 
 38 H       -2.5420    -6.9330     2.1900 H     1 <1>   0.0800 
 39 H       -3.4430    -8.1050     1.2700 H     1 <1>   0.0800 
 40 H       -3.7610    -7.7020    -1.3330 H     1 <1>   0.0800 
 41 H       -3.0050    -6.2960    -2.0290 H     1 <1>   0.0800 
 42 H        4.6370     1.6820     0.9610 H     1 <1>   0.1500 
 43 H       -1.8930    -8.7670    -1.8300 H     1 <1>   0.0800 
 44 H       -2.3640    -9.3640    -0.2670 H     1 <1>   0.0800 
 45 H       -0.5940    -8.2050     1.6430 H     1 <1>   0.0800 
 46 H       -0.0760    -6.5920     1.2520 H     1 <1>   0.0800 
 47 H       -4.2610    -5.2410     1.8020 H     1 <1>   0.0800 
 48 H       -4.9730    -6.6690     2.4830 H     1 <1>   0.0800 
 49 H       -5.4590    -6.0910    -1.7110 H     1 <1>   0.0800 
 50 H       -4.6010    -4.8560    -0.8610 H     1 <1>   0.0800 
 51 H       -0.3940   -10.4810    -1.6400 H     1 <1>   0.0800 
 52 H       -0.3300   -10.4040     0.0970 H     1 <1>   0.0800 
 53 H        1.5870    -8.6450     1.0910 H     1 <1>   0.0800 
 54 H        1.7060    -7.3040    -0.0020 H     1 <1>   0.0800 
 55 H       -6.3140    -5.7550     0.6040 H     1 <1>   0.0800 
 56 H       -5.7890    -7.3840     0.3090 H     1 <1>   0.0800 
 57 H        1.9860   -10.4510    -1.9860 H     1 <1>   0.0800 
 58 H        2.2330   -10.5480    -0.2520 H     1 <1>   0.0800 
 59 H        2.9740    -9.2580    -1.1820 H     1 <1>   0.0800 
@<TRIPOS>BOND
  1   1   2  ar  
  2   2   3  ar  
  3   2   4  1   
  4   4   5  1   
  5   4   6  2   
  6   5   7  2   
  7   5   8  1   
  8   6   9  1   
  9   6  10  1   
 10   7   9  1   
 11   8  11  1   
 12   8  30  1   
 13  10  12  ar  
 14  10  13  ar  
 15  11  14  1   
 16  11  31  1   
 17  11  32  1   
 18  12  15  ar  
 19  12  33  1   
 20  13  16  ar  
 21  13  34  1   
 22  14  17  1   
 23  14  18  1   
 24  14  19  1   
 25  15  20  ar  
 26  15  35  1   
 27  16  20  ar  
 28  16  36  1   
 29  17  21  1   
 30  17  22  1   
 31  17  37  1   
 32  18  23  1   
 33  18  38  1   
 34  18  39  1   
 35  19  24  1   
 36  19  40  1   
 37  19  41  1   
 38  20  42  1   
 39  21  25  1   
 40  21  43  1   
 41  21  44  1   
 42  22  26  1   
 43  22  45  1   
 44  22  46  1   
 45  23  27  1   
 46  23  47  1   
 47  23  48  1   
 48  24  27  1   
 49  24  49  1   
 50  24  50  1   
 51  25  28  1   
 52  25  51  1   
 53  25  52  1   
 54  26  28  1   
 55  26  53  1   
 56  26  54  1   
 57  27  55  1   
 58  27  56  1   
 59  28  29  1   
 60  29  57  1   
 61  29  58  1   
 62  29  59  1   
@<TRIPOS>SUBSTRUCTURE
  1 ****   5 GROUP 4 **** **** 0

# MOE 2024.06 (io_trps.svl 2023.06)
