@<TRIPOS>MOLECULE
NONAME
38 40 1 0 0 
SMALL
USER_CHARGES


@<TRIPOS>ATOM
  1 S        0.0060     0.0720    -0.4550 S.3   1 <1>  -0.0800 
  2 C       -0.6490     1.5380     0.2350 C.2   1 <1>   0.4620 
  3 C       -1.2950    -0.8530     0.2740 C.2   1 <1>  -0.0450 
  4 N       -1.7120     1.3640     0.9290 N.2   1 <1>  -0.5650 
  5 N       -0.0220     2.7100     0.0050 N.pl3 1 <1>  -0.8840 
  6 C       -1.3540    -2.2740     0.0760 C.2   1 <1>   0.7150 
  7 C       -2.0560     0.0390     0.9510 C.2   1 <1>   0.0770 
  8 O       -0.3520    -2.8940    -0.2380 O.2   1 <1>  -0.5700 
  9 N       -2.5270    -2.9810     0.2340 N.am  1 <1>  -0.6600 
 10 C       -3.8890    -2.4210     0.0290 C.3   1 <1>   0.1400 
 11 C       -2.5650    -4.4640     0.1390 C.3   1 <1>   0.1400 
 12 C       -4.7300    -3.6000    -0.4590 C.3   1 <1>   0.2000 
 13 C       -4.0480    -4.8360     0.1170 C.3   1 <1>  -0.0800 
 14 O       -6.0370    -3.5170    -0.0080 O.3   1 <1>  -0.6800 
 15 C       -4.3490    -6.1210    -0.6690 C.3   1 <1>   0.0210 
 16 C       -3.5590    -7.2920    -0.1170 C.2   1 <1>   0.1080 
 17 N       -3.6410    -7.6760     1.1190 N.2   1 <1>  -0.7070 
 18 C       -2.6670    -8.0670    -0.8500 C.2   1 <1>  -0.1500 
 19 N       -2.7970    -8.7210     1.2080 N.pl3 1 <1>   0.3000 
 20 C       -2.1920    -8.9750     0.0280 C.2   1 <1>  -0.3320 
 21 C       -1.1830   -10.0870    -0.1910 C.3   1 <1>  -0.0600 
 22 H        0.8390     2.7810    -0.5370 H     1 <1>   0.4000 
 23 H       -0.3830     3.5730     0.4150 H     1 <1>   0.4000 
 24 H       -2.9270    -0.2290     1.5240 H     1 <1>   0.1500 
 25 H       -4.2660    -2.0560     0.9690 H     1 <1>   0.0800 
 26 H       -3.8760    -1.6320    -0.7040 H     1 <1>   0.0800 
 27 H       -2.0770    -4.7740    -0.7710 H     1 <1>   0.0800 
 28 H       -2.0620    -4.9150     0.9790 H     1 <1>   0.0800 
 29 H       -4.7400    -3.6180    -1.5360 H     1 <1>   0.0800 
 30 H       -4.3510    -4.9720     1.1400 H     1 <1>   0.0800 
 31 H       -6.0770    -3.6860     0.9530 H     1 <1>   0.4000 
 32 H       -4.1070    -5.9860    -1.7070 H     1 <1>   0.0800 
 33 H       -5.3970    -6.3480    -0.5960 H     1 <1>   0.0800 
 34 H       -2.4250    -7.9460    -1.8910 H     1 <1>   0.1500 
 35 H       -2.6550    -9.2370     2.0840 H     1 <1>   0.2700 
 36 H       -0.8470   -10.0860    -1.2130 H     1 <1>   0.0800 
 37 H       -1.6300   -11.0420     0.0210 H     1 <1>   0.0800 
 38 H       -0.3310    -9.9480     0.4500 H     1 <1>   0.0800 
@<TRIPOS>BOND
  1   1   2  1   
  2   1   3  1   
  3   2   4  2   
  4   2   5  1   
  5   3   6  1   
  6   3   7  2   
  7   4   7  1   
  8   5  22  1   
  9   5  23  1   
 10   6   8  2   
 11   6   9  am  
 12   7  24  1   
 13   9  10  1   
 14   9  11  1   
 15  10  12  1   
 16  10  25  1   
 17  10  26  1   
 18  11  13  1   
 19  11  27  1   
 20  11  28  1   
 21  12  13  1   
 22  12  14  1   
 23  12  29  1   
 24  13  15  1   
 25  13  30  1   
 26  14  31  1   
 27  15  16  1   
 28  15  32  1   
 29  15  33  1   
 30  16  17  2   
 31  16  18  1   
 32  17  19  1   
 33  18  20  2   
 34  18  34  1   
 35  19  20  1   
 36  19  35  1   
 37  20  21  1   
 38  21  36  1   
 39  21  37  1   
 40  21  38  1   
@<TRIPOS>SUBSTRUCTURE
  1 ****  11 GROUP 4 **** **** 0

# MOE 2024.06 (io_trps.svl 2023.06)
