@<TRIPOS>MOLECULE
NONAME
36 37 1 0 0 
SMALL
USER_CHARGES


@<TRIPOS>ATOM
  1 O        0.0160    -0.0950    -1.0020 O.2   1 <1>  -0.5700 
  2 C        0.1780    -1.0130    -0.2280 C.2   1 <1>   0.7800 
  3 O       -0.8230    -1.5710     0.4420 O.3   1 <1>  -0.4300 
  4 N        1.3940    -1.5520     0.0240 N.am  1 <1>  -0.7300 
  5 C       -2.1920    -1.2270     0.3670 C.3   1 <1>   0.2800 
  6 C        2.6170    -1.3300    -0.7770 C.3   1 <1>   0.2200 
  7 C       -2.8980    -2.1810     1.3310 C.3   1 <1>  -0.2400 
  8 C       -2.7200    -1.4590    -1.0530 C.3   1 <1>  -0.2400 
  9 C       -2.4020     0.2170     0.8400 C.3   1 <1>  -0.2400 
 10 C        3.8630    -1.8630    -0.0470 C.3   1 <1>  -0.0800 
 11 C        2.9690     0.1600    -0.9740 C.3   1 <1>  -0.1600 
 12 C        3.9010    -1.2570     1.3610 C.3   1 <1>   0.3430 
 13 C        4.9750    -1.0680    -0.7120 C.3   1 <1>  -0.1600 
 14 C        4.3700     0.2790    -0.3760 C.3   1 <1>   0.4230 
 15 N        4.2000     0.1830     1.0930 N.4   1 <1>  -0.9060 
 16 H        1.3200    -2.4620     0.4820 H     1 <1>   0.3700 
 17 H        2.5080    -1.8120    -1.7370 H     1 <1>   0.0800 
 18 H       -3.9550    -1.9870     1.3390 H     1 <1>   0.0800 
 19 H       -2.5230    -2.0500     2.3300 H     1 <1>   0.0800 
 20 H       -2.7440    -3.2010     1.0280 H     1 <1>   0.0800 
 21 H       -3.7870    -1.3240    -1.0720 H     1 <1>   0.0800 
 22 H       -2.4990    -2.4590    -1.3780 H     1 <1>   0.0800 
 23 H       -2.2950    -0.7580    -1.7470 H     1 <1>   0.0800 
 24 H       -3.4540     0.4280     0.9090 H     1 <1>   0.0800 
 25 H       -1.9780     0.9200     0.1470 H     1 <1>   0.0800 
 26 H       -1.9630     0.3630     1.8100 H     1 <1>   0.0800 
 27 H        3.9750    -2.9330    -0.0850 H     1 <1>   0.0800 
 28 H        2.2840     0.8430    -0.5040 H     1 <1>   0.0800 
 29 H        3.0050     0.3790    -2.0260 H     1 <1>   0.0800 
 30 H        4.6930    -1.7050     1.9400 H     1 <1>   0.0800 
 31 H        2.9600    -1.3780     1.8750 H     1 <1>   0.0800 
 32 H        5.0370    -1.2380    -1.7750 H     1 <1>   0.0800 
 33 H        5.9440    -1.2140    -0.2630 H     1 <1>   0.0800 
 34 H        4.9270     1.1460    -0.6990 H     1 <1>   0.0800 
 35 H        5.0490     0.4850     1.5840 H     1 <1>   0.4500 
 36 H        3.4140     0.7760     1.3860 H     1 <1>   0.4500 
@<TRIPOS>BOND
  1   1   2  2   
  2   2   3  1   
  3   2   4  am  
  4   3   5  1   
  5   4   6  1   
  6   4  16  1   
  7   5   7  1   
  8   5   8  1   
  9   5   9  1   
 10   6  10  1   
 11   6  11  1   
 12   6  17  1   
 13   7  18  1   
 14   7  19  1   
 15   7  20  1   
 16   8  21  1   
 17   8  22  1   
 18   8  23  1   
 19   9  24  1   
 20   9  25  1   
 21   9  26  1   
 22  10  12  1   
 23  10  13  1   
 24  10  27  1   
 25  11  14  1   
 26  11  28  1   
 27  11  29  1   
 28  12  15  1   
 29  12  30  1   
 30  12  31  1   
 31  13  14  1   
 32  13  32  1   
 33  13  33  1   
 34  14  15  1   
 35  14  34  1   
 36  15  35  1   
 37  15  36  1   
@<TRIPOS>SUBSTRUCTURE
  1 ****   4 GROUP 4 **** **** 0

# MOE 2024.06 (io_trps.svl 2023.06)
