@<TRIPOS>MOLECULE
NONAME
44 45 1 0 0 
SMALL
USER_CHARGES


@<TRIPOS>ATOM
  1 S        0.4700     0.1850     0.5220 S.o2  1 <1>   1.3330 
  2 O       -0.8960    -0.1280     0.8760 O.2   1 <1>  -0.6500 
  3 O        1.4810     0.2240     1.5540 O.2   1 <1>  -0.6500 
  4 N        0.9810    -0.9200    -0.6600 N.am  1 <1>  -0.8490 
  5 C        0.4560     1.7420    -0.3630 C.3   1 <1>  -0.0550 
  6 C        0.4850    -2.2740    -0.4020 C.3   1 <1>   0.1160 
  7 C        2.4370    -0.9480    -0.8380 C.3   1 <1>   0.1160 
  8 C       -0.0290     2.9230     0.4940 C.3   1 <1>  -0.0800 
  9 C       -0.1890     4.1900    -0.3420 C.3   1 <1>   0.2000 
 10 C        0.9410     3.3110     1.6200 C.3   1 <1>   0.1400 
 11 O       -1.4520     4.2330    -0.9100 O.3   1 <1>  -0.6800 
 12 C        0.0350     5.3400     0.6300 C.3   1 <1>   0.1400 
 13 N        1.0120     4.7930     1.6050 N.am  1 <1>  -0.6600 
 14 C        2.1500     5.4330     2.0480 C.2   1 <1>   0.6160 
 15 O        2.7740     4.9210     2.9590 O.2   1 <1>  -0.5700 
 16 C        2.6050     6.6820     1.5110 C.2   1 <1>   0.0290 
 17 C        2.9880     6.7310     0.1320 C.2   1 <1>   0.6160 
 18 C        2.7120     7.8140     2.2780 C.2   1 <1>  -0.1500 
 19 O        2.9190     5.7530    -0.6090 O.2   1 <1>  -0.5700 
 20 N        3.4350     7.9400    -0.3940 N.am  1 <1>  -0.4690 
 21 C        3.1720     9.0180     1.7110 C.2   1 <1>  -0.1500 
 22 C        3.5220     9.0610     0.3970 C.2   1 <1>  -0.0410 
 23 C        3.8420     8.0110    -1.8230 C.3   1 <1>   0.0600 
 24 H        1.4390     1.9560    -0.7350 H     1 <1>   0.0800 
 25 H       -0.1980     1.6440    -1.2080 H     1 <1>   0.0800 
 26 H        0.8130    -2.9460    -1.1760 H     1 <1>   0.0800 
 27 H       -0.5920    -2.2760    -0.3900 H     1 <1>   0.0800 
 28 H        0.8420    -2.6280     0.5510 H     1 <1>   0.0800 
 29 H        2.6970    -1.5980    -1.6560 H     1 <1>   0.0800 
 30 H        2.9200    -1.3010     0.0590 H     1 <1>   0.0800 
 31 H        2.8050     0.0390    -1.0610 H     1 <1>   0.0800 
 32 H       -0.9710     2.6720     0.9510 H     1 <1>   0.0800 
 33 H        0.5450     4.2410    -1.1300 H     1 <1>   0.0800 
 34 H        1.9250     2.9080     1.4450 H     1 <1>   0.0800 
 35 H        0.5890     2.9650     2.5770 H     1 <1>   0.0800 
 36 H       -2.1420     4.1130    -0.2290 H     1 <1>   0.4000 
 37 H       -0.8750     5.5800     1.1510 H     1 <1>   0.0800 
 38 H        0.4040     6.2080     0.1160 H     1 <1>   0.0800 
 39 H        2.4520     7.7960     3.3230 H     1 <1>   0.1500 
 40 H        3.2420     9.8920     2.3360 H     1 <1>   0.1500 
 41 H        3.8780     9.9730    -0.0550 H     1 <1>   0.1500 
 42 H        4.1610     9.0050    -2.0790 H     1 <1>   0.0800 
 43 H        3.0100     7.7360    -2.4480 H     1 <1>   0.0800 
 44 H        4.6520     7.3240    -2.0000 H     1 <1>   0.0800 
@<TRIPOS>BOND
  1   1   2  2   
  2   1   3  2   
  3   1   4  am  
  4   1   5  1   
  5   4   6  1   
  6   4   7  1   
  7   5   8  1   
  8   5  24  1   
  9   5  25  1   
 10   6  26  1   
 11   6  27  1   
 12   6  28  1   
 13   7  29  1   
 14   7  30  1   
 15   7  31  1   
 16   8   9  1   
 17   8  10  1   
 18   8  32  1   
 19   9  11  1   
 20   9  12  1   
 21   9  33  1   
 22  10  13  1   
 23  10  34  1   
 24  10  35  1   
 25  11  36  1   
 26  12  13  1   
 27  12  37  1   
 28  12  38  1   
 29  13  14  am  
 30  14  15  2   
 31  14  16  1   
 32  16  17  1   
 33  16  18  2   
 34  17  19  2   
 35  17  20  am  
 36  18  21  1   
 37  18  39  1   
 38  20  22  1   
 39  20  23  1   
 40  21  22  2   
 41  21  40  1   
 42  22  41  1   
 43  23  42  1   
 44  23  43  1   
 45  23  44  1   
@<TRIPOS>SUBSTRUCTURE
  1 ****  13 GROUP 4 **** **** 0

# MOE 2024.06 (io_trps.svl 2023.06)
