@<TRIPOS>MOLECULE
NONAME
58 61 1 0 0 
SMALL
USER_CHARGES


@<TRIPOS>ATOM
  1 S       -0.1810     0.7000     0.3700 S.o2  1 <1>   1.2040 
  2 O       -0.3810     1.2870     1.6740 O.2   1 <1>  -0.6500 
  3 O        1.1570     0.3500    -0.0550 O.2   1 <1>  -0.6500 
  4 C       -1.3480    -0.6420     0.0560 C.ar  1 <1>  -0.0090 
  5 C       -0.7020     1.9550    -0.7750 C.3   1 <1>  -0.0550 
  6 C       -2.5570    -0.7110     0.7380 C.ar  1 <1>  -0.1500 
  7 C       -1.0800    -1.6160    -0.8990 C.ar  1 <1>  -0.1500 
  8 C        0.0020     3.2730    -0.4580 C.3   1 <1>   0.3430 
  9 C       -3.4740    -1.7130     0.4700 C.ar  1 <1>  -0.1500 
 10 C       -1.9920    -2.6210    -1.1730 C.ar  1 <1>  -0.1500 
 11 N        1.4980     3.2080    -0.5470 N.4   1 <1>  -0.9590 
 12 C       -3.1920    -2.6680    -0.4880 C.ar  1 <1>  -0.1500 
 13 C        2.2000     4.3940     0.0490 C.3   1 <1>   0.4230 
 14 C        2.0640     2.8270    -1.8640 C.3   1 <1>   0.3430 
 15 C        3.7440     4.3080    -0.1200 C.3   1 <1>  -0.0800 
 16 C        1.6110     5.7160    -0.4860 C.3   1 <1>  -0.1600 
 17 C        3.5110     2.3500    -1.6920 C.3   1 <1>  -0.1600 
 18 C        4.2000     2.8590    -0.4070 C.3   1 <1>   0.4240 
 19 C        4.2880     5.3180    -1.1600 C.3   1 <1>  -0.1600 
 20 C        2.5240     6.9040    -0.1570 C.3   1 <1>  -0.1600 
 21 O        3.7250     2.0770     0.6280 O.3   1 <1>  -0.6800 
 22 C        5.7300     2.6830    -0.3690 C.ar  1 <1>  -0.1440 
 23 C        3.9120     6.7650    -0.8030 C.3   1 <1>  -0.1600 
 24 C        6.4140     3.0070     0.8000 C.ar  1 <1>  -0.1500 
 25 C        6.4750     2.2010    -1.4430 C.ar  1 <1>  -0.1500 
 26 C        7.7870     2.8730     0.8910 C.ar  1 <1>  -0.1500 
 27 C        7.8490     2.0650    -1.3540 C.ar  1 <1>  -0.1500 
 28 C        8.5080     2.4030    -0.1880 C.ar  1 <1>  -0.1500 
 29 H       -0.5150     1.6560    -1.7870 H     1 <1>   0.0800 
 30 H       -1.7590     2.1120    -0.6700 H     1 <1>   0.0800 
 31 H       -2.7900     0.0200     1.4940 H     1 <1>   0.1500 
 32 H       -0.1460    -1.5990    -1.4360 H     1 <1>   0.1500 
 33 H       -0.2700     3.5640     0.5450 H     1 <1>   0.0800 
 34 H       -0.3600     4.0350    -1.1280 H     1 <1>   0.0800 
 35 H       -4.4060    -1.7530     1.0090 H     1 <1>   0.1500 
 36 H       -1.7680    -3.3690    -1.9150 H     1 <1>   0.1500 
 37 H        1.8230     2.4280     0.0730 H     1 <1>   0.4500 
 38 H       -3.9030    -3.4500    -0.6980 H     1 <1>   0.1500 
 39 H        2.0160     4.3730     1.1120 H     1 <1>   0.0800 
 40 H        1.4880     2.0320    -2.3090 H     1 <1>   0.0800 
 41 H        2.0370     3.6780    -2.5240 H     1 <1>   0.0800 
 42 H        4.1660     4.6060     0.8220 H     1 <1>   0.0800 
 43 H        1.4850     5.6700    -1.5530 H     1 <1>   0.0800 
 44 H        0.6520     5.8960    -0.0340 H     1 <1>   0.0800 
 45 H        4.0390     2.7090    -2.5550 H     1 <1>   0.0800 
 46 H        3.5490     1.2750    -1.7230 H     1 <1>   0.0800 
 47 H        5.3620     5.2480    -1.2240 H     1 <1>   0.0800 
 48 H        3.8970     5.0950    -2.1370 H     1 <1>   0.0800 
 49 H        2.0680     7.8230    -0.4860 H     1 <1>   0.0800 
 50 H        2.6390     6.9720     0.9120 H     1 <1>   0.0800 
 51 H        4.3290     1.3110     0.7330 H     1 <1>   0.4000 
 52 H        4.6470     7.1690    -0.1270 H     1 <1>   0.0800 
 53 H        3.9530     7.3610    -1.7000 H     1 <1>   0.0800 
 54 H        5.8820     3.3670     1.6640 H     1 <1>   0.1500 
 55 H        6.0210     1.9130    -2.3720 H     1 <1>   0.1500 
 56 H        8.2960     3.1330     1.8040 H     1 <1>   0.1500 
 57 H        8.4100     1.6940    -2.1950 H     1 <1>   0.1500 
 58 H        9.5770     2.2980    -0.1210 H     1 <1>   0.1500 
@<TRIPOS>BOND
  1   1   2  2   
  2   1   3  2   
  3   1   4  1   
  4   1   5  1   
  5   4   6  ar  
  6   4   7  ar  
  7   5   8  1   
  8   5  29  1   
  9   5  30  1   
 10   6   9  ar  
 11   6  31  1   
 12   7  10  ar  
 13   7  32  1   
 14   8  11  1   
 15   8  33  1   
 16   8  34  1   
 17   9  12  ar  
 18   9  35  1   
 19  10  12  ar  
 20  10  36  1   
 21  11  13  1   
 22  11  14  1   
 23  11  37  1   
 24  12  38  1   
 25  13  15  1   
 26  13  16  1   
 27  13  39  1   
 28  14  17  1   
 29  14  40  1   
 30  14  41  1   
 31  15  18  1   
 32  15  19  1   
 33  15  42  1   
 34  16  20  1   
 35  16  43  1   
 36  16  44  1   
 37  17  18  1   
 38  17  45  1   
 39  17  46  1   
 40  18  21  1   
 41  18  22  1   
 42  19  23  1   
 43  19  47  1   
 44  19  48  1   
 45  20  23  1   
 46  20  49  1   
 47  20  50  1   
 48  21  51  1   
 49  22  24  ar  
 50  22  25  ar  
 51  23  52  1   
 52  23  53  1   
 53  24  26  ar  
 54  24  54  1   
 55  25  27  ar  
 56  25  55  1   
 57  26  28  ar  
 58  26  56  1   
 59  27  28  ar  
 60  27  57  1   
 61  28  58  1   
@<TRIPOS>SUBSTRUCTURE
  1 ****  11 GROUP 4 **** **** 0

# MOE 2024.06 (io_trps.svl 2023.06)
