@<TRIPOS>MOLECULE
NONAME
40 42 1 0 0 
SMALL
USER_CHARGES


@<TRIPOS>ATOM
  1 O        0.5490    -0.0380     0.3350 O.3   1 <1>  -0.6800 
  2 C        1.7590    -0.1510    -0.3350 C.3   1 <1>   0.2000 
  3 C        2.4880    -1.4230     0.0870 C.3   1 <1>  -0.0800 
  4 C        2.7100     0.9820     0.0450 C.3   1 <1>   0.2090 
  5 C        3.9640    -1.0960    -0.1540 C.3   1 <1>   0.2090 
  6 C        2.0050    -2.6830    -0.6540 C.3   1 <1>  -0.0170 
  7 N        4.0760     0.3830    -0.0270 N.pl3 1 <1>  -0.8380 
  8 C        2.7580    -3.9310    -0.2150 C.ar  1 <1>   0.1660 
  9 C        5.2200     1.1080     0.0450 C.ar  1 <1>   0.4100 
 10 N        3.9530    -4.1230    -0.7530 N.ar  1 <1>  -0.6200 
 11 C        2.1780    -4.8050     0.7040 C.ar  1 <1>   0.1600 
 12 N        5.1050     2.4110     0.2260 N.ar  1 <1>  -0.6200 
 13 C        6.4830     0.4920    -0.0710 C.ar  1 <1>  -0.1500 
 14 C        4.5150    -5.2420    -0.3230 C.ar  1 <1>   0.1600 
 15 N        2.7430    -5.9180     1.1390 N.ar  1 <1>  -0.6200 
 16 C        6.2110     3.1160     0.3060 C.ar  1 <1>   0.7710 
 17 C        7.6040     1.2480     0.0140 C.ar  1 <1>   0.2180 
 18 C        3.9310    -6.1090     0.5920 C.ar  1 <1>   0.1600 
 19 N        7.4400     2.5780     0.2080 N.ar  1 <1>  -0.1790 
 20 N        6.0640     4.4240     0.4950 N.pl3 1 <1>  -0.9000 
 21 C        9.0110     0.6840    -0.0970 C.3   1 <1>  -0.0970 
 22 H       -0.0970    -0.6900     0.0050 H     1 <1>   0.4000 
 23 H        1.5760    -0.1260    -1.3960 H     1 <1>   0.0800 
 24 H        2.3630    -1.5590     1.1480 H     1 <1>   0.0800 
 25 H        2.5210     1.3100     1.0530 H     1 <1>   0.0800 
 26 H        2.6180     1.8080    -0.6380 H     1 <1>   0.0800 
 27 H        4.2560    -1.3860    -1.1500 H     1 <1>   0.0800 
 28 H        4.5860    -1.6000     0.5660 H     1 <1>   0.0800 
 29 H        2.1350    -2.5560    -1.7150 H     1 <1>   0.0800 
 30 H        0.9550    -2.8200    -0.4730 H     1 <1>   0.0800 
 31 H        1.2050    -4.5740     1.0990 H     1 <1>   0.1500 
 32 H        6.5330    -0.5680    -0.2280 H     1 <1>   0.1500 
 33 H        5.4870    -5.4870    -0.7140 H     1 <1>   0.1500 
 34 H        4.4680    -6.9960     0.8810 H     1 <1>   0.1500 
 35 H        8.2280     3.2100     0.2840 H     1 <1>   0.4570 
 36 H        6.7770     5.1490     0.5870 H     1 <1>   0.4000 
 37 H        5.1040     4.7770     0.5670 H     1 <1>   0.4000 
 38 H        8.9770    -0.3810    -0.2470 H     1 <1>   0.0800 
 39 H        9.5670     0.8770     0.8040 H     1 <1>   0.0800 
 40 H        9.5280     1.1230    -0.9320 H     1 <1>   0.0800 
@<TRIPOS>BOND
  1   1   2  1   
  2   1  22  1   
  3   2   3  1   
  4   2   4  1   
  5   2  23  1   
  6   3   5  1   
  7   3   6  1   
  8   3  24  1   
  9   4   7  1   
 10   4  25  1   
 11   4  26  1   
 12   5   7  1   
 13   5  27  1   
 14   5  28  1   
 15   6   8  1   
 16   6  29  1   
 17   6  30  1   
 18   7   9  1   
 19   8  10  ar  
 20   8  11  ar  
 21   9  12  ar  
 22   9  13  ar  
 23  10  14  ar  
 24  11  15  ar  
 25  11  31  1   
 26  12  16  ar  
 27  13  17  ar  
 28  13  32  1   
 29  14  18  ar  
 30  14  33  1   
 31  15  18  ar  
 32  16  19  ar  
 33  16  20  1   
 34  17  19  ar  
 35  17  21  1   
 36  18  34  1   
 37  19  35  1   
 38  20  36  1   
 39  20  37  1   
 40  21  38  1   
 41  21  39  1   
 42  21  40  1   
@<TRIPOS>SUBSTRUCTURE
  1 ****   5 GROUP 4 **** **** 0

# MOE 2024.06 (io_trps.svl 2023.06)
