@<TRIPOS>MOLECULE
NONAME
37 38 1 0 0 
SMALL
USER_CHARGES


@<TRIPOS>ATOM
  1 O        0.0160    -0.2090     0.1580 O.2   1 <1>  -0.5700 
  2 C        1.0790    -0.6920    -0.1880 C.2   1 <1>   0.7160 
  3 N        2.1870     0.1040    -0.3480 N.am  1 <1>  -0.4940 
  4 C        1.2310    -2.1140    -0.4380 C.2   1 <1>   0.1410 
  5 C        2.4410     1.4740    -0.0980 C.2   1 <1>  -0.0880 
  6 N        2.4300    -2.6660    -0.8110 N.2   1 <1>  -0.5650 
  7 C        0.3270    -3.1230    -0.3660 C.2   1 <1>  -0.0400 
  8 N        1.5890     2.5280    -0.2530 N.pl3 1 <1>   0.3140 
  9 C        3.6160     1.9990     0.3280 C.2   1 <1>  -0.1810 
 10 C        2.1670    -3.9140    -0.9310 C.2   1 <1>   0.3280 
 11 O        0.9240    -4.2350    -0.6770 O.3   1 <1>  -0.2800 
 12 C       -1.1510    -3.1660    -0.0120 C.3   1 <1>   0.0200 
 13 N        2.1900     3.6970     0.0600 N.2   1 <1>  -0.7070 
 14 C        0.2190     2.5390    -0.7820 C.3   1 <1>   0.0160 
 15 C        3.3940     3.3720     0.4070 C.2   1 <1>   0.1080 
 16 C        4.9100     1.2750     0.6580 C.3   1 <1>  -0.0590 
 17 C       -1.3760    -3.9030     1.3110 C.3   1 <1>  -0.2400 
 18 C        4.4100     4.4130     0.8400 C.3   1 <1>   0.0210 
 19 C        5.2250     4.9220    -0.3530 C.3   1 <1>  -0.2400 
 20 H        3.0100    -0.4590    -0.5740 H     1 <1>   0.3700 
 21 H        2.8530    -4.6940    -1.2130 H     1 <1>   0.1500 
 22 H       -1.6840    -3.6680    -0.8000 H     1 <1>   0.0800 
 23 H       -1.5470    -2.1700     0.0670 H     1 <1>   0.0800 
 24 H        0.1300     1.8020    -1.5560 H     1 <1>   0.0800 
 25 H        0.0050     3.5120    -1.1820 H     1 <1>   0.0800 
 26 H       -0.4640     2.3190     0.0170 H     1 <1>   0.0800 
 27 H        4.8050     0.2160     0.5150 H     1 <1>   0.0800 
 28 H        5.1750     1.4550     1.6840 H     1 <1>   0.0800 
 29 H        5.7010     1.6330     0.0240 H     1 <1>   0.0800 
 30 H       -1.0150    -4.9140     1.2410 H     1 <1>   0.0800 
 31 H       -2.4240    -3.9250     1.5480 H     1 <1>   0.0800 
 32 H       -0.8520    -3.4020     2.1060 H     1 <1>   0.0800 
 33 H        5.0650     3.9940     1.5810 H     1 <1>   0.0800 
 34 H        3.8850     5.2360     1.2920 H     1 <1>   0.0800 
 35 H        5.7620     4.1110    -0.8110 H     1 <1>   0.0800 
 36 H        5.9250     5.6720    -0.0330 H     1 <1>   0.0800 
 37 H        4.5630     5.3530    -1.0850 H     1 <1>   0.0800 
@<TRIPOS>BOND
  1   1   2  2   
  2   2   3  am  
  3   2   4  1   
  4   3   5  1   
  5   3  20  1   
  6   4   6  1   
  7   4   7  2   
  8   5   8  1   
  9   5   9  2   
 10   6  10  2   
 11   7  11  1   
 12   7  12  1   
 13   8  13  1   
 14   8  14  1   
 15   9  15  1   
 16   9  16  1   
 17  10  11  1   
 18  10  21  1   
 19  12  17  1   
 20  12  22  1   
 21  12  23  1   
 22  13  15  2   
 23  14  24  1   
 24  14  25  1   
 25  14  26  1   
 26  15  18  1   
 27  16  27  1   
 28  16  28  1   
 29  16  29  1   
 30  17  30  1   
 31  17  31  1   
 32  17  32  1   
 33  18  19  1   
 34  18  33  1   
 35  18  34  1   
 36  19  35  1   
 37  19  36  1   
 38  19  37  1   
@<TRIPOS>SUBSTRUCTURE
  1 ****   3 GROUP 4 **** **** 0

# MOE 2024.06 (io_trps.svl 2023.06)
