@<TRIPOS>MOLECULE
NONAME
47 49 1 0 0 
SMALL
USER_CHARGES


@<TRIPOS>ATOM
  1 O       -0.5370     0.7330     2.4700 O.2   1 <1>  -0.5700 
  2 C       -1.1430     0.6510     1.4300 C.2   1 <1>   0.5690 
  3 N       -1.7460    -0.4990     1.0430 N.am  1 <1>  -0.7300 
  4 C       -1.2500     1.8820     0.5330 C.3   1 <1>  -0.0190 
  5 C       -1.8390    -1.7210     1.8570 C.3   1 <1>   0.2840 
  6 C       -2.7180     2.2770     0.2750 C.3   1 <1>  -0.1600 
  7 C       -0.4710     1.7010    -0.7930 C.3   1 <1>  -0.1600 
  8 C       -3.2600    -2.2400     1.7440 C.ar  1 <1>  -0.1440 
  9 C       -2.8350     3.6050    -0.5010 C.3   1 <1>   0.2000 
 10 C       -0.9640     2.6160    -1.9310 C.3   1 <1>  -0.1600 
 11 C       -3.5830    -3.2110     0.8100 C.ar  1 <1>  -0.1500 
 12 C       -4.2500    -1.7360     2.5710 C.ar  1 <1>  -0.1500 
 13 O       -3.9800     3.5310    -1.3150 O.3   1 <1>  -0.5600 
 14 C       -1.5960     3.9000    -1.3880 C.3   1 <1>   0.2000 
 15 C       -4.8840    -3.6910     0.6860 C.ar  1 <1>  -0.0230 
 16 C       -5.5470    -2.2050     2.4690 C.ar  1 <1>  -0.1500 
 17 C       -5.1850     3.8020    -0.6680 C.3   1 <1>   0.0400 
 18 O       -1.9820     4.6730    -2.4630 O.3   1 <1>  -0.6800 
 19 N       -5.2000    -4.6840    -0.2890 N.pl3 1 <1>   0.5930 
 20 C       -5.8620    -3.1760     1.5350 C.ar  1 <1>  -0.1500 
 21 N       -4.3120    -5.6170    -0.7250 N.2   1 <1>  -0.7070 
 22 C       -6.3830    -4.8500    -0.9350 C.2   1 <1>  -0.3020 
 23 C       -4.9490    -6.3280    -1.6010 C.2   1 <1>   0.1390 
 24 C       -6.2560    -5.8950    -1.7780 C.2   1 <1>  -0.1500 
 25 H       -2.2940    -0.5250     0.1830 H     1 <1>   0.3700 
 26 H       -0.7930     2.6940     1.0730 H     1 <1>   0.0800 
 27 H       -1.1400    -2.4520     1.4880 H     1 <1>   0.0800 
 28 H       -1.5980    -1.5070     2.8850 H     1 <1>   0.0800 
 29 H       -3.2320     2.3700     1.2140 H     1 <1>   0.0800 
 30 H       -3.1900     1.4940    -0.2930 H     1 <1>   0.0800 
 31 H        0.5700     1.9000    -0.5990 H     1 <1>   0.0800 
 32 H       -0.5380     0.6810    -1.1300 H     1 <1>   0.0800 
 33 H       -2.9480     4.4280     0.1850 H     1 <1>   0.0800 
 34 H       -1.7050     2.0900    -2.5080 H     1 <1>   0.0800 
 35 H       -0.1410     2.8590    -2.5810 H     1 <1>   0.0800 
 36 H       -2.8180    -3.6090     0.1640 H     1 <1>   0.1500 
 37 H       -4.0110    -0.9770     3.2970 H     1 <1>   0.1500 
 38 H       -0.8590     4.4520    -0.8310 H     1 <1>   0.0800 
 39 H       -6.3110    -1.8140     3.1190 H     1 <1>   0.1500 
 40 H       -5.9770     3.7290    -1.3930 H     1 <1>   0.0800 
 41 H       -5.1560     4.8000    -0.2670 H     1 <1>   0.0800 
 42 H       -5.3450     3.0820     0.1140 H     1 <1>   0.0800 
 43 H       -2.9160     4.4230    -2.6490 H     1 <1>   0.4000 
 44 H       -6.8740    -3.5350     1.4760 H     1 <1>   0.1500 
 45 H       -7.2300    -4.2160    -0.7580 H     1 <1>   0.1500 
 46 H       -4.5070    -7.1580    -2.1280 H     1 <1>   0.1500 
 47 H       -6.9800    -6.3200    -2.4510 H     1 <1>   0.1500 
@<TRIPOS>BOND
  1   1   2  2   
  2   2   3  am  
  3   2   4  1   
  4   3   5  1   
  5   3  25  1   
  6   4   6  1   
  7   4   7  1   
  8   4  26  1   
  9   5   8  1   
 10   5  27  1   
 11   5  28  1   
 12   6   9  1   
 13   6  29  1   
 14   6  30  1   
 15   7  10  1   
 16   7  31  1   
 17   7  32  1   
 18   8  11  ar  
 19   8  12  ar  
 20   9  13  1   
 21   9  14  1   
 22   9  33  1   
 23  10  14  1   
 24  10  34  1   
 25  10  35  1   
 26  11  15  ar  
 27  11  36  1   
 28  12  16  ar  
 29  12  37  1   
 30  13  17  1   
 31  14  18  1   
 32  14  38  1   
 33  15  19  1   
 34  15  20  ar  
 35  16  20  ar  
 36  16  39  1   
 37  17  40  1   
 38  17  41  1   
 39  17  42  1   
 40  18  43  1   
 41  19  21  1   
 42  19  22  1   
 43  20  44  1   
 44  21  23  2   
 45  22  24  2   
 46  22  45  1   
 47  23  24  1   
 48  23  46  1   
 49  24  47  1   
@<TRIPOS>SUBSTRUCTURE
  1 ****   3 GROUP 4 **** **** 0

# MOE 2024.06 (io_trps.svl 2023.06)
