@<TRIPOS>MOLECULE
NONAME
60 64 1 0 0 
SMALL
USER_CHARGES


@<TRIPOS>ATOM
  1 S        0.3430    -0.6920    -0.3660 S.o2  1 <1>   1.3330 
  2 O        0.2900     0.1430    -1.5380 O.2   1 <1>  -0.6500 
  3 O        0.9810    -1.9870    -0.4230 O.2   1 <1>  -0.6500 
  4 N        1.1660     0.2630     0.7450 N.am  1 <1>  -0.9140 
  5 C       -1.2770    -0.8490     0.3540 C.3   1 <1>  -0.1350 
  6 C        2.6070     0.1200     0.8790 C.3   1 <1>   0.2760 
  7 C        3.3420     0.1160    -0.4750 C.3   1 <1>  -0.1600 
  8 C        2.9360    -1.0820     1.7770 C.3   1 <1>  -0.1600 
  9 C        4.8180    -0.2230    -0.3110 C.3   1 <1>   0.3430 
 10 C        4.4290    -1.3780     1.8120 C.3   1 <1>   0.3430 
 11 N        4.9240    -1.5160     0.4150 N.4   1 <1>  -0.9590 
 12 C        6.3130    -2.0540     0.3390 C.3   1 <1>   0.3430 
 13 C        6.3630    -3.5600     0.6310 C.3   1 <1>  -0.0800 
 14 C        5.6870    -4.3430    -0.5040 C.3   1 <1>   0.2000 
 15 C        7.7930    -4.1470     0.5500 C.3   1 <1>  -0.0800 
 16 O        6.7220    -4.3850    -1.4060 O.3   1 <1>  -0.5600 
 17 C        5.5140    -5.8290    -0.1580 C.3   1 <1>  -0.1600 
 18 C        7.6780    -5.0610    -0.6630 C.3   1 <1>   0.2800 
 19 C        8.9890    -3.2450     0.2060 C.3   1 <1>   0.2090 
 20 C        6.9420    -6.3560    -0.3240 C.3   1 <1>  -0.1600 
 21 C        9.0580    -5.1130    -1.3220 C.3   1 <1>   0.2090 
 22 N        9.8780    -4.0570    -0.6530 N.pl3 1 <1>  -0.8380 
 23 C       11.0590    -4.4770    -0.0890 C.ar  1 <1>   0.4100 
 24 N       10.9860    -5.1920     1.0190 N.ar  1 <1>  -0.6200 
 25 C       12.2640    -4.1620    -0.6640 C.ar  1 <1>  -0.1500 
 26 C       12.1490    -5.5700     1.5170 C.ar  1 <1>   0.4700 
 27 C       13.4010    -4.6150    -0.0450 C.ar  1 <1>   0.4100 
 28 N       13.3610    -5.3300     1.0540 N.ar  1 <1>  -0.6200 
 29 N       14.6450    -4.3690    -0.5240 N.pl3 1 <1>  -0.9000 
 30 H        0.9840     1.2060     0.3990 H     1 <1>   0.4200 
 31 H       -1.7160     0.1180     0.4990 H     1 <1>   0.0800 
 32 H       -1.2140    -1.3480     1.3000 H     1 <1>   0.0800 
 33 H       -1.9130    -1.4200    -0.2940 H     1 <1>   0.0800 
 34 H        2.9540     0.9910     1.4130 H     1 <1>   0.0800 
 35 H        2.9360    -0.6020    -1.1610 H     1 <1>   0.0800 
 36 H        3.2540     1.0860    -0.9320 H     1 <1>   0.0800 
 37 H        2.6010    -0.8700     2.7770 H     1 <1>   0.0800 
 38 H        2.4350    -1.9740     1.4590 H     1 <1>   0.0800 
 39 H        5.3220     0.5560     0.2390 H     1 <1>   0.0800 
 40 H        5.2730    -0.3050    -1.2860 H     1 <1>   0.0800 
 41 H        4.5950    -2.2890     2.3630 H     1 <1>   0.0800 
 42 H        4.9520    -0.5780     2.3110 H     1 <1>   0.0800 
 43 H        4.2960    -2.1730    -0.0740 H     1 <1>   0.4500 
 44 H        6.7000    -1.8990    -0.6570 H     1 <1>   0.0800 
 45 H        6.9480    -1.5260     1.0310 H     1 <1>   0.0800 
 46 H        5.9210    -3.7830     1.5840 H     1 <1>   0.0800 
 47 H        4.8120    -3.8930    -0.9410 H     1 <1>   0.0800 
 48 H        8.0420    -4.7240     1.4240 H     1 <1>   0.0800 
 49 H        5.1330    -5.9710     0.8380 H     1 <1>   0.0800 
 50 H        4.8510    -6.2990    -0.8630 H     1 <1>   0.0800 
 51 H        9.5000    -2.9210     1.0980 H     1 <1>   0.0800 
 52 H        8.7050    -2.3830    -0.3690 H     1 <1>   0.0800 
 53 H        7.0070    -7.0460    -1.1470 H     1 <1>   0.0800 
 54 H        7.3280    -6.8200     0.5660 H     1 <1>   0.0800 
 55 H        8.9820    -4.9240    -2.3790 H     1 <1>   0.0800 
 56 H        9.5060    -6.0790    -1.1620 H     1 <1>   0.0800 
 57 H       12.3050    -3.5790    -1.5590 H     1 <1>   0.1500 
 58 H       12.1030    -6.1520     2.4210 H     1 <1>   0.1500 
 59 H       15.3810    -4.8920    -0.0480 H     1 <1>   0.4000 
 60 H       14.7740    -4.2860    -1.5320 H     1 <1>   0.4000 
@<TRIPOS>BOND
  1   1   2  2   
  2   1   3  2   
  3   1   4  am  
  4   1   5  1   
  5   4   6  1   
  6   4  30  1   
  7   5  31  1   
  8   5  32  1   
  9   5  33  1   
 10   6   7  1   
 11   6   8  1   
 12   6  34  1   
 13   7   9  1   
 14   7  35  1   
 15   7  36  1   
 16   8  10  1   
 17   8  37  1   
 18   8  38  1   
 19   9  11  1   
 20   9  39  1   
 21   9  40  1   
 22  10  11  1   
 23  10  41  1   
 24  10  42  1   
 25  11  12  1   
 26  11  43  1   
 27  12  13  1   
 28  12  44  1   
 29  12  45  1   
 30  13  14  1   
 31  13  15  1   
 32  13  46  1   
 33  14  16  1   
 34  14  17  1   
 35  14  47  1   
 36  15  18  1   
 37  15  19  1   
 38  15  48  1   
 39  16  18  1   
 40  17  20  1   
 41  17  49  1   
 42  17  50  1   
 43  18  20  1   
 44  18  21  1   
 45  19  22  1   
 46  19  51  1   
 47  19  52  1   
 48  20  53  1   
 49  20  54  1   
 50  21  22  1   
 51  21  55  1   
 52  21  56  1   
 53  22  23  1   
 54  23  24  ar  
 55  23  25  ar  
 56  24  26  ar  
 57  25  27  ar  
 58  25  57  1   
 59  26  28  ar  
 60  26  58  1   
 61  27  28  ar  
 62  27  29  1   
 63  29  59  1   
 64  29  60  1   
@<TRIPOS>SUBSTRUCTURE
  1 ****  13 GROUP 4 **** **** 0

# MOE 2024.06 (io_trps.svl 2023.06)
