@<TRIPOS>MOLECULE
NONAME
57 60 1 0 0 
SMALL
USER_CHARGES


@<TRIPOS>ATOM
  1 O       -3.3660    -1.5060    -2.2310 O.2   1 <1>  -0.5700 
  2 C       -2.3800    -1.7850    -1.5940 C.2   1 <1>   0.5690 
  3 N       -2.2270    -3.0100    -1.0380 N.am  1 <1>  -0.7300 
  4 C       -1.2720    -0.7490    -1.3710 C.3   1 <1>  -0.0190 
  5 C       -3.2130    -4.1290    -1.1340 C.3   1 <1>   0.2010 
  6 C       -1.3710    -0.1130     0.0260 C.3   1 <1>  -0.2400 
  7 C       -1.2550     0.3560    -2.4430 C.3   1 <1>  -0.2400 
  8 C       -3.8740    -4.4490     0.2120 C.2   1 <1>   0.5690 
  9 O       -3.2490    -5.1760     0.9510 O.2   1 <1>  -0.5700 
 10 N       -5.1060    -3.9480     0.5690 N.am  1 <1>  -0.6600 
 11 C       -5.9210    -2.9800    -0.2440 C.3   1 <1>   0.1400 
 12 C       -5.7740    -4.3940     1.8260 C.3   1 <1>   0.1400 
 13 C       -6.3560    -1.7530     0.5840 C.3   1 <1>   0.1430 
 14 C       -6.1530    -3.1830     2.6830 C.3   1 <1>  -0.1600 
 15 C       -7.2930    -0.9050    -0.2570 C.ar  1 <1>   0.1670 
 16 C       -7.0360    -2.2010     1.8970 C.3   1 <1>  -0.1600 
 17 C       -5.1640    -0.7930     0.8490 C.3   1 <1>  -0.1600 
 18 N       -8.5140    -1.2400    -0.6040 N.ar  1 <1>  -0.6200 
 19 C       -6.7160     0.2670    -0.6330 C.ar  1 <1>  -0.1440 
 20 C       -5.3060     0.3980    -0.1190 C.3   1 <1>  -0.0170 
 21 C       -9.1770    -0.3470    -1.3500 C.ar  1 <1>   0.6200 
 22 C       -7.4560     1.1260    -1.4030 C.ar  1 <1>   0.1600 
 23 N       -8.6850     0.8310    -1.7610 N.ar  1 <1>  -0.6200 
 24 C      -10.5400    -0.6810    -1.7440 C.ar  1 <1>   0.0000 
 25 C      -11.4930     0.3090    -2.0040 C.ar  1 <1>  -0.1500 
 26 C      -10.9610    -2.0080    -1.8820 C.ar  1 <1>  -0.1500 
 27 C      -12.7870    -0.0040    -2.3770 C.ar  1 <1>  -0.1500 
 28 C      -12.2530    -2.3290    -2.2540 C.ar  1 <1>  -0.1500 
 29 C      -13.1710    -1.3260    -2.5030 C.ar  1 <1>  -0.1500 
 30 H       -1.4380    -3.1950    -0.4150 H     1 <1>   0.3700 
 31 H       -0.3330    -1.2700    -1.4330 H     1 <1>   0.0800 
 32 H       -2.6930    -5.0100    -1.4610 H     1 <1>   0.0800 
 33 H       -3.9570    -3.9110    -1.8770 H     1 <1>   0.0800 
 34 H       -2.2850     0.4470     0.1180 H     1 <1>   0.0800 
 35 H       -0.5430     0.5520     0.1940 H     1 <1>   0.0800 
 36 H       -1.3570    -0.8730     0.7870 H     1 <1>   0.0800 
 37 H       -2.1690     0.9230    -2.4130 H     1 <1>   0.0800 
 38 H       -1.1620    -0.0830    -3.4210 H     1 <1>   0.0800 
 39 H       -0.4270     1.0230    -2.2870 H     1 <1>   0.0800 
 40 H       -6.8010    -3.4900    -0.5970 H     1 <1>   0.0800 
 41 H       -5.3800    -2.6340    -1.1040 H     1 <1>   0.0800 
 42 H       -5.1310    -5.0440     2.3950 H     1 <1>   0.0800 
 43 H       -6.6600    -4.9500     1.5700 H     1 <1>   0.0800 
 44 H       -5.2540    -2.6960     3.0180 H     1 <1>   0.0800 
 45 H       -6.6840    -3.5220     3.5550 H     1 <1>   0.0800 
 46 H       -7.9650    -2.6900     1.6580 H     1 <1>   0.0800 
 47 H       -7.2720    -1.3440     2.5030 H     1 <1>   0.0800 
 48 H       -4.2170    -1.2860     0.7240 H     1 <1>   0.0800 
 49 H       -5.2130    -0.4160     1.8550 H     1 <1>   0.0800 
 50 H       -4.6160     0.3150    -0.9390 H     1 <1>   0.0800 
 51 H       -5.1570     1.3350     0.3870 H     1 <1>   0.0800 
 52 H       -7.0370     2.0620    -1.7290 H     1 <1>   0.1500 
 53 H      -11.2120     1.3430    -1.9110 H     1 <1>   0.1500 
 54 H      -10.2610    -2.8030    -1.6930 H     1 <1>   0.1500 
 55 H      -13.4960     0.7830    -2.5700 H     1 <1>   0.1500 
 56 H      -12.5460    -3.3600    -2.3500 H     1 <1>   0.1500 
 57 H      -14.1780    -1.5720    -2.7930 H     1 <1>   0.1500 
@<TRIPOS>BOND
  1   1   2  2   
  2   2   3  am  
  3   2   4  1   
  4   3   5  1   
  5   3  30  1   
  6   4   6  1   
  7   4   7  1   
  8   4  31  1   
  9   5   8  1   
 10   5  32  1   
 11   5  33  1   
 12   6  34  1   
 13   6  35  1   
 14   6  36  1   
 15   7  37  1   
 16   7  38  1   
 17   7  39  1   
 18   8   9  2   
 19   8  10  am  
 20  10  11  1   
 21  10  12  1   
 22  11  13  1   
 23  11  40  1   
 24  11  41  1   
 25  12  14  1   
 26  12  42  1   
 27  12  43  1   
 28  13  15  1   
 29  13  16  1   
 30  13  17  1   
 31  14  16  1   
 32  14  44  1   
 33  14  45  1   
 34  15  18  ar  
 35  15  19  ar  
 36  16  46  1   
 37  16  47  1   
 38  17  20  1   
 39  17  48  1   
 40  17  49  1   
 41  18  21  ar  
 42  19  20  1   
 43  19  22  ar  
 44  20  50  1   
 45  20  51  1   
 46  21  23  ar  
 47  21  24  1   
 48  22  23  ar  
 49  22  52  1   
 50  24  25  ar  
 51  24  26  ar  
 52  25  27  ar  
 53  25  53  1   
 54  26  28  ar  
 55  26  54  1   
 56  27  29  ar  
 57  27  55  1   
 58  28  29  ar  
 59  28  56  1   
 60  29  57  1   
@<TRIPOS>SUBSTRUCTURE
  1 ****  15 GROUP 4 **** **** 0

# MOE 2024.06 (io_trps.svl 2023.06)
