@<TRIPOS>MOLECULE
NONAME
48 51 1 0 0 
SMALL
USER_CHARGES


@<TRIPOS>ATOM
  1 O        1.3210    -0.3750    -2.0410 O.2   1 <1>  -0.5700 
  2 C        1.9210    -0.6500    -1.0180 C.2   1 <1>   0.7160 
  3 N        2.7990     0.3010    -0.5230 N.am  1 <1>  -0.6600 
  4 C        1.6980    -1.9480    -0.3990 C.2   1 <1>   0.1410 
  5 C        3.1480     0.3970     0.9440 C.3   1 <1>   0.2200 
  6 C        3.4160     1.2720    -1.4820 C.3   1 <1>   0.1400 
  7 N        2.5040    -2.4980     0.5380 N.2   1 <1>  -0.2270 
  8 C        0.7100    -2.8390    -0.6430 C.2   1 <1>  -0.3020 
  9 C        3.0260     1.8300     1.4890 C.3   1 <1>   0.1200 
 10 C        4.5470    -0.1980     1.2370 C.3   1 <1>   0.3430 
 11 C        4.6990     1.9670    -0.9890 C.3   1 <1>  -0.0800 
 12 N        2.0390    -3.6450     0.8640 N.2   1 <1>  -0.4180 
 13 N        0.9260    -3.8940     0.1450 N.pl3 1 <1>   0.5930 
 14 O        4.2130     2.5390     1.3120 O.3   1 <1>  -0.5600 
 15 N        5.4050    -0.2840     0.0150 N.4   1 <1>  -0.9590 
 16 C        4.4180     3.0670     0.0440 C.3   1 <1>   0.1200 
 17 C        5.8450     1.0320    -0.5540 C.3   1 <1>   0.3430 
 18 C        0.1530    -5.0870     0.2460 C.ar  1 <1>  -0.0230 
 19 C        6.6170    -1.1840     0.2110 C.3   1 <1>   0.2370 
 20 C        0.7630    -6.3070     0.5280 C.ar  1 <1>  -0.1500 
 21 C       -1.2280    -5.0630     0.0640 C.ar  1 <1>  -0.1500 
 22 C        7.4800    -1.3600    -1.0420 C.2   1 <1>   0.9060 
 23 C        0.0170    -7.4680     0.6230 C.ar  1 <1>  -0.1500 
 24 C       -1.9750    -6.2240     0.1570 C.ar  1 <1>  -0.1500 
 25 O        8.3290    -0.4960    -1.2810 O.co2 1 <1>  -0.9000 
 26 O        7.1940    -2.2680    -1.8220 O.co2 1 <1>  -0.9000 
 27 C       -1.3530    -7.4270     0.4360 C.ar  1 <1>  -0.1500 
 28 H        2.4250    -0.1710     1.5020 H     1 <1>   0.0800 
 29 H        3.6450     0.7450    -2.3950 H     1 <1>   0.0800 
 30 H        2.6790     2.0180    -1.7310 H     1 <1>   0.0800 
 31 H       -0.1070    -2.7700    -1.3350 H     1 <1>   0.1500 
 32 H        2.8560     1.7860     2.5510 H     1 <1>   0.0800 
 33 H        2.2030     2.3610     1.0390 H     1 <1>   0.0800 
 34 H        4.4100    -1.1900     1.6350 H     1 <1>   0.0800 
 35 H        5.0400     0.3900     1.9940 H     1 <1>   0.0800 
 36 H        5.0790     2.4980    -1.8430 H     1 <1>   0.0800 
 37 H        4.8410    -0.7370    -0.7210 H     1 <1>   0.4500 
 38 H        3.5640     3.6640    -0.2310 H     1 <1>   0.0800 
 39 H        5.2710     3.7210     0.1170 H     1 <1>   0.0800 
 40 H        6.4730     1.5420     0.1590 H     1 <1>   0.0800 
 41 H        6.4530     0.8400    -1.4250 H     1 <1>   0.0800 
 42 H        7.2520    -0.7780     0.9770 H     1 <1>   0.0800 
 43 H        6.2970    -2.1650     0.5120 H     1 <1>   0.0800 
 44 H        1.8300    -6.3520     0.6760 H     1 <1>   0.1500 
 45 H       -1.7330    -4.1360    -0.1490 H     1 <1>   0.1500 
 46 H        0.5020    -8.4040     0.8420 H     1 <1>   0.1500 
 47 H       -3.0410    -6.1930     0.0140 H     1 <1>   0.1500 
 48 H       -1.9340    -8.3310     0.5100 H     1 <1>   0.1500 
@<TRIPOS>BOND
  1   1   2  2   
  2   2   3  am  
  3   2   4  1   
  4   3   5  1   
  5   3   6  1   
  6   4   7  1   
  7   4   8  2   
  8   5   9  1   
  9   5  10  1   
 10   5  28  1   
 11   6  11  1   
 12   6  29  1   
 13   6  30  1   
 14   7  12  2   
 15   8  13  1   
 16   8  31  1   
 17   9  14  1   
 18   9  32  1   
 19   9  33  1   
 20  10  15  1   
 21  10  34  1   
 22  10  35  1   
 23  11  16  1   
 24  11  17  1   
 25  11  36  1   
 26  12  13  1   
 27  13  18  1   
 28  14  16  1   
 29  15  17  1   
 30  15  19  1   
 31  15  37  1   
 32  16  38  1   
 33  16  39  1   
 34  17  40  1   
 35  17  41  1   
 36  18  20  ar  
 37  18  21  ar  
 38  19  22  1   
 39  19  42  1   
 40  19  43  1   
 41  20  23  ar  
 42  20  44  1   
 43  21  24  ar  
 44  21  45  1   
 45  22  25  ar  
 46  22  26  ar  
 47  23  27  ar  
 48  23  46  1   
 49  24  27  ar  
 50  24  47  1   
 51  27  48  1   
@<TRIPOS>SUBSTRUCTURE
  1 ****   7 GROUP 4 **** **** 0

# MOE 2024.06 (io_trps.svl 2023.06)
