@<TRIPOS>MOLECULE
NONAME
49 51 1 0 0 
SMALL
USER_CHARGES


@<TRIPOS>ATOM
  1 O       -3.1660     1.4320    -2.4460 O.2   1 <1>  -0.5700 
  2 C       -2.5660     1.4880    -1.4010 C.2   1 <1>   0.5690 
  3 N       -2.2140     0.3790    -0.7110 N.am  1 <1>  -0.7300 
  4 C       -2.1800     2.8310    -0.8300 C.3   1 <1>  -0.0990 
  5 C       -2.4830    -1.0100    -1.1390 C.3   1 <1>   0.2200 
  6 C       -0.7200     3.1640    -1.1560 C.3   1 <1>  -0.0160 
  7 C       -3.5780    -1.5970    -0.2650 C.3   1 <1>  -0.0800 
  8 C       -1.2910    -1.8950    -0.7860 C.3   1 <1>   0.1200 
  9 C       -0.2560     4.3640    -0.3410 C.ar  1 <1>  -0.1440 
 10 C       -2.7890    -2.0670     0.9610 C.3   1 <1>   0.1200 
 11 C       -4.3040    -2.7570    -0.9730 C.3   1 <1>  -0.0160 
 12 O       -1.4720    -2.2860     0.5440 O.3   1 <1>  -0.5600 
 13 C        0.1510     4.2150     0.9840 C.ar  1 <1>   0.0820 
 14 C       -0.2410     5.6200    -0.9270 C.ar  1 <1>  -0.1500 
 15 C       -5.4160    -3.3290    -0.1080 C.ar  1 <1>  -0.1440 
 16 O        0.1130     2.9650     1.5240 O.3   1 <1>  -0.3630 
 17 C        0.5710     5.3320     1.7030 C.ar  1 <1>  -0.1500 
 18 C        0.1780     6.7250    -0.2070 C.ar  1 <1>  -0.1500 
 19 C       -6.6110    -2.6620     0.0710 C.ar  1 <1>  -0.1500 
 20 C       -5.2920    -4.5410     0.5410 C.ar  1 <1>  -0.1500 
 21 C        0.5930     2.7060     2.8240 C.3   1 <1>   0.0400 
 22 C        0.5840     6.5810     1.1070 C.ar  1 <1>  -0.1500 
 23 C       -7.5940    -3.2200     0.8710 C.ar  1 <1>   0.1600 
 24 C       -6.3380    -5.0110     1.3190 C.ar  1 <1>   0.1600 
 25 N       -7.4850    -4.3780     1.5010 N.ar  1 <1>  -0.6200 
 26 H       -1.6950     0.4660     0.1670 H     1 <1>   0.3700 
 27 H       -2.8240     3.5900    -1.2340 H     1 <1>   0.0800 
 28 H       -2.3220     2.8070     0.2340 H     1 <1>   0.0800 
 29 H       -2.7150    -1.0380    -2.1900 H     1 <1>   0.0800 
 30 H       -0.6250     3.3640    -2.2090 H     1 <1>   0.0800 
 31 H       -0.0890     2.3210    -0.9340 H     1 <1>   0.0800 
 32 H       -4.3020    -0.8490     0.0040 H     1 <1>   0.0800 
 33 H       -0.3510    -1.3830    -0.8890 H     1 <1>   0.0800 
 34 H       -1.2890    -2.7850    -1.3890 H     1 <1>   0.0800 
 35 H       -3.1750    -2.9730     1.3940 H     1 <1>   0.0800 
 36 H       -2.7650    -1.2960     1.7120 H     1 <1>   0.0800 
 37 H       -3.6060    -3.5370    -1.2250 H     1 <1>   0.0800 
 38 H       -4.7350    -2.3990    -1.8920 H     1 <1>   0.0800 
 39 H       -0.5560     5.7450    -1.9480 H     1 <1>   0.1500 
 40 H        0.8900     5.2530     2.7240 H     1 <1>   0.1500 
 41 H        0.1870     7.6960    -0.6700 H     1 <1>   0.1500 
 42 H       -6.7860    -1.7140    -0.4040 H     1 <1>   0.1500 
 43 H       -4.3950    -5.1250     0.4510 H     1 <1>   0.1500 
 44 H        0.4990     1.6520     3.0120 H     1 <1>   0.0800 
 45 H        0.0010     3.2580     3.5320 H     1 <1>   0.0800 
 46 H        1.6280     2.9950     2.8780 H     1 <1>   0.0800 
 47 H        0.9100     7.4410     1.6650 H     1 <1>   0.1500 
 48 H       -8.5190    -2.6840     0.9990 H     1 <1>   0.1500 
 49 H       -6.2230    -5.9580     1.8180 H     1 <1>   0.1500 
@<TRIPOS>BOND
  1   1   2  2   
  2   2   3  am  
  3   2   4  1   
  4   3   5  1   
  5   3  26  1   
  6   4   6  1   
  7   4  27  1   
  8   4  28  1   
  9   5   7  1   
 10   5   8  1   
 11   5  29  1   
 12   6   9  1   
 13   6  30  1   
 14   6  31  1   
 15   7  10  1   
 16   7  11  1   
 17   7  32  1   
 18   8  12  1   
 19   8  33  1   
 20   8  34  1   
 21   9  13  ar  
 22   9  14  ar  
 23  10  12  1   
 24  10  35  1   
 25  10  36  1   
 26  11  15  1   
 27  11  37  1   
 28  11  38  1   
 29  13  16  1   
 30  13  17  ar  
 31  14  18  ar  
 32  14  39  1   
 33  15  19  ar  
 34  15  20  ar  
 35  16  21  1   
 36  17  22  ar  
 37  17  40  1   
 38  18  22  ar  
 39  18  41  1   
 40  19  23  ar  
 41  19  42  1   
 42  20  24  ar  
 43  20  43  1   
 44  21  44  1   
 45  21  45  1   
 46  21  46  1   
 47  22  47  1   
 48  23  25  ar  
 49  23  48  1   
 50  24  25  ar  
 51  24  49  1   
@<TRIPOS>SUBSTRUCTURE
  1 ****   3 GROUP 4 **** **** 0

# MOE 2024.06 (io_trps.svl 2023.06)
