@<TRIPOS>MOLECULE
NONAME
64 66 1 0 0 
SMALL
USER_CHARGES


@<TRIPOS>ATOM
  1 O        1.8560    -0.4460    -0.3630 O.2   1 <1>  -0.5700 
  2 C        2.4180    -1.1610     0.4280 C.2   1 <1>   0.5690 
  3 N        3.2800    -0.6390     1.3530 N.am  1 <1>  -0.6600 
  4 C        2.1550    -2.6610     0.3540 C.3   1 <1>  -0.0990 
  5 C        4.6360    -1.2070     1.6010 C.3   1 <1>   0.1400 
  6 C        3.0330     0.7260     1.8980 C.3   1 <1>   0.1400 
  7 C        0.6500    -2.9640     0.1630 C.3   1 <1>  -0.1600 
  8 C        5.5900    -0.8950     0.4260 C.3   1 <1>   0.3430 
  9 C        4.0490     1.7560     1.3940 C.3   1 <1>  -0.1600 
 10 C        0.3200    -4.4570     0.0090 C.3   1 <1>   0.4230 
 11 N        5.8590     0.5650     0.2000 N.4   1 <1>  -0.9590 
 12 C        4.6450     1.4240     0.0260 C.3   1 <1>   0.3430 
 13 N       -1.0840    -4.5960    -0.4710 N.4   1 <1>  -0.9590 
 14 C        0.5460    -5.2410     1.3070 C.3   1 <1>  -0.2400 
 15 C        6.8270     0.7750    -0.9070 C.3   1 <1>   0.4860 
 16 C       -2.1260    -4.2120     0.5320 C.3   1 <1>   0.3430 
 17 C       -1.3450    -5.9540    -1.0360 C.3   1 <1>   0.3430 
 18 C        7.3630     2.1890    -0.8230 C.ar  1 <1>  -0.1430 
 19 C       -3.5020    -4.1920    -0.1350 C.3   1 <1>  -0.1600 
 20 C       -2.7050    -5.9680    -1.7370 C.3   1 <1>  -0.1600 
 21 C        7.9610     2.6440     0.3540 C.ar  1 <1>   0.4100 
 22 C        7.2530     3.0520    -1.8920 C.ar  1 <1>  -0.1500 
 23 C       -3.8350    -5.5380    -0.7930 C.3   1 <1>  -0.1600 
 24 N        8.4130     3.8620     0.5370 N.ar  1 <1>  -0.6200 
 25 N        8.1180     1.8620     1.4530 N.pl3 1 <1>  -0.9000 
 26 C        7.7420     4.3310    -1.7150 C.ar  1 <1>  -0.1500 
 27 C        8.3010     4.6790    -0.4980 C.ar  1 <1>   0.1600 
 28 H        2.5000    -3.1180     1.2620 H     1 <1>   0.0800 
 29 H        2.7170    -3.0610    -0.4700 H     1 <1>   0.0800 
 30 H        4.5630    -2.2740     1.7170 H     1 <1>   0.0800 
 31 H        5.0400    -0.8120     2.5180 H     1 <1>   0.0800 
 32 H        3.0490     0.6920     2.9740 H     1 <1>   0.0800 
 33 H        2.0440     1.0450     1.6080 H     1 <1>   0.0800 
 34 H        0.3220    -2.4520    -0.7260 H     1 <1>   0.0800 
 35 H        0.1150    -2.5500     1.0000 H     1 <1>   0.0800 
 36 H        5.1690    -1.3210    -0.4700 H     1 <1>   0.0800 
 37 H        6.5260    -1.3960     0.6140 H     1 <1>   0.0800 
 38 H        4.8290     1.8990     2.1200 H     1 <1>   0.0800 
 39 H        3.5330     2.6960     1.3140 H     1 <1>   0.0800 
 40 H        0.9740    -4.8610    -0.7480 H     1 <1>   0.0800 
 41 H        6.3750     0.9450     1.0180 H     1 <1>   0.4500 
 42 H        4.9270     2.3510    -0.4460 H     1 <1>   0.0800 
 43 H        3.9110     0.9390    -0.5990 H     1 <1>   0.0800 
 44 H       -1.1900    -3.9380    -1.2540 H     1 <1>   0.4500 
 45 H        0.0200    -4.7970     2.1330 H     1 <1>   0.0800 
 46 H        1.5920    -5.2460     1.5510 H     1 <1>   0.0800 
 47 H        0.2430    -6.2660     1.2010 H     1 <1>   0.0800 
 48 H        6.3480     0.6120    -1.8580 H     1 <1>   0.0800 
 49 H        7.6510     0.0870    -0.8110 H     1 <1>   0.0800 
 50 H       -1.9140    -3.2350     0.9370 H     1 <1>   0.0800 
 51 H       -2.1310    -4.9220     1.3440 H     1 <1>   0.0800 
 52 H       -1.3430    -6.6860    -0.2450 H     1 <1>   0.0800 
 53 H       -0.5760    -6.2160    -1.7450 H     1 <1>   0.0800 
 54 H       -3.5320    -3.4060    -0.8700 H     1 <1>   0.0800 
 55 H       -4.2480    -3.9650     0.6070 H     1 <1>   0.0800 
 56 H       -2.9040    -6.9630    -2.0970 H     1 <1>   0.0800 
 57 H       -2.6740    -5.3180    -2.5930 H     1 <1>   0.0800 
 58 H        6.8100     2.7650    -2.8320 H     1 <1>   0.1500 
 59 H       -4.7600    -5.4590    -1.3400 H     1 <1>   0.0800 
 60 H       -3.9700    -6.2870    -0.0290 H     1 <1>   0.0800 
 61 H        8.1660     2.4900     2.2670 H     1 <1>   0.4000 
 62 H        9.0370     1.4060     1.4480 H     1 <1>   0.4000 
 63 H        7.6900     5.0540    -2.5100 H     1 <1>   0.1500 
 64 H        8.6760     5.6820    -0.3700 H     1 <1>   0.1500 
@<TRIPOS>BOND
  1   1   2  2   
  2   2   3  am  
  3   2   4  1   
  4   3   5  1   
  5   3   6  1   
  6   4   7  1   
  7   4  28  1   
  8   4  29  1   
  9   5   8  1   
 10   5  30  1   
 11   5  31  1   
 12   6   9  1   
 13   6  32  1   
 14   6  33  1   
 15   7  10  1   
 16   7  34  1   
 17   7  35  1   
 18   8  11  1   
 19   8  36  1   
 20   8  37  1   
 21   9  12  1   
 22   9  38  1   
 23   9  39  1   
 24  10  13  1   
 25  10  14  1   
 26  10  40  1   
 27  11  12  1   
 28  11  15  1   
 29  11  41  1   
 30  12  42  1   
 31  12  43  1   
 32  13  16  1   
 33  13  17  1   
 34  13  44  1   
 35  14  45  1   
 36  14  46  1   
 37  14  47  1   
 38  15  18  1   
 39  15  48  1   
 40  15  49  1   
 41  16  19  1   
 42  16  50  1   
 43  16  51  1   
 44  17  20  1   
 45  17  52  1   
 46  17  53  1   
 47  18  21  ar  
 48  18  22  ar  
 49  19  23  1   
 50  19  54  1   
 51  19  55  1   
 52  20  23  1   
 53  20  56  1   
 54  20  57  1   
 55  21  24  ar  
 56  21  25  1   
 57  22  26  ar  
 58  22  58  1   
 59  23  59  1   
 60  23  60  1   
 61  24  27  ar  
 62  25  61  1   
 63  25  62  1   
 64  26  27  ar  
 65  26  63  1   
 66  27  64  1   
@<TRIPOS>SUBSTRUCTURE
  1 ****   2 GROUP 4 **** **** 0

# MOE 2024.06 (io_trps.svl 2023.06)
