@<TRIPOS>MOLECULE
NONAME
39 41 1 0 0 
SMALL
USER_CHARGES


@<TRIPOS>ATOM
  1 O       -0.2930     0.1110     0.6740 O.2   1 <1>  -0.5700 
  2 C       -1.3520     0.7120     0.7160 C.2   1 <1>   0.7160 
  3 N       -2.5190    -0.0070     0.5730 N.am  1 <1>  -0.6600 
  4 C       -1.3800     2.1500     0.8980 C.2   1 <1>  -0.0860 
  5 C       -3.8210     0.5910     0.1920 C.3   1 <1>   0.1400 
  6 C       -2.5230    -1.4710     0.3350 C.3   1 <1>   0.1400 
  7 C       -0.6400     3.1320     0.2800 C.2   1 <1>  -0.3320 
  8 C       -2.2170     2.8390     1.8010 C.2   1 <1>  -0.1500 
  9 C       -4.6120    -0.5560    -0.4370 C.3   1 <1>   0.2000 
 10 C       -3.9950    -1.8350     0.1250 C.3   1 <1>  -0.0800 
 11 N       -0.9920     4.3490     0.7550 N.pl3 1 <1>   0.0330 
 12 C        0.4340     2.9650    -0.7810 C.3   1 <1>  -0.0600 
 13 C       -1.9610     4.1650     1.6860 C.2   1 <1>  -0.3020 
 14 O       -5.9570    -0.4950    -0.1060 O.3   1 <1>  -0.6800 
 15 C       -4.2210    -3.0510    -0.7890 C.3   1 <1>  -0.0170 
 16 C       -3.6480    -4.3240    -0.1850 C.ar  1 <1>   0.1670 
 17 N       -2.3580    -4.5420    -0.3790 N.ar  1 <1>  -0.6200 
 18 C       -4.4750    -5.1870     0.5320 C.ar  1 <1>   0.1600 
 19 C       -1.9520    -5.6660     0.1880 C.ar  1 <1>   0.1600 
 20 N       -4.0720    -6.3110     1.1010 N.ar  1 <1>  -0.6200 
 21 C       -2.7810    -6.5210     0.9040 C.ar  1 <1>   0.1600 
 22 H       -4.3140     0.9570     1.0760 H     1 <1>   0.0800 
 23 H       -3.6790     1.3920    -0.5130 H     1 <1>   0.0800 
 24 H       -1.9420    -1.6860    -0.5470 H     1 <1>   0.0800 
 25 H       -2.0980    -1.9970     1.1730 H     1 <1>   0.0800 
 26 H       -2.9200     2.3630     2.4610 H     1 <1>   0.1500 
 27 H       -4.5220    -0.5150    -1.5090 H     1 <1>   0.0800 
 28 H       -4.4110    -2.0350     1.0960 H     1 <1>   0.0800 
 29 H       -0.5920     5.2510     0.4700 H     1 <1>   0.2700 
 30 H        0.5460     1.9300    -1.0510 H     1 <1>   0.0800 
 31 H        1.3790     3.3190    -0.4080 H     1 <1>   0.0800 
 32 H        0.1750     3.5200    -1.6650 H     1 <1>   0.0800 
 33 H       -2.4090     4.9850     2.2190 H     1 <1>   0.1500 
 34 H       -6.0700    -0.5030     0.8640 H     1 <1>   0.4000 
 35 H       -3.7630    -2.8820    -1.7480 H     1 <1>   0.0800 
 36 H       -5.2760    -3.1770    -0.9540 H     1 <1>   0.0800 
 37 H       -5.5150    -4.9370     0.6420 H     1 <1>   0.1500 
 38 H       -0.9130    -5.9230     0.0810 H     1 <1>   0.1500 
 39 H       -2.3580    -7.4140     1.3290 H     1 <1>   0.1500 
@<TRIPOS>BOND
  1   1   2  2   
  2   2   3  am  
  3   2   4  1   
  4   3   5  1   
  5   3   6  1   
  6   4   7  2   
  7   4   8  1   
  8   5   9  1   
  9   5  22  1   
 10   5  23  1   
 11   6  10  1   
 12   6  24  1   
 13   6  25  1   
 14   7  11  1   
 15   7  12  1   
 16   8  13  2   
 17   8  26  1   
 18   9  10  1   
 19   9  14  1   
 20   9  27  1   
 21  10  15  1   
 22  10  28  1   
 23  11  13  1   
 24  11  29  1   
 25  12  30  1   
 26  12  31  1   
 27  12  32  1   
 28  13  33  1   
 29  14  34  1   
 30  15  16  1   
 31  15  35  1   
 32  15  36  1   
 33  16  17  ar  
 34  16  18  ar  
 35  17  19  ar  
 36  18  20  ar  
 37  18  37  1   
 38  19  21  ar  
 39  19  38  1   
 40  20  21  ar  
 41  21  39  1   
@<TRIPOS>SUBSTRUCTURE
  1 ****   6 GROUP 4 **** **** 0

# MOE 2024.06 (io_trps.svl 2023.06)
