@<TRIPOS>MOLECULE
NONAME
58 60 1 0 0 
SMALL
USER_CHARGES


@<TRIPOS>ATOM
  1 O       -1.8170    -0.6850     0.3560 O.3   1 <1>  -0.3630 
  2 C       -2.3740     0.5400     0.1660 C.ar  1 <1>   0.0830 
  3 C       -0.4100    -0.7900     0.2280 C.3   1 <1>   0.0400 
  4 C       -3.2910     0.6760    -0.8720 C.ar  1 <1>  -0.1440 
  5 C       -2.0730     1.6320     0.9800 C.ar  1 <1>  -0.1440 
  6 C       -3.8630     1.9100    -1.1350 C.ar  1 <1>  -0.1500 
  7 C       -3.6860    -0.5290    -1.6970 C.3   1 <1>   0.4870 
  8 C       -2.6560     2.8570     0.6990 C.ar  1 <1>  -0.1500 
  9 C       -1.1490     1.5460     2.1890 C.3   1 <1>  -0.0960 
 10 C       -3.5400     3.0060    -0.3560 C.ar  1 <1>  -0.1440 
 11 N       -4.2650    -1.5310    -0.7580 N.4   1 <1>  -0.9590 
 12 C       -4.1570     4.3650    -0.6400 C.3   1 <1>  -0.0970 
 13 C       -4.3420    -2.9170    -1.3360 C.3   1 <1>   0.3430 
 14 C       -5.5470    -1.0300    -0.1750 C.3   1 <1>   0.3430 
 15 C       -4.9910    -3.9680    -0.3730 C.3   1 <1>   0.4230 
 16 C       -6.0500    -2.0490     0.8450 C.3   1 <1>  -0.1600 
 17 N       -5.0930    -5.3910    -0.9320 N.4   1 <1>  -0.9590 
 18 C       -6.3330    -3.4390     0.2090 C.3   1 <1>   0.0000 
 19 C       -6.0970    -6.2630    -0.2260 C.3   1 <1>   0.3430 
 20 C       -5.3090    -5.5200    -2.4150 C.3   1 <1>   0.2630 
 21 C       -6.8350    -4.3880     1.3330 C.3   1 <1>  -0.1600 
 22 C       -7.3970    -3.3400    -0.9260 C.3   1 <1>   0.1200 
 23 C       -6.2830    -5.8220     1.2240 C.3   1 <1>  -0.1600 
 24 O       -8.3670    -2.4030    -0.6290 O.3   1 <1>  -0.6800 
 25 H       -0.1710    -1.7740    -0.1330 H     1 <1>   0.0800 
 26 H        0.0450    -0.6450     1.1910 H     1 <1>   0.0800 
 27 H       -0.0550    -0.0480    -0.4680 H     1 <1>   0.0800 
 28 H       -4.5630     2.0340    -1.9440 H     1 <1>   0.1500 
 29 H       -2.8050    -0.9250    -2.1750 H     1 <1>   0.0800 
 30 H       -4.4030    -0.2510    -2.4520 H     1 <1>   0.0800 
 31 H       -2.4230     3.7120     1.3100 H     1 <1>   0.1500 
 32 H       -1.3730     2.3260     2.8940 H     1 <1>   0.0800 
 33 H       -0.1250     1.6540     1.8800 H     1 <1>   0.0800 
 34 H       -1.2730     0.6050     2.6930 H     1 <1>   0.0800 
 35 H       -3.5670    -1.5020     0.0130 H     1 <1>   0.4500 
 36 H       -3.4460     5.1460    -0.4390 H     1 <1>   0.0800 
 37 H       -5.0190     4.5140    -0.0160 H     1 <1>   0.0800 
 38 H       -4.4560     4.4420    -1.6700 H     1 <1>   0.0800 
 39 H       -4.9240    -2.8740    -2.2400 H     1 <1>   0.0800 
 40 H       -3.3470    -3.2450    -1.5900 H     1 <1>   0.0800 
 41 H       -5.3870    -0.0800     0.3130 H     1 <1>   0.0800 
 42 H       -6.2870    -0.8910    -0.9480 H     1 <1>   0.0800 
 43 H       -4.3260    -4.0300     0.4730 H     1 <1>   0.0800 
 44 H       -5.3240    -2.1300     1.6360 H     1 <1>   0.0800 
 45 H       -6.9440    -1.6560     1.3000 H     1 <1>   0.0800 
 46 H       -4.1840    -5.8400    -0.7310 H     1 <1>   0.4500 
 47 H       -7.0510    -6.2040    -0.7250 H     1 <1>   0.0800 
 48 H       -5.7750    -7.2930    -0.2540 H     1 <1>   0.0800 
 49 H       -6.2510    -5.0810    -2.7020 H     1 <1>   0.0800 
 50 H       -5.3230    -6.5610    -2.6990 H     1 <1>   0.0800 
 51 H       -4.5170    -5.0370    -2.9630 H     1 <1>   0.0800 
 52 H       -6.5600    -4.0130     2.3050 H     1 <1>   0.0800 
 53 H       -7.9120    -4.4210     1.3240 H     1 <1>   0.0800 
 54 H       -7.8910    -4.2810    -1.1010 H     1 <1>   0.0800 
 55 H       -6.9560    -3.0180    -1.8520 H     1 <1>   0.0800 
 56 H       -6.9650    -6.4980     1.7140 H     1 <1>   0.0800 
 57 H       -5.3420    -5.9010     1.7420 H     1 <1>   0.0800 
 58 H       -9.0470    -2.7490    -0.0130 H     1 <1>   0.4000 
@<TRIPOS>BOND
  1   1   2  1   
  2   1   3  1   
  3   2   4  ar  
  4   2   5  ar  
  5   3  25  1   
  6   3  26  1   
  7   3  27  1   
  8   4   6  ar  
  9   4   7  1   
 10   5   8  ar  
 11   5   9  1   
 12   6  10  ar  
 13   6  28  1   
 14   7  11  1   
 15   7  29  1   
 16   7  30  1   
 17   8  10  ar  
 18   8  31  1   
 19   9  32  1   
 20   9  33  1   
 21   9  34  1   
 22  10  12  1   
 23  11  13  1   
 24  11  14  1   
 25  11  35  1   
 26  12  36  1   
 27  12  37  1   
 28  12  38  1   
 29  13  15  1   
 30  13  39  1   
 31  13  40  1   
 32  14  16  1   
 33  14  41  1   
 34  14  42  1   
 35  15  17  1   
 36  15  18  1   
 37  15  43  1   
 38  16  18  1   
 39  16  44  1   
 40  16  45  1   
 41  17  19  1   
 42  17  20  1   
 43  17  46  1   
 44  18  21  1   
 45  18  22  1   
 46  19  23  1   
 47  19  47  1   
 48  19  48  1   
 49  20  49  1   
 50  20  50  1   
 51  20  51  1   
 52  21  23  1   
 53  21  52  1   
 54  21  53  1   
 55  22  24  1   
 56  22  54  1   
 57  22  55  1   
 58  23  56  1   
 59  23  57  1   
 60  24  58  1   
@<TRIPOS>SUBSTRUCTURE
  1 ****  11 GROUP 4 **** **** 0

# MOE 2024.06 (io_trps.svl 2023.06)
