@<TRIPOS>MOLECULE
NONAME
46 48 1 0 0 
SMALL
USER_CHARGES


@<TRIPOS>ATOM
  1 O       -0.4350    -0.2340     0.3060 O.3   1 <1>  -0.5320 
  2 C       -1.6280    -0.8260     0.4560 C.ar  1 <1>   0.0830 
  3 C       -1.9150    -1.4700     1.6450 C.ar  1 <1>  -0.1500 
  4 C       -2.5620    -0.7900    -0.5660 C.ar  1 <1>  -0.1500 
  5 C       -3.1410    -2.0880     1.8150 C.ar  1 <1>  -0.1500 
  6 C       -3.7880    -1.4110    -0.3940 C.ar  1 <1>  -0.1500 
  7 C       -4.0820    -2.0650     0.7950 C.ar  1 <1>  -0.1430 
  8 C       -5.4170    -2.7610     0.9780 C.3   1 <1>  -0.0170 
  9 C       -5.2740    -4.2210     0.5440 C.3   1 <1>   0.3430 
 10 N       -6.5370    -4.9870     0.7500 N.4   1 <1>  -0.9590 
 11 C       -7.7030    -4.5760    -0.0810 C.3   1 <1>   0.3430 
 12 C       -6.3790    -6.4540     0.5190 C.3   1 <1>   0.3430 
 13 C       -8.6590    -5.7620     0.0370 C.3   1 <1>   0.2000 
 14 C       -7.7080    -6.9590    -0.0620 C.3   1 <1>  -0.0800 
 15 O       -9.2310    -5.7140     1.3060 O.3   1 <1>  -0.6800 
 16 C       -8.1860    -8.2670     0.5970 C.3   1 <1>   0.0210 
 17 C       -7.2150    -9.4030     0.3300 C.2   1 <1>   0.1080 
 18 N       -5.9430    -9.3260     0.5820 N.2   1 <1>  -0.7070 
 19 C       -7.5710   -10.6360    -0.2030 C.2   1 <1>  -0.1500 
 20 N       -5.4520   -10.5310     0.2210 N.pl3 1 <1>   0.3000 
 21 C       -6.4200   -11.3370    -0.2620 C.2   1 <1>  -0.3320 
 22 C       -6.1820   -12.7530    -0.7530 C.3   1 <1>  -0.0600 
 23 H       -0.3290     0.2100    -0.5540 H     1 <1>   0.4500 
 24 H       -1.1770    -1.4820     2.4280 H     1 <1>   0.1500 
 25 H       -2.3400    -0.2840    -1.4880 H     1 <1>   0.1500 
 26 H       -3.3480    -2.5820     2.7490 H     1 <1>   0.1500 
 27 H       -4.5060    -1.3740    -1.1940 H     1 <1>   0.1500 
 28 H       -6.1620    -2.2600     0.3860 H     1 <1>   0.0800 
 29 H       -5.7070    -2.7090     2.0130 H     1 <1>   0.0800 
 30 H       -4.4820    -4.6720     1.1210 H     1 <1>   0.0800 
 31 H       -4.9860    -4.2570    -0.4940 H     1 <1>   0.0800 
 32 H       -6.8560    -4.8960     1.7280 H     1 <1>   0.4500 
 33 H       -8.1600    -3.6690     0.2790 H     1 <1>   0.0800 
 34 H       -7.4010    -4.4530    -1.1080 H     1 <1>   0.0800 
 35 H       -5.5810    -6.6590    -0.1760 H     1 <1>   0.0800 
 36 H       -6.1590    -6.9580     1.4480 H     1 <1>   0.0800 
 37 H       -9.4380    -5.7520    -0.7070 H     1 <1>   0.0800 
 38 H       -7.5370    -7.1620    -1.1050 H     1 <1>   0.0800 
 39 H       -9.9910    -6.3290     1.3800 H     1 <1>   0.4000 
 40 H       -9.1520    -8.5380     0.2100 H     1 <1>   0.0800 
 41 H       -8.2730    -8.1460     1.6620 H     1 <1>   0.0800 
 42 H       -8.5590   -10.9470    -0.4960 H     1 <1>   0.1500 
 43 H       -4.4590   -10.7780     0.3180 H     1 <1>   0.2700 
 44 H       -7.1080   -13.1900    -1.0860 H     1 <1>   0.0800 
 45 H       -5.7840   -13.3610     0.0400 H     1 <1>   0.0800 
 46 H       -5.4900   -12.7520    -1.5760 H     1 <1>   0.0800 
@<TRIPOS>BOND
  1   1   2  1   
  2   1  23  1   
  3   2   3  ar  
  4   2   4  ar  
  5   3   5  ar  
  6   3  24  1   
  7   4   6  ar  
  8   4  25  1   
  9   5   7  ar  
 10   5  26  1   
 11   6   7  ar  
 12   6  27  1   
 13   7   8  1   
 14   8   9  1   
 15   8  28  1   
 16   8  29  1   
 17   9  10  1   
 18   9  30  1   
 19   9  31  1   
 20  10  11  1   
 21  10  12  1   
 22  10  32  1   
 23  11  13  1   
 24  11  33  1   
 25  11  34  1   
 26  12  14  1   
 27  12  35  1   
 28  12  36  1   
 29  13  14  1   
 30  13  15  1   
 31  13  37  1   
 32  14  16  1   
 33  14  38  1   
 34  15  39  1   
 35  16  17  1   
 36  16  40  1   
 37  16  41  1   
 38  17  18  2   
 39  17  19  1   
 40  18  20  1   
 41  19  21  2   
 42  19  42  1   
 43  20  21  1   
 44  20  43  1   
 45  21  22  1   
 46  22  44  1   
 47  22  45  1   
 48  22  46  1   
@<TRIPOS>SUBSTRUCTURE
  1 ****  10 GROUP 4 **** **** 0

# MOE 2024.06 (io_trps.svl 2023.06)
