@<TRIPOS>MOLECULE
NONAME
35 36 1 0 0 
SMALL
USER_CHARGES


@<TRIPOS>ATOM
  1 F        8.8170     3.8880     0.8630 F     1 <1>  -0.3400 
  2 C        8.1430     3.4880    -0.2080 C.3   1 <1>   0.6800 
  3 F        7.8260     4.6050    -0.8440 F     1 <1>  -0.3400 
  4 C        9.0550     2.6380    -1.0840 C.3   1 <1>  -0.1600 
  5 C        6.8700     2.7810     0.2460 C.3   1 <1>  -0.1600 
  6 C        9.3470     1.3090    -0.3910 C.3   1 <1>   0.1400 
  7 C        7.2110     1.4440     0.9050 C.3   1 <1>   0.1400 
  8 N        8.0600     0.6380    -0.0240 N.am  1 <1>  -0.6600 
  9 C        7.7510    -0.5920    -0.5560 C.2   1 <1>   0.5690 
 10 O        8.3820    -1.0530    -1.4770 O.2   1 <1>  -0.5700 
 11 C        6.5860    -1.4470    -0.0370 C.3   1 <1>  -0.0190 
 12 C        6.9720    -2.9420     0.0380 C.3   1 <1>  -0.1600 
 13 C        5.3490    -1.2630    -0.9380 C.3   1 <1>  -0.1600 
 14 C        5.7900    -3.8320     0.4130 C.3   1 <1>   0.3430 
 15 C        4.2010    -2.2010    -0.5600 C.3   1 <1>   0.3430 
 16 N        4.6870    -3.6060    -0.5570 N.4   1 <1>  -0.9060 
 17 H        9.9710     3.1660    -1.2780 H     1 <1>   0.0800 
 18 H        8.5680     2.4360    -2.0210 H     1 <1>   0.0800 
 19 H        6.2470     2.5970    -0.6100 H     1 <1>   0.0800 
 20 H        6.3350     3.4100     0.9330 H     1 <1>   0.0800 
 21 H        9.9220     1.4800     0.5050 H     1 <1>   0.0800 
 22 H        9.9380     0.6870    -1.0420 H     1 <1>   0.0800 
 23 H        6.2970     0.9390     1.1510 H     1 <1>   0.0800 
 24 H        7.7560     1.6140     1.8200 H     1 <1>   0.0800 
 25 H        6.3430    -1.1430     0.9640 H     1 <1>   0.0800 
 26 H        7.7550    -3.0690     0.7660 H     1 <1>   0.0800 
 27 H        7.3660    -3.2770    -0.9070 H     1 <1>   0.0800 
 28 H        5.6220    -1.4380    -1.9650 H     1 <1>   0.0800 
 29 H        5.0070    -0.2450    -0.8720 H     1 <1>   0.0800 
 30 H        5.4570    -3.5940     1.4110 H     1 <1>   0.0800 
 31 H        6.0960    -4.8670     0.3950 H     1 <1>   0.0800 
 32 H        3.3950    -2.0880    -1.2680 H     1 <1>   0.0800 
 33 H        3.8290    -1.9420     0.4190 H     1 <1>   0.0800 
 34 H        3.9090    -4.2490    -0.3600 H     1 <1>   0.4500 
 35 H        5.0320    -3.8350    -1.4990 H     1 <1>   0.4500 
@<TRIPOS>BOND
  1   1   2  1   
  2   2   3  1   
  3   2   4  1   
  4   2   5  1   
  5   4   6  1   
  6   4  17  1   
  7   4  18  1   
  8   5   7  1   
  9   5  19  1   
 10   5  20  1   
 11   6   8  1   
 12   6  21  1   
 13   6  22  1   
 14   7   8  1   
 15   7  23  1   
 16   7  24  1   
 17   8   9  am  
 18   9  10  2   
 19   9  11  1   
 20  11  12  1   
 21  11  13  1   
 22  11  25  1   
 23  12  14  1   
 24  12  26  1   
 25  12  27  1   
 26  13  15  1   
 27  13  28  1   
 28  13  29  1   
 29  14  16  1   
 30  14  30  1   
 31  14  31  1   
 32  15  16  1   
 33  15  32  1   
 34  15  33  1   
 35  16  34  1   
 36  16  35  1   
@<TRIPOS>SUBSTRUCTURE
  1 ****   8 GROUP 4 **** **** 0

# MOE 2024.06 (io_trps.svl 2023.06)
