@<TRIPOS>MOLECULE
NONAME
54 58 1 0 0 
SMALL
USER_CHARGES


@<TRIPOS>ATOM
  1 O       -0.4050     0.1270    -1.5350 O.2   1 <1>  -0.5700 
  2 C       -1.5010     0.0840    -1.0220 C.2   1 <1>   0.5690 
  3 N       -2.0810    -1.0510    -0.5290 N.am  1 <1>  -0.4770 
  4 C       -2.4400     1.2840    -0.8200 C.3   1 <1>   0.2050 
  5 C       -3.3410    -0.7660    -0.0180 C.ar  1 <1>   0.1170 
  6 C       -1.4710    -2.4010    -0.5610 C.3   1 <1>   0.0600 
  7 C       -3.6210     0.5790    -0.1550 C.ar  1 <1>  -0.1440 
  8 C       -1.8150     2.2960     0.1550 C.3   1 <1>   0.2090 
  9 C       -2.8840     1.9540    -2.1420 C.3   1 <1>  -0.1600 
 10 C       -4.2650    -1.6220     0.5630 C.ar  1 <1>  -0.1500 
 11 C       -4.8260     1.0980     0.2850 C.ar  1 <1>  -0.1500 
 12 N       -0.8080     3.1660    -0.5170 N.pl3 1 <1>  -0.8380 
 13 C       -1.7810     2.8430    -2.7470 C.3   1 <1>  -0.1600 
 14 C       -5.4730    -1.1080     1.0050 C.ar  1 <1>  -0.1500 
 15 C       -5.7520     0.2450     0.8670 C.ar  1 <1>  -0.1500 
 16 C        0.4220     3.4310     0.0570 C.ar  1 <1>   0.4100 
 17 C       -1.2540     3.8730    -1.7410 C.3   1 <1>   0.2090 
 18 N        0.7170     4.7080     0.2120 N.ar  1 <1>  -0.6200 
 19 C        1.2870     2.3990     0.4520 C.ar  1 <1>   0.1600 
 20 C        1.9050     4.9290     0.7990 C.ar  1 <1>   0.3960 
 21 N        2.4550     2.5760     1.0370 N.ar  1 <1>  -0.6200 
 22 C        2.3900     6.2900     1.0550 C.2   1 <1>   0.5440 
 23 C        2.7230     3.8640     1.1950 C.ar  1 <1>   0.1600 
 24 O        3.2020     6.4650     1.9500 O.2   1 <1>  -0.5700 
 25 N        2.0120     7.4110     0.3330 N.am  1 <1>  -0.6600 
 26 C        2.6080     8.7460     0.5610 C.3   1 <1>   0.1400 
 27 C        1.0980     7.4400    -0.8340 C.3   1 <1>   0.1400 
 28 C        2.3380     9.5160    -0.7260 C.3   1 <1>  -0.1600 
 29 C        1.0560     8.8990    -1.2770 C.3   1 <1>  -0.1600 
 30 H       -0.4910    -2.3530    -1.0030 H     1 <1>   0.0800 
 31 H       -2.0870    -3.0610    -1.1440 H     1 <1>   0.0800 
 32 H       -1.3840    -2.7810     0.4410 H     1 <1>   0.0800 
 33 H       -1.3660     1.7750     0.9840 H     1 <1>   0.0800 
 34 H       -2.5900     2.9290     0.5490 H     1 <1>   0.0800 
 35 H       -3.7470     2.5670    -1.9520 H     1 <1>   0.0800 
 36 H       -3.1700     1.1960    -2.8510 H     1 <1>   0.0800 
 37 H       -4.0440    -2.6670     0.6680 H     1 <1>   0.1500 
 38 H       -5.0500     2.1460     0.1810 H     1 <1>   0.1500 
 39 H       -2.1640     3.3570    -3.6100 H     1 <1>   0.0800 
 40 H       -0.9570     2.2330    -3.0740 H     1 <1>   0.0800 
 41 H       -6.2000    -1.7600     1.4580 H     1 <1>   0.1500 
 42 H       -6.6940     0.6350     1.2140 H     1 <1>   0.1500 
 43 H       -0.4310     4.4150    -2.1740 H     1 <1>   0.0800 
 44 H       -2.0270     4.5760    -1.4820 H     1 <1>   0.0800 
 45 H        0.9760     1.3890     0.2560 H     1 <1>   0.1500 
 46 H        3.6610     4.0980     1.6700 H     1 <1>   0.1500 
 47 H        3.6630     8.6730     0.7660 H     1 <1>   0.0800 
 48 H        2.1100     9.2120     1.3950 H     1 <1>   0.0800 
 49 H        0.1150     7.0950    -0.5590 H     1 <1>   0.0800 
 50 H        1.4990     6.8150    -1.6140 H     1 <1>   0.0800 
 51 H        3.1500     9.3450    -1.4100 H     1 <1>   0.0800 
 52 H        2.2440    10.5720    -0.5470 H     1 <1>   0.0800 
 53 H        0.2010     9.3730    -0.8260 H     1 <1>   0.0800 
 54 H        0.9830     8.9900    -2.3460 H     1 <1>   0.0800 
@<TRIPOS>BOND
  1   1   2  2   
  2   2   3  am  
  3   2   4  1   
  4   3   5  1   
  5   3   6  1   
  6   4   7  1   
  7   4   8  1   
  8   4   9  1   
  9   5   7  ar  
 10   5  10  ar  
 11   6  30  1   
 12   6  31  1   
 13   6  32  1   
 14   7  11  ar  
 15   8  12  1   
 16   8  33  1   
 17   8  34  1   
 18   9  13  1   
 19   9  35  1   
 20   9  36  1   
 21  10  14  ar  
 22  10  37  1   
 23  11  15  ar  
 24  11  38  1   
 25  12  16  1   
 26  12  17  1   
 27  13  17  1   
 28  13  39  1   
 29  13  40  1   
 30  14  15  ar  
 31  14  41  1   
 32  15  42  1   
 33  16  18  ar  
 34  16  19  ar  
 35  17  43  1   
 36  17  44  1   
 37  18  20  ar  
 38  19  21  ar  
 39  19  45  1   
 40  20  22  1   
 41  20  23  ar  
 42  21  23  ar  
 43  22  24  2   
 44  22  25  am  
 45  23  46  1   
 46  25  26  1   
 47  25  27  1   
 48  26  28  1   
 49  26  47  1   
 50  26  48  1   
 51  27  29  1   
 52  27  49  1   
 53  27  50  1   
 54  28  29  1   
 55  28  51  1   
 56  28  52  1   
 57  29  53  1   
 58  29  54  1   
@<TRIPOS>SUBSTRUCTURE
  1 ****  12 GROUP 4 **** **** 0

# MOE 2024.06 (io_trps.svl 2023.06)
