@<TRIPOS>MOLECULE
NONAME
57 59 1 0 0 
SMALL
USER_CHARGES


@<TRIPOS>ATOM
  1 O        1.9520    -0.1080    -1.9900 O.2   1 <1>  -0.5700 
  2 C        1.6100    -0.7320    -1.0130 C.2   1 <1>   0.5690 
  3 N        1.4770    -0.1740     0.2210 N.am  1 <1>  -0.7300 
  4 C        1.3020    -2.2270    -1.1570 C.3   1 <1>   0.1710 
  5 C        1.6510     1.2370     0.6240 C.3   1 <1>   0.2200 
  6 N        0.2970    -2.7510    -0.1840 N.3   1 <1>  -0.8100 
  7 C        0.5220     2.0590    -0.0150 C.3   1 <1>  -0.1600 
  8 C        3.0750     1.6990     0.2760 C.3   1 <1>  -0.1600 
  9 C       -1.0470    -2.1890    -0.4120 C.3   1 <1>   0.1100 
 10 C        0.1420    -4.2160    -0.2760 C.3   1 <1>   0.1100 
 11 C        0.4070     3.5070     0.4880 C.3   1 <1>  -0.1600 
 12 C        3.6320     2.7880     1.2150 C.3   1 <1>  -0.1600 
 13 C       -1.9820    -3.1810     0.2650 C.3   1 <1>   0.2000 
 14 C       -1.3590    -4.5160    -0.1380 C.3   1 <1>  -0.0800 
 15 C        1.3240     4.5040    -0.2460 C.3   1 <1>  -0.1600 
 16 C        3.7620     4.1730     0.5640 C.3   1 <1>  -0.1600 
 17 O       -1.8470    -2.9990     1.6300 O.3   1 <1>  -0.6800 
 18 C       -1.6780    -5.7070     0.7840 C.3   1 <1>   0.0210 
 19 C        2.4900     5.0310     0.6040 C.3   1 <1>  -0.1600 
 20 C       -1.0280    -6.9820     0.2800 C.2   1 <1>   0.1080 
 21 N       -1.2640    -7.4830    -0.8940 N.2   1 <1>  -0.7070 
 22 C       -0.1180    -7.7470     1.0030 C.2   1 <1>  -0.1500 
 23 N       -0.5080    -8.5960    -0.9480 N.pl3 1 <1>   0.3000 
 24 C        0.1980    -8.7760     0.1890 C.2   1 <1>  -0.3320 
 25 C        1.1410    -9.9390     0.4310 C.3   1 <1>  -0.0600 
 26 H        1.1050    -0.8010     0.9380 H     1 <1>   0.3700 
 27 H        2.2270    -2.7570    -1.0220 H     1 <1>   0.0800 
 28 H        0.9640    -2.4080    -2.1620 H     1 <1>   0.0800 
 29 H        1.5330     1.2710     1.6930 H     1 <1>   0.0800 
 30 H        0.6240     2.0510    -1.0860 H     1 <1>   0.0800 
 31 H       -0.4040     1.5660     0.2220 H     1 <1>   0.0800 
 32 H        3.7270     0.8480     0.3670 H     1 <1>   0.0800 
 33 H        3.1160     2.0140    -0.7520 H     1 <1>   0.0800 
 34 H       -1.1460    -1.1990    -0.0010 H     1 <1>   0.0800 
 35 H       -1.2630    -2.1590    -1.4670 H     1 <1>   0.0800 
 36 H        0.4980    -4.5950    -1.2210 H     1 <1>   0.0800 
 37 H        0.7060    -4.6810     0.5150 H     1 <1>   0.0800 
 38 H       -0.6070     3.8210     0.3080 H     1 <1>   0.0800 
 39 H        0.5540     3.5470     1.5530 H     1 <1>   0.0800 
 40 H        3.0620     2.8560     2.1250 H     1 <1>   0.0800 
 41 H        4.6250     2.4820     1.4990 H     1 <1>   0.0800 
 42 H       -3.0170    -3.0750    -0.0110 H     1 <1>   0.0800 
 43 H       -1.7240    -4.7580    -1.1210 H     1 <1>   0.0800 
 44 H        1.6920     4.0930    -1.1710 H     1 <1>   0.0800 
 45 H        0.7200     5.3540    -0.5110 H     1 <1>   0.0800 
 46 H        4.5240     4.7130     1.1000 H     1 <1>   0.0800 
 47 H        4.1090     4.0760    -0.4500 H     1 <1>   0.0800 
 48 H       -0.8840    -2.9210     1.7970 H     1 <1>   0.4000 
 49 H       -2.7420    -5.8560     0.8190 H     1 <1>   0.0800 
 50 H       -1.3370    -5.5120     1.7840 H     1 <1>   0.0800 
 51 H        2.1750     5.1800     1.6230 H     1 <1>   0.0800 
 52 H        2.7560     6.0010     0.2200 H     1 <1>   0.0800 
 53 H        0.2360    -7.5390     1.9970 H     1 <1>   0.1500 
 54 H       -0.5010    -9.2130    -1.7690 H     1 <1>   0.2700 
 55 H        1.5820    -9.8600     1.4090 H     1 <1>   0.0800 
 56 H        1.9290    -9.9400    -0.3010 H     1 <1>   0.0800 
 57 H        0.6060   -10.8700     0.3720 H     1 <1>   0.0800 
@<TRIPOS>BOND
  1   1   2  2   
  2   2   3  am  
  3   2   4  1   
  4   3   5  1   
  5   3  26  1   
  6   4   6  1   
  7   4  27  1   
  8   4  28  1   
  9   5   7  1   
 10   5   8  1   
 11   5  29  1   
 12   6   9  1   
 13   6  10  1   
 14   7  11  1   
 15   7  30  1   
 16   7  31  1   
 17   8  12  1   
 18   8  32  1   
 19   8  33  1   
 20   9  13  1   
 21   9  34  1   
 22   9  35  1   
 23  10  14  1   
 24  10  36  1   
 25  10  37  1   
 26  11  15  1   
 27  11  38  1   
 28  11  39  1   
 29  12  16  1   
 30  12  40  1   
 31  12  41  1   
 32  13  14  1   
 33  13  17  1   
 34  13  42  1   
 35  14  18  1   
 36  14  43  1   
 37  15  19  1   
 38  15  44  1   
 39  15  45  1   
 40  16  19  1   
 41  16  46  1   
 42  16  47  1   
 43  17  48  1   
 44  18  20  1   
 45  18  49  1   
 46  18  50  1   
 47  19  51  1   
 48  19  52  1   
 49  20  21  2   
 50  20  22  1   
 51  21  23  1   
 52  22  24  2   
 53  22  53  1   
 54  23  24  1   
 55  23  54  1   
 56  24  25  1   
 57  25  55  1   
 58  25  56  1   
 59  25  57  1   
@<TRIPOS>SUBSTRUCTURE
  1 ****   6 GROUP 4 **** **** 0

# MOE 2024.06 (io_trps.svl 2023.06)
