@<TRIPOS>MOLECULE
NONAME
47 50 1 0 0 
SMALL
USER_CHARGES


@<TRIPOS>ATOM
  1 N       -1.9560    -0.1580    -1.4870 N.2   1 <1>  -0.5760 
  2 C       -2.1350    -1.4380    -1.0270 C.2   1 <1>   0.3120 
  3 C       -1.6960     0.7400    -0.5920 C.2   1 <1>   0.3760 
  4 N       -2.4010    -2.4810    -1.7510 N.2   1 <1>  -0.5650 
  5 N       -2.0580    -1.7780     0.2920 N.pl3 1 <1>   0.6010 
  6 C       -1.5970     0.4560     0.8000 C.2   1 <1>  -0.1360 
  7 C       -2.4740    -3.4360    -0.8300 C.2   1 <1>   0.3350 
  8 N       -2.2920    -3.0860     0.4120 N.2   1 <1>  -0.7070 
  9 C       -1.7820    -0.8180     1.2400 C.2   1 <1>  -0.1810 
 10 C       -2.7780    -4.8810    -1.2410 C.3   1 <1>   0.5240 
 11 N       -3.5000    -5.5890    -0.1350 N.4   1 <1>  -0.9590 
 12 C       -3.3000    -7.0810    -0.2180 C.3   1 <1>   0.3430 
 13 C       -4.9290    -5.1450    -0.0920 C.3   1 <1>   0.3430 
 14 C       -4.0350    -7.8920     0.8640 C.3   1 <1>   0.2090 
 15 C       -5.5090    -5.3250     1.3130 C.3   1 <1>  -0.1600 
 16 N       -5.5050    -7.7310     0.6970 N.pl3 1 <1>  -0.8380 
 17 C       -6.1510    -6.6970     1.5380 C.3   1 <1>   0.2090 
 18 C       -6.2410    -8.9000     0.5120 C.ar  1 <1>   0.1000 
 19 C       -6.9270    -9.1390    -0.6810 C.ar  1 <1>  -0.1430 
 20 C       -6.3000    -9.8520     1.5250 C.ar  1 <1>  -0.1500 
 21 C       -7.6420   -10.3150    -0.8390 C.ar  1 <1>  -0.1500 
 22 C       -6.9060    -8.1230    -1.8130 C.3   1 <1>  -0.0970 
 23 C       -7.0150   -11.0220     1.3610 C.ar  1 <1>  -0.1500 
 24 C       -7.6860   -11.2560     0.1750 C.ar  1 <1>  -0.1500 
 25 H       -1.5450     1.7590    -0.9050 H     1 <1>   0.0600 
 26 H       -1.3770     1.2710     1.4670 H     1 <1>   0.1500 
 27 H       -1.7280    -1.1380     2.2640 H     1 <1>   0.1500 
 28 H       -1.8420    -5.3700    -1.4460 H     1 <1>   0.0800 
 29 H       -3.3690    -4.8810    -2.1400 H     1 <1>   0.0800 
 30 H       -3.0580    -5.2170     0.7200 H     1 <1>   0.4500 
 31 H       -2.2480    -7.3010    -0.1470 H     1 <1>   0.0800 
 32 H       -3.6450    -7.4370    -1.1750 H     1 <1>   0.0800 
 33 H       -5.5200    -5.6950    -0.8080 H     1 <1>   0.0800 
 34 H       -4.9820    -4.0980    -0.3430 H     1 <1>   0.0800 
 35 H       -3.7260    -7.5820     1.8470 H     1 <1>   0.0800 
 36 H       -3.7760    -8.9310     0.7480 H     1 <1>   0.0800 
 37 H       -6.2780    -4.5880     1.4610 H     1 <1>   0.0800 
 38 H       -4.7580    -5.1390     2.0590 H     1 <1>   0.0800 
 39 H       -7.1950    -6.6510     1.2690 H     1 <1>   0.0800 
 40 H       -6.0940    -6.9760     2.5770 H     1 <1>   0.0800 
 41 H       -5.7840    -9.6710     2.4490 H     1 <1>   0.1500 
 42 H       -8.1740   -10.5110    -1.7540 H     1 <1>   0.1500 
 43 H       -5.8950    -7.9480    -2.1270 H     1 <1>   0.0800 
 44 H       -7.3370    -7.1980    -1.4750 H     1 <1>   0.0800 
 45 H       -7.4710    -8.4740    -2.6570 H     1 <1>   0.0800 
 46 H       -7.0520   -11.7510     2.1520 H     1 <1>   0.1500 
 47 H       -8.2450   -12.1660     0.0420 H     1 <1>   0.1500 
@<TRIPOS>BOND
  1   1   2  1   
  2   1   3  2   
  3   2   4  2   
  4   2   5  1   
  5   3   6  1   
  6   3  25  1   
  7   4   7  1   
  8   5   8  1   
  9   5   9  1   
 10   6   9  2   
 11   6  26  1   
 12   7   8  2   
 13   7  10  1   
 14   9  27  1   
 15  10  11  1   
 16  10  28  1   
 17  10  29  1   
 18  11  12  1   
 19  11  13  1   
 20  11  30  1   
 21  12  14  1   
 22  12  31  1   
 23  12  32  1   
 24  13  15  1   
 25  13  33  1   
 26  13  34  1   
 27  14  16  1   
 28  14  35  1   
 29  14  36  1   
 30  15  17  1   
 31  15  37  1   
 32  15  38  1   
 33  16  17  1   
 34  16  18  1   
 35  17  39  1   
 36  17  40  1   
 37  18  19  ar  
 38  18  20  ar  
 39  19  21  ar  
 40  19  22  1   
 41  20  23  ar  
 42  20  41  1   
 43  21  24  ar  
 44  21  42  1   
 45  22  43  1   
 46  22  44  1   
 47  22  45  1   
 48  23  24  ar  
 49  23  46  1   
 50  24  47  1   
@<TRIPOS>SUBSTRUCTURE
  1 ****  13 GROUP 4 **** **** 0

# MOE 2024.06 (io_trps.svl 2023.06)
