@<TRIPOS>MOLECULE
NONAME
43 45 1 0 0 
SMALL
USER_CHARGES


@<TRIPOS>ATOM
  1 O       -0.8920     1.0350     1.3900 O.2   1 <1>  -0.5700 
  2 C       -0.6080     2.1760     1.1290 C.2   1 <1>   0.5690 
  3 N       -1.5390     3.1520     1.1920 N.am  1 <1>  -0.7300 
  4 C        0.8130     2.5340     0.6880 C.3   1 <1>   0.1810 
  5 C       -1.2780     4.5690     0.8390 C.3   1 <1>   0.3640 
  6 O        1.0900     3.9130     0.8130 O.3   1 <1>  -0.5600 
  7 C       -2.3920     5.0430    -0.0890 C.ar  1 <1>  -0.1440 
  8 C        0.1240     4.7640     0.2050 C.3   1 <1>   0.2610 
  9 C       -2.7790     4.2900    -1.1910 C.ar  1 <1>  -0.1500 
 10 C       -3.0340     6.2480     0.1600 C.ar  1 <1>  -0.1500 
 11 C        0.5470     6.2300     0.3410 C.2   1 <1>   0.5690 
 12 C       -3.7900     4.7340    -2.0260 C.ar  1 <1>  -0.1500 
 13 C       -4.0450     6.6920    -0.6740 C.ar  1 <1>  -0.1500 
 14 O        0.0680     7.0660    -0.3900 O.2   1 <1>  -0.5700 
 15 N        1.4670     6.5730     1.2830 N.am  1 <1>  -0.7300 
 16 C       -4.4240     5.9350    -1.7680 C.ar  1 <1>  -0.1500 
 17 C        1.9390     7.9540     1.5380 C.3   1 <1>   0.1400 
 18 C        2.9970     8.3550     0.5070 C.3   1 <1>   0.0200 
 19 C        3.0170     9.8620     0.3490 C.2   1 <1>   0.0060 
 20 N        3.8700    10.6390     0.9220 N.2   1 <1>  -0.3380 
 21 N        2.1430    10.5520    -0.3940 N.pl3 1 <1>   0.0480 
 22 N        3.5680    11.8870     0.5590 N.2   1 <1>  -0.3380 
 23 C        2.5440    11.8110    -0.2190 C.2   1 <1>   0.0360 
 24 C        1.0040    10.0650    -1.1990 C.3   1 <1>   0.0160 
 25 H       -2.4990     2.9040     1.4400 H     1 <1>   0.3700 
 26 H        0.9540     2.2490    -0.3380 H     1 <1>   0.0800 
 27 H        1.5200     2.0000     1.2970 H     1 <1>   0.0800 
 28 H       -1.3180     5.1430     1.7490 H     1 <1>   0.0800 
 29 H        0.0850     4.5230    -0.8420 H     1 <1>   0.0800 
 30 H       -2.3010     3.3500    -1.4070 H     1 <1>   0.1500 
 31 H       -2.7490     6.8560     1.0020 H     1 <1>   0.1500 
 32 H       -4.0840     4.1430    -2.8760 H     1 <1>   0.1500 
 33 H       -4.5370     7.6280    -0.4740 H     1 <1>   0.1500 
 34 H        1.9330     5.8110     1.7900 H     1 <1>   0.3700 
 35 H       -5.2100     6.2810    -2.4170 H     1 <1>   0.1500 
 36 H        1.0960     8.6200     1.4670 H     1 <1>   0.0800 
 37 H        2.3420     8.0340     2.5330 H     1 <1>   0.0800 
 38 H        2.7860     7.9090    -0.4480 H     1 <1>   0.0800 
 39 H        3.9640     8.0150     0.8330 H     1 <1>   0.0800 
 40 H        2.0600    12.6540    -0.6770 H     1 <1>   0.1500 
 41 H        0.6410    10.8540    -1.8310 H     1 <1>   0.0800 
 42 H        0.2160     9.7400    -0.5440 H     1 <1>   0.0800 
 43 H        1.3190     9.2380    -1.8090 H     1 <1>   0.0800 
@<TRIPOS>BOND
  1   1   2  2   
  2   2   3  am  
  3   2   4  1   
  4   3   5  1   
  5   3  25  1   
  6   4   6  1   
  7   4  26  1   
  8   4  27  1   
  9   5   7  1   
 10   5   8  1   
 11   5  28  1   
 12   6   8  1   
 13   7   9  ar  
 14   7  10  ar  
 15   8  11  1   
 16   8  29  1   
 17   9  12  ar  
 18   9  30  1   
 19  10  13  ar  
 20  10  31  1   
 21  11  14  2   
 22  11  15  am  
 23  12  16  ar  
 24  12  32  1   
 25  13  16  ar  
 26  13  33  1   
 27  15  17  1   
 28  15  34  1   
 29  16  35  1   
 30  17  18  1   
 31  17  36  1   
 32  17  37  1   
 33  18  19  1   
 34  18  38  1   
 35  18  39  1   
 36  19  20  2   
 37  19  21  1   
 38  20  22  1   
 39  21  23  1   
 40  21  24  1   
 41  22  23  2   
 42  23  40  1   
 43  24  41  1   
 44  24  42  1   
 45  24  43  1   
@<TRIPOS>SUBSTRUCTURE
  1 ****  11 GROUP 4 **** **** 0

# MOE 2024.06 (io_trps.svl 2023.06)
