@<TRIPOS>MOLECULE
NONAME
40 41 1 0 0 
SMALL
USER_CHARGES


@<TRIPOS>ATOM
  1 F        1.9990    -0.4400    -0.7020 F     1 <1>  -0.3400 
  2 C        2.3530     0.3810     0.2860 C.3   1 <1>   1.1640 
  3 F        3.4410    -0.1610     0.8270 F     1 <1>  -0.3400 
  4 F        1.3910     0.2790     1.1980 F     1 <1>  -0.3400 
  5 C        2.5780     1.8410    -0.1950 C.ar  1 <1>   0.1660 
  6 N        2.9650     2.7660     0.6710 N.ar  1 <1>  -0.6200 
  7 C        2.3770     2.1830    -1.5190 C.ar  1 <1>  -0.1500 
  8 C        3.1470     4.0040     0.2190 C.ar  1 <1>   0.7200 
  9 C        2.5890     3.4870    -1.8900 C.ar  1 <1>   0.1600 
 10 N        2.9700     4.4020    -1.0380 N.ar  1 <1>  -0.6200 
 11 N        3.5530     4.9510     1.1370 N.pl3 1 <1>  -0.8380 
 12 C        3.4830     6.4090     0.8540 C.3   1 <1>   0.2090 
 13 C        3.9660     4.5770     2.5190 C.3   1 <1>   0.1290 
 14 C        4.8570     6.9120     0.4120 C.3   1 <1>  -0.1600 
 15 C        4.8170     8.4010     0.0570 C.3   1 <1>   0.0210 
 16 C        6.1970     8.8890    -0.3460 C.2   1 <1>  -0.1810 
 17 C        7.1620     9.4500     0.4890 C.2   1 <1>   0.1080 
 18 C        6.7670     8.8790    -1.5710 C.2   1 <1>  -0.3320 
 19 N        8.2410     9.7720    -0.1510 N.2   1 <1>  -0.7070 
 20 C        7.0190     9.6790     1.9770 C.3   1 <1>  -0.0590 
 21 N        7.9960     9.4180    -1.4250 N.pl3 1 <1>   0.3000 
 22 C        6.2300     8.3810    -2.9020 C.3   1 <1>  -0.0600 
 23 H        2.0640     1.4650    -2.2550 H     1 <1>   0.1500 
 24 H        2.4410     3.7850    -2.9150 H     1 <1>   0.1500 
 25 H        3.1640     6.9300     1.7400 H     1 <1>   0.0800 
 26 H        2.7550     6.6040     0.0840 H     1 <1>   0.0800 
 27 H        4.5150     3.6500     2.5060 H     1 <1>   0.0800 
 28 H        3.0930     4.4580     3.1370 H     1 <1>   0.0800 
 29 H        4.5990     5.3370     2.9420 H     1 <1>   0.0800 
 30 H        5.1740     6.3550    -0.4520 H     1 <1>   0.0800 
 31 H        5.5720     6.7520     1.1980 H     1 <1>   0.0800 
 32 H        4.4650     8.9740     0.8960 H     1 <1>   0.0800 
 33 H        4.1330     8.5610    -0.7580 H     1 <1>   0.0800 
 34 H        6.6500     8.7890     2.4510 H     1 <1>   0.0800 
 35 H        6.3380    10.4900     2.1520 H     1 <1>   0.0800 
 36 H        7.9750     9.9270     2.3990 H     1 <1>   0.0800 
 37 H        8.6890     9.5550    -2.1690 H     1 <1>   0.2700 
 38 H        5.2530     7.9500    -2.7790 H     1 <1>   0.0800 
 39 H        6.8830     7.6260    -3.3030 H     1 <1>   0.0800 
 40 H        6.1600     9.1940    -3.6010 H     1 <1>   0.0800 
@<TRIPOS>BOND
  1   1   2  1   
  2   2   3  1   
  3   2   4  1   
  4   2   5  1   
  5   5   6  ar  
  6   5   7  ar  
  7   6   8  ar  
  8   7   9  ar  
  9   7  23  1   
 10   8  10  ar  
 11   8  11  1   
 12   9  10  ar  
 13   9  24  1   
 14  11  12  1   
 15  11  13  1   
 16  12  14  1   
 17  12  25  1   
 18  12  26  1   
 19  13  27  1   
 20  13  28  1   
 21  13  29  1   
 22  14  15  1   
 23  14  30  1   
 24  14  31  1   
 25  15  16  1   
 26  15  32  1   
 27  15  33  1   
 28  16  17  1   
 29  16  18  2   
 30  17  19  2   
 31  17  20  1   
 32  18  21  1   
 33  18  22  1   
 34  19  21  1   
 35  20  34  1   
 36  20  35  1   
 37  20  36  1   
 38  21  37  1   
 39  22  38  1   
 40  22  39  1   
 41  22  40  1   
@<TRIPOS>SUBSTRUCTURE
  1 ****  11 GROUP 4 **** **** 0

# MOE 2024.06 (io_trps.svl 2023.06)
