@<TRIPOS>MOLECULE
NONAME
52 55 1 0 0 
SMALL
USER_CHARGES


@<TRIPOS>ATOM
  1 S       -1.1770     0.0650    -0.6070 S.3   1 <1>  -0.0800 
  2 C       -0.8680    -0.9980     0.7240 C.2   1 <1>   0.4420 
  3 C       -0.7500     1.3810     0.4360 C.2   1 <1>   0.1980 
  4 N       -0.4900    -0.3630     1.7740 N.2   1 <1>  -0.3380 
  5 N       -1.0530    -2.3410     0.4820 N.am  1 <1>  -0.4940 
  6 N       -0.4260     0.9920     1.6040 N.2   1 <1>  -0.3380 
  7 C       -0.8080     2.8060    -0.1100 C.3   1 <1>   0.3800 
  8 C       -1.0010    -3.4230     1.3260 C.2   1 <1>   0.5440 
  9 O       -2.0710     3.0870    -0.6410 O.3   1 <1>  -0.5600 
 10 C        0.2070     3.0390    -1.2270 C.3   1 <1>  -0.2400 
 11 O       -0.8840    -3.2320     2.5170 O.2   1 <1>  -0.5700 
 12 C       -1.0710    -4.7840     0.8220 C.ar  1 <1>   0.0860 
 13 C       -3.0940     3.1990     0.3020 C.3   1 <1>   0.0400 
 14 C       -1.6050    -5.1310    -0.4400 C.ar  1 <1>   0.3930 
 15 C       -0.5900    -5.8240     1.6130 C.ar  1 <1>  -0.1500 
 16 O       -2.0940    -4.1560    -1.2320 O.3   1 <1>  -0.3620 
 17 N       -1.6700    -6.3730    -0.9280 N.ar  1 <1>  -0.6200 
 18 C       -0.6550    -7.1110     1.1200 C.ar  1 <1>   0.0860 
 19 C       -2.6880    -4.4150    -2.4930 C.3   1 <1>   0.0400 
 20 C       -1.1960    -7.3100    -0.1320 C.ar  1 <1>   0.1670 
 21 C       -0.2560    -8.3780     1.6540 C.2   1 <1>   0.5440 
 22 C       -1.1620    -8.7960    -0.4610 C.3   1 <1>   0.2840 
 23 O        0.2620    -8.5660     2.7350 O.2   1 <1>  -0.5700 
 24 N       -0.5370    -9.3710     0.7630 N.am  1 <1>  -0.6600 
 25 C       -0.2580   -10.8130     0.9750 C.3   1 <1>   0.2200 
 26 C        0.6510   -11.3670    -0.1190 C.3   1 <1>  -0.1600 
 27 C       -1.5340   -11.6440     0.8650 C.3   1 <1>  -0.1600 
 28 C       -0.2620   -11.9130    -1.2230 C.3   1 <1>  -0.1600 
 29 C       -1.6510   -12.0870    -0.5990 C.3   1 <1>  -0.1600 
 30 H       -1.3230    -2.5700    -0.4750 H     1 <1>   0.3700 
 31 H       -0.6160     3.5010     0.6900 H     1 <1>   0.0800 
 32 H        0.0010     2.3960    -2.0630 H     1 <1>   0.0800 
 33 H        1.1980     2.8330    -0.8660 H     1 <1>   0.0800 
 34 H        0.1640     4.0640    -1.5480 H     1 <1>   0.0800 
 35 H       -4.0010     3.4490    -0.2180 H     1 <1>   0.0800 
 36 H       -2.8520     3.9800     1.0020 H     1 <1>   0.0800 
 37 H       -3.2210     2.2600     0.8140 H     1 <1>   0.0800 
 38 H       -0.1720    -5.6450     2.5910 H     1 <1>   0.1500 
 39 H       -3.0090    -3.4800    -2.9180 H     1 <1>   0.0800 
 40 H       -3.5340    -5.0650    -2.3530 H     1 <1>   0.0800 
 41 H       -1.9610    -4.8810    -3.1340 H     1 <1>   0.0800 
 42 H       -0.5540    -8.9800    -1.3280 H     1 <1>   0.0800 
 43 H       -2.1580    -9.1770    -0.6000 H     1 <1>   0.0800 
 44 H        0.1950   -10.9440     1.9450 H     1 <1>   0.0800 
 45 H        1.2100   -12.1870     0.2970 H     1 <1>   0.0800 
 46 H        1.3490   -10.6310    -0.4790 H     1 <1>   0.0800 
 47 H       -2.4000   -11.1090     1.2100 H     1 <1>   0.0800 
 48 H       -1.4120   -12.5210     1.4760 H     1 <1>   0.0800 
 49 H        0.1150   -12.8510    -1.5950 H     1 <1>   0.0800 
 50 H       -0.3120   -11.2190    -2.0430 H     1 <1>   0.0800 
 51 H       -2.3660   -11.4740    -1.1180 H     1 <1>   0.0800 
 52 H       -1.9770   -13.1120    -0.6580 H     1 <1>   0.0800 
@<TRIPOS>BOND
  1   1   2  1   
  2   1   3  1   
  3   2   4  2   
  4   2   5  1   
  5   3   6  2   
  6   3   7  1   
  7   4   6  1   
  8   5   8  am  
  9   5  30  1   
 10   7   9  1   
 11   7  10  1   
 12   7  31  1   
 13   8  11  2   
 14   8  12  1   
 15   9  13  1   
 16  10  32  1   
 17  10  33  1   
 18  10  34  1   
 19  12  14  ar  
 20  12  15  ar  
 21  13  35  1   
 22  13  36  1   
 23  13  37  1   
 24  14  16  1   
 25  14  17  ar  
 26  15  18  ar  
 27  15  38  1   
 28  16  19  1   
 29  17  20  ar  
 30  18  20  ar  
 31  18  21  1   
 32  19  39  1   
 33  19  40  1   
 34  19  41  1   
 35  20  22  1   
 36  21  23  2   
 37  21  24  am  
 38  22  24  1   
 39  22  42  1   
 40  22  43  1   
 41  24  25  1   
 42  25  26  1   
 43  25  27  1   
 44  25  44  1   
 45  26  28  1   
 46  26  45  1   
 47  26  46  1   
 48  27  29  1   
 49  27  47  1   
 50  27  48  1   
 51  28  29  1   
 52  28  49  1   
 53  28  50  1   
 54  29  51  1   
 55  29  52  1   
@<TRIPOS>SUBSTRUCTURE
  1 ****  12 GROUP 4 **** **** 0

# MOE 2024.06 (io_trps.svl 2023.06)
