@<TRIPOS>MOLECULE
NONAME
48 50 1 0 0 
SMALL
USER_CHARGES


@<TRIPOS>ATOM
  1 S       -0.4220    -0.6630    -0.5010 S.3   1 <1>  -0.0800 
  2 C       -2.1570    -1.0000    -0.5150 C.2   1 <1>  -0.0450 
  3 C       -0.0180    -2.3580    -0.6700 C.2   1 <1>  -0.1100 
  4 C       -3.0850     0.0960    -0.3900 C.2   1 <1>   0.7150 
  5 C       -2.3360    -2.3400    -0.6530 C.2   1 <1>  -0.1500 
  6 C       -1.1350    -3.1030    -0.7360 C.2   1 <1>  -0.1500 
  7 O       -2.8300     1.1880    -0.8630 O.2   1 <1>  -0.5700 
  8 N       -4.2800    -0.0860     0.2880 N.am  1 <1>  -0.4770 
  9 C       -5.5010     0.4440    -0.1570 C.ar  1 <1>   0.1170 
 10 C       -4.2830    -0.8710     1.5510 C.3   1 <1>   0.0600 
 11 C       -6.5390    -0.3860    -0.6100 C.ar  1 <1>   0.0860 
 12 C       -5.6880     1.8240    -0.1580 C.ar  1 <1>  -0.1500 
 13 C       -6.4100    -1.8250    -0.6090 C.2   1 <1>   0.5440 
 14 C       -7.7170     0.2050    -1.0690 C.ar  1 <1>  -0.1500 
 15 C       -6.8660     2.3890    -0.6020 C.ar  1 <1>  -0.1500 
 16 O       -5.8620    -2.3870    -1.5400 O.2   1 <1>  -0.5700 
 17 N       -6.9200    -2.6080     0.4080 N.am  1 <1>  -0.6600 
 18 C       -7.8860     1.5750    -1.0630 C.ar  1 <1>  -0.1500 
 19 C       -6.7500    -4.0940     0.4050 C.3   1 <1>   0.1400 
 20 C       -8.0340    -2.1620     1.2870 C.3   1 <1>   0.1400 
 21 C       -8.0160    -4.7550    -0.1620 C.3   1 <1>   0.2000 
 22 C       -9.3440    -2.7770     0.7750 C.3   1 <1>  -0.1600 
 23 O       -8.1450    -4.3750    -1.4900 O.3   1 <1>  -0.6800 
 24 C       -9.2670    -4.3180     0.6320 C.3   1 <1>  -0.0800 
 25 C      -10.5440    -4.8930    -0.0010 C.3   1 <1>   0.1200 
 26 O      -11.6290    -4.6580     0.8330 O.3   1 <1>  -0.6800 
 27 H        1.0250    -2.6190    -0.7060 H     1 <1>   0.1500 
 28 H       -3.2990    -2.8200    -0.7130 H     1 <1>   0.1500 
 29 H       -1.1650    -4.1740    -0.8470 H     1 <1>   0.1500 
 30 H       -5.1180    -0.5780     2.1630 H     1 <1>   0.0800 
 31 H       -3.3730    -0.6900     2.0970 H     1 <1>   0.0800 
 32 H       -4.3600    -1.9210     1.3310 H     1 <1>   0.0800 
 33 H       -4.8890     2.4580     0.1860 H     1 <1>   0.1500 
 34 H       -8.5070    -0.4260    -1.4390 H     1 <1>   0.1500 
 35 H       -6.9880     3.4590    -0.5970 H     1 <1>   0.1500 
 36 H       -8.8030     2.0130    -1.4190 H     1 <1>   0.1500 
 37 H       -5.8920    -4.3870    -0.1770 H     1 <1>   0.0800 
 38 H       -6.5890    -4.4320     1.4130 H     1 <1>   0.0800 
 39 H       -7.8430    -2.4930     2.2930 H     1 <1>   0.0800 
 40 H       -8.1120    -1.0890     1.3020 H     1 <1>   0.0800 
 41 H       -7.9170    -5.8270    -0.1440 H     1 <1>   0.0800 
 42 H      -10.1400    -2.5150     1.4490 H     1 <1>   0.0800 
 43 H       -9.5810    -2.3430    -0.1810 H     1 <1>   0.0800 
 44 H       -7.5140    -3.6360    -1.6640 H     1 <1>   0.4000 
 45 H       -9.1690    -4.7400     1.6160 H     1 <1>   0.0800 
 46 H      -10.4600    -5.9550    -0.1540 H     1 <1>   0.0800 
 47 H      -10.7450    -4.4210    -0.9490 H     1 <1>   0.0800 
 48 H      -11.5550    -5.1800     1.6540 H     1 <1>   0.4000 
@<TRIPOS>BOND
  1   1   2  1   
  2   1   3  1   
  3   2   4  1   
  4   2   5  2   
  5   3   6  2   
  6   3  27  1   
  7   4   7  2   
  8   4   8  am  
  9   5   6  1   
 10   5  28  1   
 11   6  29  1   
 12   8   9  1   
 13   8  10  1   
 14   9  11  ar  
 15   9  12  ar  
 16  10  30  1   
 17  10  31  1   
 18  10  32  1   
 19  11  13  1   
 20  11  14  ar  
 21  12  15  ar  
 22  12  33  1   
 23  13  16  2   
 24  13  17  am  
 25  14  18  ar  
 26  14  34  1   
 27  15  18  ar  
 28  15  35  1   
 29  17  19  1   
 30  17  20  1   
 31  18  36  1   
 32  19  21  1   
 33  19  37  1   
 34  19  38  1   
 35  20  22  1   
 36  20  39  1   
 37  20  40  1   
 38  21  23  1   
 39  21  24  1   
 40  21  41  1   
 41  22  24  1   
 42  22  42  1   
 43  22  43  1   
 44  23  44  1   
 45  24  25  1   
 46  24  45  1   
 47  25  26  1   
 48  25  46  1   
 49  25  47  1   
 50  26  48  1   
@<TRIPOS>SUBSTRUCTURE
  1 ****  13 GROUP 4 **** **** 0

# MOE 2024.06 (io_trps.svl 2023.06)
