@<TRIPOS>MOLECULE
NONAME
44 46 1 0 0 
SMALL
USER_CHARGES


@<TRIPOS>ATOM
  1 CL       6.3500    -0.5140    -0.7200 Cl    1 <1>  -0.1770 
  2 C        4.6840    -0.1810    -0.2930 C.ar  1 <1>   0.1770 
  3 C        3.9370     0.7190    -1.0450 C.ar  1 <1>   0.0830 
  4 C        4.1470    -0.8170     0.8100 C.ar  1 <1>  -0.1500 
  5 O        4.5290     1.3240    -2.1100 O.3   1 <1>  -0.3630 
  6 C        2.6200     0.9730    -0.6720 C.ar  1 <1>  -0.1500 
  7 C        2.8380    -0.5530     1.1760 C.ar  1 <1>  -0.1500 
  8 C        4.1540     2.6360    -2.5060 C.3   1 <1>   0.1810 
  9 C        2.0790     0.3390     0.4350 C.ar  1 <1>  -0.1500 
 10 C        4.2380     3.6510    -1.3600 C.2   1 <1>   0.5690 
 11 O        3.3640     4.4850    -1.2980 O.2   1 <1>  -0.5700 
 12 N        5.2610     3.6620    -0.4400 N.am  1 <1>  -0.6600 
 13 C        5.0460     4.2700     0.9140 C.3   1 <1>   0.1400 
 14 C        6.5940     3.0210    -0.6410 C.3   1 <1>   0.1400 
 15 C        5.9760     5.4650     1.2620 C.3   1 <1>   0.4230 
 16 C        7.7290     4.0670    -0.6200 C.3   1 <1>  -0.0800 
 17 N        6.5030     6.2510     0.0760 N.4   1 <1>  -0.9590 
 18 C        7.1150     5.0450     2.2160 C.3   1 <1>   0.1200 
 19 C        8.5850     4.0220     0.6550 C.3   1 <1>   0.1200 
 20 C        7.2420     5.4800    -0.9890 C.3   1 <1>   0.3430 
 21 C        5.3790     7.0060    -0.5640 C.3   1 <1>   0.2630 
 22 O        7.7900     3.9050     1.7880 O.3   1 <1>  -0.5600 
 23 H        4.7480    -1.5080     1.3740 H     1 <1>   0.1500 
 24 H        2.0040     1.6530    -1.2310 H     1 <1>   0.1500 
 25 H        2.4090    -1.0430     2.0340 H     1 <1>   0.1500 
 26 H        4.8140     2.9340    -3.2980 H     1 <1>   0.0800 
 27 H        3.1540     2.5970    -2.8950 H     1 <1>   0.0800 
 28 H        1.0600     0.5380     0.7200 H     1 <1>   0.1500 
 29 H        4.0290     4.6080     0.9990 H     1 <1>   0.0800 
 30 H        5.1620     3.4980     1.6570 H     1 <1>   0.0800 
 31 H        6.7510     2.2700     0.1170 H     1 <1>   0.0800 
 32 H        6.6190     2.5160    -1.5900 H     1 <1>   0.0800 
 33 H        5.3740     6.1430     1.8420 H     1 <1>   0.0800 
 34 H        8.3980     3.7820    -1.4120 H     1 <1>   0.0800 
 35 H        7.1640     6.9390     0.4570 H     1 <1>   0.4500 
 36 H        6.6890     4.7970     3.1730 H     1 <1>   0.0800 
 37 H        7.8230     5.8400     2.3670 H     1 <1>   0.0800 
 38 H        9.2250     4.8830     0.7510 H     1 <1>   0.0800 
 39 H        9.2080     3.1430     0.6320 H     1 <1>   0.0800 
 40 H        6.5990     5.3770    -1.8480 H     1 <1>   0.0800 
 41 H        8.0920     6.0610    -1.3040 H     1 <1>   0.0800 
 42 H        4.6610     6.3220    -0.9850 H     1 <1>   0.0800 
 43 H        5.7500     7.6390    -1.3530 H     1 <1>   0.0800 
 44 H        4.8750     7.6230     0.1630 H     1 <1>   0.0800 
@<TRIPOS>BOND
  1   1   2  1   
  2   2   3  ar  
  3   2   4  ar  
  4   3   5  1   
  5   3   6  ar  
  6   4   7  ar  
  7   4  23  1   
  8   5   8  1   
  9   6   9  ar  
 10   6  24  1   
 11   7   9  ar  
 12   7  25  1   
 13   8  10  1   
 14   8  26  1   
 15   8  27  1   
 16   9  28  1   
 17  10  11  2   
 18  10  12  am  
 19  12  13  1   
 20  12  14  1   
 21  13  15  1   
 22  13  29  1   
 23  13  30  1   
 24  14  16  1   
 25  14  31  1   
 26  14  32  1   
 27  15  17  1   
 28  15  18  1   
 29  15  33  1   
 30  16  19  1   
 31  16  20  1   
 32  16  34  1   
 33  17  20  1   
 34  17  21  1   
 35  17  35  1   
 36  18  22  1   
 37  18  36  1   
 38  18  37  1   
 39  19  22  1   
 40  19  38  1   
 41  19  39  1   
 42  20  40  1   
 43  20  41  1   
 44  21  42  1   
 45  21  43  1   
 46  21  44  1   
@<TRIPOS>SUBSTRUCTURE
  1 ****  12 GROUP 4 **** **** 0

# MOE 2024.06 (io_trps.svl 2023.06)
