@<TRIPOS>MOLECULE
NONAME
50 53 1 0 0 
SMALL
USER_CHARGES


@<TRIPOS>ATOM
  1 O       -4.1760     1.8930    -1.4930 O.2   1 <1>  -0.5700 
  2 C       -3.0100     1.6450    -1.3010 C.2   1 <1>   0.5690 
  3 N       -2.4270     0.5200    -1.7860 N.am  1 <1>  -0.7300 
  4 C       -2.1830     2.5740    -0.4320 C.3   1 <1>   0.0820 
  5 C       -3.1860    -0.6340    -2.3060 C.3   1 <1>   0.2200 
  6 C       -1.3610     1.7730     0.5700 C.2   1 <1>  -0.1810 
  7 C       -3.5900    -1.4950    -1.1230 C.3   1 <1>  -0.0800 
  8 C       -2.2660    -1.5730    -3.0780 C.3   1 <1>   0.1200 
  9 C       -0.0340     1.5750     0.6330 C.2   1 <1>  -0.0400 
 10 C       -1.8490     1.0220     1.6430 C.2   1 <1>   0.1080 
 11 C       -2.3430    -2.3560    -0.9070 C.3   1 <1>   0.1200 
 12 C       -4.8450    -2.3360    -1.4180 C.3   1 <1>  -0.0170 
 13 O       -1.6720    -2.4140    -2.1330 O.3   1 <1>  -0.5600 
 14 O        0.2060     0.7840     1.6430 O.3   1 <1>  -0.0190 
 15 C        1.1290     2.0640    -0.2060 C.3   1 <1>  -0.0600 
 16 N       -0.8860     0.4390     2.2600 N.2   1 <1>  -0.4100 
 17 C       -3.2960     0.8760     2.0730 C.3   1 <1>  -0.0590 
 18 C       -5.3810    -2.9580    -0.1340 C.ar  1 <1>  -0.1440 
 19 C       -6.0650    -2.1940     0.8420 C.ar  1 <1>   0.0000 
 20 C       -5.2020    -4.2870     0.1150 C.ar  1 <1>  -0.1500 
 21 C       -6.4890    -2.8590     2.0180 C.ar  1 <1>   0.3100 
 22 C       -6.3500    -0.8120     0.7240 C.ar  1 <1>  -0.1500 
 23 C       -5.6740    -4.8490     1.3070 C.ar  1 <1>   0.1600 
 24 N       -6.2900    -4.1840     2.2330 N.ar  1 <1>  -0.6200 
 25 C       -7.1470    -2.1230     3.0160 C.ar  1 <1>  -0.1500 
 26 C       -6.9970    -0.1240     1.7150 C.ar  1 <1>  -0.1500 
 27 C       -7.3990    -0.7850     2.8780 C.ar  1 <1>  -0.1500 
 28 H       -1.4850     0.2790    -1.4630 H     1 <1>   0.3700 
 29 H       -1.5450     3.1590    -1.0650 H     1 <1>   0.0800 
 30 H       -2.8370     3.2460     0.0950 H     1 <1>   0.0800 
 31 H       -4.0200    -0.2930    -2.8970 H     1 <1>   0.0800 
 32 H       -3.7740    -0.8920    -0.2540 H     1 <1>   0.0800 
 33 H       -1.5030    -1.0480    -3.6250 H     1 <1>   0.0800 
 34 H       -2.8350    -2.1910    -3.7500 H     1 <1>   0.0800 
 35 H       -2.5720    -3.3560    -0.5810 H     1 <1>   0.0800 
 36 H       -1.6810    -1.8920    -0.1960 H     1 <1>   0.0800 
 37 H       -4.6120    -3.1040    -2.1350 H     1 <1>   0.0800 
 38 H       -5.6130    -1.7210    -1.8540 H     1 <1>   0.0800 
 39 H        0.7880     2.6940    -1.0060 H     1 <1>   0.0800 
 40 H        1.6530     1.2230    -0.6230 H     1 <1>   0.0800 
 41 H        1.8090     2.6230     0.4110 H     1 <1>   0.0800 
 42 H       -3.9700     1.2150     1.3110 H     1 <1>   0.0800 
 43 H       -3.4620     1.4490     2.9660 H     1 <1>   0.0800 
 44 H       -3.5070    -0.1570     2.2850 H     1 <1>   0.0800 
 45 H       -4.6960    -4.9290    -0.5820 H     1 <1>   0.1500 
 46 H       -6.0560    -0.2800    -0.1620 H     1 <1>   0.1500 
 47 H       -5.5120    -5.9020     1.4650 H     1 <1>   0.1500 
 48 H       -7.4510    -2.6530     3.9000 H     1 <1>   0.1500 
 49 H       -7.2050     0.9270     1.6100 H     1 <1>   0.1500 
 50 H       -7.9060    -0.2340     3.6510 H     1 <1>   0.1500 
@<TRIPOS>BOND
  1   1   2  2   
  2   2   3  am  
  3   2   4  1   
  4   3   5  1   
  5   3  28  1   
  6   4   6  1   
  7   4  29  1   
  8   4  30  1   
  9   5   7  1   
 10   5   8  1   
 11   5  31  1   
 12   6   9  2   
 13   6  10  1   
 14   7  11  1   
 15   7  12  1   
 16   7  32  1   
 17   8  13  1   
 18   8  33  1   
 19   8  34  1   
 20   9  14  1   
 21   9  15  1   
 22  10  16  2   
 23  10  17  1   
 24  11  13  1   
 25  11  35  1   
 26  11  36  1   
 27  12  18  1   
 28  12  37  1   
 29  12  38  1   
 30  14  16  1   
 31  15  39  1   
 32  15  40  1   
 33  15  41  1   
 34  17  42  1   
 35  17  43  1   
 36  17  44  1   
 37  18  19  ar  
 38  18  20  ar  
 39  19  21  ar  
 40  19  22  ar  
 41  20  23  ar  
 42  20  45  1   
 43  21  24  ar  
 44  21  25  ar  
 45  22  26  ar  
 46  22  46  1   
 47  23  24  ar  
 48  23  47  1   
 49  25  27  ar  
 50  25  48  1   
 51  26  27  ar  
 52  26  49  1   
 53  27  50  1   
@<TRIPOS>SUBSTRUCTURE
  1 ****   7 GROUP 4 **** **** 0

# MOE 2024.06 (io_trps.svl 2023.06)
