@<TRIPOS>MOLECULE
NONAME
53 55 1 0 0 
SMALL
USER_CHARGES


@<TRIPOS>ATOM
  1 O        1.4240    -0.1490     1.6680 O.3   1 <1>  -0.6800 
  2 C        2.2490     0.7560     1.0150 C.3   1 <1>   0.2000 
  3 C        3.1340     0.0490    -0.0560 C.3   1 <1>   0.0000 
  4 C        1.3770     1.8650     0.4270 C.3   1 <1>  -0.1600 
  5 C        3.5080     1.0900    -1.1500 C.3   1 <1>   0.2090 
  6 C        2.3340    -1.1010    -0.7270 C.3   1 <1>   0.1200 
  7 C        4.3820    -0.5050     0.6950 C.3   1 <1>  -0.1600 
  8 C        2.2490     2.9860    -0.1550 C.3   1 <1>   0.2090 
  9 N        3.5960     2.4940    -0.6070 N.pl3 1 <1>  -0.8380 
 10 O        2.9150    -1.5070    -1.9270 O.3   1 <1>  -0.6800 
 11 C        5.3820    -1.3450    -0.1220 C.3   1 <1>  -0.1600 
 12 C        4.7590     3.1970    -0.4590 C.ar  1 <1>   0.1000 
 13 C        6.6290    -1.6700     0.7060 C.3   1 <1>  -0.2400 
 14 C        4.8320     4.6310    -0.3520 C.ar  1 <1>   0.0000 
 15 C        5.9730     2.5130    -0.3400 C.ar  1 <1>  -0.1500 
 16 C        5.9980     5.2340     0.1660 C.ar  1 <1>   0.3610 
 17 C        3.8300     5.5120    -0.7970 C.ar  1 <1>  -0.1500 
 18 C        7.1210     3.1360     0.0620 C.ar  1 <1>   0.2110 
 19 N        7.1120     4.4470     0.3470 N.ar  1 <1>  -0.1790 
 20 C        6.0580     6.6200     0.4300 C.ar  1 <1>  -0.1440 
 21 C        3.9080     6.8620    -0.5920 C.ar  1 <1>  -0.1500 
 22 C        5.0100     7.4310     0.0450 C.ar  1 <1>  -0.1440 
 23 C        7.2930     7.2100     1.1260 C.3   1 <1>  -0.0970 
 24 C        4.9880     8.9420     0.2550 C.3   1 <1>  -0.0970 
 25 H        0.9530     0.2880     2.4030 H     1 <1>   0.4000 
 26 H        2.8850     1.1990     1.7640 H     1 <1>   0.0800 
 27 H        0.7550     1.4630    -0.3530 H     1 <1>   0.0800 
 28 H        0.7370     2.2840     1.1820 H     1 <1>   0.0800 
 29 H        2.7360     1.0920    -1.9010 H     1 <1>   0.0800 
 30 H        4.4030     0.8080    -1.6700 H     1 <1>   0.0800 
 31 H        1.3320    -0.7780    -0.9510 H     1 <1>   0.0800 
 32 H        2.2790    -1.9520    -0.0700 H     1 <1>   0.0800 
 33 H        4.9050     0.3220     1.1400 H     1 <1>   0.0800 
 34 H        4.0360    -1.1210     1.5090 H     1 <1>   0.0800 
 35 H        2.3890     3.7390     0.6020 H     1 <1>   0.0800 
 36 H        1.7280     3.4280    -0.9870 H     1 <1>   0.0800 
 37 H        2.4420    -2.2820    -2.2880 H     1 <1>   0.4000 
 38 H        4.9180    -2.2710    -0.4170 H     1 <1>   0.0800 
 39 H        5.6790    -0.8320    -1.0180 H     1 <1>   0.0800 
 40 H        6.3570    -2.2220     1.5890 H     1 <1>   0.0800 
 41 H        7.1370    -0.7710     1.0010 H     1 <1>   0.0800 
 42 H        7.3060    -2.2730     0.1260 H     1 <1>   0.0800 
 43 H        6.0190     1.4600    -0.5320 H     1 <1>   0.1500 
 44 H        2.9840     5.1240    -1.3300 H     1 <1>   0.1500 
 45 H        8.0400     2.5810     0.1680 H     1 <1>   0.1500 
 46 H        7.9580     4.9200     0.6650 H     1 <1>   0.4570 
 47 H        3.1050     7.4950    -0.9340 H     1 <1>   0.1500 
 48 H        7.1000     8.1860     1.5320 H     1 <1>   0.0800 
 49 H        8.1070     7.3030     0.4270 H     1 <1>   0.0800 
 50 H        7.5990     6.5970     1.9550 H     1 <1>   0.0800 
 51 H        4.1580     9.3960    -0.2560 H     1 <1>   0.0800 
 52 H        5.8890     9.3890    -0.1270 H     1 <1>   0.0800 
 53 H        4.8980     9.1700     1.3020 H     1 <1>   0.0800 
@<TRIPOS>BOND
  1   1   2  1   
  2   1  25  1   
  3   2   3  1   
  4   2   4  1   
  5   2  26  1   
  6   3   5  1   
  7   3   6  1   
  8   3   7  1   
  9   4   8  1   
 10   4  27  1   
 11   4  28  1   
 12   5   9  1   
 13   5  29  1   
 14   5  30  1   
 15   6  10  1   
 16   6  31  1   
 17   6  32  1   
 18   7  11  1   
 19   7  33  1   
 20   7  34  1   
 21   8   9  1   
 22   8  35  1   
 23   8  36  1   
 24   9  12  1   
 25  10  37  1   
 26  11  13  1   
 27  11  38  1   
 28  11  39  1   
 29  12  14  ar  
 30  12  15  ar  
 31  13  40  1   
 32  13  41  1   
 33  13  42  1   
 34  14  16  ar  
 35  14  17  ar  
 36  15  18  ar  
 37  15  43  1   
 38  16  19  ar  
 39  16  20  ar  
 40  17  21  ar  
 41  17  44  1   
 42  18  19  ar  
 43  18  45  1   
 44  19  46  1   
 45  20  22  ar  
 46  20  23  1   
 47  21  22  ar  
 48  21  47  1   
 49  22  24  1   
 50  23  48  1   
 51  23  49  1   
 52  23  50  1   
 53  24  51  1   
 54  24  52  1   
 55  24  53  1   
@<TRIPOS>SUBSTRUCTURE
  1 ****  12 GROUP 4 **** **** 0

# MOE 2024.06 (io_trps.svl 2023.06)
