@<TRIPOS>MOLECULE
NONAME
54 56 1 0 0 
SMALL
USER_CHARGES


@<TRIPOS>ATOM
  1 O        0.5330    -0.4080     1.6460 O.2   1 <1>  -0.5700 
  2 C        0.9260    -0.6720     0.5320 C.2   1 <1>   0.5690 
  3 N        1.5520     0.2530    -0.2470 N.am  1 <1>  -0.7300 
  4 C        0.6730    -2.1090     0.0060 C.3   1 <1>   0.4840 
  5 C        1.8580     1.6360     0.1670 C.3   1 <1>   0.2200 
  6 N       -0.5760    -2.7260     0.6100 N.4   1 <1>  -0.9590 
  7 C        1.8990    -2.9810     0.3090 C.3   1 <1>  -0.2400 
  8 C        1.3190     2.5910    -0.8890 C.3   1 <1>  -0.1600 
  9 C        3.3650     1.8430     0.0880 C.3   1 <1>  -0.1600 
 10 C       -0.8130    -4.1590     0.2420 C.3   1 <1>   0.3430 
 11 C       -1.7850    -1.9060     0.2770 C.3   1 <1>   0.2630 
 12 C        2.3580     2.5990    -2.0160 C.3   1 <1>  -0.1600 
 13 C        3.6730     2.1170    -1.3890 C.3   1 <1>  -0.1600 
 14 C       -0.5570    -5.1090     1.4180 C.3   1 <1>   0.0200 
 15 C       -0.6760    -6.5390     0.9320 C.2   1 <1>   0.0060 
 16 N       -0.5860    -7.6120     1.7640 N.pl3 1 <1>   0.0330 
 17 N       -0.8660    -6.8520    -0.3020 N.2   1 <1>  -0.5650 
 18 C       -0.7340    -8.7040     0.9750 C.ar  1 <1>  -0.1520 
 19 C       -0.9070    -8.2150    -0.3050 C.ar  1 <1>   0.2270 
 20 C       -0.7360   -10.0760     1.2310 C.ar  1 <1>  -0.1500 
 21 C       -1.0890    -9.0970    -1.3680 C.ar  1 <1>  -0.1500 
 22 C       -0.9160   -10.9500     0.1800 C.ar  1 <1>   0.0820 
 23 C       -1.0930   -10.4540    -1.1270 C.ar  1 <1>  -0.1500 
 24 O       -0.9100   -12.2750     0.4800 O.3   1 <1>  -0.3620 
 25 C       -1.0840   -13.2530    -0.5220 C.3   1 <1>   0.0400 
 26 H        1.9210     0.0380    -1.1750 H     1 <1>   0.3700 
 27 H        0.5510    -2.0490    -1.0620 H     1 <1>   0.0800 
 28 H        1.4670     1.8460     1.1500 H     1 <1>   0.0800 
 29 H       -0.4390    -2.6330     1.6290 H     1 <1>   0.4500 
 30 H        2.0290    -3.0970     1.3710 H     1 <1>   0.0800 
 31 H        2.7810    -2.4980    -0.0750 H     1 <1>   0.0800 
 32 H        1.8350    -3.9440    -0.1630 H     1 <1>   0.0800 
 33 H        1.2690     3.5760    -0.4590 H     1 <1>   0.0800 
 34 H        0.3350     2.3190    -1.2290 H     1 <1>   0.0800 
 35 H        3.9180     1.0090     0.4840 H     1 <1>   0.0800 
 36 H        3.6160     2.7190     0.6620 H     1 <1>   0.0800 
 37 H       -0.1780    -4.4410    -0.5830 H     1 <1>   0.0800 
 38 H       -1.8310    -4.2980    -0.0840 H     1 <1>   0.0800 
 39 H       -1.9510    -1.8940    -0.7880 H     1 <1>   0.0800 
 40 H       -1.6580    -0.8910     0.6210 H     1 <1>   0.0800 
 41 H       -2.6580    -2.3170     0.7580 H     1 <1>   0.0800 
 42 H        2.4630     3.5880    -2.4310 H     1 <1>   0.0800 
 43 H        2.0600     1.9270    -2.8030 H     1 <1>   0.0800 
 44 H        4.0000     1.2140    -1.8740 H     1 <1>   0.0800 
 45 H        4.4480     2.8590    -1.4850 H     1 <1>   0.0800 
 46 H       -1.2850    -4.9350     2.1900 H     1 <1>   0.0800 
 47 H        0.4300    -4.9630     1.8140 H     1 <1>   0.0800 
 48 H       -0.4370    -7.6260     2.7770 H     1 <1>   0.2700 
 49 H       -0.6010   -10.4530     2.2280 H     1 <1>   0.1500 
 50 H       -1.2230    -8.6980    -2.3560 H     1 <1>   0.1500 
 51 H       -1.2340   -11.1240    -1.9530 H     1 <1>   0.1500 
 52 H       -1.0430   -14.2200    -0.0540 H     1 <1>   0.0800 
 53 H       -0.2890   -13.1610    -1.2410 H     1 <1>   0.0800 
 54 H       -2.0440   -13.1120    -0.9850 H     1 <1>   0.0800 
@<TRIPOS>BOND
  1   1   2  2   
  2   2   3  am  
  3   2   4  1   
  4   3   5  1   
  5   3  26  1   
  6   4   6  1   
  7   4   7  1   
  8   4  27  1   
  9   5   8  1   
 10   5   9  1   
 11   5  28  1   
 12   6  10  1   
 13   6  11  1   
 14   6  29  1   
 15   7  30  1   
 16   7  31  1   
 17   7  32  1   
 18   8  12  1   
 19   8  33  1   
 20   8  34  1   
 21   9  13  1   
 22   9  35  1   
 23   9  36  1   
 24  10  14  1   
 25  10  37  1   
 26  10  38  1   
 27  11  39  1   
 28  11  40  1   
 29  11  41  1   
 30  12  13  1   
 31  12  42  1   
 32  12  43  1   
 33  13  44  1   
 34  13  45  1   
 35  14  15  1   
 36  14  46  1   
 37  14  47  1   
 38  15  16  1   
 39  15  17  2   
 40  16  18  1   
 41  16  48  1   
 42  17  19  1   
 43  18  19  ar  
 44  18  20  ar  
 45  19  21  ar  
 46  20  22  ar  
 47  20  49  1   
 48  21  23  ar  
 49  21  50  1   
 50  22  23  ar  
 51  22  24  1   
 52  23  51  1   
 53  24  25  1   
 54  25  52  1   
 55  25  53  1   
 56  25  54  1   
@<TRIPOS>SUBSTRUCTURE
  1 ****  10 GROUP 4 **** **** 0

# MOE 2024.06 (io_trps.svl 2023.06)
