@<TRIPOS>MOLECULE
NONAME
56 58 1 0 0 
SMALL
USER_CHARGES


@<TRIPOS>ATOM
  1 S        0.9740    -0.3360     0.3750 S.3   1 <1>  -0.4600 
  2 C       -0.5430     0.6570     0.3230 C.3   1 <1>   0.2510 
  3 C        2.2790     0.8810     0.0710 C.3   1 <1>   0.0700 
  4 C       -1.7280    -0.2750     0.4900 C.2   1 <1>  -0.1810 
  5 C        3.6190     0.1450     0.0980 C.3   1 <1>  -0.1600 
  6 C       -2.5950    -0.4000     1.5180 C.2   1 <1>  -0.0400 
  7 C       -2.1420    -1.2100    -0.4600 C.2   1 <1>  -0.1500 
  8 C        4.7860     1.1070    -0.1540 C.3   1 <1>  -0.1600 
  9 O       -3.4860    -1.3260     1.2500 O.3   1 <1>  -0.2800 
 10 C       -2.6910     0.3150     2.8490 C.3   1 <1>  -0.0600 
 11 C       -3.2320    -1.8450     0.0500 C.2   1 <1>   0.0550 
 12 C        6.1250     0.3660    -0.1260 C.3   1 <1>  -0.2400 
 13 C       -4.0500    -2.8890    -0.5360 C.2   1 <1>   0.7150 
 14 O       -4.0410    -3.0320    -1.7480 O.2   1 <1>  -0.5700 
 15 N       -4.8440    -3.7410     0.2170 N.am  1 <1>  -0.6600 
 16 C       -5.9770    -4.4560    -0.4460 C.3   1 <1>   0.2200 
 17 C       -4.4740    -4.0990     1.6200 C.3   1 <1>   0.0600 
 18 C       -6.7640    -5.4280     0.4350 C.3   1 <1>  -0.1600 
 19 C       -7.0470    -3.4710    -0.9090 C.3   1 <1>  -0.1600 
 20 C       -8.0980    -5.6180    -0.2980 C.3   1 <1>  -0.0800 
 21 C       -8.3110    -4.3180    -1.1100 C.3   1 <1>  -0.0800 
 22 C       -9.2500    -6.0180     0.6460 C.3   1 <1>   0.1400 
 23 C       -9.6060    -3.5580    -0.7640 C.3   1 <1>  -0.0990 
 24 N      -10.5480    -5.6740     0.0310 N.am  1 <1>  -0.7300 
 25 C      -10.7670    -4.5200    -0.6330 C.2   1 <1>   0.5690 
 26 O      -11.8450    -4.2560    -1.0980 O.2   1 <1>  -0.5700 
 27 H       -0.4830     1.3760     1.1190 H     1 <1>   0.0800 
 28 H       -0.5730     1.1560    -0.6290 H     1 <1>   0.0800 
 29 H        2.0910     1.3250    -0.8910 H     1 <1>   0.0800 
 30 H        2.2190     1.6230     0.8480 H     1 <1>   0.0800 
 31 H        3.7410    -0.3280     1.0570 H     1 <1>   0.0800 
 32 H        3.6130    -0.6220    -0.6570 H     1 <1>   0.0800 
 33 H       -1.6750    -1.3890    -1.4130 H     1 <1>   0.1500 
 34 H        4.6640     1.5810    -1.1140 H     1 <1>   0.0800 
 35 H        4.7920     1.8750     0.6010 H     1 <1>   0.0800 
 36 H       -1.8980     1.0320     2.9540 H     1 <1>   0.0800 
 37 H       -2.6190    -0.4010     3.6470 H     1 <1>   0.0800 
 38 H       -3.6350     0.8230     2.9190 H     1 <1>   0.0800 
 39 H        6.1500    -0.3940    -0.8870 H     1 <1>   0.0800 
 40 H        6.2780    -0.0990     0.8320 H     1 <1>   0.0800 
 41 H        6.9320     1.0550    -0.3050 H     1 <1>   0.0800 
 42 H       -5.6010    -4.9930    -1.3030 H     1 <1>   0.0800 
 43 H       -4.4770    -5.1670     1.7460 H     1 <1>   0.0800 
 44 H       -5.1720    -3.6510     2.3050 H     1 <1>   0.0800 
 45 H       -3.4850    -3.7490     1.8560 H     1 <1>   0.0800 
 46 H       -6.2460    -6.3620     0.5600 H     1 <1>   0.0800 
 47 H       -6.9560    -4.9780     1.3930 H     1 <1>   0.0800 
 48 H       -7.2050    -2.7380    -0.1380 H     1 <1>   0.0800 
 49 H       -6.7590    -2.9760    -1.8200 H     1 <1>   0.0800 
 50 H       -7.9690    -6.4190    -1.0070 H     1 <1>   0.0800 
 51 H       -8.3670    -4.5990    -2.1490 H     1 <1>   0.0800 
 52 H       -9.1700    -5.4870     1.5800 H     1 <1>   0.0800 
 53 H       -9.2090    -7.0750     0.8500 H     1 <1>   0.0800 
 54 H       -9.8240    -2.8310    -1.5260 H     1 <1>   0.0800 
 55 H       -9.5030    -3.0440     0.1730 H     1 <1>   0.0800 
 56 H      -11.3400    -6.3090     0.1500 H     1 <1>   0.3700 
@<TRIPOS>BOND
  1   1   2  1   
  2   1   3  1   
  3   2   4  1   
  4   2  27  1   
  5   2  28  1   
  6   3   5  1   
  7   3  29  1   
  8   3  30  1   
  9   4   6  2   
 10   4   7  1   
 11   5   8  1   
 12   5  31  1   
 13   5  32  1   
 14   6   9  1   
 15   6  10  1   
 16   7  11  2   
 17   7  33  1   
 18   8  12  1   
 19   8  34  1   
 20   8  35  1   
 21   9  11  1   
 22  10  36  1   
 23  10  37  1   
 24  10  38  1   
 25  11  13  1   
 26  12  39  1   
 27  12  40  1   
 28  12  41  1   
 29  13  14  2   
 30  13  15  am  
 31  15  16  1   
 32  15  17  1   
 33  16  18  1   
 34  16  19  1   
 35  16  42  1   
 36  17  43  1   
 37  17  44  1   
 38  17  45  1   
 39  18  20  1   
 40  18  46  1   
 41  18  47  1   
 42  19  21  1   
 43  19  48  1   
 44  19  49  1   
 45  20  21  1   
 46  20  22  1   
 47  20  50  1   
 48  21  23  1   
 49  21  51  1   
 50  22  24  1   
 51  22  52  1   
 52  22  53  1   
 53  23  25  1   
 54  23  54  1   
 55  23  55  1   
 56  24  25  am  
 57  24  56  1   
 58  25  26  2   
@<TRIPOS>SUBSTRUCTURE
  1 ****  13 GROUP 4 **** **** 0

# MOE 2024.06 (io_trps.svl 2023.06)
