@<TRIPOS>MOLECULE
NONAME
47 49 1 0 0 
SMALL
USER_CHARGES


@<TRIPOS>ATOM
  1 S        0.6520     0.2080    -1.4170 S.o2  1 <1>   1.3330 
  2 O        0.9790    -1.1640    -1.7340 O.2   1 <1>  -0.6500 
  3 O       -0.1060     1.0000    -2.3590 O.2   1 <1>  -0.6500 
  4 N       -0.2100     0.2110     0.0480 N.am  1 <1>  -0.8490 
  5 C        2.1800     1.0620    -1.0170 C.3   1 <1>  -0.0550 
  6 C       -1.1510    -0.9110     0.1360 C.3   1 <1>   0.1160 
  7 C       -0.9190     1.4710     0.3010 C.3   1 <1>   0.1160 
  8 C        3.1100     0.2790    -0.0630 C.3   1 <1>  -0.0800 
  9 C        4.4860     0.8940     0.1410 C.3   1 <1>   0.2200 
 10 C        2.5920     0.1210     1.3730 C.3   1 <1>   0.1200 
 11 N        4.3870     2.3610     0.3270 N.am  1 <1>  -0.7300 
 12 C        4.8760     0.2610     1.4690 C.3   1 <1>   0.1200 
 13 O        3.7000     0.2560     2.2170 O.3   1 <1>  -0.5600 
 14 C        4.6950     3.3140    -0.6090 C.2   1 <1>   0.7150 
 15 O        4.9910     2.9120    -1.7200 O.2   1 <1>  -0.5700 
 16 C        4.6430     4.7330    -0.2800 C.2   1 <1>   0.2930 
 17 S        4.1690     5.1610     1.3720 S.3   1 <1>  -0.0800 
 18 N        4.8850     5.7790    -1.0040 N.2   1 <1>  -0.5650 
 19 C        4.3410     6.8360     0.9820 C.2   1 <1>  -0.1400 
 20 C        4.7100     6.9460    -0.2960 C.2   1 <1>   0.0460 
 21 C        4.0930     7.9420     1.9820 C.3   1 <1>   0.0200 
 22 C        4.9370     8.2910    -0.9560 C.3   1 <1>   0.0210 
 23 C        4.6540     9.2600     1.4100 C.3   1 <1>  -0.1600 
 24 C        4.3440     9.4290    -0.0940 C.3   1 <1>  -0.1600 
 25 H        2.7140     1.2350    -1.9310 H     1 <1>   0.0800 
 26 H        1.9500     2.0210    -0.5980 H     1 <1>   0.0800 
 27 H       -1.6730    -0.8880     1.0770 H     1 <1>   0.0800 
 28 H       -0.6190    -1.8450     0.0700 H     1 <1>   0.0800 
 29 H       -1.8660    -0.8630    -0.6690 H     1 <1>   0.0800 
 30 H       -1.3720     1.4500     1.2780 H     1 <1>   0.0800 
 31 H       -1.6880     1.6260    -0.4380 H     1 <1>   0.0800 
 32 H       -0.2330     2.2990     0.2630 H     1 <1>   0.0800 
 33 H        3.2510    -0.7100    -0.4660 H     1 <1>   0.0800 
 34 H        5.1770     0.6490    -0.6490 H     1 <1>   0.0800 
 35 H        2.1440    -0.8460     1.5320 H     1 <1>   0.0800 
 36 H        1.8900     0.8930     1.6350 H     1 <1>   0.0800 
 37 H        4.1110     2.6450     1.2710 H     1 <1>   0.3700 
 38 H        5.6390     0.8130     1.9900 H     1 <1>   0.0800 
 39 H        5.1870    -0.7600     1.3320 H     1 <1>   0.0800 
 40 H        3.0340     8.0310     2.1500 H     1 <1>   0.0800 
 41 H        4.5730     7.7140     2.9180 H     1 <1>   0.0800 
 42 H        5.9950     8.4330    -1.0820 H     1 <1>   0.0800 
 43 H        4.4790     8.2950    -1.9290 H     1 <1>   0.0800 
 44 H        4.2500    10.0900     1.9640 H     1 <1>   0.0800 
 45 H        5.7220     9.2660     1.5430 H     1 <1>   0.0800 
 46 H        4.7260    10.3730    -0.4430 H     1 <1>   0.0800 
 47 H        3.2760     9.4390    -0.2270 H     1 <1>   0.0800 
@<TRIPOS>BOND
  1   1   2  2   
  2   1   3  2   
  3   1   4  am  
  4   1   5  1   
  5   4   6  1   
  6   4   7  1   
  7   5   8  1   
  8   5  25  1   
  9   5  26  1   
 10   6  27  1   
 11   6  28  1   
 12   6  29  1   
 13   7  30  1   
 14   7  31  1   
 15   7  32  1   
 16   8   9  1   
 17   8  10  1   
 18   8  33  1   
 19   9  11  1   
 20   9  12  1   
 21   9  34  1   
 22  10  13  1   
 23  10  35  1   
 24  10  36  1   
 25  11  14  am  
 26  11  37  1   
 27  12  13  1   
 28  12  38  1   
 29  12  39  1   
 30  14  15  2   
 31  14  16  1   
 32  16  17  1   
 33  16  18  2   
 34  17  19  1   
 35  18  20  1   
 36  19  20  2   
 37  19  21  1   
 38  20  22  1   
 39  21  23  1   
 40  21  40  1   
 41  21  41  1   
 42  22  24  1   
 43  22  42  1   
 44  22  43  1   
 45  23  24  1   
 46  23  44  1   
 47  23  45  1   
 48  24  46  1   
 49  24  47  1   
@<TRIPOS>SUBSTRUCTURE
  1 ****  11 GROUP 4 **** **** 0

# MOE 2024.06 (io_trps.svl 2023.06)
