@<TRIPOS>MOLECULE
NONAME
50 52 1 0 0 
SMALL
USER_CHARGES


@<TRIPOS>ATOM
  1 CL      -0.3230     0.2450     0.4950 Cl    1 <1>  -0.1770 
  2 C       -2.0240     0.6060     0.3760 C.ar  1 <1>   0.1770 
  3 C       -2.4380     1.9210     0.2960 C.ar  1 <1>  -0.1500 
  4 C       -2.9410    -0.4270     0.3650 C.ar  1 <1>  -0.1500 
  5 C       -3.7900     2.2000     0.2020 C.ar  1 <1>  -0.1500 
  6 C       -4.2900    -0.1350     0.2720 C.ar  1 <1>  -0.1500 
  7 C       -4.7500     1.1830     0.1870 C.ar  1 <1>   0.0530 
  8 C       -6.1560     1.5030     0.0930 C.2   1 <1>   0.0870 
  9 O       -6.5790     2.7020     0.4070 O.3   1 <1>  -0.0190 
 10 C       -7.2550     0.7890    -0.2720 C.2   1 <1>  -0.0860 
 11 N       -7.8700     2.8430     0.2750 N.2   1 <1>  -0.4100 
 12 C       -8.3000     1.7060    -0.1420 C.2   1 <1>   0.3720 
 13 C       -7.3880    -0.5590    -0.7220 C.2   1 <1>   0.7160 
 14 N       -9.6360     1.4290    -0.4250 N.pl3 1 <1>  -0.8520 
 15 O       -6.8000    -0.9020    -1.7300 O.2   1 <1>  -0.5700 
 16 N       -8.1470    -1.4910    -0.0420 N.am  1 <1>  -0.6600 
 17 C      -10.5210     2.5690    -0.7910 C.3   1 <1>   0.2090 
 18 C       -8.3920    -2.8590    -0.5880 C.3   1 <1>   0.1400 
 19 C       -8.6820    -1.2780     1.3340 C.3   1 <1>   0.1400 
 20 C      -11.9860     2.1420    -0.6890 C.3   1 <1>   0.1200 
 21 C       -9.8980    -3.1690    -0.5820 C.3   1 <1>  -0.0800 
 22 C      -10.1840    -1.5800     1.3640 C.3   1 <1>  -0.1600 
 23 O      -12.7910     3.1840    -1.1450 O.3   1 <1>  -0.5600 
 24 C      -10.4940    -2.9820     0.8230 C.3   1 <1>  -0.1600 
 25 C      -10.1580    -4.5950    -1.0860 C.3   1 <1>  -0.2400 
 26 C      -14.1540     2.9220    -1.0590 C.3   1 <1>   0.0400 
 27 H       -1.7090     2.7110     0.3060 H     1 <1>   0.1500 
 28 H       -2.5990    -1.4440     0.4260 H     1 <1>   0.1500 
 29 H       -4.1060     3.2270     0.1360 H     1 <1>   0.1500 
 30 H       -4.9890    -0.9510     0.2670 H     1 <1>   0.1500 
 31 H       -9.7310     0.6480    -1.0820 H     1 <1>   0.4000 
 32 H      -10.3030     2.8800    -1.7980 H     1 <1>   0.0800 
 33 H      -10.3530     3.3960    -0.1230 H     1 <1>   0.0800 
 34 H       -7.8680    -3.5750     0.0210 H     1 <1>   0.0800 
 35 H       -8.0170    -2.9410    -1.5940 H     1 <1>   0.0800 
 36 H       -8.5130    -0.2700     1.6700 H     1 <1>   0.0800 
 37 H       -8.1700    -1.9410     2.0110 H     1 <1>   0.0800 
 38 H      -12.2350     1.9340     0.3370 H     1 <1>   0.0800 
 39 H      -12.1670     1.2780    -1.3040 H     1 <1>   0.0800 
 40 H      -10.3790    -2.4830    -1.2590 H     1 <1>   0.0800 
 41 H      -10.7020    -0.8410     0.7790 H     1 <1>   0.0800 
 42 H      -10.5400    -1.4970     2.3760 H     1 <1>   0.0800 
 43 H      -10.0790    -3.7180     1.4910 H     1 <1>   0.0800 
 44 H      -11.5600    -3.1270     0.7900 H     1 <1>   0.0800 
 45 H       -9.6880    -5.3180    -0.4430 H     1 <1>   0.0800 
 46 H       -9.7690    -4.7150    -2.0820 H     1 <1>   0.0800 
 47 H      -11.2150    -4.7940    -1.1110 H     1 <1>   0.0800 
 48 H      -14.6840     3.7800    -1.4330 H     1 <1>   0.0800 
 49 H      -14.4200     2.7520    -0.0300 H     1 <1>   0.0800 
 50 H      -14.3900     2.0610    -1.6600 H     1 <1>   0.0800 
@<TRIPOS>BOND
  1   1   2  1   
  2   2   3  ar  
  3   2   4  ar  
  4   3   5  ar  
  5   3  27  1   
  6   4   6  ar  
  7   4  28  1   
  8   5   7  ar  
  9   5  29  1   
 10   6   7  ar  
 11   6  30  1   
 12   7   8  1   
 13   8   9  1   
 14   8  10  2   
 15   9  11  1   
 16  10  12  1   
 17  10  13  1   
 18  11  12  2   
 19  12  14  1   
 20  13  15  2   
 21  13  16  am  
 22  14  17  1   
 23  14  31  1   
 24  16  18  1   
 25  16  19  1   
 26  17  20  1   
 27  17  32  1   
 28  17  33  1   
 29  18  21  1   
 30  18  34  1   
 31  18  35  1   
 32  19  22  1   
 33  19  36  1   
 34  19  37  1   
 35  20  23  1   
 36  20  38  1   
 37  20  39  1   
 38  21  24  1   
 39  21  25  1   
 40  21  40  1   
 41  22  24  1   
 42  22  41  1   
 43  22  42  1   
 44  23  26  1   
 45  24  43  1   
 46  24  44  1   
 47  25  45  1   
 48  25  46  1   
 49  25  47  1   
 50  26  48  1   
 51  26  49  1   
 52  26  50  1   
@<TRIPOS>SUBSTRUCTURE
  1 ****  10 GROUP 4 **** **** 0

# MOE 2024.06 (io_trps.svl 2023.06)
