@<TRIPOS>MOLECULE
NONAME
35 36 1 0 0 
SMALL
USER_CHARGES


@<TRIPOS>ATOM
  1 O       -0.6050    -2.2950     2.3000 O.3   1 <1>  -0.2800 
  2 C       -0.7600    -3.2980     1.4610 C.2   1 <1>  -0.0100 
  3 C       -0.7870    -1.1780     1.6260 C.2   1 <1>  -0.0100 
  4 C       -1.0530    -2.8420     0.2240 C.2   1 <1>  -0.1810 
  5 C       -1.0670    -1.4420     0.3320 C.2   1 <1>  -0.1500 
  6 C       -1.3180    -3.6450    -1.0280 C.3   1 <1>   0.5240 
  7 N       -2.7220    -4.1050    -0.9930 N.4   1 <1>  -0.9590 
  8 C       -2.9800    -5.2270    -1.9330 C.3   1 <1>   0.5240 
  9 C       -3.7270    -2.9970    -1.0610 C.3   1 <1>   0.3430 
 10 C       -3.7290    -6.2900    -1.1420 C.2   1 <1>   0.0460 
 11 C       -5.1200    -3.4190    -0.5710 C.3   1 <1>   0.1200 
 12 N       -3.5080    -6.4200     0.1850 N.2   1 <1>  -0.5650 
 13 C       -4.6580    -7.1770    -1.5620 C.2   1 <1>  -0.3020 
 14 O       -5.9660    -2.3350    -0.7290 O.3   1 <1>  -0.6800 
 15 C       -4.2920    -7.3850     0.5400 C.2   1 <1>   0.0060 
 16 N       -5.0200    -7.8910    -0.4790 N.pl3 1 <1>   0.0330 
 17 C       -4.3950    -7.9140     1.9560 C.3   1 <1>  -0.0600 
 18 H       -0.6440    -4.3000     1.8400 H     1 <1>   0.1500 
 19 H       -0.6960    -0.2400     2.1470 H     1 <1>   0.1500 
 20 H       -1.2570    -0.7340    -0.4560 H     1 <1>   0.1500 
 21 H       -0.6540    -4.4950    -1.0410 H     1 <1>   0.0800 
 22 H       -1.1320    -3.0460    -1.9050 H     1 <1>   0.0800 
 23 H       -2.8450    -4.5740    -0.0730 H     1 <1>   0.4500 
 24 H       -2.0500    -5.6510    -2.2740 H     1 <1>   0.0800 
 25 H       -3.5570    -4.9040    -2.7840 H     1 <1>   0.0800 
 26 H       -3.8060    -2.6370    -2.0730 H     1 <1>   0.0800 
 27 H       -3.4020    -2.1800    -0.4370 H     1 <1>   0.0800 
 28 H       -5.0950    -3.6800     0.4740 H     1 <1>   0.0800 
 29 H       -5.5180    -4.2330    -1.1500 H     1 <1>   0.0800 
 30 H       -5.0750    -7.3500    -2.5390 H     1 <1>   0.1500 
 31 H       -6.8590    -2.5220    -0.3680 H     1 <1>   0.4000 
 32 H       -5.6980    -8.6600    -0.4290 H     1 <1>   0.2700 
 33 H       -3.7340    -7.3650     2.6030 H     1 <1>   0.0800 
 34 H       -4.1180    -8.9520     1.9840 H     1 <1>   0.0800 
 35 H       -5.4010    -7.8060     2.3210 H     1 <1>   0.0800 
@<TRIPOS>BOND
  1   1   2  1   
  2   1   3  1   
  3   2   4  2   
  4   2  18  1   
  5   3   5  2   
  6   3  19  1   
  7   4   5  1   
  8   4   6  1   
  9   5  20  1   
 10   6   7  1   
 11   6  21  1   
 12   6  22  1   
 13   7   8  1   
 14   7   9  1   
 15   7  23  1   
 16   8  10  1   
 17   8  24  1   
 18   8  25  1   
 19   9  11  1   
 20   9  26  1   
 21   9  27  1   
 22  10  12  1   
 23  10  13  2   
 24  11  14  1   
 25  11  28  1   
 26  11  29  1   
 27  12  15  2   
 28  13  16  1   
 29  13  30  1   
 30  14  31  1   
 31  15  16  1   
 32  15  17  1   
 33  16  32  1   
 34  17  33  1   
 35  17  34  1   
 36  17  35  1   
@<TRIPOS>SUBSTRUCTURE
  1 ****   7 GROUP 4 **** **** 0

# MOE 2024.06 (io_trps.svl 2023.06)
