@<TRIPOS>MOLECULE
NONAME
21 22 1 0 0 
SMALL
USER_CHARGES


@<TRIPOS>ATOM
  1 N        3.4070    -0.1620    -0.3150 N.2   1 <1>  -0.2110 
  2 N        3.8460    -0.1220     0.8450 N.2   1 <1>  -0.2110 
  3 C        4.8040    -0.1790    -0.1810 C.3   1 <1>   0.2320 
  4 C        5.6060     1.0850    -0.4870 C.3   1 <1>  -0.0650 
  5 C        5.5850    -1.4810    -0.3960 C.3   1 <1>  -0.0650 
  6 C        6.8790     1.0790     0.3620 C.3   1 <1>   0.4230 
  7 C        6.9180    -1.4570     0.3700 C.3   1 <1>  -0.1600 
  8 N        7.6920     2.2760     0.0730 N.4   1 <1>  -0.8530 
  9 C        7.7210    -0.1750     0.0880 C.3   1 <1>  -0.1600 
 10 H        5.0060     1.9480    -0.2550 H     1 <1>   0.0800 
 11 H        5.8420     1.0950    -1.5360 H     1 <1>   0.0800 
 12 H        5.7700    -1.6090    -1.4480 H     1 <1>   0.0800 
 13 H        4.9940    -2.3200    -0.0670 H     1 <1>   0.0800 
 14 H        6.5930     1.0810     1.4040 H     1 <1>   0.0800 
 15 H        7.5010    -2.3220     0.1000 H     1 <1>   0.0800 
 16 H        6.7110    -1.5260     1.4260 H     1 <1>   0.0800 
 17 H        7.9850     2.2950    -0.9090 H     1 <1>   0.4500 
 18 H        8.5360     2.2860     0.6570 H     1 <1>   0.4500 
 19 H        7.1630     3.1340     0.2700 H     1 <1>   0.4500 
 20 H        8.5950    -0.1780     0.7180 H     1 <1>   0.0800 
 21 H        8.0420    -0.1910    -0.9400 H     1 <1>   0.0800 
@<TRIPOS>BOND
  1   1   2  2   
  2   1   3  1   
  3   2   3  1   
  4   3   4  1   
  5   3   5  1   
  6   4   6  1   
  7   4  10  1   
  8   4  11  1   
  9   5   7  1   
 10   5  12  1   
 11   5  13  1   
 12   6   8  1   
 13   6   9  1   
 14   6  14  1   
 15   7   9  1   
 16   7  15  1   
 17   7  16  1   
 18   8  17  1   
 19   8  18  1   
 20   8  19  1   
 21   9  20  1   
 22   9  21  1   
@<TRIPOS>SUBSTRUCTURE
  1 ****   3 GROUP 4 **** **** 0

# MOE 2024.06 (io_trps.svl 2023.06)
