@<TRIPOS>MOLECULE
NONAME
49 51 1 0 0 
SMALL
USER_CHARGES


@<TRIPOS>ATOM
  1 O       -1.1440     0.6500     0.0500 O.co2 1 <1>  -0.9000 
  2 C       -0.3770     1.4720     0.5670 C.2   1 <1>   0.9060 
  3 O        0.6150     1.1240     1.2230 O.co2 1 <1>  -0.9000 
  4 C       -0.7190     2.9520     0.4840 C.3   1 <1>   0.0140 
  5 O       -0.0560     3.6320    -0.5830 O.3   1 <1>  -0.3630 
  6 C       -0.1150     4.9800    -0.6970 C.ar  1 <1>   0.0830 
  7 C        0.7060     5.5610    -1.6480 C.ar  1 <1>  -0.1500 
  8 C       -0.9370     5.7890     0.0820 C.ar  1 <1>  -0.1500 
  9 C        0.7260     6.9340    -1.8120 C.ar  1 <1>  -0.1500 
 10 C       -0.9160     7.1630    -0.0830 C.ar  1 <1>  -0.1500 
 11 C       -0.0780     7.7450    -1.0250 C.ar  1 <1>  -0.1440 
 12 C       -0.0200     9.2550    -1.1840 C.3   1 <1>   0.2540 
 13 N        1.3470     9.7350    -0.9060 N.3   1 <1>  -0.8100 
 14 C        1.8100     9.4700     0.5040 C.3   1 <1>   0.1900 
 15 C        1.5850    11.0920    -1.4390 C.3   1 <1>   0.1100 
 16 C        1.4660    10.6000     1.4930 C.3   1 <1>   0.1200 
 17 C        3.3260     9.1510     0.5340 C.3   1 <1>   0.3430 
 18 C        2.8210    11.8190    -0.8650 C.3   1 <1>  -0.0800 
 19 O        2.4730    11.5670     1.5320 O.3   1 <1>  -0.5600 
 20 N        3.9610     9.5450    -0.7600 N.4   1 <1>  -0.9590 
 21 C        2.5080    12.4810     0.4880 C.3   1 <1>   0.1200 
 22 C        4.1450    11.0230    -0.8360 C.3   1 <1>   0.3430 
 23 C        5.2970     8.8400    -0.9150 C.3   1 <1>   0.2370 
 24 C        6.3540     9.2480     0.1160 C.2   1 <1>   0.9060 
 25 O        6.4170     8.6090     1.1700 O.co2 1 <1>  -0.9000 
 26 O        7.0160    10.2660    -0.1100 O.co2 1 <1>  -0.9000 
 27 H       -0.4260     3.4090     1.4090 H     1 <1>   0.0800 
 28 H       -1.7770     3.0480     0.3380 H     1 <1>   0.0800 
 29 H        1.3280     4.9230    -2.2490 H     1 <1>   0.1500 
 30 H       -1.5940     5.3590     0.8140 H     1 <1>   0.1500 
 31 H        1.3730     7.3710    -2.5510 H     1 <1>   0.1500 
 32 H       -1.5560     7.7730     0.5300 H     1 <1>   0.1500 
 33 H       -0.7210     9.7350    -0.5220 H     1 <1>   0.0800 
 34 H       -0.2910     9.5010    -2.1970 H     1 <1>   0.0800 
 35 H        1.3170     8.5890     0.8730 H     1 <1>   0.0800 
 36 H        1.6970    11.0100    -2.5070 H     1 <1>   0.0800 
 37 H        0.7150    11.7020    -1.2590 H     1 <1>   0.0800 
 38 H        1.4120    10.1860     2.4850 H     1 <1>   0.0800 
 39 H        0.5210    11.0600     1.2680 H     1 <1>   0.0800 
 40 H        3.4470     8.0910     0.6810 H     1 <1>   0.0800 
 41 H        3.8100     9.6480     1.3600 H     1 <1>   0.0800 
 42 H        3.0000    12.6480    -1.5250 H     1 <1>   0.0800 
 43 H        3.2580     9.2750    -1.4650 H     1 <1>   0.4500 
 44 H        1.5690    13.0080     0.4620 H     1 <1>   0.0800 
 45 H        3.2810    13.1910     0.7290 H     1 <1>   0.0800 
 46 H        4.7490    11.3540    -0.0040 H     1 <1>   0.0800 
 47 H        4.6990    11.2480    -1.7330 H     1 <1>   0.0800 
 48 H        5.1610     7.7780    -0.8260 H     1 <1>   0.0800 
 49 H        5.7080     9.0510    -1.8850 H     1 <1>   0.0800 
@<TRIPOS>BOND
  1   1   2  ar  
  2   2   3  ar  
  3   2   4  1   
  4   4   5  1   
  5   4  27  1   
  6   4  28  1   
  7   5   6  1   
  8   6   7  ar  
  9   6   8  ar  
 10   7   9  ar  
 11   7  29  1   
 12   8  10  ar  
 13   8  30  1   
 14   9  11  ar  
 15   9  31  1   
 16  10  11  ar  
 17  10  32  1   
 18  11  12  1   
 19  12  13  1   
 20  12  33  1   
 21  12  34  1   
 22  13  14  1   
 23  13  15  1   
 24  14  16  1   
 25  14  17  1   
 26  14  35  1   
 27  15  18  1   
 28  15  36  1   
 29  15  37  1   
 30  16  19  1   
 31  16  38  1   
 32  16  39  1   
 33  17  20  1   
 34  17  40  1   
 35  17  41  1   
 36  18  21  1   
 37  18  22  1   
 38  18  42  1   
 39  19  21  1   
 40  20  22  1   
 41  20  23  1   
 42  20  43  1   
 43  21  44  1   
 44  21  45  1   
 45  22  46  1   
 46  22  47  1   
 47  23  24  1   
 48  23  48  1   
 49  23  49  1   
 50  24  25  ar  
 51  24  26  ar  
@<TRIPOS>SUBSTRUCTURE
  1 ****  14 GROUP 4 **** **** 0

# MOE 2024.06 (io_trps.svl 2023.06)
