@<TRIPOS>MOLECULE
NONAME
43 44 1 0 0 
SMALL
USER_CHARGES


@<TRIPOS>ATOM
  1 S        0.9180     1.2470    -0.3520 S.o2  1 <1>   1.3330 
  2 O       -0.1410     1.8030    -1.1580 O.2   1 <1>  -0.6500 
  3 O        2.1630     1.9830    -0.2790 O.2   1 <1>  -0.6500 
  4 N        1.2240    -0.3490    -0.8200 N.am  1 <1>  -0.8490 
  5 C        0.3100     1.1030     1.3350 C.3   1 <1>  -0.0550 
  6 C        0.0300    -1.0610    -1.2950 C.3   1 <1>   0.1160 
  7 C        2.2890    -0.4520    -1.8240 C.3   1 <1>   0.1160 
  8 C        0.0050     2.4320     2.0780 C.3   1 <1>  -0.0800 
  9 C       -1.0210     3.3170     1.3590 C.3   1 <1>   0.2000 
 10 C        1.2250     3.3480     2.2220 C.3   1 <1>   0.3430 
 11 O       -1.7710     3.9840     2.3200 O.3   1 <1>  -0.6800 
 12 C       -0.2090     4.3390     0.5460 C.3   1 <1>   0.3430 
 13 N        1.2100     4.2160     1.0170 N.4   1 <1>  -0.9590 
 14 C        1.9360     5.5030     1.1420 C.3   1 <1>   0.4860 
 15 C        1.9620     6.1690    -0.2220 C.ar  1 <1>  -0.1440 
 16 C        2.6940     5.6020    -1.2610 C.ar  1 <1>  -0.1500 
 17 C        1.2480     7.3440    -0.4350 C.ar  1 <1>  -0.1500 
 18 C        2.7100     6.2010    -2.5090 C.ar  1 <1>  -0.1500 
 19 C        1.2600     7.9500    -1.6810 C.ar  1 <1>  -0.1500 
 20 C        1.9910     7.3650    -2.6960 C.ar  1 <1>   0.1900 
 21 F        2.0040     7.9330    -3.8710 F     1 <1>  -0.1900 
 22 H       -0.5880     0.5140     1.3220 H     1 <1>   0.0800 
 23 H        1.0310     0.5500     1.9070 H     1 <1>   0.0800 
 24 H        0.2700    -2.0910    -1.5000 H     1 <1>   0.0800 
 25 H       -0.3480    -0.6050    -2.1960 H     1 <1>   0.0800 
 26 H       -0.7430    -1.0380    -0.5460 H     1 <1>   0.0800 
 27 H        2.4740    -1.4850    -2.0670 H     1 <1>   0.0800 
 28 H        3.2040    -0.0310    -1.4400 H     1 <1>   0.0800 
 29 H        2.0140     0.0770    -2.7220 H     1 <1>   0.0800 
 30 H       -0.3550     2.1620     3.0570 H     1 <1>   0.0800 
 31 H       -1.7090     2.7640     0.7390 H     1 <1>   0.0800 
 32 H        2.1430     2.7850     2.2900 H     1 <1>   0.0800 
 33 H        1.1140     3.9540     3.1060 H     1 <1>   0.0800 
 34 H       -1.2320     4.4840     2.9620 H     1 <1>   0.4000 
 35 H       -0.5980     5.3310     0.7040 H     1 <1>   0.0800 
 36 H       -0.2630     4.1050    -0.5060 H     1 <1>   0.0800 
 37 H        1.7160     3.6870     0.2750 H     1 <1>   0.4500 
 38 H        1.4440     6.1430     1.8560 H     1 <1>   0.0800 
 39 H        2.9470     5.3290     1.4720 H     1 <1>   0.0800 
 40 H        3.2580     4.6950    -1.1160 H     1 <1>   0.1500 
 41 H        0.6800     7.8010     0.3570 H     1 <1>   0.1500 
 42 H        3.2690     5.7800    -3.3270 H     1 <1>   0.1500 
 43 H        0.7160     8.8590    -1.8690 H     1 <1>   0.1500 
@<TRIPOS>BOND
  1   1   2  2   
  2   1   3  2   
  3   1   4  am  
  4   1   5  1   
  5   4   6  1   
  6   4   7  1   
  7   5   8  1   
  8   5  22  1   
  9   5  23  1   
 10   6  24  1   
 11   6  25  1   
 12   6  26  1   
 13   7  27  1   
 14   7  28  1   
 15   7  29  1   
 16   8   9  1   
 17   8  10  1   
 18   8  30  1   
 19   9  11  1   
 20   9  12  1   
 21   9  31  1   
 22  10  13  1   
 23  10  32  1   
 24  10  33  1   
 25  11  34  1   
 26  12  13  1   
 27  12  35  1   
 28  12  36  1   
 29  13  14  1   
 30  13  37  1   
 31  14  15  1   
 32  14  38  1   
 33  14  39  1   
 34  15  16  ar  
 35  15  17  ar  
 36  16  18  ar  
 37  16  40  1   
 38  17  19  ar  
 39  17  41  1   
 40  18  20  ar  
 41  18  42  1   
 42  19  20  ar  
 43  19  43  1   
 44  20  21  1   
@<TRIPOS>SUBSTRUCTURE
  1 ****  13 GROUP 4 **** **** 0

# MOE 2024.06 (io_trps.svl 2023.06)
