@<TRIPOS>MOLECULE
NONAME
58 59 1 0 0 
SMALL
USER_CHARGES


@<TRIPOS>ATOM
  1 S        0.0790     0.0930     0.7600 S.o2  1 <1>   1.3330 
  2 O       -0.3560    -0.0290     2.1330 O.2   1 <1>  -0.6500 
  3 O        1.3570     0.6840     0.4420 O.2   1 <1>  -0.6500 
  4 N       -1.1250     0.9130    -0.1140 N.am  1 <1>  -0.8490 
  5 C        0.0130    -1.5560     0.0490 C.3   1 <1>  -0.0550 
  6 C       -1.7760     1.9550     0.6910 C.3   1 <1>   0.1160 
  7 C       -0.6280     1.5070    -1.3620 C.3   1 <1>   0.1160 
  8 C       -1.3450    -2.2560     0.2560 C.3   1 <1>  -0.1600 
  9 C       -1.3440    -3.6650    -0.3370 C.3   1 <1>   0.3430 
 10 N       -2.6090    -4.3750     0.0020 N.4   1 <1>  -0.9590 
 11 C       -2.4790    -5.8350    -0.2630 C.3   1 <1>   0.3430 
 12 C       -3.8000    -3.8090    -0.6980 C.3   1 <1>   0.3430 
 13 C       -3.7080    -6.5680     0.2680 C.3   1 <1>  -0.1600 
 14 C       -5.0660    -4.4840    -0.1740 C.3   1 <1>  -0.1600 
 15 C       -5.0230    -6.0180    -0.3280 C.3   1 <1>  -0.0800 
 16 C       -6.2900    -6.6670     0.2780 C.3   1 <1>   0.2000 
 17 O       -6.3010    -6.4340     1.6410 O.3   1 <1>  -0.6800 
 18 C       -6.3820    -8.1820     0.0420 C.3   1 <1>  -0.1600 
 19 C       -7.7170    -8.7890     0.4970 C.3   1 <1>  -0.0170 
 20 C       -7.7600   -10.2650     0.1420 C.ar  1 <1>  -0.1440 
 21 C       -7.2560   -11.2110     1.0210 C.ar  1 <1>  -0.1500 
 22 C       -8.2970   -10.6800    -1.0670 C.ar  1 <1>  -0.1500 
 23 C       -7.2880   -12.5560     0.6960 C.ar  1 <1>  -0.1500 
 24 C       -8.3300   -12.0250    -1.3940 C.ar  1 <1>  -0.1500 
 25 C       -7.8250   -12.9640    -0.5120 C.ar  1 <1>  -0.1500 
 26 H        0.7870    -2.1460     0.5020 H     1 <1>   0.0800 
 27 H        0.2270    -1.4870    -1.0010 H     1 <1>   0.0800 
 28 H       -2.2460     1.5160     1.5550 H     1 <1>   0.0800 
 29 H       -2.5350     2.4550     0.1140 H     1 <1>   0.0800 
 30 H       -1.0510     2.6790     1.0240 H     1 <1>   0.0800 
 31 H       -0.1610     0.7550    -1.9740 H     1 <1>   0.0800 
 32 H        0.0970     2.2760    -1.1510 H     1 <1>   0.0800 
 33 H       -1.4430     1.9400    -1.9180 H     1 <1>   0.0800 
 34 H       -2.1090    -1.6560    -0.2050 H     1 <1>   0.0800 
 35 H       -1.5420    -2.3100     1.3140 H     1 <1>   0.0800 
 36 H       -0.5090    -4.2110     0.0720 H     1 <1>   0.0800 
 37 H       -1.2230    -3.6160    -1.4070 H     1 <1>   0.0800 
 38 H       -2.7810    -4.2720     1.0130 H     1 <1>   0.4500 
 39 H       -1.5980    -6.2230     0.2240 H     1 <1>   0.0800 
 40 H       -2.3850    -6.0090    -1.3230 H     1 <1>   0.0800 
 41 H       -3.7140    -3.9730    -1.7600 H     1 <1>   0.0800 
 42 H       -3.8700    -2.7480    -0.5210 H     1 <1>   0.0800 
 43 H       -3.7230    -6.4910     1.3410 H     1 <1>   0.0800 
 44 H       -3.6070    -7.6110     0.0250 H     1 <1>   0.0800 
 45 H       -5.9130    -4.0950    -0.7120 H     1 <1>   0.0800 
 46 H       -5.1960    -4.2160     0.8600 H     1 <1>   0.0800 
 47 H       -5.0260    -6.2380    -1.3820 H     1 <1>   0.0800 
 48 H       -7.1630    -6.1910    -0.1380 H     1 <1>   0.0800 
 49 H       -7.0970    -6.8290     2.0480 H     1 <1>   0.4000 
 50 H       -5.5780    -8.6860     0.5480 H     1 <1>   0.0800 
 51 H       -6.2720    -8.3730    -1.0110 H     1 <1>   0.0800 
 52 H       -8.5370    -8.2820     0.0190 H     1 <1>   0.0800 
 53 H       -7.8370    -8.6800     1.5610 H     1 <1>   0.0800 
 54 H       -6.8340   -10.9050     1.9630 H     1 <1>   0.1500 
 55 H       -8.6930    -9.9600    -1.7610 H     1 <1>   0.1500 
 56 H       -6.8950   -13.2850     1.3830 H     1 <1>   0.1500 
 57 H       -8.7480   -12.3410    -2.3330 H     1 <1>   0.1500 
 58 H       -7.8500   -14.0090    -0.7650 H     1 <1>   0.1500 
@<TRIPOS>BOND
  1   1   2  2   
  2   1   3  2   
  3   1   4  am  
  4   1   5  1   
  5   4   6  1   
  6   4   7  1   
  7   5   8  1   
  8   5  26  1   
  9   5  27  1   
 10   6  28  1   
 11   6  29  1   
 12   6  30  1   
 13   7  31  1   
 14   7  32  1   
 15   7  33  1   
 16   8   9  1   
 17   8  34  1   
 18   8  35  1   
 19   9  10  1   
 20   9  36  1   
 21   9  37  1   
 22  10  11  1   
 23  10  12  1   
 24  10  38  1   
 25  11  13  1   
 26  11  39  1   
 27  11  40  1   
 28  12  14  1   
 29  12  41  1   
 30  12  42  1   
 31  13  15  1   
 32  13  43  1   
 33  13  44  1   
 34  14  15  1   
 35  14  45  1   
 36  14  46  1   
 37  15  16  1   
 38  15  47  1   
 39  16  17  1   
 40  16  18  1   
 41  16  48  1   
 42  17  49  1   
 43  18  19  1   
 44  18  50  1   
 45  18  51  1   
 46  19  20  1   
 47  19  52  1   
 48  19  53  1   
 49  20  21  ar  
 50  20  22  ar  
 51  21  23  ar  
 52  21  54  1   
 53  22  24  ar  
 54  22  55  1   
 55  23  25  ar  
 56  23  56  1   
 57  24  25  ar  
 58  24  57  1   
 59  25  58  1   
@<TRIPOS>SUBSTRUCTURE
  1 ****  15 GROUP 4 **** **** 0

# MOE 2024.06 (io_trps.svl 2023.06)
