@<TRIPOS>MOLECULE
NONAME
47 48 1 0 0 
SMALL
USER_CHARGES


@<TRIPOS>ATOM
  1 S       -0.0590     0.1840    -1.1200 S.o2  1 <1>   1.3330 
  2 O        0.9750     0.4020    -2.1070 O.2   1 <1>  -0.6500 
  3 O       -1.1570    -0.7080    -1.4120 O.2   1 <1>  -0.6500 
  4 N        0.6920    -0.3630     0.3010 N.am  1 <1>  -0.8490 
  5 C       -0.7070     1.7930    -0.6560 C.3   1 <1>  -0.0550 
  6 C        1.7280    -1.3630     0.0240 C.3   1 <1>   0.1160 
  7 C       -0.2550    -0.8950     1.2880 C.3   1 <1>   0.1160 
  8 C        0.3380     2.7340    -0.0260 C.3   1 <1>  -0.0800 
  9 C       -0.2510     4.0950     0.3330 C.3   1 <1>   0.2000 
 10 C        1.5250     3.0680    -0.9290 C.3   1 <1>   0.2090 
 11 O       -0.8610     4.0220     1.5760 O.3   1 <1>  -0.6800 
 12 C        0.9280     5.0720     0.3210 C.3   1 <1>   0.2090 
 13 N        1.9990     4.3930    -0.4640 N.pl3 1 <1>  -0.8380 
 14 C        3.0100     5.1100    -1.1000 C.ar  1 <1>   0.4100 
 15 N        3.1290     6.3770    -0.7400 N.ar  1 <1>  -0.6200 
 16 C        3.8640     4.5250    -2.0540 C.ar  1 <1>   0.1600 
 17 C        4.1160     7.0420    -1.3620 C.ar  1 <1>   0.3960 
 18 N        4.8360     5.1470    -2.6890 N.ar  1 <1>  -0.6200 
 19 C        4.3790     8.4530    -1.0730 C.2   1 <1>   0.5440 
 20 C        4.9240     6.4150    -2.3140 C.ar  1 <1>   0.1600 
 21 O        4.7590     9.1720    -1.9830 O.2   1 <1>  -0.5700 
 22 N        4.2520     9.0250     0.1880 N.am  1 <1>  -0.6600 
 23 C        4.3190    10.4990     0.3970 C.3   1 <1>   0.0600 
 24 C        4.0660     8.2340     1.4360 C.3   1 <1>   0.0600 
 25 H       -1.1260     2.2590    -1.5260 H     1 <1>   0.0800 
 26 H       -1.5050     1.6550     0.0480 H     1 <1>   0.0800 
 27 H        2.1970    -1.6790     0.9400 H     1 <1>   0.0800 
 28 H        2.4870    -0.9420    -0.6140 H     1 <1>   0.0800 
 29 H        1.2990    -2.2200    -0.4690 H     1 <1>   0.0800 
 30 H        0.2630    -1.1560     2.1950 H     1 <1>   0.0800 
 31 H       -0.7510    -1.7720     0.9030 H     1 <1>   0.0800 
 32 H       -1.0000    -0.1550     1.5260 H     1 <1>   0.0800 
 33 H        0.7420     2.2820     0.8630 H     1 <1>   0.0800 
 34 H       -0.9860     4.4090    -0.3890 H     1 <1>   0.0800 
 35 H        1.2160     3.1390    -1.9590 H     1 <1>   0.0800 
 36 H        2.3010     2.3260    -0.8330 H     1 <1>   0.0800 
 37 H       -0.2010     3.8050     2.2640 H     1 <1>   0.4000 
 38 H        1.2890     5.2640     1.3160 H     1 <1>   0.0800 
 39 H        0.6410     5.9980    -0.1490 H     1 <1>   0.0800 
 40 H        3.7220     3.4890    -2.2910 H     1 <1>   0.1500 
 41 H        5.6900     7.0050    -2.7890 H     1 <1>   0.1500 
 42 H        3.5070    10.8150     1.0290 H     1 <1>   0.0800 
 43 H        4.2420    11.0230    -0.5400 H     1 <1>   0.0800 
 44 H        5.2540    10.7570     0.8610 H     1 <1>   0.0800 
 45 H        4.5330     8.7350     2.2660 H     1 <1>   0.0800 
 46 H        4.5100     7.2590     1.3360 H     1 <1>   0.0800 
 47 H        3.0140     8.1210     1.6360 H     1 <1>   0.0800 
@<TRIPOS>BOND
  1   1   2  2   
  2   1   3  2   
  3   1   4  am  
  4   1   5  1   
  5   4   6  1   
  6   4   7  1   
  7   5   8  1   
  8   5  25  1   
  9   5  26  1   
 10   6  27  1   
 11   6  28  1   
 12   6  29  1   
 13   7  30  1   
 14   7  31  1   
 15   7  32  1   
 16   8   9  1   
 17   8  10  1   
 18   8  33  1   
 19   9  11  1   
 20   9  12  1   
 21   9  34  1   
 22  10  13  1   
 23  10  35  1   
 24  10  36  1   
 25  11  37  1   
 26  12  13  1   
 27  12  38  1   
 28  12  39  1   
 29  13  14  1   
 30  14  15  ar  
 31  14  16  ar  
 32  15  17  ar  
 33  16  18  ar  
 34  16  40  1   
 35  17  19  1   
 36  17  20  ar  
 37  18  20  ar  
 38  19  21  2   
 39  19  22  am  
 40  20  41  1   
 41  22  23  1   
 42  22  24  1   
 43  23  42  1   
 44  23  43  1   
 45  23  44  1   
 46  24  45  1   
 47  24  46  1   
 48  24  47  1   
@<TRIPOS>SUBSTRUCTURE
  1 ****  13 GROUP 4 **** **** 0

# MOE 2024.06 (io_trps.svl 2023.06)
