@<TRIPOS>MOLECULE
NONAME
50 53 1 0 0 
SMALL
USER_CHARGES


@<TRIPOS>ATOM
  1 O        1.8370    -1.9610     1.5080 O.2   1 <1>  -0.5700 
  2 C        1.5000    -2.7140     0.6020 C.2   1 <1>   0.6160 
  3 N        2.4160    -3.5600    -0.0010 N.am  1 <1>  -0.4690 
  4 C        0.1570    -2.7470     0.1550 C.2   1 <1>  -0.1360 
  5 C        2.0090    -4.4050    -1.0160 C.2   1 <1>  -0.0410 
  6 C        3.8390    -3.5520     0.4200 C.3   1 <1>   0.1400 
  7 C       -0.2700    -3.5960    -0.8290 C.2   1 <1>   0.0140 
  8 C        0.7160    -4.4330    -1.4270 C.2   1 <1>  -0.1500 
  9 C        4.6260    -2.5710    -0.4470 C.3   1 <1>  -0.2400 
 10 C       -1.6450    -3.6610    -1.2810 C.2   1 <1>   0.6160 
 11 O       -1.8780    -3.6460    -2.4750 O.2   1 <1>  -0.5700 
 12 N       -2.6970    -3.7380    -0.3950 N.am  1 <1>  -0.6600 
 13 C       -4.1070    -3.5570    -0.8830 C.3   1 <1>   0.1400 
 14 C       -2.5260    -4.1410     1.0350 C.3   1 <1>   0.1400 
 15 C       -5.0350    -3.0300     0.2270 C.3   1 <1>   0.1440 
 16 C       -3.7730    -4.8620     1.5550 C.3   1 <1>  -0.1600 
 17 C       -6.4140    -2.8060    -0.3720 C.ar  1 <1>   0.1670 
 18 C       -5.0580    -4.0200     1.4250 C.3   1 <1>  -0.1600 
 19 C       -4.6280    -1.5880     0.6540 C.3   1 <1>  -0.1600 
 20 N       -7.2680    -3.7510    -0.6990 N.ar  1 <1>  -0.6200 
 21 C       -6.6720    -1.4820    -0.5650 C.ar  1 <1>  -0.1440 
 22 C       -5.5190    -0.6130    -0.1350 C.3   1 <1>  -0.0170 
 23 C       -8.4060    -3.3100    -1.2160 C.ar  1 <1>   0.4770 
 24 C       -7.8840    -1.1360    -1.1090 C.ar  1 <1>   0.1600 
 25 N       -8.7690    -2.0530    -1.4390 N.ar  1 <1>  -0.6200 
 26 C       -9.4100    -4.3710    -1.5930 C.3   1 <1>  -0.0970 
 27 H       -0.5120    -2.0610     0.6340 H     1 <1>   0.1500 
 28 H        2.7570    -5.0350    -1.4690 H     1 <1>   0.1500 
 29 H        4.2480    -4.5420     0.3190 H     1 <1>   0.0800 
 30 H        3.9130    -3.2680     1.4570 H     1 <1>   0.0800 
 31 H        0.3960    -5.0870    -2.2220 H     1 <1>   0.1500 
 32 H        4.5700    -2.8540    -1.4820 H     1 <1>   0.0800 
 33 H        5.6580    -2.5680    -0.1460 H     1 <1>   0.0800 
 34 H        4.2340    -1.5760    -0.3250 H     1 <1>   0.0800 
 35 H       -4.4770    -4.5040    -1.2370 H     1 <1>   0.0800 
 36 H       -4.1180    -2.8720    -1.7140 H     1 <1>   0.0800 
 37 H       -2.3490    -3.2620     1.6320 H     1 <1>   0.0800 
 38 H       -1.6750    -4.7940     1.1310 H     1 <1>   0.0800 
 39 H       -3.6280    -5.1390     2.5850 H     1 <1>   0.0800 
 40 H       -3.8870    -5.7740     0.9940 H     1 <1>   0.0800 
 41 H       -5.8770    -4.7080     1.3060 H     1 <1>   0.0800 
 42 H       -5.2410    -3.4910     2.3420 H     1 <1>   0.0800 
 43 H       -3.5870    -1.3810     0.4840 H     1 <1>   0.0800 
 44 H       -4.8310    -1.4410     1.6990 H     1 <1>   0.0800 
 45 H       -5.0020    -0.2440    -1.0040 H     1 <1>   0.0800 
 46 H       -5.8450     0.2100     0.4770 H     1 <1>   0.0800 
 47 H       -8.1330    -0.1020    -1.2780 H     1 <1>   0.1500 
 48 H       -8.9060    -5.2030    -2.0480 H     1 <1>   0.0800 
 49 H      -10.1290    -3.9760    -2.2870 H     1 <1>   0.0800 
 50 H       -9.9190    -4.7050    -0.7100 H     1 <1>   0.0800 
@<TRIPOS>BOND
  1   1   2  2   
  2   2   3  am  
  3   2   4  1   
  4   3   5  1   
  5   3   6  1   
  6   4   7  2   
  7   4  27  1   
  8   5   8  2   
  9   5  28  1   
 10   6   9  1   
 11   6  29  1   
 12   6  30  1   
 13   7   8  1   
 14   7  10  1   
 15   8  31  1   
 16   9  32  1   
 17   9  33  1   
 18   9  34  1   
 19  10  11  2   
 20  10  12  am  
 21  12  13  1   
 22  12  14  1   
 23  13  15  1   
 24  13  35  1   
 25  13  36  1   
 26  14  16  1   
 27  14  37  1   
 28  14  38  1   
 29  15  17  1   
 30  15  18  1   
 31  15  19  1   
 32  16  18  1   
 33  16  39  1   
 34  16  40  1   
 35  17  20  ar  
 36  17  21  ar  
 37  18  41  1   
 38  18  42  1   
 39  19  22  1   
 40  19  43  1   
 41  19  44  1   
 42  20  23  ar  
 43  21  22  1   
 44  21  24  ar  
 45  22  45  1   
 46  22  46  1   
 47  23  25  ar  
 48  23  26  1   
 49  24  25  ar  
 50  24  47  1   
 51  26  48  1   
 52  26  49  1   
 53  26  50  1   
@<TRIPOS>SUBSTRUCTURE
  1 ****  12 GROUP 4 **** **** 0

# MOE 2024.06 (io_trps.svl 2023.06)
