@<TRIPOS>MOLECULE
NONAME
39 41 1 0 0 
SMALL
USER_CHARGES


@<TRIPOS>ATOM
  1 S        0.5220     0.0440     0.3400 S.3   1 <1>  -0.0800 
  2 C        1.3860    -1.2990    -0.3750 C.2   1 <1>   0.1980 
  3 C       -0.3790    -1.0820     1.3120 C.2   1 <1>  -0.1100 
  4 N        1.0330    -2.4420     0.0610 N.2   1 <1>  -0.5650 
  5 C        2.4370    -0.9730    -1.4120 C.3   1 <1>  -0.0600 
  6 C        0.0350    -2.3260     1.0260 C.2   1 <1>   0.0460 
  7 C       -0.4860    -3.6190     1.6370 C.3   1 <1>   0.5240 
  8 N       -0.7060    -4.5880     0.5310 N.4   1 <1>  -0.9590 
  9 C       -1.9160    -4.2260    -0.2640 C.3   1 <1>   0.3430 
 10 C       -0.8900    -5.9820     1.0310 C.3   1 <1>   0.3430 
 11 C       -2.9890    -5.2370     0.1500 C.3   1 <1>   0.2000 
 12 C       -2.1860    -6.5130     0.3980 C.3   1 <1>  -0.0800 
 13 O       -3.5320    -4.8250     1.3630 O.3   1 <1>  -0.6800 
 14 C       -1.9350    -7.2860    -0.9160 C.3   1 <1>  -0.0160 
 15 C       -1.1390    -8.5630    -0.6940 C.ar  1 <1>   0.1670 
 16 N        0.1650    -8.4140    -0.5260 N.ar  1 <1>  -0.6200 
 17 C       -1.7810    -9.8000    -0.6810 C.ar  1 <1>   0.1600 
 18 C        0.7810    -9.5750    -0.3570 C.ar  1 <1>   0.1600 
 19 N       -1.1690   -10.9570    -0.4990 N.ar  1 <1>  -0.6200 
 20 C        0.1340   -10.8050    -0.3430 C.ar  1 <1>   0.1600 
 21 H       -1.1130    -0.6780     1.9870 H     1 <1>   0.1500 
 22 H        2.8930    -1.8780    -1.7700 H     1 <1>   0.0800 
 23 H        3.1960    -0.3490    -0.9770 H     1 <1>   0.0800 
 24 H        1.9870    -0.4570    -2.2390 H     1 <1>   0.0800 
 25 H       -1.3990    -3.4450     2.1820 H     1 <1>   0.0800 
 26 H        0.2600    -4.0020     2.3120 H     1 <1>   0.0800 
 27 H        0.1370    -4.4890    -0.0610 H     1 <1>   0.4500 
 28 H       -2.2400    -3.2140    -0.0840 H     1 <1>   0.0800 
 29 H       -1.7010    -4.3440    -1.3130 H     1 <1>   0.0800 
 30 H       -0.0350    -6.5930     0.7970 H     1 <1>   0.0800 
 31 H       -1.0130    -5.9670     2.1020 H     1 <1>   0.0800 
 32 H       -3.7800    -5.3330    -0.5760 H     1 <1>   0.0800 
 33 H       -2.6950    -7.1680     1.0840 H     1 <1>   0.0800 
 34 H       -4.3430    -5.3330     1.5820 H     1 <1>   0.4000 
 35 H       -1.4000    -6.6760    -1.6230 H     1 <1>   0.0800 
 36 H       -2.8800    -7.5390    -1.3660 H     1 <1>   0.0800 
 37 H       -2.8460    -9.8410    -0.8270 H     1 <1>   0.1500 
 38 H        1.8480    -9.5560    -0.2240 H     1 <1>   0.1500 
 39 H        0.7190   -11.6970    -0.1970 H     1 <1>   0.1500 
@<TRIPOS>BOND
  1   1   2  1   
  2   1   3  1   
  3   2   4  2   
  4   2   5  1   
  5   3   6  2   
  6   3  21  1   
  7   4   6  1   
  8   5  22  1   
  9   5  23  1   
 10   5  24  1   
 11   6   7  1   
 12   7   8  1   
 13   7  25  1   
 14   7  26  1   
 15   8   9  1   
 16   8  10  1   
 17   8  27  1   
 18   9  11  1   
 19   9  28  1   
 20   9  29  1   
 21  10  12  1   
 22  10  30  1   
 23  10  31  1   
 24  11  12  1   
 25  11  13  1   
 26  11  32  1   
 27  12  14  1   
 28  12  33  1   
 29  13  34  1   
 30  14  15  1   
 31  14  35  1   
 32  14  36  1   
 33  15  16  ar  
 34  15  17  ar  
 35  16  18  ar  
 36  17  19  ar  
 37  17  37  1   
 38  18  20  ar  
 39  18  38  1   
 40  19  20  ar  
 41  20  39  1   
@<TRIPOS>SUBSTRUCTURE
  1 ****   8 GROUP 4 **** **** 0

# MOE 2024.06 (io_trps.svl 2023.06)
