@<TRIPOS>MOLECULE
NONAME
23 23 1 0 0 
SMALL
USER_CHARGES


@<TRIPOS>ATOM
  1 O        0.1700    -0.0420     0.1760 O.2   1 <1>  -0.5700 
  2 C        1.1660    -0.7370     0.0590 C.2   1 <1>   0.8060 
  3 O        2.3620    -0.1380     0.0020 O.3   1 <1>  -0.4300 
  4 C        1.1380    -2.1610    -0.0120 C.2   1 <1>  -0.0860 
  5 C        2.4850     1.2650     0.0650 C.3   1 <1>   0.1200 
  6 C        0.0780    -3.0270    -0.0290 C.2   1 <1>  -0.0680 
  7 C        2.2540    -3.0040    -0.0740 C.2   1 <1>   0.1390 
  8 C        3.9670     1.6140    -0.0270 C.3   1 <1>  -0.2400 
  9 N       -1.2720    -2.6890     0.0130 N.pl3 1 <1>  -0.8840 
 10 N        0.5960    -4.2780    -0.1000 N.pl3 1 <1>   0.3140 
 11 N        1.9490    -4.2580    -0.1220 N.2   1 <1>  -0.7070 
 12 C       -0.1410    -5.5440    -0.1770 C.3   1 <1>   0.0160 
 13 H        2.0660     1.6040     0.9980 H     1 <1>   0.0800 
 14 H        1.9350     1.6940    -0.7560 H     1 <1>   0.0800 
 15 H        3.2710    -2.6450    -0.0790 H     1 <1>   0.1500 
 16 H        4.5040     1.1720     0.7930 H     1 <1>   0.0800 
 17 H        4.0920     2.6810     0.0180 H     1 <1>   0.0800 
 18 H        4.3740     1.2610    -0.9580 H     1 <1>   0.0800 
 19 H       -1.9580    -3.3140     0.4470 H     1 <1>   0.4000 
 20 H       -1.4980    -1.6910     0.1500 H     1 <1>   0.4000 
 21 H       -1.0430    -5.3950    -0.7400 H     1 <1>   0.0800 
 22 H       -0.3760    -5.8730     0.8170 H     1 <1>   0.0800 
 23 H        0.4720    -6.2780    -0.6660 H     1 <1>   0.0800 
@<TRIPOS>BOND
  1   1   2  2   
  2   2   3  1   
  3   2   4  1   
  4   3   5  1   
  5   4   6  2   
  6   4   7  1   
  7   5   8  1   
  8   5  13  1   
  9   5  14  1   
 10   6   9  1   
 11   6  10  1   
 12   7  11  2   
 13   7  15  1   
 14   8  16  1   
 15   8  17  1   
 16   8  18  1   
 17   9  19  1   
 18   9  20  1   
 19  10  11  1   
 20  10  12  1   
 21  12  21  1   
 22  12  22  1   
 23  12  23  1   
@<TRIPOS>SUBSTRUCTURE
  1 ****   4 GROUP 4 **** **** 0

# MOE 2024.06 (io_trps.svl 2023.06)
