@<TRIPOS>MOLECULE
NONAME
51 53 1 0 0 
SMALL
USER_CHARGES


@<TRIPOS>ATOM
  1 S        0.2900     0.0960     1.9640 S.o2  1 <1>   1.4470 
  2 O        0.6310     1.4440     2.3680 O.2   1 <1>  -0.6500 
  3 O       -0.2300    -0.8290     2.9470 O.2   1 <1>  -0.6500 
  4 N       -0.8760     0.2340     0.7400 N.am  1 <1>  -0.8490 
  5 C        1.6940    -0.6720     1.1100 C.ar  1 <1>  -0.0090 
  6 C       -2.2050     0.5210     1.3000 C.3   1 <1>   0.1960 
  7 C       -0.5120     1.2470    -0.2550 C.3   1 <1>   0.1960 
  8 C        1.5170    -1.7970     0.3150 C.ar  1 <1>  -0.1500 
  9 C        2.9800    -0.1600     1.2300 C.ar  1 <1>  -0.1500 
 10 C       -3.2990     0.4370     0.2160 C.3   1 <1>   0.0000 
 11 C       -1.5010     1.2210    -1.4250 C.3   1 <1>  -0.1600 
 12 C        2.5720    -2.3980    -0.3510 C.ar  1 <1>  -0.1430 
 13 C        4.0490    -0.7460     0.5760 C.ar  1 <1>  -0.1500 
 14 C       -4.6880     0.6920     0.8320 C.3   1 <1>   0.2000 
 15 C       -2.9490     1.4110    -0.9440 C.3   1 <1>  -0.1600 
 16 C       -3.4730    -0.9990    -0.3120 C.3   1 <1>  -0.1600 
 17 C        3.8540    -1.8700    -0.2210 C.ar  1 <1>   0.0830 
 18 C        2.2980    -3.6300    -1.2060 C.3   1 <1>  -0.0170 
 19 O       -4.9880     2.0350     0.9590 O.3   1 <1>  -0.6800 
 20 C       -5.6990     0.0060    -0.0850 C.3   1 <1>  -0.1600 
 21 C       -4.9140    -1.0830    -0.8290 C.3   1 <1>  -0.1600 
 22 O        4.8700    -2.4850    -0.8820 O.3   1 <1>  -0.3620 
 23 C        2.4920    -4.9080    -0.3860 C.3   1 <1>  -0.2400 
 24 C        6.2080    -2.0600    -0.7570 C.3   1 <1>   0.0400 
 25 H       -2.4340    -0.1910     2.0760 H     1 <1>   0.0800 
 26 H       -2.2090     1.5030     1.7460 H     1 <1>   0.0800 
 27 H       -0.5110     2.2250     0.1990 H     1 <1>   0.0800 
 28 H        0.4780     1.0510    -0.6320 H     1 <1>   0.0800 
 29 H        0.5250    -2.2070     0.2220 H     1 <1>   0.1500 
 30 H        3.1460     0.7100     1.8440 H     1 <1>   0.1500 
 31 H       -1.2490     2.0060    -2.1150 H     1 <1>   0.0800 
 32 H       -1.3950     0.2880    -1.9490 H     1 <1>   0.0800 
 33 H        5.0230    -0.3120     0.7000 H     1 <1>   0.1500 
 34 H       -4.7410     0.2490     1.8130 H     1 <1>   0.0800 
 35 H       -3.6270     1.2840    -1.7700 H     1 <1>   0.0800 
 36 H       -3.0370     2.4260    -0.5980 H     1 <1>   0.0800 
 37 H       -2.7590    -1.2670    -1.0690 H     1 <1>   0.0800 
 38 H       -3.3620    -1.6930     0.5040 H     1 <1>   0.0800 
 39 H        1.2900    -3.5960    -1.5810 H     1 <1>   0.0800 
 40 H        2.9550    -3.6440    -2.0590 H     1 <1>   0.0800 
 41 H       -5.0280     2.4450     0.0750 H     1 <1>   0.4000 
 42 H       -6.4940    -0.4250     0.4980 H     1 <1>   0.0800 
 43 H       -6.1130     0.7000    -0.7960 H     1 <1>   0.0800 
 44 H       -5.3290    -2.0610    -0.6520 H     1 <1>   0.0800 
 45 H       -4.9350    -0.8860    -1.8870 H     1 <1>   0.0800 
 46 H        1.8270    -4.9120     0.4590 H     1 <1>   0.0800 
 47 H        3.5050    -4.9620    -0.0280 H     1 <1>   0.0800 
 48 H        2.2920    -5.7720    -0.9930 H     1 <1>   0.0800 
 49 H        6.8220    -2.7150    -1.3490 H     1 <1>   0.0800 
 50 H        6.4990    -2.1220     0.2770 H     1 <1>   0.0800 
 51 H        6.2900    -1.0520    -1.1230 H     1 <1>   0.0800 
@<TRIPOS>BOND
  1   1   2  2   
  2   1   3  2   
  3   1   4  am  
  4   1   5  1   
  5   4   6  1   
  6   4   7  1   
  7   5   8  ar  
  8   5   9  ar  
  9   6  10  1   
 10   6  25  1   
 11   6  26  1   
 12   7  11  1   
 13   7  27  1   
 14   7  28  1   
 15   8  12  ar  
 16   8  29  1   
 17   9  13  ar  
 18   9  30  1   
 19  10  14  1   
 20  10  15  1   
 21  10  16  1   
 22  11  15  1   
 23  11  31  1   
 24  11  32  1   
 25  12  17  ar  
 26  12  18  1   
 27  13  17  ar  
 28  13  33  1   
 29  14  19  1   
 30  14  20  1   
 31  14  34  1   
 32  15  35  1   
 33  15  36  1   
 34  16  21  1   
 35  16  37  1   
 36  16  38  1   
 37  17  22  1   
 38  18  23  1   
 39  18  39  1   
 40  18  40  1   
 41  19  41  1   
 42  20  21  1   
 43  20  42  1   
 44  20  43  1   
 45  21  44  1   
 46  21  45  1   
 47  22  24  1   
 48  23  46  1   
 49  23  47  1   
 50  23  48  1   
 51  24  49  1   
 52  24  50  1   
 53  24  51  1   
@<TRIPOS>SUBSTRUCTURE
  1 ****   4 GROUP 4 **** **** 0

# MOE 2024.06 (io_trps.svl 2023.06)
