@<TRIPOS>MOLECULE
NONAME
28 29 1 0 0 
SMALL
USER_CHARGES


@<TRIPOS>ATOM
  1 S       -0.3980     0.2180     0.3760 S.3   1 <1>  -0.0800 
  2 C       -0.3230    -1.5230     0.0950 C.2   1 <1>   0.4620 
  3 C        1.2250     0.1790     1.0060 C.2   1 <1>  -0.1100 
  4 N        0.8010    -2.0390     0.4460 N.2   1 <1>  -0.5650 
  5 N       -1.4060    -2.1880    -0.4490 N.pl3 1 <1>  -0.8220 
  6 C        1.6630    -1.0860     0.9530 C.2   1 <1>   0.0770 
  7 C       -1.3480    -3.6640    -0.6810 C.3   1 <1>   0.2090 
  8 C       -2.6980    -1.5510    -0.8150 C.3   1 <1>   0.2090 
  9 C       -2.4990    -4.3680     0.0580 C.3   1 <1>   0.2000 
 10 C       -3.8310    -2.2220    -0.0320 C.3   1 <1>  -0.1600 
 11 O       -2.5160    -5.7150    -0.2840 O.3   1 <1>  -0.6800 
 12 C       -3.8750    -3.7490    -0.2640 C.3   1 <1>  -0.0800 
 13 C       -4.9750    -4.4320     0.5670 C.3   1 <1>   0.1200 
 14 O       -6.2100    -3.8900     0.2510 O.3   1 <1>  -0.6800 
 15 H        1.6640     1.1000     1.3410 H     1 <1>   0.1500 
 16 H        2.6350    -1.4190     1.2750 H     1 <1>   0.1500 
 17 H       -1.4250    -3.8460    -1.7380 H     1 <1>   0.0800 
 18 H       -0.4130    -4.0660    -0.3330 H     1 <1>   0.0800 
 19 H       -2.6950    -0.4980    -0.6040 H     1 <1>   0.0800 
 20 H       -2.8610    -1.6740    -1.8720 H     1 <1>   0.0800 
 21 H       -2.3070    -4.3100     1.1160 H     1 <1>   0.0800 
 22 H       -3.6950    -2.0110     1.0150 H     1 <1>   0.0800 
 23 H       -4.7590    -1.7750    -0.3410 H     1 <1>   0.0800 
 24 H       -2.7450    -5.8280    -1.2260 H     1 <1>   0.4000 
 25 H       -4.0810    -3.9230    -1.3060 H     1 <1>   0.0800 
 26 H       -4.8050    -4.3020     1.6220 H     1 <1>   0.0800 
 27 H       -5.0180    -5.4860     0.3490 H     1 <1>   0.0800 
 28 H       -6.2660    -2.9660     0.5600 H     1 <1>   0.4000 
@<TRIPOS>BOND
  1   1   2  1   
  2   1   3  1   
  3   2   4  2   
  4   2   5  1   
  5   3   6  2   
  6   3  15  1   
  7   4   6  1   
  8   5   7  1   
  9   5   8  1   
 10   6  16  1   
 11   7   9  1   
 12   7  17  1   
 13   7  18  1   
 14   8  10  1   
 15   8  19  1   
 16   8  20  1   
 17   9  11  1   
 18   9  12  1   
 19   9  21  1   
 20  10  12  1   
 21  10  22  1   
 22  10  23  1   
 23  11  24  1   
 24  12  13  1   
 25  12  25  1   
 26  13  14  1   
 27  13  26  1   
 28  13  27  1   
 29  14  28  1   
@<TRIPOS>SUBSTRUCTURE
  1 ****   5 GROUP 4 **** **** 0

# MOE 2024.06 (io_trps.svl 2023.06)
