@<TRIPOS>MOLECULE
NONAME
52 54 1 0 0 
SMALL
USER_CHARGES


@<TRIPOS>ATOM
  1 O       -0.3990     0.3170     0.7030 O.2   1 <1>  -0.5700 
  2 C       -1.4730     0.8820     0.5920 C.2   1 <1>   0.6900 
  3 N       -2.6220     0.1440     0.4830 N.am  1 <1>  -0.6600 
  4 N       -1.5160     2.2500     0.5550 N.am  1 <1>  -0.6600 
  5 C       -2.5810    -1.3280     0.2360 C.3   1 <1>   0.1400 
  6 C       -3.9580     0.6160     0.9480 C.3   1 <1>   0.1400 
  7 C       -2.1590     2.9500    -0.5930 C.3   1 <1>   0.1400 
  8 C       -0.4210     3.0480     1.1790 C.3   1 <1>   0.1400 
  9 C       -3.7670    -1.7720    -0.6400 C.3   1 <1>   0.3440 
 10 C       -5.0720     0.0980     0.0100 C.3   1 <1>   0.2000 
 11 C       -1.0950     3.4880    -1.5650 C.3   1 <1>   0.1200 
 12 C        0.5460     3.5720     0.1050 C.3   1 <1>   0.1200 
 13 O       -4.9760    -1.3000    -0.1010 O.3   1 <1>  -0.5600 
 14 C       -3.8210    -3.2930    -0.7510 C.ar  1 <1>  -0.1440 
 15 C       -6.5200     0.4790     0.4450 C.3   1 <1>   0.0000 
 16 O       -0.1540     4.2710    -0.8870 O.3   1 <1>  -0.5600 
 17 C       -4.4800    -4.0630     0.1980 C.ar  1 <1>  -0.1500 
 18 C       -3.1900    -3.9280    -1.8130 C.ar  1 <1>  -0.1500 
 19 C       -6.6830     2.0070     0.5320 C.3   1 <1>  -0.2400 
 20 C       -6.8950    -0.1300     1.8100 C.3   1 <1>  -0.2400 
 21 C       -7.5240    -0.0370    -0.6030 C.3   1 <1>  -0.2400 
 22 C       -4.5080    -5.4430     0.0880 C.ar  1 <1>  -0.1500 
 23 C       -3.2180    -5.3080    -1.9230 C.ar  1 <1>  -0.1500 
 24 C       -3.8770    -6.0670    -0.9730 C.ar  1 <1>  -0.1500 
 25 H       -1.6610    -1.5960    -0.2550 H     1 <1>   0.0800 
 26 H       -2.6180    -1.8480     1.1760 H     1 <1>   0.0800 
 27 H       -4.1240     0.2460     1.9430 H     1 <1>   0.0800 
 28 H       -3.9780     1.6880     0.9890 H     1 <1>   0.0800 
 29 H       -2.8090     2.2750    -1.1220 H     1 <1>   0.0800 
 30 H       -2.7520     3.7680    -0.2240 H     1 <1>   0.0800 
 31 H       -0.8460     3.8800     1.7110 H     1 <1>   0.0800 
 32 H        0.1210     2.4440     1.8860 H     1 <1>   0.0800 
 33 H       -3.6620    -1.3500    -1.6240 H     1 <1>   0.0800 
 34 H       -4.9040     0.5090    -0.9710 H     1 <1>   0.0800 
 35 H       -1.5540     4.1040    -2.3170 H     1 <1>   0.0800 
 36 H       -0.5810     2.6750    -2.0490 H     1 <1>   0.0800 
 37 H        1.0760     2.7540    -0.3540 H     1 <1>   0.0800 
 38 H        1.2600     4.2450     0.5430 H     1 <1>   0.0800 
 39 H       -4.9770    -3.5860     1.0250 H     1 <1>   0.1500 
 40 H       -2.6730    -3.3530    -2.5600 H     1 <1>   0.1500 
 41 H       -7.7080     2.2630     0.7360 H     1 <1>   0.0800 
 42 H       -6.4010     2.4720    -0.3960 H     1 <1>   0.0800 
 43 H       -6.0820     2.4210     1.3220 H     1 <1>   0.0800 
 44 H       -7.9190     0.0940     2.0540 H     1 <1>   0.0800 
 45 H       -6.2740     0.2580     2.5960 H     1 <1>   0.0800 
 46 H       -6.7850    -1.2000     1.7860 H     1 <1>   0.0800 
 47 H       -8.5300     0.2410    -0.3410 H     1 <1>   0.0800 
 48 H       -7.4830    -1.1100    -0.6710 H     1 <1>   0.0800 
 49 H       -7.3010     0.3690    -1.5740 H     1 <1>   0.0800 
 50 H       -5.0240    -6.0290     0.8290 H     1 <1>   0.1500 
 51 H       -2.7260    -5.7910    -2.7490 H     1 <1>   0.1500 
 52 H       -3.8990    -7.1390    -1.0580 H     1 <1>   0.1500 
@<TRIPOS>BOND
  1   1   2  2   
  2   2   3  am  
  3   2   4  am  
  4   3   5  1   
  5   3   6  1   
  6   4   7  1   
  7   4   8  1   
  8   5   9  1   
  9   5  25  1   
 10   5  26  1   
 11   6  10  1   
 12   6  27  1   
 13   6  28  1   
 14   7  11  1   
 15   7  29  1   
 16   7  30  1   
 17   8  12  1   
 18   8  31  1   
 19   8  32  1   
 20   9  13  1   
 21   9  14  1   
 22   9  33  1   
 23  10  13  1   
 24  10  15  1   
 25  10  34  1   
 26  11  16  1   
 27  11  35  1   
 28  11  36  1   
 29  12  16  1   
 30  12  37  1   
 31  12  38  1   
 32  14  17  ar  
 33  14  18  ar  
 34  15  19  1   
 35  15  20  1   
 36  15  21  1   
 37  17  22  ar  
 38  17  39  1   
 39  18  23  ar  
 40  18  40  1   
 41  19  41  1   
 42  19  42  1   
 43  19  43  1   
 44  20  44  1   
 45  20  45  1   
 46  20  46  1   
 47  21  47  1   
 48  21  48  1   
 49  21  49  1   
 50  22  24  ar  
 51  22  50  1   
 52  23  24  ar  
 53  23  51  1   
 54  24  52  1   
@<TRIPOS>SUBSTRUCTURE
  1 ****   3 GROUP 4 **** **** 0

# MOE 2024.06 (io_trps.svl 2023.06)
