@<TRIPOS>MOLECULE
NONAME
46 49 1 0 0 
SMALL
USER_CHARGES


@<TRIPOS>ATOM
  1 F       -1.3480    -0.2250     1.6880 F     1 <1>  -0.1900 
  2 C       -2.4390    -0.2410     0.9650 C.ar  1 <1>   0.1900 
  3 C       -3.5030    -1.0020     1.3830 C.ar  1 <1>  -0.1500 
  4 C       -2.4590     0.5260    -0.2040 C.ar  1 <1>  -0.1500 
  5 C       -4.6470    -0.9950     0.5890 C.ar  1 <1>   0.2270 
  6 C       -3.5930     0.5310    -0.9870 C.ar  1 <1>  -0.1500 
  7 N       -5.8270    -1.6500     0.7660 N.2   1 <1>  -0.5650 
  8 C       -4.6840    -0.2410    -0.5720 C.ar  1 <1>  -0.1520 
  9 C       -6.5460    -1.3050    -0.2450 C.2   1 <1>   0.0060 
 10 N       -5.9160    -0.4520    -1.0980 N.pl3 1 <1>   0.0330 
 11 C       -7.9660    -1.8060    -0.4660 C.3   1 <1>   0.1000 
 12 C       -8.8480    -1.4120     0.7310 C.3   1 <1>  -0.1600 
 13 C       -7.9540    -3.3320    -0.6480 C.3   1 <1>  -0.1600 
 14 C      -10.2340    -2.0440     0.6610 C.3   1 <1>   0.3430 
 15 C       -9.3600    -3.9230    -0.6860 C.3   1 <1>   0.3430 
 16 N      -10.1000    -3.5240     0.5470 N.4   1 <1>  -0.9590 
 17 C      -11.4270    -4.1980     0.6800 C.3   1 <1>   0.4810 
 18 C      -11.2480    -5.7130     0.7180 C.2   1 <1>  -0.0380 
 19 N      -11.4060    -6.4690    -0.4250 N.pl3 1 <1>  -0.5500 
 20 C      -10.9290    -6.3880     1.8470 C.2   1 <1>  -0.1360 
 21 C      -11.2330    -7.8250    -0.4030 C.2   1 <1>   0.4390 
 22 C      -10.7580    -7.7970     1.8160 C.2   1 <1>   0.7670 
 23 N      -10.9180    -8.4830     0.6460 N.2   1 <1>  -0.6610 
 24 C      -11.4370    -8.5550    -1.7080 C.3   1 <1>  -0.1790 
 25 O      -10.4570    -8.4010     2.8290 O.2   1 <1>  -0.5700 
 26 H       -3.4720    -1.5860     2.2820 H     1 <1>   0.1500 
 27 H       -1.5890     1.0990    -0.4700 H     1 <1>   0.1500 
 28 H       -3.6430     1.1100    -1.8930 H     1 <1>   0.1500 
 29 H       -6.2740    -0.0410    -1.9630 H     1 <1>   0.2700 
 30 H       -8.3670    -1.3520    -1.3570 H     1 <1>   0.0800 
 31 H       -8.9450    -0.3410     0.7620 H     1 <1>   0.0800 
 32 H       -8.3740    -1.7120     1.6500 H     1 <1>   0.0800 
 33 H       -7.4050    -3.7920     0.1570 H     1 <1>   0.0800 
 34 H       -7.4390    -3.5770    -1.5600 H     1 <1>   0.0800 
 35 H      -10.7680    -1.6550    -0.1910 H     1 <1>   0.0800 
 36 H      -10.7840    -1.7870     1.5530 H     1 <1>   0.0800 
 37 H       -9.2850    -4.9980    -0.7440 H     1 <1>   0.0800 
 38 H       -9.8810    -3.5690    -1.5600 H     1 <1>   0.0800 
 39 H       -9.5210    -3.8370     1.3400 H     1 <1>   0.4500 
 40 H      -12.0730    -3.9250    -0.1380 H     1 <1>   0.0800 
 41 H      -11.8980    -3.8830     1.5970 H     1 <1>   0.0800 
 42 H      -11.7230    -6.0770    -1.3180 H     1 <1>   0.4000 
 43 H      -10.7880    -5.9270     2.8050 H     1 <1>   0.1500 
 44 H      -10.7420    -8.2000    -2.4460 H     1 <1>   0.0800 
 45 H      -12.4420    -8.4130    -2.0590 H     1 <1>   0.0800 
 46 H      -11.2740    -9.6090    -1.5670 H     1 <1>   0.0800 
@<TRIPOS>BOND
  1   1   2  1   
  2   2   3  ar  
  3   2   4  ar  
  4   3   5  ar  
  5   3  26  1   
  6   4   6  ar  
  7   4  27  1   
  8   5   7  1   
  9   5   8  ar  
 10   6   8  ar  
 11   6  28  1   
 12   7   9  2   
 13   8  10  1   
 14   9  10  1   
 15   9  11  1   
 16  10  29  1   
 17  11  12  1   
 18  11  13  1   
 19  11  30  1   
 20  12  14  1   
 21  12  31  1   
 22  12  32  1   
 23  13  15  1   
 24  13  33  1   
 25  13  34  1   
 26  14  16  1   
 27  14  35  1   
 28  14  36  1   
 29  15  16  1   
 30  15  37  1   
 31  15  38  1   
 32  16  17  1   
 33  16  39  1   
 34  17  18  1   
 35  17  40  1   
 36  17  41  1   
 37  18  19  1   
 38  18  20  2   
 39  19  21  1   
 40  19  42  1   
 41  20  22  1   
 42  20  43  1   
 43  21  23  2   
 44  21  24  1   
 45  22  23  1   
 46  22  25  2   
 47  24  44  1   
 48  24  45  1   
 49  24  46  1   
@<TRIPOS>SUBSTRUCTURE
  1 ****  13 GROUP 4 **** **** 0

# MOE 2024.06 (io_trps.svl 2023.06)
