@<TRIPOS>MOLECULE
NONAME
61 64 1 0 0 
SMALL
USER_CHARGES


@<TRIPOS>ATOM
  1 O       -1.4430     0.5730    -1.6310 O.2   1 <1>  -0.5700 
  2 C       -1.5860     0.8250    -0.4600 C.2   1 <1>   0.5690 
  3 N       -1.8930    -0.1320     0.4460 N.am  1 <1>  -0.7300 
  4 C       -1.4160     2.2570     0.0100 C.3   1 <1>  -0.0990 
  5 C       -2.1240    -1.5570     0.1170 C.3   1 <1>   0.2200 
  6 C        0.0590     2.6590     0.2290 C.3   1 <1>  -0.0800 
  7 C       -3.6210    -1.8190     0.0650 C.3   1 <1>  -0.0800 
  8 C       -1.7030    -2.4240     1.2960 C.3   1 <1>   0.1200 
  9 C        0.1420     4.0890     0.7910 C.3   1 <1>  -0.1600 
 10 C        0.8820     2.5630    -1.0710 C.3   1 <1>  -0.1600 
 11 C       -3.9650    -2.1000     1.5350 C.3   1 <1>   0.1200 
 12 C       -3.9510    -3.0120    -0.8520 C.3   1 <1>  -0.0160 
 13 O       -2.7610    -2.3590     2.2010 O.3   1 <1>  -0.5600 
 14 C        1.5860     4.5750     0.9300 C.3   1 <1>   0.3430 
 15 C        2.3090     3.0820    -0.9010 C.3   1 <1>   0.3430 
 16 C       -5.4500    -3.2580    -0.9270 C.ar  1 <1>  -0.1440 
 17 N        2.2740     4.4780    -0.3900 N.4   1 <1>  -0.9590 
 18 C       -6.2840    -2.4300    -1.6520 C.ar  1 <1>  -0.1500 
 19 C       -6.0560    -4.3170    -0.2800 C.ar  1 <1>  -0.1500 
 20 C        3.6340     5.0810    -0.3500 C.3   1 <1>   0.4860 
 21 C       -7.6440    -2.6900    -1.6890 C.ar  1 <1>   0.1600 
 22 C       -7.4270    -4.4870    -0.3810 C.ar  1 <1>   0.1600 
 23 C        3.4940     6.5620    -0.0600 C.ar  1 <1>  -0.1440 
 24 N       -8.2360    -3.6980    -1.0690 N.ar  1 <1>  -0.6200 
 25 C        3.8330     7.0650     1.1890 C.ar  1 <1>  -0.1500 
 26 C        3.0200     7.4260    -1.0380 C.ar  1 <1>  -0.1500 
 27 C        3.6860     8.4140     1.4600 C.ar  1 <1>  -0.1500 
 28 C        2.8740     8.7740    -0.7650 C.ar  1 <1>  -0.1500 
 29 C        3.2040     9.2680     0.4840 C.ar  1 <1>  -0.1500 
 30 H       -2.0810     0.0970     1.4250 H     1 <1>   0.3700 
 31 H       -1.8640     2.9000    -0.7260 H     1 <1>   0.0800 
 32 H       -1.9660     2.3840     0.9240 H     1 <1>   0.0800 
 33 H       -1.6110    -1.8210    -0.7930 H     1 <1>   0.0800 
 34 H        0.4860     1.9830     0.9530 H     1 <1>   0.0800 
 35 H       -4.1520    -0.9550    -0.2940 H     1 <1>   0.0800 
 36 H       -0.7990    -2.0800     1.7670 H     1 <1>   0.0800 
 37 H       -1.5900    -3.4510     0.9950 H     1 <1>   0.0800 
 38 H       -0.3250     4.1220     1.7600 H     1 <1>   0.0800 
 39 H       -0.3950     4.7710     0.1540 H     1 <1>   0.0800 
 40 H        0.3960     3.1090    -1.8600 H     1 <1>   0.0800 
 41 H        0.9420     1.5360    -1.3880 H     1 <1>   0.0800 
 42 H       -4.6150    -2.9480     1.6580 H     1 <1>   0.0800 
 43 H       -4.4140    -1.2380     1.9960 H     1 <1>   0.0800 
 44 H       -3.4560    -3.9010    -0.5020 H     1 <1>   0.0800 
 45 H       -3.5880    -2.8090    -1.8450 H     1 <1>   0.0800 
 46 H        2.1030     3.9720     1.6590 H     1 <1>   0.0800 
 47 H        1.5840     5.5980     1.2740 H     1 <1>   0.0800 
 48 H        2.8160     3.0450    -1.8520 H     1 <1>   0.0800 
 49 H        2.8400     2.4500    -0.2070 H     1 <1>   0.0800 
 50 H        1.7250     5.0470    -1.0460 H     1 <1>   0.4500 
 51 H       -5.8880    -1.5870    -2.1880 H     1 <1>   0.1500 
 52 H       -5.4780    -5.0110     0.3030 H     1 <1>   0.1500 
 53 H        4.2310     4.6090     0.4130 H     1 <1>   0.0800 
 54 H        4.1260     4.9520    -1.3000 H     1 <1>   0.0800 
 55 H       -8.2780    -2.0330    -2.2600 H     1 <1>   0.1500 
 56 H       -7.8820    -5.3180     0.1300 H     1 <1>   0.1500 
 57 H        4.2160     6.4220     1.9630 H     1 <1>   0.1500 
 58 H        2.7640     7.0690    -2.0210 H     1 <1>   0.1500 
 59 H        3.9490     8.8050     2.4290 H     1 <1>   0.1500 
 60 H        2.5060     9.4460    -1.5230 H     1 <1>   0.1500 
 61 H        3.0910    10.3180     0.6960 H     1 <1>   0.1500 
@<TRIPOS>BOND
  1   1   2  2   
  2   2   3  am  
  3   2   4  1   
  4   3   5  1   
  5   3  30  1   
  6   4   6  1   
  7   4  31  1   
  8   4  32  1   
  9   5   7  1   
 10   5   8  1   
 11   5  33  1   
 12   6   9  1   
 13   6  10  1   
 14   6  34  1   
 15   7  11  1   
 16   7  12  1   
 17   7  35  1   
 18   8  13  1   
 19   8  36  1   
 20   8  37  1   
 21   9  14  1   
 22   9  38  1   
 23   9  39  1   
 24  10  15  1   
 25  10  40  1   
 26  10  41  1   
 27  11  13  1   
 28  11  42  1   
 29  11  43  1   
 30  12  16  1   
 31  12  44  1   
 32  12  45  1   
 33  14  17  1   
 34  14  46  1   
 35  14  47  1   
 36  15  17  1   
 37  15  48  1   
 38  15  49  1   
 39  16  18  ar  
 40  16  19  ar  
 41  17  20  1   
 42  17  50  1   
 43  18  21  ar  
 44  18  51  1   
 45  19  22  ar  
 46  19  52  1   
 47  20  23  1   
 48  20  53  1   
 49  20  54  1   
 50  21  24  ar  
 51  21  55  1   
 52  22  24  ar  
 53  22  56  1   
 54  23  25  ar  
 55  23  26  ar  
 56  25  27  ar  
 57  25  57  1   
 58  26  28  ar  
 59  26  58  1   
 60  27  29  ar  
 61  27  59  1   
 62  28  29  ar  
 63  28  60  1   
 64  29  61  1   
@<TRIPOS>SUBSTRUCTURE
  1 ****   4 GROUP 4 **** **** 0

# MOE 2024.06 (io_trps.svl 2023.06)
