@<TRIPOS>MOLECULE
NONAME
52 54 1 0 0 
SMALL
USER_CHARGES


@<TRIPOS>ATOM
  1 O       -0.0890     1.2380    -0.1880 O.2   1 <1>  -0.5700 
  2 C       -0.1310     2.4340    -0.0170 C.2   1 <1>   0.5690 
  3 N       -1.1770     3.0500     0.6150 N.am  1 <1>  -0.6600 
  4 C        1.0230     3.2800    -0.5540 C.3   1 <1>   0.1810 
  5 C       -1.2270     4.5430     0.7660 C.3   1 <1>   0.3640 
  6 C       -2.3000     2.2860     1.2330 C.3   1 <1>   0.0600 
  7 O        1.1560     4.5020     0.1290 O.3   1 <1>  -0.5600 
  8 C       -2.5660     5.1010     0.2540 C.ar  1 <1>  -0.1430 
  9 C       -0.0220     5.2960     0.1410 C.3   1 <1>   0.2610 
 10 C       -3.1120     4.8370    -1.0070 C.ar  1 <1>  -0.1430 
 11 C       -3.2680     5.9280     1.1250 C.ar  1 <1>  -0.1500 
 12 C        0.2340     6.5910     0.9210 C.2   1 <1>   0.5690 
 13 C       -4.3350     5.3960    -1.3520 C.ar  1 <1>  -0.1500 
 14 C       -2.4460     3.9470    -2.0510 C.3   1 <1>  -0.0960 
 15 C       -4.4830     6.4810     0.7690 C.ar  1 <1>  -0.1500 
 16 O       -0.5180     7.5280     0.8010 O.2   1 <1>  -0.5700 
 17 N        1.3170     6.6680     1.7350 N.am  1 <1>  -0.7300 
 18 C       -5.0190     6.2130    -0.4730 C.ar  1 <1>  -0.1500 
 19 C        1.7560     7.8880     2.4510 C.3   1 <1>   0.3210 
 20 C        2.8410     8.5960     1.6600 C.2   1 <1>   0.1080 
 21 N        4.0760     8.6690     2.0130 N.2   1 <1>  -0.4100 
 22 C        2.6340     9.2540     0.4510 C.2   1 <1>  -0.1500 
 23 O        4.6760     9.3500     1.0800 O.3   1 <1>  -0.0190 
 24 C        3.8530     9.7180     0.1330 C.2   1 <1>  -0.0400 
 25 C        4.3790    10.5230    -1.0480 C.3   1 <1>   0.1000 
 26 C        4.8400    11.9070    -0.5790 C.3   1 <1>  -0.2400 
 27 C        3.3170    10.6660    -2.1450 C.3   1 <1>  -0.2400 
 28 H        0.8710     3.4830    -1.5980 H     1 <1>   0.0800 
 29 H        1.9430     2.7380    -0.4360 H     1 <1>   0.0800 
 30 H       -1.1810     4.7290     1.8250 H     1 <1>   0.0800 
 31 H       -2.4100     2.5680     2.2650 H     1 <1>   0.0800 
 32 H       -2.1120     1.2270     1.1840 H     1 <1>   0.0800 
 33 H       -3.2180     2.4960     0.7120 H     1 <1>   0.0800 
 34 H       -0.2460     5.5670    -0.8730 H     1 <1>   0.0800 
 35 H       -2.8690     6.1610     2.0970 H     1 <1>   0.1500 
 36 H       -4.7700     5.1990    -2.3160 H     1 <1>   0.1500 
 37 H       -2.9190     4.0580    -3.0090 H     1 <1>   0.0800 
 38 H       -2.5280     2.9150    -1.7610 H     1 <1>   0.0800 
 39 H       -1.4110     4.1980    -2.1710 H     1 <1>   0.0800 
 40 H       -5.0080     7.1210     1.4570 H     1 <1>   0.1500 
 41 H        2.0140     5.9190     1.6620 H     1 <1>   0.3700 
 42 H       -5.9650     6.6400    -0.7570 H     1 <1>   0.1500 
 43 H        0.9230     8.5560     2.5870 H     1 <1>   0.0800 
 44 H        2.1350     7.6160     3.4200 H     1 <1>   0.0800 
 45 H        1.6960     9.3410    -0.0670 H     1 <1>   0.1500 
 46 H        5.2240     9.9970    -1.4590 H     1 <1>   0.0800 
 47 H        4.0180    12.4470    -0.1440 H     1 <1>   0.0800 
 48 H        5.2320    12.4730    -1.4050 H     1 <1>   0.0800 
 49 H        5.6120    11.8060     0.1620 H     1 <1>   0.0800 
 50 H        2.4600    11.1990    -1.7730 H     1 <1>   0.0800 
 51 H        3.0010     9.6940    -2.4810 H     1 <1>   0.0800 
 52 H        3.7190    11.2020    -2.9850 H     1 <1>   0.0800 
@<TRIPOS>BOND
  1   1   2  2   
  2   2   3  am  
  3   2   4  1   
  4   3   5  1   
  5   3   6  1   
  6   4   7  1   
  7   4  28  1   
  8   4  29  1   
  9   5   8  1   
 10   5   9  1   
 11   5  30  1   
 12   6  31  1   
 13   6  32  1   
 14   6  33  1   
 15   7   9  1   
 16   8  10  ar  
 17   8  11  ar  
 18   9  12  1   
 19   9  34  1   
 20  10  13  ar  
 21  10  14  1   
 22  11  15  ar  
 23  11  35  1   
 24  12  16  2   
 25  12  17  am  
 26  13  18  ar  
 27  13  36  1   
 28  14  37  1   
 29  14  38  1   
 30  14  39  1   
 31  15  18  ar  
 32  15  40  1   
 33  17  19  1   
 34  17  41  1   
 35  18  42  1   
 36  19  20  1   
 37  19  43  1   
 38  19  44  1   
 39  20  21  2   
 40  20  22  1   
 41  21  23  1   
 42  22  24  2   
 43  22  45  1   
 44  23  24  1   
 45  24  25  1   
 46  25  26  1   
 47  25  27  1   
 48  25  46  1   
 49  26  47  1   
 50  26  48  1   
 51  26  49  1   
 52  27  50  1   
 53  27  51  1   
 54  27  52  1   
@<TRIPOS>SUBSTRUCTURE
  1 ****  12 GROUP 4 **** **** 0

# MOE 2024.06 (io_trps.svl 2023.06)
