@<TRIPOS>MOLECULE
NONAME
53 55 1 0 0 
SMALL
USER_CHARGES


@<TRIPOS>ATOM
  1 O       -2.6010     0.5600    -2.7460 O.2   1 <1>  -0.5700 
  2 C       -2.3740     0.9740    -1.6250 C.2   1 <1>   0.5440 
  3 N       -2.6140     0.0980    -0.5880 N.am  1 <1>  -0.6600 
  4 C       -1.9770     2.3530    -1.4350 C.ar  1 <1>   0.0860 
  5 C       -3.2780     0.5150     0.6800 C.3   1 <1>   0.1400 
  6 C       -2.6160    -1.3750    -0.8160 C.3   1 <1>   0.1400 
  7 C       -1.0240     2.7550    -0.4860 C.ar  1 <1>   0.3920 
  8 C       -2.5440     3.3510    -2.2200 C.ar  1 <1>  -0.1500 
  9 C       -4.7230    -0.0340     0.7470 C.3   1 <1>   0.4230 
 10 C       -4.0580    -1.9040    -0.7920 C.3   1 <1>   0.3430 
 11 O       -0.4240     1.8010     0.2600 O.3   1 <1>  -0.3630 
 12 N       -0.6560     4.0120    -0.2550 N.ar  1 <1>  -0.6200 
 13 C       -2.1600     4.6520    -2.0020 C.ar  1 <1>  -0.1500 
 14 N       -4.7860    -1.5320     0.4850 N.4   1 <1>  -0.9590 
 15 C       -5.6400     0.7320    -0.2360 C.3   1 <1>   0.1200 
 16 C        0.6410     2.0970     1.1450 C.3   1 <1>   0.0400 
 17 C       -1.2260     4.9340    -1.0190 C.ar  1 <1>   0.3930 
 18 C       -6.2250    -1.9750     0.4990 C.3   1 <1>   0.4230 
 19 O       -6.9490     0.2410    -0.1590 O.3   1 <1>  -0.5600 
 20 O       -0.8910     6.2260    -0.8460 O.3   1 <1>  -0.3620 
 21 C       -7.0890    -1.1190    -0.4600 C.3   1 <1>   0.1200 
 22 C       -6.3310    -3.4830     0.2160 C.3   1 <1>  -0.1600 
 23 C        0.0760     6.6160     0.1100 C.3   1 <1>   0.0400 
 24 C       -7.7090    -4.0530     0.5900 C.3   1 <1>  -0.1600 
 25 C       -7.7490    -5.5680     0.3730 C.3   1 <1>  -0.2400 
 26 H       -2.7070     0.1450     1.5140 H     1 <1>   0.0800 
 27 H       -3.2980     1.5890     0.7580 H     1 <1>   0.0800 
 28 H       -2.1640    -1.6070    -1.7670 H     1 <1>   0.0800 
 29 H       -2.0290    -1.8580    -0.0540 H     1 <1>   0.0800 
 30 H       -3.2630     3.1050    -2.9850 H     1 <1>   0.1500 
 31 H       -5.0990     0.1640     1.7380 H     1 <1>   0.0800 
 32 H       -4.0360    -2.9750    -0.9080 H     1 <1>   0.0800 
 33 H       -4.5770    -1.4920    -1.6430 H     1 <1>   0.0800 
 34 H       -2.5670     5.4590    -2.5830 H     1 <1>   0.1500 
 35 H       -4.3080    -2.0020     1.2620 H     1 <1>   0.4500 
 36 H       -5.2950     0.6440    -1.2520 H     1 <1>   0.0800 
 37 H       -5.6730     1.7760     0.0220 H     1 <1>   0.0800 
 38 H        0.9750     1.1800     1.5940 H     1 <1>   0.0800 
 39 H        0.2900     2.7750     1.9030 H     1 <1>   0.0800 
 40 H        1.4430     2.5460     0.5850 H     1 <1>   0.0800 
 41 H       -6.6140    -1.8120     1.4910 H     1 <1>   0.0800 
 42 H       -8.1300    -1.3630    -0.3440 H     1 <1>   0.0800 
 43 H       -6.8160    -1.2780    -1.4880 H     1 <1>   0.0800 
 44 H       -6.1520    -3.6810    -0.8260 H     1 <1>   0.0800 
 45 H       -5.5900    -4.0030     0.7980 H     1 <1>   0.0800 
 46 H        0.1810     7.6850     0.0680 H     1 <1>   0.0800 
 47 H        1.0120     6.1420    -0.1300 H     1 <1>   0.0800 
 48 H       -0.2590     6.3140     1.0870 H     1 <1>   0.0800 
 49 H       -7.9280    -3.8450     1.6240 H     1 <1>   0.0800 
 50 H       -8.4820    -3.6030    -0.0110 H     1 <1>   0.0800 
 51 H       -7.0150    -6.0630     0.9850 H     1 <1>   0.0800 
 52 H       -7.5610    -5.8120    -0.6590 H     1 <1>   0.0800 
 53 H       -8.7190    -5.9510     0.6370 H     1 <1>   0.0800 
@<TRIPOS>BOND
  1   1   2  2   
  2   2   3  am  
  3   2   4  1   
  4   3   5  1   
  5   3   6  1   
  6   4   7  ar  
  7   4   8  ar  
  8   5   9  1   
  9   5  26  1   
 10   5  27  1   
 11   6  10  1   
 12   6  28  1   
 13   6  29  1   
 14   7  11  1   
 15   7  12  ar  
 16   8  13  ar  
 17   8  30  1   
 18   9  14  1   
 19   9  15  1   
 20   9  31  1   
 21  10  14  1   
 22  10  32  1   
 23  10  33  1   
 24  11  16  1   
 25  12  17  ar  
 26  13  17  ar  
 27  13  34  1   
 28  14  18  1   
 29  14  35  1   
 30  15  19  1   
 31  15  36  1   
 32  15  37  1   
 33  16  38  1   
 34  16  39  1   
 35  16  40  1   
 36  17  20  1   
 37  18  21  1   
 38  18  22  1   
 39  18  41  1   
 40  19  21  1   
 41  20  23  1   
 42  21  42  1   
 43  21  43  1   
 44  22  24  1   
 45  22  44  1   
 46  22  45  1   
 47  23  46  1   
 48  23  47  1   
 49  23  48  1   
 50  24  25  1   
 51  24  49  1   
 52  24  50  1   
 53  25  51  1   
 54  25  52  1   
 55  25  53  1   
@<TRIPOS>SUBSTRUCTURE
  1 ****   3 GROUP 4 **** **** 0

# MOE 2024.06 (io_trps.svl 2023.06)
