@<TRIPOS>MOLECULE
NONAME
46 48 1 0 0 
SMALL
USER_CHARGES


@<TRIPOS>ATOM
  1 O       -0.0530    -0.5630     0.6250 O.3   1 <1>  -0.5600 
  2 C       -0.3180    -1.9210     0.8050 C.3   1 <1>   0.2000 
  3 C        0.2010    -0.1880    -0.7040 C.3   1 <1>   0.2640 
  4 C       -1.2490    -2.0740     2.0160 C.3   1 <1>   0.2090 
  5 C        1.0060    -2.6620     1.0380 C.3   1 <1>  -0.1600 
  6 C        0.4960     1.3040    -0.8440 C.ar  1 <1>   0.1660 
  7 N       -1.4940    -3.5170     2.3150 N.pl3 1 <1>  -0.8380 
  8 C        0.7340    -4.1410     1.3590 C.3   1 <1>  -0.1600 
  9 N        0.6720     1.7280    -2.0900 N.ar  1 <1>  -0.6200 
 10 C        0.5720     2.1370     0.2660 C.ar  1 <1>  -0.1500 
 11 C       -2.5950    -4.1000     1.7010 C.ar  1 <1>   0.4100 
 12 C       -0.2570    -4.3260     2.5190 C.3   1 <1>   0.2090 
 13 C        0.9300     3.0180    -2.2320 C.ar  1 <1>   0.1600 
 14 C        0.8410     3.4790     0.1020 C.ar  1 <1>  -0.1500 
 15 N       -2.3560    -4.8700     0.6500 N.ar  1 <1>  -0.6200 
 16 C       -3.8890    -3.8450     2.1790 C.ar  1 <1>   0.1600 
 17 C        1.0240     3.9230    -1.1890 C.ar  1 <1>  -0.1500 
 18 C       -3.4610    -5.3590     0.1070 C.ar  1 <1>   0.4100 
 19 N       -5.0080    -4.3180     1.6550 N.ar  1 <1>  -0.6200 
 20 N       -3.3000    -6.1940    -0.9950 N.pl3 1 <1>  -0.8380 
 21 C       -4.7420    -5.0780     0.6050 C.ar  1 <1>   0.1600 
 22 C       -3.5100    -7.6460    -0.7630 C.3   1 <1>   0.1290 
 23 C       -2.1940    -5.8930    -1.9440 C.3   1 <1>   0.1290 
 24 H       -0.8270    -2.3070    -0.0630 H     1 <1>   0.0800 
 25 H       -0.6650    -0.4290    -1.2960 H     1 <1>   0.0800 
 26 H        1.0450    -0.7460    -1.0680 H     1 <1>   0.0800 
 27 H       -2.1820    -1.5820     1.8060 H     1 <1>   0.0800 
 28 H       -0.7990    -1.6110     2.8760 H     1 <1>   0.0800 
 29 H        1.5240    -2.2090     1.8650 H     1 <1>   0.0800 
 30 H        1.6270    -2.6010     0.1630 H     1 <1>   0.0800 
 31 H        1.6580    -4.6330     1.6060 H     1 <1>   0.0800 
 32 H        0.3340    -4.6280     0.4870 H     1 <1>   0.0800 
 33 H        0.4220     1.7430     1.2550 H     1 <1>   0.1500 
 34 H       -0.5190    -5.3670     2.6060 H     1 <1>   0.0800 
 35 H        0.2050    -4.0220     3.4420 H     1 <1>   0.0800 
 36 H        1.0750     3.3760    -3.2370 H     1 <1>   0.1500 
 37 H        0.9060     4.1470     0.9440 H     1 <1>   0.1500 
 38 H       -3.9740    -3.2140     3.0430 H     1 <1>   0.1500 
 39 H        1.2380     4.9570    -1.3880 H     1 <1>   0.1500 
 40 H       -5.5740    -5.5160     0.0870 H     1 <1>   0.1500 
 41 H       -4.2490    -7.8010     0.0050 H     1 <1>   0.0800 
 42 H       -2.5870    -8.1030    -0.4500 H     1 <1>   0.0800 
 43 H       -3.8490    -8.1140    -1.6700 H     1 <1>   0.0800 
 44 H       -2.1030    -4.8280    -2.0730 H     1 <1>   0.0800 
 45 H       -2.3970    -6.3420    -2.9000 H     1 <1>   0.0800 
 46 H       -1.2650    -6.2750    -1.5570 H     1 <1>   0.0800 
@<TRIPOS>BOND
  1   1   2  1   
  2   1   3  1   
  3   2   4  1   
  4   2   5  1   
  5   2  24  1   
  6   3   6  1   
  7   3  25  1   
  8   3  26  1   
  9   4   7  1   
 10   4  27  1   
 11   4  28  1   
 12   5   8  1   
 13   5  29  1   
 14   5  30  1   
 15   6   9  ar  
 16   6  10  ar  
 17   7  11  1   
 18   7  12  1   
 19   8  12  1   
 20   8  31  1   
 21   8  32  1   
 22   9  13  ar  
 23  10  14  ar  
 24  10  33  1   
 25  11  15  ar  
 26  11  16  ar  
 27  12  34  1   
 28  12  35  1   
 29  13  17  ar  
 30  13  36  1   
 31  14  17  ar  
 32  14  37  1   
 33  15  18  ar  
 34  16  19  ar  
 35  16  38  1   
 36  17  39  1   
 37  18  20  1   
 38  18  21  ar  
 39  19  21  ar  
 40  20  22  1   
 41  20  23  1   
 42  21  40  1   
 43  22  41  1   
 44  22  42  1   
 45  22  43  1   
 46  23  44  1   
 47  23  45  1   
 48  23  46  1   
@<TRIPOS>SUBSTRUCTURE
  1 ****   2 GROUP 4 **** **** 0

# MOE 2024.06 (io_trps.svl 2023.06)
