@<TRIPOS>MOLECULE
NONAME
49 52 1 0 0 
SMALL
USER_CHARGES


@<TRIPOS>ATOM
  1 O       -0.8150    -0.1470     0.6270 O.3   1 <1>  -0.0190 
  2 N       -1.5660    -0.9570    -0.0580 N.2   1 <1>  -0.4100 
  3 C       -0.5320    -0.8210     1.7150 C.2   1 <1>   0.2980 
  4 C       -1.6830    -2.0250     0.6280 C.2   1 <1>   0.3350 
  5 N       -1.0360    -1.9880     1.7810 N.2   1 <1>  -0.5650 
  6 C        0.3430    -0.1760     2.7660 C.3   1 <1>  -0.0600 
  7 C       -2.4960    -3.2500     0.2010 C.3   1 <1>   0.5240 
  8 N       -3.5370    -2.8910    -0.8240 N.4   1 <1>  -0.9590 
  9 C       -4.6210    -2.0530    -0.2030 C.3   1 <1>   0.3430 
 10 C       -4.0940    -4.0800    -1.5260 C.3   1 <1>   0.3430 
 11 C       -5.6150    -1.5370    -1.2570 C.3   1 <1>   0.1430 
 12 C       -5.0510    -3.6200    -2.6300 C.3   1 <1>  -0.1600 
 13 C       -6.7320    -0.8300    -0.5330 C.ar  1 <1>   0.1670 
 14 C       -6.1710    -2.7110    -2.0900 C.3   1 <1>  -0.1600 
 15 C       -5.0220    -0.4110    -2.1470 C.3   1 <1>  -0.1600 
 16 N       -7.3620    -1.3200     0.5030 N.ar  1 <1>  -0.6200 
 17 C       -6.9940     0.3920    -1.0690 C.ar  1 <1>  -0.1430 
 18 C       -6.0980     0.6890    -2.2450 C.3   1 <1>  -0.0170 
 19 C       -8.3090    -0.5240     1.0100 C.ar  1 <1>   0.7200 
 20 C       -7.9830     1.1400    -0.4820 C.ar  1 <1>   0.1600 
 21 N       -8.6430     0.6900     0.5590 N.ar  1 <1>  -0.6200 
 22 N       -8.9970    -0.9980     2.1060 N.pl3 1 <1>  -0.8380 
 23 C       -9.8130    -0.0950     2.9650 C.3   1 <1>   0.1290 
 24 C       -9.1520    -2.4520     2.3860 C.3   1 <1>   0.1290 
 25 H       -0.1220     0.7240     3.1240 H     1 <1>   0.0800 
 26 H        1.3010     0.0660     2.3440 H     1 <1>   0.0800 
 27 H        0.4850    -0.8490     3.5920 H     1 <1>   0.0800 
 28 H       -2.9660    -3.6760     1.0710 H     1 <1>   0.0800 
 29 H       -1.8140    -3.9760    -0.2050 H     1 <1>   0.0800 
 30 H       -3.0550    -2.2900    -1.5090 H     1 <1>   0.4500 
 31 H       -4.1950    -1.2080     0.3130 H     1 <1>   0.0800 
 32 H       -5.1660    -2.6390     0.5190 H     1 <1>   0.0800 
 33 H       -4.6300    -4.7010    -0.8240 H     1 <1>   0.0800 
 34 H       -3.2990    -4.6650    -1.9600 H     1 <1>   0.0800 
 35 H       -5.4950    -4.4880    -3.0880 H     1 <1>   0.0800 
 36 H       -4.4930    -3.1110    -3.3970 H     1 <1>   0.0800 
 37 H       -6.7710    -2.3360    -2.9020 H     1 <1>   0.0800 
 38 H       -6.8220    -3.3010    -1.4640 H     1 <1>   0.0800 
 39 H       -4.7320    -0.7530    -3.1240 H     1 <1>   0.0800 
 40 H       -4.1580     0.0160    -1.6660 H     1 <1>   0.0800 
 41 H       -6.6610     0.5960    -3.1590 H     1 <1>   0.0800 
 42 H       -5.6690     1.6740    -2.1810 H     1 <1>   0.0800 
 43 H       -8.2350     2.1140    -0.8650 H     1 <1>   0.1500 
 44 H       -9.3800     0.8910     2.9920 H     1 <1>   0.0800 
 45 H       -9.8530    -0.4750     3.9710 H     1 <1>   0.0800 
 46 H      -10.8120    -0.0260     2.5700 H     1 <1>   0.0800 
 47 H       -8.8990    -3.0380     1.5200 H     1 <1>   0.0800 
 48 H      -10.1720    -2.6680     2.6520 H     1 <1>   0.0800 
 49 H       -8.5080    -2.7310     3.2010 H     1 <1>   0.0800 
@<TRIPOS>BOND
  1   1   2  1   
  2   1   3  1   
  3   2   4  2   
  4   3   5  2   
  5   3   6  1   
  6   4   5  1   
  7   4   7  1   
  8   6  25  1   
  9   6  26  1   
 10   6  27  1   
 11   7   8  1   
 12   7  28  1   
 13   7  29  1   
 14   8   9  1   
 15   8  10  1   
 16   8  30  1   
 17   9  11  1   
 18   9  31  1   
 19   9  32  1   
 20  10  12  1   
 21  10  33  1   
 22  10  34  1   
 23  11  13  1   
 24  11  14  1   
 25  11  15  1   
 26  12  14  1   
 27  12  35  1   
 28  12  36  1   
 29  13  16  ar  
 30  13  17  ar  
 31  14  37  1   
 32  14  38  1   
 33  15  18  1   
 34  15  39  1   
 35  15  40  1   
 36  16  19  ar  
 37  17  18  1   
 38  17  20  ar  
 39  18  41  1   
 40  18  42  1   
 41  19  21  ar  
 42  19  22  1   
 43  20  21  ar  
 44  20  43  1   
 45  22  23  1   
 46  22  24  1   
 47  23  44  1   
 48  23  45  1   
 49  23  46  1   
 50  24  47  1   
 51  24  48  1   
 52  24  49  1   
@<TRIPOS>SUBSTRUCTURE
  1 ****   9 GROUP 4 **** **** 0

# MOE 2024.06 (io_trps.svl 2023.06)
