@<TRIPOS>MOLECULE
NONAME
45 47 1 0 0 
SMALL
USER_CHARGES


@<TRIPOS>ATOM
  1 F        1.3580     0.9020     0.8550 F     1 <1>  -0.1900 
  2 C        1.9710    -0.1490     0.3800 C.ar  1 <1>   0.1900 
  3 C        3.3530    -0.2210     0.5200 C.ar  1 <1>   0.0860 
  4 C        1.2120    -1.1320    -0.2440 C.ar  1 <1>  -0.1440 
  5 C        3.9520    -1.3480    -0.0290 C.ar  1 <1>   0.1900 
  6 C        4.1160     0.8030     1.1820 C.2   1 <1>   0.5440 
  7 C        1.8630    -2.2440    -0.7620 C.ar  1 <1>  -0.1500 
  8 C       -0.3010    -1.0060    -0.3600 C.3   1 <1>  -0.0970 
  9 F        5.2520    -1.4610     0.0240 F     1 <1>  -0.1900 
 10 C        3.2400    -2.3540    -0.6570 C.ar  1 <1>  -0.1500 
 11 O        4.5290     0.6180     2.3090 O.2   1 <1>  -0.5700 
 12 N        4.4450     1.9850     0.5560 N.am  1 <1>  -0.6600 
 13 C        4.9530     3.1370     1.3950 C.3   1 <1>   0.2200 
 14 C        4.5910     2.0530    -0.9300 C.3   1 <1>   0.1400 
 15 C        4.5020     4.5060     0.8600 C.3   1 <1>   0.1200 
 16 C        6.4890     3.0700     1.5660 C.3   1 <1>   0.3430 
 17 C        5.7110     2.9910    -1.4230 C.3   1 <1>  -0.0800 
 18 O        5.3890     4.9960    -0.0980 O.3   1 <1>  -0.5600 
 19 N        7.1290     2.1630     0.5550 N.4   1 <1>  -0.9590 
 20 C        5.2860     4.4670    -1.3750 C.3   1 <1>   0.1200 
 21 C        7.1150     2.7650    -0.8170 C.3   1 <1>   0.3430 
 22 C        8.5690     1.9110     0.9740 C.3   1 <1>   0.2370 
 23 C        9.4600     3.1580     0.9750 C.2   1 <1>   0.9060 
 24 O        9.9890     3.4860    -0.0910 O.co2 1 <1>  -0.9000 
 25 O        9.5020     3.8390     2.0030 O.co2 1 <1>  -0.9000 
 26 H        1.3030    -3.0260    -1.2490 H     1 <1>   0.1500 
 27 H       -0.7280    -1.8700    -0.8370 H     1 <1>   0.0800 
 28 H       -0.5540    -0.1360    -0.9400 H     1 <1>   0.0800 
 29 H       -0.7370    -0.9070     0.6180 H     1 <1>   0.0800 
 30 H        3.7540    -3.2100    -1.0590 H     1 <1>   0.1500 
 31 H        4.5180     3.0520     2.3750 H     1 <1>   0.0800 
 32 H        4.7970     1.0660    -1.3070 H     1 <1>   0.0800 
 33 H        3.6500     2.3660    -1.3520 H     1 <1>   0.0800 
 34 H        4.5140     5.2150     1.6700 H     1 <1>   0.0800 
 35 H        3.5040     4.4690     0.4590 H     1 <1>   0.0800 
 36 H        6.6980     2.6960     2.5550 H     1 <1>   0.0800 
 37 H        6.9170     4.0590     1.5040 H     1 <1>   0.0800 
 38 H        5.8160     2.7840    -2.4720 H     1 <1>   0.0800 
 39 H        6.5800     1.2940     0.5720 H     1 <1>   0.4500 
 40 H        4.2770     4.6050    -1.7280 H     1 <1>   0.0800 
 41 H        5.9410     5.0500    -2.0010 H     1 <1>   0.0800 
 42 H        7.6440     3.7060    -0.7970 H     1 <1>   0.0800 
 43 H        7.6680     2.1140    -1.4740 H     1 <1>   0.0800 
 44 H        8.5930     1.5040     1.9680 H     1 <1>   0.0800 
 45 H        9.0230     1.2020     0.3070 H     1 <1>   0.0800 
@<TRIPOS>BOND
  1   1   2  1   
  2   2   3  ar  
  3   2   4  ar  
  4   3   5  ar  
  5   3   6  1   
  6   4   7  ar  
  7   4   8  1   
  8   5   9  1   
  9   5  10  ar  
 10   6  11  2   
 11   6  12  am  
 12   7  10  ar  
 13   7  26  1   
 14   8  27  1   
 15   8  28  1   
 16   8  29  1   
 17  10  30  1   
 18  12  13  1   
 19  12  14  1   
 20  13  15  1   
 21  13  16  1   
 22  13  31  1   
 23  14  17  1   
 24  14  32  1   
 25  14  33  1   
 26  15  18  1   
 27  15  34  1   
 28  15  35  1   
 29  16  19  1   
 30  16  36  1   
 31  16  37  1   
 32  17  20  1   
 33  17  21  1   
 34  17  38  1   
 35  18  20  1   
 36  19  21  1   
 37  19  22  1   
 38  19  39  1   
 39  20  40  1   
 40  20  41  1   
 41  21  42  1   
 42  21  43  1   
 43  22  23  1   
 44  22  44  1   
 45  22  45  1   
 46  23  24  ar  
 47  23  25  ar  
@<TRIPOS>SUBSTRUCTURE
  1 ****  12 GROUP 4 **** **** 0

# MOE 2024.06 (io_trps.svl 2023.06)
