@<TRIPOS>MOLECULE
NONAME
52 55 1 0 0 
SMALL
USER_CHARGES


@<TRIPOS>ATOM
  1 O        0.2130     0.8810     1.4430 O.2   1 <1>  -0.5700 
  2 C        0.1660     2.0720     1.2690 C.2   1 <1>   0.5690 
  3 N       -0.9830     2.7540     1.4650 N.am  1 <1>  -0.7300 
  4 C        1.4080     2.8240     0.7830 C.3   1 <1>   0.1810 
  5 C       -1.1200     4.2160     1.2550 C.3   1 <1>   0.3640 
  6 O        1.3240     4.2190     0.9810 O.3   1 <1>  -0.5600 
  7 C       -2.3920     4.4700     0.4470 C.ar  1 <1>  -0.1440 
  8 C        0.1160     4.8170     0.5310 C.3   1 <1>   0.2610 
  9 C       -2.7060     3.7020    -0.6690 C.ar  1 <1>  -0.1500 
 10 C       -3.2530     5.4920     0.8210 C.ar  1 <1>  -0.1500 
 11 C        0.1900     6.3490     0.6790 C.2   1 <1>   0.5690 
 12 C       -3.8580     3.9520    -1.3930 C.ar  1 <1>  -0.1500 
 13 C       -4.4050     5.7430     0.0970 C.ar  1 <1>  -0.1500 
 14 O       -0.4780     6.8800     1.5410 O.2   1 <1>  -0.5700 
 15 N        1.0030     7.1060    -0.1420 N.am  1 <1>  -0.6600 
 16 C       -4.7090     4.9730    -1.0110 C.ar  1 <1>  -0.1500 
 17 C        1.1050     8.5840     0.0310 C.3   1 <1>   0.1400 
 18 C        1.9790     6.5400    -1.1170 C.3   1 <1>   0.1400 
 19 C        2.5170     8.9400     0.5050 C.3   1 <1>  -0.1600 
 20 C        3.3980     6.8620    -0.6470 C.3   1 <1>  -0.1600 
 21 C        3.6130     8.3620    -0.4020 C.3   1 <1>   0.4240 
 22 O        3.4770     8.9850    -1.6310 O.3   1 <1>  -0.6800 
 23 C        5.0190     8.6310     0.1710 C.ar  1 <1>  -0.1430 
 24 C        5.9740     9.3820    -0.5090 C.ar  1 <1>  -0.1500 
 25 C        5.3670     8.1080     1.4130 C.ar  1 <1>  -0.1500 
 26 C        7.2290     9.6030     0.0310 C.ar  1 <1>  -0.1500 
 27 C        6.6210     8.3270     1.9570 C.ar  1 <1>  -0.1500 
 28 C        7.5550     9.0750     1.2660 C.ar  1 <1>  -0.1500 
 29 H       -1.8130     2.2480     1.7780 H     1 <1>   0.3700 
 30 H        1.5500     2.6370    -0.2650 H     1 <1>   0.0800 
 31 H        2.2690     2.4690     1.3180 H     1 <1>   0.0800 
 32 H       -1.2190     4.6730     2.2250 H     1 <1>   0.0800 
 33 H        0.0190     4.5980    -0.5150 H     1 <1>   0.0800 
 34 H       -2.0590     2.9000    -0.9810 H     1 <1>   0.1500 
 35 H       -3.0290     6.1060     1.6780 H     1 <1>   0.1500 
 36 H       -4.0950     3.3500    -2.2540 H     1 <1>   0.1500 
 37 H       -5.0640     6.5400     0.3960 H     1 <1>   0.1500 
 38 H       -5.6050     5.1690    -1.5740 H     1 <1>   0.1500 
 39 H        0.8860     9.0680    -0.9040 H     1 <1>   0.0800 
 40 H        0.3880     8.9380     0.7530 H     1 <1>   0.0800 
 41 H        1.8760     5.4740    -1.2100 H     1 <1>   0.0800 
 42 H        1.8000     6.9690    -2.0880 H     1 <1>   0.0800 
 43 H        2.6320     8.5530     1.5000 H     1 <1>   0.0800 
 44 H        2.6310    10.0080     0.5670 H     1 <1>   0.0800 
 45 H        4.1170     6.5140    -1.3670 H     1 <1>   0.0800 
 46 H        3.5740     6.3200     0.2640 H     1 <1>   0.0800 
 47 H        2.5640     8.8730    -1.9420 H     1 <1>   0.4000 
 48 H        5.7530     9.8070    -1.4730 H     1 <1>   0.1500 
 49 H        4.6630     7.5210     1.9740 H     1 <1>   0.1500 
 50 H        7.9510    10.1860    -0.5120 H     1 <1>   0.1500 
 51 H        6.8700     7.9140     2.9190 H     1 <1>   0.1500 
 52 H        8.5300     9.2460     1.6870 H     1 <1>   0.1500 
@<TRIPOS>BOND
  1   1   2  2   
  2   2   3  am  
  3   2   4  1   
  4   3   5  1   
  5   3  29  1   
  6   4   6  1   
  7   4  30  1   
  8   4  31  1   
  9   5   7  1   
 10   5   8  1   
 11   5  32  1   
 12   6   8  1   
 13   7   9  ar  
 14   7  10  ar  
 15   8  11  1   
 16   8  33  1   
 17   9  12  ar  
 18   9  34  1   
 19  10  13  ar  
 20  10  35  1   
 21  11  14  2   
 22  11  15  am  
 23  12  16  ar  
 24  12  36  1   
 25  13  16  ar  
 26  13  37  1   
 27  15  17  1   
 28  15  18  1   
 29  16  38  1   
 30  17  19  1   
 31  17  39  1   
 32  17  40  1   
 33  18  20  1   
 34  18  41  1   
 35  18  42  1   
 36  19  21  1   
 37  19  43  1   
 38  19  44  1   
 39  20  21  1   
 40  20  45  1   
 41  20  46  1   
 42  21  22  1   
 43  21  23  1   
 44  22  47  1   
 45  23  24  ar  
 46  23  25  ar  
 47  24  26  ar  
 48  24  48  1   
 49  25  27  ar  
 50  25  49  1   
 51  26  28  ar  
 52  26  50  1   
 53  27  28  ar  
 54  27  51  1   
 55  28  52  1   
@<TRIPOS>SUBSTRUCTURE
  1 ****  15 GROUP 4 **** **** 0

# MOE 2024.06 (io_trps.svl 2023.06)
