@<TRIPOS>MOLECULE
NONAME
27 28 1 0 0 
SMALL
USER_CHARGES


@<TRIPOS>ATOM
  1 I        1.3300    -0.3850    -2.7370 I     1 <1>  -0.0270 
  2 C        2.0440    -0.6120    -0.7220 C.2   1 <1>   0.0270 
  3 C        1.7920    -1.7230     0.0760 C.2   1 <1>   0.3720 
  4 C        2.7910     0.2500    -0.0070 C.2   1 <1>  -0.3320 
  5 N        1.0560    -2.8690    -0.2550 N.pl3 1 <1>  -0.8210 
  6 N        2.3450    -1.5870     1.2420 N.2   1 <1>  -0.7070 
  7 N        2.9620    -0.3670     1.1880 N.pl3 1 <1>   0.3000 
  8 C        3.3650     1.6170    -0.3460 C.3   1 <1>  -0.0600 
  9 C        1.9320    -4.0780    -0.2150 C.3   1 <1>   0.2090 
 10 C       -0.1340    -2.9970     0.6390 C.3   1 <1>   0.2090 
 11 C        1.1320    -5.3550    -0.5400 C.3   1 <1>   0.3430 
 12 C       -0.9370    -4.2720     0.3150 C.3   1 <1>   0.3430 
 13 N       -0.0770    -5.5070     0.3440 N.4   1 <1>  -0.9060 
 14 H        3.4890     0.0110     1.9860 H     1 <1>   0.2700 
 15 H        3.1010     1.9030    -1.3480 H     1 <1>   0.0800 
 16 H        4.4380     1.5980    -0.2720 H     1 <1>   0.0800 
 17 H        2.9810     2.3600     0.3300 H     1 <1>   0.0800 
 18 H        2.3890    -4.1710     0.7560 H     1 <1>   0.0800 
 19 H        2.7220    -3.9600    -0.9380 H     1 <1>   0.0800 
 20 H       -0.7650    -2.1350     0.5030 H     1 <1>   0.0800 
 21 H        0.1780    -3.0150     1.6700 H     1 <1>   0.0800 
 22 H        1.7770    -6.2120    -0.4360 H     1 <1>   0.0800 
 23 H        0.8210    -5.2980    -1.5710 H     1 <1>   0.0800 
 24 H       -1.3660    -4.1540    -0.6670 H     1 <1>   0.0800 
 25 H       -1.7470    -4.3680     1.0200 H     1 <1>   0.0800 
 26 H        0.2410    -5.6630     1.3090 H     1 <1>   0.4500 
 27 H       -0.6240    -6.3270     0.0580 H     1 <1>   0.4500 
@<TRIPOS>BOND
  1   1   2  1   
  2   2   3  1   
  3   2   4  2   
  4   3   5  1   
  5   3   6  2   
  6   4   7  1   
  7   4   8  1   
  8   5   9  1   
  9   5  10  1   
 10   6   7  1   
 11   7  14  1   
 12   8  15  1   
 13   8  16  1   
 14   8  17  1   
 15   9  11  1   
 16   9  18  1   
 17   9  19  1   
 18  10  12  1   
 19  10  20  1   
 20  10  21  1   
 21  11  13  1   
 22  11  22  1   
 23  11  23  1   
 24  12  13  1   
 25  12  24  1   
 26  12  25  1   
 27  13  26  1   
 28  13  27  1   
@<TRIPOS>SUBSTRUCTURE
  1 ****   3 GROUP 4 **** **** 0

# MOE 2024.06 (io_trps.svl 2023.06)
