@<TRIPOS>MOLECULE
NONAME
50 53 1 0 0 
SMALL
USER_CHARGES


@<TRIPOS>ATOM
  1 O        0.4350     2.5410     2.5570 O.2   1 <1>  -0.5700 
  2 C        0.4920     2.9330     1.4120 C.2   1 <1>   0.6300 
  3 N       -0.6270     3.3860     0.7530 N.am  1 <1>  -0.6600 
  4 C        1.8570     2.8780     0.7090 C.3   1 <1>   0.0320 
  5 C       -1.9880     3.2090     1.3390 C.3   1 <1>   0.1400 
  6 C       -0.6460     3.8920    -0.6440 C.3   1 <1>   0.1400 
  7 C        1.9560     1.7020    -0.2580 C.ar  1 <1>  -0.0320 
  8 C        2.6320     4.1500     0.4770 C.3   1 <1>  -0.2000 
  9 C        3.0970     3.1770     1.5080 C.3   1 <1>  -0.2000 
 10 C       -2.8300     2.2120     0.5030 C.3   1 <1>   0.0000 
 11 C       -1.4400     2.9240    -1.5260 C.3   1 <1>  -0.1600 
 12 C        2.1350     1.8870    -1.6220 C.ar  1 <1>  -0.1500 
 13 C        1.8500     0.4120     0.2390 C.ar  1 <1>  -0.1500 
 14 C       -4.2310     2.0960     1.1390 C.3   1 <1>   0.2000 
 15 C       -2.8550     2.6840    -0.9720 C.3   1 <1>  -0.1600 
 16 C       -2.2790     0.7810     0.6420 C.3   1 <1>  -0.1600 
 17 C        2.2030     0.7980    -2.4740 C.ar  1 <1>  -0.1500 
 18 C        1.9160    -0.6780    -0.6110 C.ar  1 <1>  -0.1500 
 19 O       -5.1290     1.5580     0.2100 O.3   1 <1>  -0.5600 
 20 C       -4.0650     1.0970     2.2930 C.3   1 <1>  -0.1600 
 21 C       -2.8280     0.2480     1.9680 C.3   1 <1>  -0.1600 
 22 C        2.0920    -0.4850    -1.9690 C.ar  1 <1>  -0.1500 
 23 C       -6.4700     1.8520     0.4430 C.3   1 <1>   0.0400 
 24 H       -1.9150     2.8680     2.3570 H     1 <1>   0.0800 
 25 H       -2.4770     4.1670     1.3550 H     1 <1>   0.0800 
 26 H       -1.1170     4.8600    -0.6550 H     1 <1>   0.0800 
 27 H        0.3470     4.0070    -1.0330 H     1 <1>   0.0800 
 28 H        3.2320     4.2650    -0.4080 H     1 <1>   0.1000 
 29 H        2.2030     5.0800     0.8090 H     1 <1>   0.1000 
 30 H        2.9850     3.4220     2.5510 H     1 <1>   0.1000 
 31 H        3.9800     2.5930     1.3160 H     1 <1>   0.1000 
 32 H       -1.5080     3.3240    -2.5210 H     1 <1>   0.0800 
 33 H       -0.9080     1.9900    -1.5880 H     1 <1>   0.0800 
 34 H        2.2200     2.8770    -2.0280 H     1 <1>   0.1500 
 35 H        1.7090     0.2590     1.2960 H     1 <1>   0.1500 
 36 H       -4.5970     3.0540     1.4670 H     1 <1>   0.0800 
 37 H       -3.3550     1.9540    -1.5850 H     1 <1>   0.0800 
 38 H       -3.4180     3.5980    -1.0360 H     1 <1>   0.0800 
 39 H       -2.6700     0.1740    -0.1560 H     1 <1>   0.0800 
 40 H       -1.2050     0.7360     0.6070 H     1 <1>   0.0800 
 41 H        2.3400     0.9490    -3.5310 H     1 <1>   0.1500 
 42 H        1.8290    -1.6740    -0.2130 H     1 <1>   0.1500 
 43 H       -3.8870     1.6370     3.2060 H     1 <1>   0.0800 
 44 H       -4.9380     0.4830     2.4220 H     1 <1>   0.0800 
 45 H       -2.0890     0.3650     2.7420 H     1 <1>   0.0800 
 46 H       -3.0800    -0.7950     1.8800 H     1 <1>   0.0800 
 47 H        2.1430    -1.3320    -2.6310 H     1 <1>   0.1500 
 48 H       -7.0550     1.3590    -0.3130 H     1 <1>   0.0800 
 49 H       -6.6150     2.9160     0.3770 H     1 <1>   0.0800 
 50 H       -6.7550     1.4900     1.4150 H     1 <1>   0.0800 
@<TRIPOS>BOND
  1   1   2  2   
  2   2   3  am  
  3   2   4  1   
  4   3   5  1   
  5   3   6  1   
  6   4   7  1   
  7   4   8  1   
  8   4   9  1   
  9   5  10  1   
 10   5  24  1   
 11   5  25  1   
 12   6  11  1   
 13   6  26  1   
 14   6  27  1   
 15   7  12  ar  
 16   7  13  ar  
 17   8   9  1   
 18   8  28  1   
 19   8  29  1   
 20   9  30  1   
 21   9  31  1   
 22  10  14  1   
 23  10  15  1   
 24  10  16  1   
 25  11  15  1   
 26  11  32  1   
 27  11  33  1   
 28  12  17  ar  
 29  12  34  1   
 30  13  18  ar  
 31  13  35  1   
 32  14  19  1   
 33  14  20  1   
 34  14  36  1   
 35  15  37  1   
 36  15  38  1   
 37  16  21  1   
 38  16  39  1   
 39  16  40  1   
 40  17  22  ar  
 41  17  41  1   
 42  18  22  ar  
 43  18  42  1   
 44  19  23  1   
 45  20  21  1   
 46  20  43  1   
 47  20  44  1   
 48  21  45  1   
 49  21  46  1   
 50  22  47  1   
 51  23  48  1   
 52  23  49  1   
 53  23  50  1   
@<TRIPOS>SUBSTRUCTURE
  1 ****   3 GROUP 4 **** **** 0

# MOE 2024.06 (io_trps.svl 2023.06)
