@<TRIPOS>MOLECULE
NONAME
44 45 1 0 0 
SMALL
USER_CHARGES


@<TRIPOS>ATOM
  1 CL      -0.9110     0.1010    -1.2350 Cl    1 <1>  -0.1770 
  2 C       -2.0250    -0.7460    -0.1860 C.ar  1 <1>   0.1770 
  3 C       -1.9600    -2.1260    -0.0470 C.ar  1 <1>  -0.1440 
  4 C       -2.9580     0.0150     0.4920 C.ar  1 <1>  -0.1500 
  5 C       -2.8620    -2.7650     0.8160 C.ar  1 <1>   0.0860 
  6 C       -0.9080    -2.9230    -0.8210 C.3   1 <1>  -0.0970 
  7 C       -3.8520    -0.6090     1.3410 C.ar  1 <1>  -0.1500 
  8 C       -2.8700    -4.2000     1.0300 C.2   1 <1>   0.5440 
  9 C       -3.7950    -1.9810     1.4970 C.ar  1 <1>  -0.1500 
 10 O       -1.9450    -4.7420     1.6010 O.2   1 <1>  -0.5700 
 11 N       -3.9200    -4.9710     0.5900 N.am  1 <1>  -0.6600 
 12 C       -4.9730    -4.5160    -0.3500 C.3   1 <1>   0.1400 
 13 C       -3.9800    -6.4390     0.7900 C.3   1 <1>   0.1400 
 14 C       -5.5570    -5.8070    -0.9180 C.3   1 <1>   0.2000 
 15 C       -5.3010    -6.8700     0.1470 C.3   1 <1>  -0.0800 
 16 O       -6.9150    -5.6970    -1.1640 O.3   1 <1>  -0.6800 
 17 C       -5.2860    -8.2920    -0.4380 C.3   1 <1>  -0.0550 
 18 S       -5.1290    -9.5660     0.8110 S.o2  1 <1>   1.3330 
 19 O       -6.2820    -9.4740     1.6780 O.2   1 <1>  -0.6500 
 20 O       -3.8000    -9.5120     1.3760 O.2   1 <1>  -0.6500 
 21 N       -5.2520   -10.9970    -0.0940 N.am  1 <1>  -0.8490 
 22 C       -3.9800   -11.4210    -0.6900 C.3   1 <1>   0.1160 
 23 C       -5.8290   -12.0980     0.6830 C.3   1 <1>   0.1160 
 24 H       -2.9780     1.0820     0.3560 H     1 <1>   0.1500 
 25 H       -1.1880    -3.9550    -0.9320 H     1 <1>   0.0800 
 26 H        0.0300    -2.8820    -0.2970 H     1 <1>   0.0800 
 27 H       -0.7690    -2.5210    -1.8080 H     1 <1>   0.0800 
 28 H       -4.5820    -0.0280     1.8790 H     1 <1>   0.1500 
 29 H       -4.4850    -2.4660     2.1670 H     1 <1>   0.1500 
 30 H       -5.7180    -3.9640     0.1960 H     1 <1>   0.0800 
 31 H       -4.5520    -3.9070    -1.1310 H     1 <1>   0.0800 
 32 H       -3.1350    -6.8930     0.2990 H     1 <1>   0.0800 
 33 H       -3.9480    -6.6800     1.8400 H     1 <1>   0.0800 
 34 H       -5.0630    -6.0510    -1.8440 H     1 <1>   0.0800 
 35 H       -6.0620    -6.8040     0.9060 H     1 <1>   0.0800 
 36 H       -7.4060    -5.5540    -0.3310 H     1 <1>   0.4000 
 37 H       -4.4840    -8.3800    -1.1440 H     1 <1>   0.0800 
 38 H       -6.2060    -8.4500    -0.9680 H     1 <1>   0.0800 
 39 H       -4.1360   -12.2780    -1.3230 H     1 <1>   0.0800 
 40 H       -3.2700   -11.6780     0.0790 H     1 <1>   0.0800 
 41 H       -3.5680   -10.6280    -1.2890 H     1 <1>   0.0800 
 42 H       -5.9070   -12.9840     0.0760 H     1 <1>   0.0800 
 43 H       -6.8180   -11.8340     1.0190 H     1 <1>   0.0800 
 44 H       -5.2170   -12.3100     1.5440 H     1 <1>   0.0800 
@<TRIPOS>BOND
  1   1   2  1   
  2   2   3  ar  
  3   2   4  ar  
  4   3   5  ar  
  5   3   6  1   
  6   4   7  ar  
  7   4  24  1   
  8   5   8  1   
  9   5   9  ar  
 10   6  25  1   
 11   6  26  1   
 12   6  27  1   
 13   7   9  ar  
 14   7  28  1   
 15   8  10  2   
 16   8  11  am  
 17   9  29  1   
 18  11  12  1   
 19  11  13  1   
 20  12  14  1   
 21  12  30  1   
 22  12  31  1   
 23  13  15  1   
 24  13  32  1   
 25  13  33  1   
 26  14  15  1   
 27  14  16  1   
 28  14  34  1   
 29  15  17  1   
 30  15  35  1   
 31  16  36  1   
 32  17  18  1   
 33  17  37  1   
 34  17  38  1   
 35  18  19  2   
 36  18  20  2   
 37  18  21  am  
 38  21  22  1   
 39  21  23  1   
 40  22  39  1   
 41  22  40  1   
 42  22  41  1   
 43  23  42  1   
 44  23  43  1   
 45  23  44  1   
@<TRIPOS>SUBSTRUCTURE
  1 ****  11 GROUP 4 **** **** 0

# MOE 2024.06 (io_trps.svl 2023.06)
