@<TRIPOS>MOLECULE
NONAME
47 48 1 0 0 
SMALL
USER_CHARGES


@<TRIPOS>ATOM
  1 F        0.9900    -1.3380     2.1750 F     1 <1>  -0.1900 
  2 C        0.6260    -2.5270     1.7740 C.ar  1 <1>   0.1900 
  3 C        1.5480    -3.3210     1.1180 C.ar  1 <1>  -0.1500 
  4 C       -0.6670    -2.9470     2.0220 C.ar  1 <1>  -0.1500 
  5 C        1.1550    -4.5790     0.6970 C.ar  1 <1>  -0.1500 
  6 C       -1.0530    -4.2090     1.5970 C.ar  1 <1>  -0.1500 
  7 C       -0.1400    -5.0280     0.9300 C.ar  1 <1>   0.0830 
  8 O       -0.4380    -6.2730     0.4790 O.3   1 <1>  -0.3630 
  9 C       -1.7500    -6.7830     0.5640 C.3   1 <1>   0.1200 
 10 C       -1.7480    -8.1950    -0.0260 C.3   1 <1>   0.3430 
 11 N       -3.1290    -8.7280    -0.0990 N.4   1 <1>  -0.9590 
 12 C       -3.2260   -10.2270     0.0530 C.3   1 <1>   0.3430 
 13 C       -3.9570    -8.2340    -1.2290 C.3   1 <1>   0.3430 
 14 C       -4.6520   -10.7650    -0.2430 C.3   1 <1>   0.2000 
 15 C       -5.4480    -8.4770    -0.9230 C.3   1 <1>  -0.1600 
 16 O       -4.7180   -11.1450    -1.5850 O.3   1 <1>  -0.6800 
 17 C       -5.7150    -9.6770     0.0450 C.3   1 <1>  -0.1060 
 18 C       -5.4560    -9.2980     1.5160 C.2   1 <1>   0.9060 
 19 C       -7.1560   -10.2280    -0.1410 C.3   1 <1>  -0.1600 
 20 O       -4.9780    -8.1820     1.7750 O.co2 1 <1>  -0.9000 
 21 O       -5.4880   -10.1890     2.3630 O.co2 1 <1>  -0.9000 
 22 C       -8.2540    -9.2140     0.2190 C.3   1 <1>  -0.1600 
 23 C       -9.6450    -9.8280     0.0390 C.3   1 <1>  -0.2400 
 24 H        2.5450    -2.9590     0.9450 H     1 <1>   0.1500 
 25 H       -1.3520    -2.2990     2.5380 H     1 <1>   0.1500 
 26 H        1.8510    -5.2190     0.1840 H     1 <1>   0.1500 
 27 H       -2.0580    -4.5290     1.7980 H     1 <1>   0.1500 
 28 H       -2.0420    -6.8140     1.6000 H     1 <1>   0.0800 
 29 H       -2.3980    -6.1310     0.0060 H     1 <1>   0.0800 
 30 H       -1.1540    -8.8260     0.6140 H     1 <1>   0.0800 
 31 H       -1.3100    -8.1830    -1.0090 H     1 <1>   0.0800 
 32 H       -3.6450    -8.3670     0.7490 H     1 <1>   0.4500 
 33 H       -2.5250   -10.7230    -0.5960 H     1 <1>   0.0800 
 34 H       -2.9840   -10.4780     1.0740 H     1 <1>   0.0800 
 35 H       -3.7910    -7.1830    -1.3920 H     1 <1>   0.0800 
 36 H       -3.6860    -8.7710    -2.1230 H     1 <1>   0.0800 
 37 H       -4.8300   -11.6450     0.3530 H     1 <1>   0.0800 
 38 H       -5.8700    -7.5780    -0.5100 H     1 <1>   0.0800 
 39 H       -5.9440    -8.6450    -1.8620 H     1 <1>   0.0800 
 40 H       -5.5980   -11.5330    -1.7640 H     1 <1>   0.4000 
 41 H       -7.3010   -10.5460    -1.1580 H     1 <1>   0.0800 
 42 H       -7.2750   -11.0930     0.4920 H     1 <1>   0.0800 
 43 H       -8.1420    -8.9050     1.2460 H     1 <1>   0.0800 
 44 H       -8.1770    -8.3400    -0.4020 H     1 <1>   0.0800 
 45 H       -9.7590   -10.6880     0.6760 H     1 <1>   0.0800 
 46 H       -9.7980   -10.1280    -0.9830 H     1 <1>   0.0800 
 47 H      -10.4000    -9.1080     0.3020 H     1 <1>   0.0800 
@<TRIPOS>BOND
  1   1   2  1   
  2   2   3  ar  
  3   2   4  ar  
  4   3   5  ar  
  5   3  24  1   
  6   4   6  ar  
  7   4  25  1   
  8   5   7  ar  
  9   5  26  1   
 10   6   7  ar  
 11   6  27  1   
 12   7   8  1   
 13   8   9  1   
 14   9  10  1   
 15   9  28  1   
 16   9  29  1   
 17  10  11  1   
 18  10  30  1   
 19  10  31  1   
 20  11  12  1   
 21  11  13  1   
 22  11  32  1   
 23  12  14  1   
 24  12  33  1   
 25  12  34  1   
 26  13  15  1   
 27  13  35  1   
 28  13  36  1   
 29  14  16  1   
 30  14  17  1   
 31  14  37  1   
 32  15  17  1   
 33  15  38  1   
 34  15  39  1   
 35  16  40  1   
 36  17  18  1   
 37  17  19  1   
 38  18  20  ar  
 39  18  21  ar  
 40  19  22  1   
 41  19  41  1   
 42  19  42  1   
 43  22  23  1   
 44  22  43  1   
 45  22  44  1   
 46  23  45  1   
 47  23  46  1   
 48  23  47  1   
@<TRIPOS>SUBSTRUCTURE
  1 ****  11 GROUP 4 **** **** 0

# MOE 2024.06 (io_trps.svl 2023.06)
