@<TRIPOS>MOLECULE
NONAME
43 45 1 0 0 
SMALL
USER_CHARGES


@<TRIPOS>ATOM
  1 F       -0.0460    -1.0040     0.8830 F     1 <1>  -0.1900 
  2 C       -1.3110    -1.2450     0.6670 C.ar  1 <1>   0.1900 
  3 C       -2.1880    -0.1850     0.4300 C.ar  1 <1>   0.0860 
  4 C       -1.6960    -2.5700     0.6660 C.ar  1 <1>  -0.1500 
  5 C       -3.5200    -0.5310     0.1480 C.ar  1 <1>   0.0830 
  6 C       -1.7340     1.1870     0.4710 C.2   1 <1>   0.5440 
  7 C       -3.0160    -2.8840     0.4040 C.ar  1 <1>  -0.1500 
  8 O       -4.3980     0.4690    -0.1190 O.3   1 <1>  -0.3630 
  9 C       -3.9190    -1.8690     0.1420 C.ar  1 <1>  -0.1500 
 10 O       -1.0360     1.5880     1.3830 O.2   1 <1>  -0.5700 
 11 N       -2.1050     2.0550    -0.5260 N.am  1 <1>  -0.4940 
 12 C       -5.7930     0.2620    -0.1910 C.3   1 <1>   0.0400 
 13 C       -1.7700     3.4140    -0.7390 C.2   1 <1>  -0.0880 
 14 N       -0.5350     3.9920    -0.6490 N.pl3 1 <1>   0.3140 
 15 C       -2.6300     4.3950    -1.0990 C.2   1 <1>  -0.1810 
 16 N       -0.6020     5.3190    -0.9500 N.2   1 <1>  -0.7070 
 17 C        0.7670     3.3100    -0.3600 C.3   1 <1>   0.1760 
 18 C       -1.8510     5.5400    -1.2100 C.2   1 <1>   0.1390 
 19 C       -4.1270     4.3210    -1.3340 C.3   1 <1>  -0.0590 
 20 C        1.3520     3.7650     0.9910 C.3   1 <1>  -0.1600 
 21 C        1.8400     3.6360    -1.4140 C.3   1 <1>  -0.1600 
 22 C        2.7730     4.2590     0.7120 C.3   1 <1>  -0.1600 
 23 C        2.7650     4.6580    -0.7590 C.3   1 <1>  -0.1600 
 24 H       -0.9720    -3.3420     0.8640 H     1 <1>   0.1500 
 25 H       -3.3360    -3.9130     0.3990 H     1 <1>   0.1500 
 26 H       -4.9360    -2.1470    -0.0680 H     1 <1>   0.1500 
 27 H       -2.9350     1.7380    -1.0310 H     1 <1>   0.3700 
 28 H       -6.2690     1.2190    -0.3090 H     1 <1>   0.0800 
 29 H       -6.1270    -0.1980     0.7220 H     1 <1>   0.0800 
 30 H       -6.0130    -0.3610    -1.0400 H     1 <1>   0.0800 
 31 H        0.6050     2.2500    -0.3560 H     1 <1>   0.0800 
 32 H       -2.2300     6.5100    -1.4800 H     1 <1>   0.1500 
 33 H       -4.5110     3.3650    -1.0310 H     1 <1>   0.0800 
 34 H       -4.3420     4.4710    -2.3760 H     1 <1>   0.0800 
 35 H       -4.6220     5.0850    -0.7610 H     1 <1>   0.0800 
 36 H        1.3590     2.9530     1.6970 H     1 <1>   0.0800 
 37 H        0.7640     4.5710     1.3960 H     1 <1>   0.0800 
 38 H        1.4170     4.0030    -2.3330 H     1 <1>   0.0800 
 39 H        2.4020     2.7430    -1.6200 H     1 <1>   0.0800 
 40 H        3.4690     3.4510     0.8600 H     1 <1>   0.0800 
 41 H        3.0450     5.0820     1.3510 H     1 <1>   0.0800 
 42 H        2.3340     5.6410    -0.8600 H     1 <1>   0.0800 
 43 H        3.7510     4.6550    -1.1900 H     1 <1>   0.0800 
@<TRIPOS>BOND
  1   1   2  1   
  2   2   3  ar  
  3   2   4  ar  
  4   3   5  ar  
  5   3   6  1   
  6   4   7  ar  
  7   4  24  1   
  8   5   8  1   
  9   5   9  ar  
 10   6  10  2   
 11   6  11  am  
 12   7   9  ar  
 13   7  25  1   
 14   8  12  1   
 15   9  26  1   
 16  11  13  1   
 17  11  27  1   
 18  12  28  1   
 19  12  29  1   
 20  12  30  1   
 21  13  14  1   
 22  13  15  2   
 23  14  16  1   
 24  14  17  1   
 25  15  18  1   
 26  15  19  1   
 27  16  18  2   
 28  17  20  1   
 29  17  21  1   
 30  17  31  1   
 31  18  32  1   
 32  19  33  1   
 33  19  34  1   
 34  19  35  1   
 35  20  22  1   
 36  20  36  1   
 37  20  37  1   
 38  21  23  1   
 39  21  38  1   
 40  21  39  1   
 41  22  23  1   
 42  22  40  1   
 43  22  41  1   
 44  23  42  1   
 45  23  43  1   
@<TRIPOS>SUBSTRUCTURE
  1 ****  11 GROUP 4 **** **** 0

# MOE 2024.06 (io_trps.svl 2023.06)
