@<TRIPOS>MOLECULE
NONAME
54 57 1 0 0 
SMALL
USER_CHARGES


@<TRIPOS>ATOM
  1 O        3.4210    -0.3130    -0.7980 O.3   1 <1>  -0.5600 
  2 C        3.2560     1.0250    -1.1300 C.3   1 <1>   0.2000 
  3 C        2.3840    -1.1710    -1.2060 C.3   1 <1>   0.2640 
  4 C        4.5650     1.5060    -1.7440 C.3   1 <1>  -0.1600 
  5 C        2.9470     1.7990     0.1490 C.3   1 <1>  -0.1600 
  6 C        1.0670    -0.8510    -0.4990 C.ar  1 <1>   0.1660 
  7 C        4.5340     3.0110    -1.9910 C.3   1 <1>   0.3430 
  8 C        2.8940     3.2920    -0.1380 C.3   1 <1>   0.3430 
  9 N        0.2200    -0.0410    -1.1270 N.ar  1 <1>  -0.6200 
 10 C        0.8210    -1.4110     0.7460 C.ar  1 <1>  -0.1500 
 11 N        4.1810     3.7550    -0.7470 N.4   1 <1>  -0.9590 
 12 C       -0.9180     0.2010    -0.4940 C.ar  1 <1>   0.1600 
 13 C       -0.3640    -1.1410     1.3960 C.ar  1 <1>  -0.1500 
 14 C        4.1770     5.2180    -1.0080 C.3   1 <1>   0.5230 
 15 C       -1.2530    -0.3120     0.7480 C.ar  1 <1>  -0.1500 
 16 C        3.7490     5.9620     0.2370 C.2   1 <1>  -0.3320 
 17 N        4.5280     6.2890     1.2990 N.pl3 1 <1>   0.0480 
 18 C        2.5120     6.4380     0.5080 C.2   1 <1>   0.0770 
 19 C        3.6870     6.9240     2.1460 C.2   1 <1>   0.0360 
 20 C        5.9820     6.1200     1.5340 C.3   1 <1>   0.2390 
 21 N        2.4750     7.0260     1.7110 N.2   1 <1>  -0.5650 
 22 C        6.4370     4.7100     1.1890 C.ar  1 <1>  -0.1440 
 23 C        5.9660     3.6290     1.9200 C.ar  1 <1>  -0.1500 
 24 C        7.3340     4.4950     0.1520 C.ar  1 <1>  -0.1500 
 25 C        6.3850     2.3460     1.6130 C.ar  1 <1>  -0.1500 
 26 C        7.7510     3.2120    -0.1530 C.ar  1 <1>  -0.1500 
 27 C        7.2780     2.1380     0.5790 C.ar  1 <1>  -0.1500 
 28 H        2.4560     1.1360    -1.8460 H     1 <1>   0.0800 
 29 H        2.6880    -2.1740    -0.9700 H     1 <1>   0.0800 
 30 H        2.2670    -1.0950    -2.2730 H     1 <1>   0.0800 
 31 H        4.7210     1.0010    -2.6800 H     1 <1>   0.0800 
 32 H        5.3830     1.2620    -1.0940 H     1 <1>   0.0800 
 33 H        3.6930     1.5990     0.8960 H     1 <1>   0.0800 
 34 H        1.9930     1.4950     0.5380 H     1 <1>   0.0800 
 35 H        3.8040     3.2240    -2.7560 H     1 <1>   0.0800 
 36 H        5.5010     3.3300    -2.3470 H     1 <1>   0.0800 
 37 H        2.7100     3.8190     0.7850 H     1 <1>   0.0800 
 38 H        2.0770     3.4960    -0.8110 H     1 <1>   0.0800 
 39 H        1.5530    -2.0510     1.2050 H     1 <1>   0.1500 
 40 H        4.9280     3.5790    -0.0500 H     1 <1>   0.4500 
 41 H       -1.6250     0.8430    -0.9900 H     1 <1>   0.1500 
 42 H       -0.5860    -1.5600     2.3630 H     1 <1>   0.1500 
 43 H        3.4820     5.4380    -1.8020 H     1 <1>   0.0800 
 44 H        5.1570     5.5470    -1.3140 H     1 <1>   0.0800 
 45 H       -2.1980    -0.0660     1.1970 H     1 <1>   0.1500 
 46 H        1.6220     6.3910    -0.1000 H     1 <1>   0.1500 
 47 H        4.0120     7.3130     3.0960 H     1 <1>   0.1500 
 48 H        6.1940     6.3180     2.5700 H     1 <1>   0.0800 
 49 H        6.5110     6.8450     0.9420 H     1 <1>   0.0800 
 50 H        5.2800     3.7770     2.7390 H     1 <1>   0.1500 
 51 H        7.7300     5.3220    -0.4160 H     1 <1>   0.1500 
 52 H        6.0270     1.5070     2.1880 H     1 <1>   0.1500 
 53 H        8.4580     3.0460    -0.9500 H     1 <1>   0.1500 
 54 H        7.6140     1.1390     0.3520 H     1 <1>   0.1500 
@<TRIPOS>BOND
  1   1   2  1   
  2   1   3  1   
  3   2   4  1   
  4   2   5  1   
  5   2  28  1   
  6   3   6  1   
  7   3  29  1   
  8   3  30  1   
  9   4   7  1   
 10   4  31  1   
 11   4  32  1   
 12   5   8  1   
 13   5  33  1   
 14   5  34  1   
 15   6   9  ar  
 16   6  10  ar  
 17   7  11  1   
 18   7  35  1   
 19   7  36  1   
 20   8  11  1   
 21   8  37  1   
 22   8  38  1   
 23   9  12  ar  
 24  10  13  ar  
 25  10  39  1   
 26  11  14  1   
 27  11  40  1   
 28  12  15  ar  
 29  12  41  1   
 30  13  15  ar  
 31  13  42  1   
 32  14  16  1   
 33  14  43  1   
 34  14  44  1   
 35  15  45  1   
 36  16  17  1   
 37  16  18  2   
 38  17  19  1   
 39  17  20  1   
 40  18  21  1   
 41  18  46  1   
 42  19  21  2   
 43  19  47  1   
 44  20  22  1   
 45  20  48  1   
 46  20  49  1   
 47  22  23  ar  
 48  22  24  ar  
 49  23  25  ar  
 50  23  50  1   
 51  24  26  ar  
 52  24  51  1   
 53  25  27  ar  
 54  25  52  1   
 55  26  27  ar  
 56  26  53  1   
 57  27  54  1   
@<TRIPOS>SUBSTRUCTURE
  1 ****   8 GROUP 4 **** **** 0

# MOE 2024.06 (io_trps.svl 2023.06)
