@<TRIPOS>MOLECULE
NONAME
47 49 1 0 0 
SMALL
USER_CHARGES


@<TRIPOS>ATOM
  1 N       -0.4110    -0.0400    -0.3930 N.ar  1 <1>  -0.6200 
  2 C        0.6280     0.5920     0.1310 C.ar  1 <1>   0.7710 
  3 C       -1.4900     0.6590    -0.6770 C.ar  1 <1>   0.4100 
  4 N        0.6000     1.9120     0.3700 N.ar  1 <1>  -0.1790 
  5 N        1.7580    -0.1080     0.4360 N.pl3 1 <1>  -0.8380 
  6 N       -2.5480    -0.0080    -1.1910 N.pl3 1 <1>  -0.8690 
  7 C       -1.5640     2.0540    -0.4530 C.ar  1 <1>  -0.1430 
  8 C       -0.4850     2.6720     0.0960 C.ar  1 <1>   0.2170 
  9 C        2.9390     0.3820     1.2160 C.3   1 <1>   0.1290 
 10 C        1.9050    -1.5490     0.0430 C.3   1 <1>   0.1290 
 11 C       -2.6430    -1.4550    -1.4900 C.3   1 <1>   0.2090 
 12 C       -2.8330     2.8320    -0.8140 C.3   1 <1>  -0.0170 
 13 C       -0.4240     4.1640     0.4090 C.3   1 <1>  -0.0170 
 14 C       -3.7120    -2.0630    -0.5870 C.3   1 <1>  -0.1600 
 15 C       -2.6110     4.3510    -0.8330 C.3   1 <1>  -0.1600 
 16 C       -1.8160     4.8110     0.3920 C.3   1 <1>  -0.1600 
 17 C       -3.8370    -3.5730    -0.8250 C.3   1 <1>   0.0960 
 18 N       -4.9290    -4.1350    -0.0100 N.pl3 1 <1>   0.3140 
 19 N       -6.2050    -4.1240    -0.4360 N.2   1 <1>  -0.7070 
 20 C       -4.8250    -4.7010     1.2090 C.2   1 <1>  -0.3020 
 21 C       -6.8800    -4.6830     0.5210 C.2   1 <1>   0.1390 
 22 C       -6.0690    -5.0670     1.5820 C.2   1 <1>  -0.1500 
 23 H        1.4540     2.3000     0.7440 H     1 <1>   0.4570 
 24 H       -3.4130     0.5010    -1.3870 H     1 <1>   0.4000 
 25 H        2.7040     1.2560     1.7960 H     1 <1>   0.0800 
 26 H        3.7540     0.6030     0.5470 H     1 <1>   0.0800 
 27 H        3.2640    -0.3840     1.9020 H     1 <1>   0.0800 
 28 H        1.2870    -1.7920    -0.8050 H     1 <1>   0.0800 
 29 H        1.6220    -2.1820     0.8670 H     1 <1>   0.0800 
 30 H        2.9260    -1.7610    -0.2250 H     1 <1>   0.0800 
 31 H       -1.6980    -1.9430    -1.3220 H     1 <1>   0.0800 
 32 H       -2.9110    -1.5850    -2.5250 H     1 <1>   0.0800 
 33 H       -3.5980     2.5950    -0.0940 H     1 <1>   0.0800 
 34 H       -3.1890     2.5330    -1.7850 H     1 <1>   0.0800 
 35 H        0.1950     4.6470    -0.3270 H     1 <1>   0.0800 
 36 H        0.0170     4.3260     1.3770 H     1 <1>   0.0800 
 37 H       -4.6590    -1.5970    -0.7950 H     1 <1>   0.0800 
 38 H       -3.4480    -1.8880     0.4410 H     1 <1>   0.0800 
 39 H       -3.5650     4.8510    -0.8570 H     1 <1>   0.0800 
 40 H       -2.0790     4.6250    -1.7290 H     1 <1>   0.0800 
 41 H       -1.7170     5.8840     0.3830 H     1 <1>   0.0800 
 42 H       -2.3530     4.5400     1.2860 H     1 <1>   0.0800 
 43 H       -2.9230    -4.0750    -0.5690 H     1 <1>   0.0800 
 44 H       -4.0630    -3.7700    -1.8580 H     1 <1>   0.0800 
 45 H       -3.8930    -4.8080     1.7320 H     1 <1>   0.1500 
 46 H       -7.9470    -4.8280     0.4870 H     1 <1>   0.1500 
 47 H       -6.3920    -5.5480     2.4870 H     1 <1>   0.1500 
@<TRIPOS>BOND
  1   1   2  ar  
  2   1   3  ar  
  3   2   4  ar  
  4   2   5  1   
  5   3   6  1   
  6   3   7  ar  
  7   4   8  ar  
  8   4  23  1   
  9   5   9  1   
 10   5  10  1   
 11   6  11  1   
 12   6  24  1   
 13   7   8  ar  
 14   7  12  1   
 15   8  13  1   
 16   9  25  1   
 17   9  26  1   
 18   9  27  1   
 19  10  28  1   
 20  10  29  1   
 21  10  30  1   
 22  11  14  1   
 23  11  31  1   
 24  11  32  1   
 25  12  15  1   
 26  12  33  1   
 27  12  34  1   
 28  13  16  1   
 29  13  35  1   
 30  13  36  1   
 31  14  17  1   
 32  14  37  1   
 33  14  38  1   
 34  15  16  1   
 35  15  39  1   
 36  15  40  1   
 37  16  41  1   
 38  16  42  1   
 39  17  18  1   
 40  17  43  1   
 41  17  44  1   
 42  18  19  1   
 43  18  20  1   
 44  19  21  2   
 45  20  22  2   
 46  20  45  1   
 47  21  22  1   
 48  21  46  1   
 49  22  47  1   
@<TRIPOS>SUBSTRUCTURE
  1 ****   6 GROUP 4 **** **** 0

# MOE 2024.06 (io_trps.svl 2023.06)
