@<TRIPOS>MOLECULE
NONAME
38 40 1 0 0 
SMALL
USER_CHARGES


@<TRIPOS>ATOM
  1 O        1.8980     0.4940     1.7880 O.3   1 <1>  -0.6800 
  2 C        1.7950    -0.1860     0.5780 C.3   1 <1>   0.2000 
  3 C        2.5350    -1.5170     0.7100 C.3   1 <1>  -0.0800 
  4 C        2.6100     0.5660    -0.4770 C.3   1 <1>   0.3430 
  5 C        4.0010    -1.1860     0.3590 C.3   1 <1>   0.3430 
  6 C        1.9420    -2.5910    -0.2290 C.3   1 <1>  -0.0170 
  7 N        4.0380     0.2000    -0.2110 N.4   1 <1>  -0.9590 
  8 C        2.5600    -3.9660    -0.0030 C.ar  1 <1>   0.1670 
  9 C        4.6880     1.1370     0.7590 C.3   1 <1>   0.4860 
 10 N        3.8330    -4.1010    -0.3380 N.ar  1 <1>  -0.6200 
 11 C        1.7890    -5.0030     0.5240 C.ar  1 <1>   0.1600 
 12 C        4.6490     2.5530     0.2330 C.ar  1 <1>  -0.1440 
 13 C        4.2770    -5.3310    -0.1220 C.ar  1 <1>   0.1600 
 14 N        2.2360    -6.2250     0.7500 N.ar  1 <1>  -0.6200 
 15 C        3.7460     3.4660     0.7310 C.ar  1 <1>   0.1600 
 16 C        5.5030     2.9920    -0.7530 C.ar  1 <1>   0.1600 
 17 C        3.5040    -6.3580     0.4050 C.ar  1 <1>   0.1600 
 18 N        3.6750     4.6950     0.2770 N.ar  1 <1>  -0.6200 
 19 N        5.4540     4.2160    -1.2240 N.ar  1 <1>  -0.6200 
 20 C        4.5400     5.0030    -0.6770 C.ar  1 <1>   0.4700 
 21 H        1.2430     0.1600     2.4400 H     1 <1>   0.4000 
 22 H        0.7540    -0.2720     0.3160 H     1 <1>   0.0800 
 23 H        2.4740    -1.8900     1.7190 H     1 <1>   0.0800 
 24 H        2.4310     1.6280    -0.4290 H     1 <1>   0.0800 
 25 H        2.3260     0.2110    -1.4530 H     1 <1>   0.0800 
 26 H        4.3810    -1.8860    -0.3660 H     1 <1>   0.0800 
 27 H        4.6130    -1.2510     1.2440 H     1 <1>   0.0800 
 28 H        2.0900    -2.3170    -1.2590 H     1 <1>   0.0800 
 29 H        0.8800    -2.6580    -0.0650 H     1 <1>   0.0800 
 30 H        4.5690     0.2120    -1.0920 H     1 <1>   0.4500 
 31 H        4.1750     1.0960     1.7070 H     1 <1>   0.0800 
 32 H        5.7120     0.8450     0.9220 H     1 <1>   0.0800 
 33 H        0.7580    -4.8210     0.7710 H     1 <1>   0.1500 
 34 H        5.3020    -5.5420    -0.3740 H     1 <1>   0.1500 
 35 H        3.0580     3.1890     1.5160 H     1 <1>   0.1500 
 36 H        6.2460     2.3360    -1.1750 H     1 <1>   0.1500 
 37 H        3.9530    -7.3260     0.5460 H     1 <1>   0.1500 
 38 H        4.4940     6.0130    -1.0540 H     1 <1>   0.1500 
@<TRIPOS>BOND
  1   1   2  1   
  2   1  21  1   
  3   2   3  1   
  4   2   4  1   
  5   2  22  1   
  6   3   5  1   
  7   3   6  1   
  8   3  23  1   
  9   4   7  1   
 10   4  24  1   
 11   4  25  1   
 12   5   7  1   
 13   5  26  1   
 14   5  27  1   
 15   6   8  1   
 16   6  28  1   
 17   6  29  1   
 18   7   9  1   
 19   7  30  1   
 20   8  10  ar  
 21   8  11  ar  
 22   9  12  1   
 23   9  31  1   
 24   9  32  1   
 25  10  13  ar  
 26  11  14  ar  
 27  11  33  1   
 28  12  15  ar  
 29  12  16  ar  
 30  13  17  ar  
 31  13  34  1   
 32  14  17  ar  
 33  15  18  ar  
 34  15  35  1   
 35  16  19  ar  
 36  16  36  1   
 37  17  37  1   
 38  18  20  ar  
 39  19  20  ar  
 40  20  38  1   
@<TRIPOS>SUBSTRUCTURE
  1 ****   5 GROUP 4 **** **** 0

# MOE 2024.06 (io_trps.svl 2023.06)
