@<TRIPOS>MOLECULE
NONAME
54 57 1 0 0 
SMALL
USER_CHARGES


@<TRIPOS>ATOM
  1 S       -0.7160     2.3940    -0.0110 S.3   1 <1>  -0.0800 
  2 C        0.9960     2.0190    -0.0980 C.2   1 <1>  -0.1100 
  3 C       -0.4030     3.7790     1.0200 C.2   1 <1>  -0.1100 
  4 C        1.7180     2.9050     0.6140 C.2   1 <1>  -0.1810 
  5 C        0.9160     3.9090     1.2530 C.2   1 <1>  -0.1500 
  6 C        3.2260     2.9070     0.7640 C.3   1 <1>   0.3210 
  7 N        3.7310     4.1190     0.1020 N.am  1 <1>  -0.7300 
  8 C        4.6370     4.9740     0.6380 C.2   1 <1>   0.5690 
  9 O        5.2200     4.6860     1.6560 O.2   1 <1>  -0.5700 
 10 C        4.9660     6.3020    -0.0610 C.3   1 <1>   0.0610 
 11 C        5.0370     7.4540     0.9800 C.3   1 <1>   0.2200 
 12 C        3.8470     6.8390    -1.0160 C.3   1 <1>  -0.1600 
 13 C        6.3190     6.0620    -0.7950 C.3   1 <1>  -0.0160 
 14 N        4.7540     8.6060     0.1410 N.am  1 <1>  -0.6600 
 15 C        3.7750     7.5120     1.8640 C.3   1 <1>  -0.1600 
 16 C        3.4800     8.2020    -0.4160 C.3   1 <1>   0.2200 
 17 C        6.8810     7.1770    -1.6770 C.ar  1 <1>  -0.1430 
 18 C        5.3730     9.8240     0.1540 C.2   1 <1>   0.5690 
 19 C        2.6870     7.9810     0.8770 C.3   1 <1>  -0.1600 
 20 C        6.6200     7.2090    -3.0390 C.ar  1 <1>  -0.1500 
 21 C        7.6910     8.1590    -1.1270 C.ar  1 <1>  -0.1500 
 22 O        6.2540    10.0710     0.9480 O.2   1 <1>  -0.5700 
 23 C        5.0070    10.8910    -0.8790 C.3   1 <1>   0.1810 
 24 C        7.1380     8.2180    -3.8320 C.ar  1 <1>  -0.1500 
 25 C        8.2090     9.1700    -1.9160 C.ar  1 <1>  -0.1500 
 26 O        3.6580    11.2900    -0.8050 O.3   1 <1>  -0.5600 
 27 C        7.9320     9.2020    -3.2710 C.ar  1 <1>  -0.1500 
 28 C        3.3240    12.3060    -1.6930 C.3   1 <1>   0.0400 
 29 H        1.2790     1.1620    -0.6840 H     1 <1>   0.1500 
 30 H       -1.2510     4.3540     1.3470 H     1 <1>   0.1500 
 31 H        1.3690     4.6770     1.8560 H     1 <1>   0.1500 
 32 H        3.6510     2.0380     0.2920 H     1 <1>   0.0800 
 33 H        3.4950     2.9020     1.8070 H     1 <1>   0.0800 
 34 H        3.2270     4.3630    -0.7500 H     1 <1>   0.3700 
 35 H        5.9650     7.5230     1.5230 H     1 <1>   0.0800 
 36 H        2.9700     6.2240    -1.0700 H     1 <1>   0.0800 
 37 H        4.2030     6.9870    -2.0150 H     1 <1>   0.0800 
 38 H        7.0630     5.8200    -0.0560 H     1 <1>   0.0800 
 39 H        6.2160     5.1840    -1.4090 H     1 <1>   0.0800 
 40 H        3.5340     6.5800     2.3410 H     1 <1>   0.0800 
 41 H        3.9230     8.2530     2.6300 H     1 <1>   0.0800 
 42 H        3.0390     8.9010    -1.1070 H     1 <1>   0.0800 
 43 H        2.2580     8.9130     1.2030 H     1 <1>   0.0800 
 44 H        1.9030     7.2560     0.7510 H     1 <1>   0.0800 
 45 H        6.0130     6.4460    -3.4920 H     1 <1>   0.1500 
 46 H        7.9130     8.1500    -0.0730 H     1 <1>   0.1500 
 47 H        5.1960    10.4970    -1.8600 H     1 <1>   0.0800 
 48 H        5.6270    11.7540    -0.7160 H     1 <1>   0.0800 
 49 H        6.9270     8.2360    -4.8870 H     1 <1>   0.1500 
 50 H        8.8270     9.9290    -1.4690 H     1 <1>   0.1500 
 51 H        8.3370     9.9870    -3.8850 H     1 <1>   0.1500 
 52 H        2.2800    12.5310    -1.5660 H     1 <1>   0.0800 
 53 H        3.5040    11.9710    -2.7000 H     1 <1>   0.0800 
 54 H        3.9120    13.1790    -1.4710 H     1 <1>   0.0800 
@<TRIPOS>BOND
  1   1   2  1   
  2   1   3  1   
  3   2   4  2   
  4   2  29  1   
  5   3   5  2   
  6   3  30  1   
  7   4   5  1   
  8   4   6  1   
  9   5  31  1   
 10   6   7  1   
 11   6  32  1   
 12   6  33  1   
 13   7   8  am  
 14   7  34  1   
 15   8   9  2   
 16   8  10  1   
 17  10  11  1   
 18  10  12  1   
 19  10  13  1   
 20  11  14  1   
 21  11  15  1   
 22  11  35  1   
 23  12  16  1   
 24  12  36  1   
 25  12  37  1   
 26  13  17  1   
 27  13  38  1   
 28  13  39  1   
 29  14  16  1   
 30  14  18  am  
 31  15  19  1   
 32  15  40  1   
 33  15  41  1   
 34  16  19  1   
 35  16  42  1   
 36  17  20  ar  
 37  17  21  ar  
 38  18  22  2   
 39  18  23  1   
 40  19  43  1   
 41  19  44  1   
 42  20  24  ar  
 43  20  45  1   
 44  21  25  ar  
 45  21  46  1   
 46  23  26  1   
 47  23  47  1   
 48  23  48  1   
 49  24  27  ar  
 50  24  49  1   
 51  25  27  ar  
 52  25  50  1   
 53  26  28  1   
 54  27  51  1   
 55  28  52  1   
 56  28  53  1   
 57  28  54  1   
@<TRIPOS>SUBSTRUCTURE
  1 ****  12 GROUP 4 **** **** 0

# MOE 2024.06 (io_trps.svl 2023.06)
