@<TRIPOS>MOLECULE
NONAME
53 55 1 0 0 
SMALL
USER_CHARGES


@<TRIPOS>ATOM
  1 S        1.9120     2.1920    -0.5390 S.o2  1 <1>   1.3330 
  2 O        0.6910     2.3280    -1.2930 O.2   1 <1>  -0.6500 
  3 O        2.9220     3.2180    -0.7020 O.2   1 <1>  -0.6500 
  4 N        2.6020     0.6770    -0.8360 N.am  1 <1>  -0.8490 
  5 C        1.4890     2.1480     1.2090 C.3   1 <1>  -0.0550 
  6 C        1.6100    -0.3900    -1.0330 C.3   1 <1>   0.1160 
  7 C        3.5330     0.6900    -1.9700 C.3   1 <1>   0.1160 
  8 C        0.8980     3.4480     1.8190 C.3   1 <1>  -0.0800 
  9 C       -0.3430     3.9650     1.0790 C.3   1 <1>   0.2000 
 10 C        1.8600     4.6390     1.7720 C.3   1 <1>   0.3430 
 11 O       -1.1780     4.5750     2.0080 O.3   1 <1>  -0.6800 
 12 C        0.1670     5.0190     0.0820 C.3   1 <1>   0.3430 
 13 N        1.5780     5.3200     0.4870 N.4   1 <1>  -0.9590 
 14 C        1.9210     6.7510     0.4530 C.3   1 <1>   0.5230 
 15 C        2.0240     7.1250    -1.0040 C.2   1 <1>  -0.3320 
 16 N        3.0590     6.8430    -1.8400 N.pl3 1 <1>   0.0480 
 17 C        1.1150     7.8110    -1.7320 C.2   1 <1>   0.0770 
 18 C        2.6780     7.3770    -3.0230 C.2   1 <1>   0.0360 
 19 C        4.3610     6.1520    -1.6290 C.3   1 <1>   0.2390 
 20 N        1.5250     7.9590    -2.9980 N.2   1 <1>  -0.5650 
 21 C        4.8860     6.3330    -0.2100 C.ar  1 <1>  -0.1440 
 22 C        5.0890     7.6060     0.3060 C.ar  1 <1>  -0.1500 
 23 C        5.1650     5.2280     0.5820 C.ar  1 <1>  -0.1500 
 24 C        5.5330     7.7700     1.6060 C.ar  1 <1>  -0.1500 
 25 C        5.6110     5.3920     1.8810 C.ar  1 <1>  -0.1500 
 26 C        5.7900     6.6640     2.3950 C.ar  1 <1>  -0.1500 
 27 H        0.7780     1.3590     1.3630 H     1 <1>   0.0800 
 28 H        2.3690     1.8810     1.7640 H     1 <1>   0.0800 
 29 H        2.1060    -1.3400    -1.1410 H     1 <1>   0.0800 
 30 H        1.0230    -0.2010    -1.9170 H     1 <1>   0.0800 
 31 H        0.9500    -0.4500    -0.1860 H     1 <1>   0.0800 
 32 H        3.9710    -0.2850    -2.1050 H     1 <1>   0.0800 
 33 H        4.3310     1.3910    -1.7880 H     1 <1>   0.0800 
 34 H        3.0210     0.9740    -2.8750 H     1 <1>   0.0800 
 35 H        0.6560     3.2260     2.8440 H     1 <1>   0.0800 
 36 H       -0.9130     3.1900     0.5930 H     1 <1>   0.0800 
 37 H        2.8910     4.3300     1.8360 H     1 <1>   0.0800 
 38 H        1.6410     5.3060     2.5910 H     1 <1>   0.0800 
 39 H       -0.7460     5.2890     2.5140 H     1 <1>   0.4000 
 40 H       -0.4570     5.8970     0.1160 H     1 <1>   0.0800 
 41 H        0.1550     4.6210    -0.9200 H     1 <1>   0.0800 
 42 H        2.1930     4.8770    -0.2240 H     1 <1>   0.4500 
 43 H        1.1500     7.3310     0.9340 H     1 <1>   0.0800 
 44 H        2.8530     6.9330     0.9600 H     1 <1>   0.0800 
 45 H        0.1670     8.2180    -1.4180 H     1 <1>   0.1500 
 46 H        3.2940     7.3170    -3.9050 H     1 <1>   0.1500 
 47 H        4.2350     5.1090    -1.8550 H     1 <1>   0.0800 
 48 H        5.0800     6.5550    -2.3200 H     1 <1>   0.0800 
 49 H        4.9010     8.4780    -0.3000 H     1 <1>   0.1500 
 50 H        5.0510     4.2310     0.1910 H     1 <1>   0.1500 
 51 H        5.6890     8.7600     2.0020 H     1 <1>   0.1500 
 52 H        5.8360     4.5330     2.4900 H     1 <1>   0.1500 
 53 H        6.1430     6.7940     3.4050 H     1 <1>   0.1500 
@<TRIPOS>BOND
  1   1   2  2   
  2   1   3  2   
  3   1   4  am  
  4   1   5  1   
  5   4   6  1   
  6   4   7  1   
  7   5   8  1   
  8   5  27  1   
  9   5  28  1   
 10   6  29  1   
 11   6  30  1   
 12   6  31  1   
 13   7  32  1   
 14   7  33  1   
 15   7  34  1   
 16   8   9  1   
 17   8  10  1   
 18   8  35  1   
 19   9  11  1   
 20   9  12  1   
 21   9  36  1   
 22  10  13  1   
 23  10  37  1   
 24  10  38  1   
 25  11  39  1   
 26  12  13  1   
 27  12  40  1   
 28  12  41  1   
 29  13  14  1   
 30  13  42  1   
 31  14  15  1   
 32  14  43  1   
 33  14  44  1   
 34  15  16  1   
 35  15  17  2   
 36  16  18  1   
 37  16  19  1   
 38  17  20  1   
 39  17  45  1   
 40  18  20  2   
 41  18  46  1   
 42  19  21  1   
 43  19  47  1   
 44  19  48  1   
 45  21  22  ar  
 46  21  23  ar  
 47  22  24  ar  
 48  22  49  1   
 49  23  25  ar  
 50  23  50  1   
 51  24  26  ar  
 52  24  51  1   
 53  25  26  ar  
 54  25  52  1   
 55  26  53  1   
@<TRIPOS>SUBSTRUCTURE
  1 ****  13 GROUP 4 **** **** 0

# MOE 2024.06 (io_trps.svl 2023.06)
