@<TRIPOS>MOLECULE
NONAME
47 49 1 0 0 
SMALL
USER_CHARGES


@<TRIPOS>ATOM
  1 S        0.3130     0.5700    -0.1280 S.o2  1 <1>   1.3330 
  2 O       -0.7890     1.5030    -0.1740 O.2   1 <1>  -0.6500 
  3 O        0.1560    -0.7510    -0.6950 O.2   1 <1>  -0.6500 
  4 N        0.7350     0.3810     1.5080 N.am  1 <1>  -0.8490 
  5 C        1.7650     1.3240    -0.8630 C.3   1 <1>  -0.0550 
  6 C       -0.0260    -0.6950     2.1500 C.3   1 <1>   0.1160 
  7 C        0.5950     1.6180     2.2860 C.3   1 <1>   0.1160 
  8 C        2.9890     0.3860    -0.9580 C.3   1 <1>  -0.0800 
  9 C        4.1840     0.9650    -1.7020 C.3   1 <1>   0.2200 
 10 C        3.5990    -0.0260     0.3870 C.3   1 <1>   0.1200 
 11 N        4.4250     2.3650    -1.2920 N.am  1 <1>  -0.7300 
 12 C        5.3030     0.0970    -1.1440 C.3   1 <1>   0.1200 
 13 O        4.9840    -0.0930     0.2020 O.3   1 <1>  -0.5600 
 14 C        3.9910     3.4890    -1.9260 C.2   1 <1>   0.5440 
 15 O        3.4000     3.3450    -2.9800 O.2   1 <1>  -0.5700 
 16 C        4.2160     4.8120    -1.3680 C.ar  1 <1>   0.0860 
 17 C        4.4160     5.0560     0.0010 C.ar  1 <1>   0.0820 
 18 C        4.2450     5.9180    -2.2250 C.ar  1 <1>  -0.1500 
 19 O        4.3980     4.0280     0.8940 O.3   1 <1>  -0.3630 
 20 C        4.6330     6.3590     0.4650 C.ar  1 <1>   0.0820 
 21 C        4.4690     7.2020    -1.7640 C.ar  1 <1>  -0.1500 
 22 C        4.9290     4.2510     2.1860 C.3   1 <1>   0.1200 
 23 O        4.8130     6.6240     1.7840 O.3   1 <1>  -0.3630 
 24 C        4.6660     7.4230    -0.4140 C.ar  1 <1>  -0.1500 
 25 C        4.4680     5.6130     2.7090 C.3   1 <1>   0.1200 
 26 H        1.5130     1.6370    -1.8580 H     1 <1>   0.0800 
 27 H        2.0220     2.2050    -0.3100 H     1 <1>   0.0800 
 28 H        0.2680    -0.7990     3.1800 H     1 <1>   0.0800 
 29 H        0.1650    -1.6310     1.6510 H     1 <1>   0.0800 
 30 H       -1.0830    -0.4880     2.1000 H     1 <1>   0.0800 
 31 H        0.9520     1.4640     3.2900 H     1 <1>   0.0800 
 32 H       -0.4370     1.9250     2.3240 H     1 <1>   0.0800 
 33 H        1.1730     2.4070     1.8370 H     1 <1>   0.0800 
 34 H        2.6890    -0.5130    -1.4680 H     1 <1>   0.0800 
 35 H        4.0940     0.8900    -2.7730 H     1 <1>   0.0800 
 36 H        3.2390    -0.9870     0.7120 H     1 <1>   0.0800 
 37 H        3.4120     0.7100     1.1490 H     1 <1>   0.0800 
 38 H        4.8020     2.4690    -0.3430 H     1 <1>   0.3700 
 39 H        6.2710     0.5590    -1.2290 H     1 <1>   0.0800 
 40 H        5.3120    -0.8680    -1.6210 H     1 <1>   0.0800 
 41 H        4.0890     5.7600    -3.2790 H     1 <1>   0.1500 
 42 H        4.4880     8.0290    -2.4540 H     1 <1>   0.1500 
 43 H        4.5920     3.4570     2.8280 H     1 <1>   0.0800 
 44 H        6.0030     4.2190     2.1190 H     1 <1>   0.0800 
 45 H        4.8400     8.4160    -0.0410 H     1 <1>   0.1500 
 46 H        4.9400     5.8460     3.6460 H     1 <1>   0.0800 
 47 H        3.4000     5.6270     2.8370 H     1 <1>   0.0800 
@<TRIPOS>BOND
  1   1   2  2   
  2   1   3  2   
  3   1   4  am  
  4   1   5  1   
  5   4   6  1   
  6   4   7  1   
  7   5   8  1   
  8   5  26  1   
  9   5  27  1   
 10   6  28  1   
 11   6  29  1   
 12   6  30  1   
 13   7  31  1   
 14   7  32  1   
 15   7  33  1   
 16   8   9  1   
 17   8  10  1   
 18   8  34  1   
 19   9  11  1   
 20   9  12  1   
 21   9  35  1   
 22  10  13  1   
 23  10  36  1   
 24  10  37  1   
 25  11  14  am  
 26  11  38  1   
 27  12  13  1   
 28  12  39  1   
 29  12  40  1   
 30  14  15  2   
 31  14  16  1   
 32  16  17  ar  
 33  16  18  ar  
 34  17  19  1   
 35  17  20  ar  
 36  18  21  ar  
 37  18  41  1   
 38  19  22  1   
 39  20  23  1   
 40  20  24  ar  
 41  21  24  ar  
 42  21  42  1   
 43  22  25  1   
 44  22  43  1   
 45  22  44  1   
 46  23  25  1   
 47  24  45  1   
 48  25  46  1   
 49  25  47  1   
@<TRIPOS>SUBSTRUCTURE
  1 ****  11 GROUP 4 **** **** 0

# MOE 2024.06 (io_trps.svl 2023.06)
