@<TRIPOS>MOLECULE
NONAME
40 41 1 0 0 
SMALL
USER_CHARGES


@<TRIPOS>ATOM
  1 S        0.4340    -0.0210     0.3260 S.o2  1 <1>   1.3330 
  2 O       -0.2430    -0.0550     1.6020 O.2   1 <1>  -0.6500 
  3 O        1.8780     0.0620     0.2880 O.2   1 <1>  -0.6500 
  4 N       -0.0390    -1.3800    -0.5740 N.am  1 <1>  -0.8490 
  5 C       -0.2430     1.3460    -0.6140 C.3   1 <1>  -0.0550 
  6 C       -0.2300    -2.5670     0.2650 C.3   1 <1>   0.1160 
  7 C        0.8680    -1.6920    -1.6840 C.3   1 <1>   0.1160 
  8 C       -0.0400     2.7080     0.0710 C.3   1 <1>  -0.0800 
  9 C       -0.5980     3.8650    -0.7530 C.3   1 <1>   0.2000 
 10 C        1.4250     3.0850     0.3000 C.3   1 <1>   0.2090 
 11 O       -1.9600     3.9910    -0.5210 O.3   1 <1>  -0.6800 
 12 C        0.1880     5.1000    -0.3100 C.3   1 <1>   0.2090 
 13 N        1.4500     4.5650     0.2700 N.pl3 1 <1>  -0.8380 
 14 C        2.5940     5.3310     0.3880 C.ar  1 <1>   0.4100 
 15 N        2.5000     6.6130     0.0910 N.ar  1 <1>  -0.6200 
 16 C        3.8000     4.7960     0.8060 C.ar  1 <1>  -0.1500 
 17 C        3.6030     7.3230     0.2130 C.ar  1 <1>   0.4770 
 18 C        4.8790     5.6310     0.8920 C.ar  1 <1>   0.1600 
 19 N        4.7990     6.9120     0.5940 N.ar  1 <1>  -0.6200 
 20 C        3.4900     8.7890    -0.1320 C.3   1 <1>  -0.0970 
 21 H        0.2070     1.3650    -1.5870 H     1 <1>   0.0800 
 22 H       -1.2970     1.1860    -0.7440 H     1 <1>   0.0800 
 23 H       -0.5480    -3.4020    -0.3350 H     1 <1>   0.0800 
 24 H       -0.9900    -2.3770     1.0050 H     1 <1>   0.0800 
 25 H        0.6880    -2.8210     0.7700 H     1 <1>   0.0800 
 26 H        0.4690    -2.5040    -2.2690 H     1 <1>   0.0800 
 27 H        1.8390    -1.9740    -1.3100 H     1 <1>   0.0800 
 28 H        0.9800    -0.8360    -2.3250 H     1 <1>   0.0800 
 29 H       -0.5150     2.6970     1.0370 H     1 <1>   0.0800 
 30 H       -0.4470     3.7050    -1.8070 H     1 <1>   0.0800 
 31 H        2.0510     2.7060    -0.4920 H     1 <1>   0.0800 
 32 H        1.7770     2.7140     1.2480 H     1 <1>   0.0800 
 33 H       -2.1260     4.1650     0.4260 H     1 <1>   0.4000 
 34 H       -0.3400     5.6500     0.4490 H     1 <1>   0.0800 
 35 H        0.3950     5.7390    -1.1510 H     1 <1>   0.0800 
 36 H        3.8890     3.7600     1.0570 H     1 <1>   0.1500 
 37 H        5.8340     5.2510     1.2120 H     1 <1>   0.1500 
 38 H        4.1350     9.3660     0.5020 H     1 <1>   0.0800 
 39 H        2.4780     9.1240     0.0020 H     1 <1>   0.0800 
 40 H        3.7770     8.9330    -1.1560 H     1 <1>   0.0800 
@<TRIPOS>BOND
  1   1   2  2   
  2   1   3  2   
  3   1   4  am  
  4   1   5  1   
  5   4   6  1   
  6   4   7  1   
  7   5   8  1   
  8   5  21  1   
  9   5  22  1   
 10   6  23  1   
 11   6  24  1   
 12   6  25  1   
 13   7  26  1   
 14   7  27  1   
 15   7  28  1   
 16   8   9  1   
 17   8  10  1   
 18   8  29  1   
 19   9  11  1   
 20   9  12  1   
 21   9  30  1   
 22  10  13  1   
 23  10  31  1   
 24  10  32  1   
 25  11  33  1   
 26  12  13  1   
 27  12  34  1   
 28  12  35  1   
 29  13  14  1   
 30  14  15  ar  
 31  14  16  ar  
 32  15  17  ar  
 33  16  18  ar  
 34  16  36  1   
 35  17  19  ar  
 36  17  20  1   
 37  18  19  ar  
 38  18  37  1   
 39  20  38  1   
 40  20  39  1   
 41  20  40  1   
@<TRIPOS>SUBSTRUCTURE
  1 ****  10 GROUP 4 **** **** 0

# MOE 2024.06 (io_trps.svl 2023.06)
