@<TRIPOS>MOLECULE
NONAME
31 32 1 0 0 
SMALL
USER_CHARGES


@<TRIPOS>ATOM
  1 O       -8.8380     0.2230     1.5090 O.2   1 <1>  -0.5700 
  2 C       -8.8540     0.4420     0.3260 C.2   1 <1>   0.6590 
  3 O       -9.9620     0.7520    -0.3310 O.3   1 <1>  -0.4300 
  4 C       -7.5780     0.3700    -0.5070 C.3   1 <1>  -0.0190 
  5 C      -11.2100     0.8490     0.3250 C.3   1 <1>   0.0400 
  6 C       -7.0240    -1.0780    -0.5650 C.3   1 <1>  -0.1600 
  7 C       -6.5100     1.3620     0.0110 C.3   1 <1>  -0.1600 
  8 C       -5.4990    -1.1580    -0.7460 C.3   1 <1>   0.4230 
  9 C       -5.1450     1.2590    -0.7110 C.3   1 <1>   0.4230 
 10 N       -5.0800     0.0270    -1.5310 N.4   1 <1>  -0.9060 
 11 C       -4.7420    -1.1990     0.6060 C.3   1 <1>  -0.1600 
 12 C       -3.9620     1.2080     0.2760 C.3   1 <1>  -0.1600 
 13 C       -3.5510    -0.2240     0.6880 C.3   1 <1>  -0.1600 
 14 H       -7.8370     0.6690    -1.5080 H     1 <1>   0.0800 
 15 H      -11.9600     1.1110    -0.4000 H     1 <1>   0.0800 
 16 H      -11.1480     1.6090     1.0850 H     1 <1>   0.0800 
 17 H      -11.4440    -0.1020     0.7730 H     1 <1>   0.0800 
 18 H       -7.5000    -1.5960    -1.3790 H     1 <1>   0.0800 
 19 H       -7.2980    -1.6190     0.3260 H     1 <1>   0.0800 
 20 H       -6.3800     1.1970     1.0670 H     1 <1>   0.0800 
 21 H       -6.8770     2.3690    -0.0880 H     1 <1>   0.0800 
 22 H       -5.2600    -2.0550    -1.2950 H     1 <1>   0.0800 
 23 H       -5.0290     2.1220    -1.3480 H     1 <1>   0.0800 
 24 H       -5.6690     0.1180    -2.3640 H     1 <1>   0.4500 
 25 H       -4.1100    -0.1050    -1.8330 H     1 <1>   0.4500 
 26 H       -5.4150    -0.9750     1.4160 H     1 <1>   0.0800 
 27 H       -4.3960    -2.2040     0.7770 H     1 <1>   0.0800 
 28 H       -3.1130     1.6950    -0.1720 H     1 <1>   0.0800 
 29 H       -4.2010     1.7830     1.1540 H     1 <1>   0.0800 
 30 H       -2.7700    -0.5730     0.0340 H     1 <1>   0.0800 
 31 H       -3.1470    -0.2170     1.6880 H     1 <1>   0.0800 
@<TRIPOS>BOND
  1   1   2  2   
  2   2   3  1   
  3   2   4  1   
  4   3   5  1   
  5   4   6  1   
  6   4   7  1   
  7   4  14  1   
  8   5  15  1   
  9   5  16  1   
 10   5  17  1   
 11   6   8  1   
 12   6  18  1   
 13   6  19  1   
 14   7   9  1   
 15   7  20  1   
 16   7  21  1   
 17   8  10  1   
 18   8  11  1   
 19   8  22  1   
 20   9  10  1   
 21   9  12  1   
 22   9  23  1   
 23  10  24  1   
 24  10  25  1   
 25  11  13  1   
 26  11  26  1   
 27  11  27  1   
 28  12  13  1   
 29  12  28  1   
 30  12  29  1   
 31  13  30  1   
 32  13  31  1   
@<TRIPOS>SUBSTRUCTURE
  1 ****   4 GROUP 4 **** **** 0

# MOE 2024.06 (io_trps.svl 2023.06)
