@<TRIPOS>MOLECULE
NONAME
47 50 1 0 0 
SMALL
USER_CHARGES


@<TRIPOS>ATOM
  1 O       -1.3050    -1.5060    -1.5200 O.2   1 <1>  -0.5700 
  2 C       -0.4200    -2.1620    -1.0250 C.2   1 <1>   0.5690 
  3 N       -0.6340    -3.3480    -0.3780 N.am  1 <1>  -0.6600 
  4 C        1.0070    -1.6570    -1.1080 C.3   1 <1>  -0.0990 
  5 C        0.5010    -4.0870     0.2300 C.3   1 <1>   0.1400 
  6 C       -1.9900    -3.9330    -0.2010 C.3   1 <1>   0.0600 
  7 C        1.9640    -2.7980    -1.4960 C.3   1 <1>  -0.0800 
  8 C        1.6970    -4.1190    -0.7420 C.3   1 <1>  -0.0800 
  9 C        3.4390    -2.4580    -1.2570 C.3   1 <1>  -0.1600 
 10 C        3.0170    -4.4740    -0.0480 C.3   1 <1>  -0.1600 
 11 C        4.1020    -3.7810    -0.8750 C.3   1 <1>   0.2200 
 12 N        5.3840    -3.5630    -0.1370 N.am  1 <1>  -0.6600 
 13 C        6.3780    -2.7830    -0.6970 C.2   1 <1>   0.5440 
 14 C        5.7500    -4.5650     0.9090 C.3   1 <1>   0.0600 
 15 O        6.4240    -2.6890    -1.9130 O.2   1 <1>  -0.5700 
 16 C        7.3730    -2.1140     0.1260 C.ar  1 <1>   0.0860 
 17 C        8.6690    -1.8570    -0.3620 C.ar  1 <1>  -0.1520 
 18 C        7.1180    -1.6940     1.4260 C.ar  1 <1>  -0.1500 
 19 N        9.1970    -2.1170    -1.5980 N.pl3 1 <1>   0.0330 
 20 C        9.6530    -1.2530     0.4140 C.ar  1 <1>   0.0000 
 21 C        8.0940    -1.0800     2.2150 C.ar  1 <1>  -0.1500 
 22 C       10.4980    -1.7000    -1.6060 C.2   1 <1>  -0.3020 
 23 C        9.3590    -0.8620     1.7200 C.ar  1 <1>  -0.1500 
 24 C       10.8060    -1.1730    -0.3970 C.2   1 <1>  -0.1500 
 25 H        1.0670    -0.8640    -1.8310 H     1 <1>   0.0800 
 26 H        1.2660    -1.2560    -0.1460 H     1 <1>   0.0800 
 27 H        0.7760    -3.5850     1.1420 H     1 <1>   0.0800 
 28 H        0.2040    -5.0930     0.4730 H     1 <1>   0.0800 
 29 H       -2.0310    -4.9030    -0.6640 H     1 <1>   0.0800 
 30 H       -2.7350    -3.3030    -0.6560 H     1 <1>   0.0800 
 31 H       -2.2120    -4.0270     0.8470 H     1 <1>   0.0800 
 32 H        1.8280    -2.9970    -2.5470 H     1 <1>   0.0800 
 33 H        1.4950    -4.8770    -1.4800 H     1 <1>   0.0800 
 34 H        3.5350    -1.7680    -0.4370 H     1 <1>   0.0800 
 35 H        3.8860    -2.0300    -2.1380 H     1 <1>   0.0800 
 36 H        3.1630    -5.5390    -0.0090 H     1 <1>   0.0800 
 37 H        3.0170    -4.0640     0.9470 H     1 <1>   0.0800 
 38 H        4.2960    -4.3530    -1.7680 H     1 <1>   0.0800 
 39 H        5.1930    -4.3770     1.8100 H     1 <1>   0.0800 
 40 H        6.8010    -4.5120     1.1360 H     1 <1>   0.0800 
 41 H        5.5360    -5.5580     0.5560 H     1 <1>   0.0800 
 42 H        6.1370    -1.8400     1.8420 H     1 <1>   0.1500 
 43 H        8.6490    -2.5160    -2.3740 H     1 <1>   0.2700 
 44 H        7.8480    -0.7760     3.2180 H     1 <1>   0.1500 
 45 H       11.1220    -1.8040    -2.4760 H     1 <1>   0.1500 
 46 H       10.1220    -0.3930     2.3140 H     1 <1>   0.1500 
 47 H       11.7430    -0.7550    -0.0730 H     1 <1>   0.1500 
@<TRIPOS>BOND
  1   1   2  2   
  2   2   3  am  
  3   2   4  1   
  4   3   5  1   
  5   3   6  1   
  6   4   7  1   
  7   4  25  1   
  8   4  26  1   
  9   5   8  1   
 10   5  27  1   
 11   5  28  1   
 12   6  29  1   
 13   6  30  1   
 14   6  31  1   
 15   7   8  1   
 16   7   9  1   
 17   7  32  1   
 18   8  10  1   
 19   8  33  1   
 20   9  11  1   
 21   9  34  1   
 22   9  35  1   
 23  10  11  1   
 24  10  36  1   
 25  10  37  1   
 26  11  12  1   
 27  11  38  1   
 28  12  13  am  
 29  12  14  1   
 30  13  15  2   
 31  13  16  1   
 32  14  39  1   
 33  14  40  1   
 34  14  41  1   
 35  16  17  ar  
 36  16  18  ar  
 37  17  19  1   
 38  17  20  ar  
 39  18  21  ar  
 40  18  42  1   
 41  19  22  1   
 42  19  43  1   
 43  20  23  ar  
 44  20  24  1   
 45  21  23  ar  
 46  21  44  1   
 47  22  24  2   
 48  22  45  1   
 49  23  46  1   
 50  24  47  1   
@<TRIPOS>SUBSTRUCTURE
  1 ****  12 GROUP 4 **** **** 0

# MOE 2024.06 (io_trps.svl 2023.06)
