@<TRIPOS>MOLECULE
Untitled Document
65 69 1 0 0 
SMALL
USER_CHARGES


@<TRIPOS>ATOM
  1 O        1.3810    -1.2740     1.9400 O.2   1 <1>  -0.5700 
  2 C        1.4950    -1.8800     0.9160 C.2   1 <1>   0.4480 
  3 C        0.8120    -3.2410     0.7470 C.3   1 <1>  -0.0190 
  4 C        2.3190    -1.2880    -0.2060 C.3   1 <1>   0.1570 
  5 C       -0.6550    -3.1990     0.2780 C.3   1 <1>   0.0000 
  6 C        1.4750    -4.2900    -0.1810 C.3   1 <1>  -0.1600 
  7 N        3.6960    -1.7980    -0.1360 N.pl3 1 <1>   0.3140 
  8 C       -0.9080    -4.6970     0.0540 C.3   1 <1>  -0.0800 
  9 C       -1.6640    -2.7030     1.3290 C.3   1 <1>  -0.1600 
 10 C       -0.7820    -2.3420    -1.0120 C.3   1 <1>  -0.2400 
 11 C        0.3320    -5.1840    -0.7010 C.3   1 <1>  -0.1600 
 12 N        4.2760    -2.4040    -1.1860 N.2   1 <1>  -0.7070 
 13 C        4.5400    -1.7350     0.9110 C.2   1 <1>  -0.3020 
 14 C       -2.3140    -5.0020    -0.4950 C.3   1 <1>  -0.0800 
 15 C       -3.1210    -2.9860     0.9000 C.3   1 <1>  -0.1600 
 16 C        5.4690    -2.7110    -0.7780 C.2   1 <1>   0.1390 
 17 C        5.7050    -2.3200     0.5370 C.2   1 <1>   0.0190 
 18 C       -3.3760    -4.4650     0.5040 C.3   1 <1>  -0.0800 
 19 C       -2.5040    -6.5030    -0.8090 C.3   1 <1>  -0.1600 
 20 C        6.9230    -2.5220     1.2630 C.1   1 <1>   0.5380 
 21 C       -4.7830    -4.6960    -0.1030 C.3   1 <1>  -0.0800 
 22 C       -3.8100    -7.0940    -0.2630 C.3   1 <1>  -0.1600 
 23 N        7.8970    -2.6900     1.8310 N.1   1 <1>  -0.5570 
 24 C       -5.0350    -6.1880    -0.4910 C.3   1 <1>  -0.0800 
 25 C       -5.9270    -4.1070     0.7530 C.3   1 <1>  -0.1600 
 26 C       -6.2400    -6.8090     0.2460 C.3   1 <1>  -0.1600 
 27 C       -7.2850    -4.4690     0.1370 C.3   1 <1>  -0.1600 
 28 C       -7.5360    -5.9880     0.1190 C.3   1 <1>   0.2800 
 29 O       -8.2990    -6.2970     1.2200 O.3   1 <1>  -0.6800 
 30 C       -8.3600    -6.3990    -1.1000 C.3   1 <1>  -0.2400 
 31 H        0.8080    -3.6760     1.7330 H     1 <1>   0.0800 
 32 H        2.3490    -0.2210    -0.1010 H     1 <1>   0.0800 
 33 H        1.9000    -1.5290    -1.1630 H     1 <1>   0.0800 
 34 H        1.9610    -3.8420    -1.0280 H     1 <1>   0.0800 
 35 H        2.2030    -4.8660     0.3640 H     1 <1>   0.0800 
 36 H       -0.8640    -5.1790     1.0180 H     1 <1>   0.0800 
 37 H       -1.4830    -3.2030     2.2650 H     1 <1>   0.0800 
 38 H       -1.5340    -1.6490     1.5010 H     1 <1>   0.0800 
 39 H       -1.7640    -2.3990    -1.4390 H     1 <1>   0.0800 
 40 H       -0.0900    -2.6560    -1.7720 H     1 <1>   0.0800 
 41 H       -0.5990    -1.3060    -0.7920 H     1 <1>   0.0800 
 42 H        0.5290    -6.2240    -0.5060 H     1 <1>   0.0800 
 43 H        0.2020    -5.0450    -1.7600 H     1 <1>   0.0800 
 44 H        4.2740    -1.2880     1.8530 H     1 <1>   0.1500 
 45 H       -2.4400    -4.4810    -1.4260 H     1 <1>   0.0800 
 46 H       -3.3880    -2.3450     0.0800 H     1 <1>   0.0800 
 47 H       -3.7590    -2.7240     1.7260 H     1 <1>   0.0800 
 48 H        6.1940    -3.2150    -1.3970 H     1 <1>   0.1500 
 49 H       -3.3030    -5.0370     1.4130 H     1 <1>   0.0800 
 50 H       -2.4820    -6.6330    -1.8780 H     1 <1>   0.0800 
 51 H       -1.6930    -7.0820    -0.4040 H     1 <1>   0.0800 
 52 H       -4.7990    -4.1450    -1.0280 H     1 <1>   0.0800 
 53 H       -3.6880    -7.2610     0.7940 H     1 <1>   0.0800 
 54 H       -3.9810    -8.0560    -0.7160 H     1 <1>   0.0800 
 55 H       -5.2560    -6.2090    -1.5450 H     1 <1>   0.0800 
 56 H       -5.8720    -4.4820     1.7610 H     1 <1>   0.0800 
 57 H       -5.8470    -3.0350     0.7920 H     1 <1>   0.0800 
 58 H       -5.9830    -6.8840     1.2890 H     1 <1>   0.0800 
 59 H       -6.4100    -7.8080    -0.1140 H     1 <1>   0.0800 
 60 H       -7.2850    -4.1000    -0.8740 H     1 <1>   0.0800 
 61 H       -8.0750    -3.9590     0.6590 H     1 <1>   0.0800 
 62 H       -9.1450    -5.8200     1.1690 H     1 <1>   0.4000 
 63 H       -7.7930    -6.2320    -1.9980 H     1 <1>   0.0800 
 64 H       -9.2650    -5.8220    -1.1610 H     1 <1>   0.0800 
 65 H       -8.6080    -7.4440    -1.0500 H     1 <1>   0.0800 
@<TRIPOS>BOND
  1   1   2  2   
  2   2   3  1   
  3   2   4  1   
  4   3   5  1   
  5   3   6  1   
  6   3  31  1   
  7   4   7  1   
  8   4  32  1   
  9   4  33  1   
 10   5   8  1   
 11   5   9  1   
 12   5  10  1   
 13   6  11  1   
 14   6  34  1   
 15   6  35  1   
 16   7  12  1   
 17   7  13  1   
 18   8  11  1   
 19   8  14  1   
 20   8  36  1   
 21   9  15  1   
 22   9  37  1   
 23   9  38  1   
 24  10  39  1   
 25  10  40  1   
 26  10  41  1   
 27  11  42  1   
 28  11  43  1   
 29  12  16  2   
 30  13  17  2   
 31  13  44  1   
 32  14  18  1   
 33  14  19  1   
 34  14  45  1   
 35  15  18  1   
 36  15  46  1   
 37  15  47  1   
 38  16  17  1   
 39  16  48  1   
 40  17  20  1   
 41  18  21  1   
 42  18  49  1   
 43  19  22  1   
 44  19  50  1   
 45  19  51  1   
 46  20  23  3   
 47  21  24  1   
 48  21  25  1   
 49  21  52  1   
 50  22  24  1   
 51  22  53  1   
 52  22  54  1   
 53  24  26  1   
 54  24  55  1   
 55  25  27  1   
 56  25  56  1   
 57  25  57  1   
 58  26  28  1   
 59  26  58  1   
 60  26  59  1   
 61  27  28  1   
 62  27  60  1   
 63  27  61  1   
 64  28  29  1   
 65  28  30  1   
 66  29  62  1   
 67  30  63  1   
 68  30  64  1   
 69  30  65  1   
@<TRIPOS>SUBSTRUCTURE
  1 ****   5 GROUP 4 **** **** 0

# MOE 2024.06 (io_trps.svl 2023.06)
