@<TRIPOS>MOLECULE
NONAME
52 55 1 0 0 
SMALL
USER_CHARGES


@<TRIPOS>ATOM
  1 O       -1.4360     0.2070     0.5150 O.3   1 <1>  -0.2800 
  2 C       -2.0070    -0.1500     1.6520 C.2   1 <1>  -0.0400 
  3 C       -0.5830     1.1760     0.7790 C.2   1 <1>  -0.0400 
  4 C       -1.5290     0.5910     2.6740 C.2   1 <1>  -0.1500 
  5 C       -3.0560    -1.2410     1.6080 C.3   1 <1>   0.5230 
  6 C       -0.5940     1.4610     2.1000 C.2   1 <1>  -0.1500 
  7 C        0.2130     1.7630    -0.3760 C.3   1 <1>   0.0200 
  8 N       -4.0020    -0.8930     0.5170 N.4   1 <1>  -0.9590 
  9 C        1.1350     2.9080     0.0640 C.3   1 <1>  -0.1600 
 10 C       -4.7900     0.3400     0.8560 C.3   1 <1>   0.3430 
 11 C       -4.8800    -2.0240     0.1140 C.3   1 <1>   0.3430 
 12 C        1.9170     3.4870    -1.1190 C.3   1 <1>  -0.2400 
 13 C       -5.6220     0.8230    -0.3430 C.3   1 <1>   0.1430 
 14 C       -5.7030    -1.6170    -1.1130 C.3   1 <1>  -0.1600 
 15 C       -6.4780     1.9810     0.1100 C.ar  1 <1>   0.1670 
 16 C       -6.5070    -0.3240    -0.8750 C.3   1 <1>  -0.1600 
 17 C       -4.7520     1.4630    -1.4590 C.3   1 <1>  -0.1600 
 18 N       -7.2040     1.9850     1.2030 N.ar  1 <1>  -0.6200 
 19 C       -6.3980     3.0370    -0.7450 C.ar  1 <1>  -0.1430 
 20 C       -5.4770     2.7490    -1.9040 C.3   1 <1>  -0.0170 
 21 C       -7.8760     3.1130     1.4010 C.ar  1 <1>   0.4770 
 22 C       -7.1310     4.1570    -0.4400 C.ar  1 <1>   0.1600 
 23 N       -7.8780     4.2020     0.6440 N.ar  1 <1>  -0.6200 
 24 C       -8.7380     3.1760     2.6380 C.3   1 <1>  -0.0970 
 25 H       -1.7760     0.5660     3.7220 H     1 <1>   0.1500 
 26 H       -3.5670    -1.3150     2.5540 H     1 <1>   0.0800 
 27 H       -2.5730    -2.1800     1.3930 H     1 <1>   0.0800 
 28 H       -0.0170     2.1940     2.6370 H     1 <1>   0.1500 
 29 H       -0.4740     2.1240    -1.1200 H     1 <1>   0.0800 
 30 H        0.8030     0.9790    -0.8190 H     1 <1>   0.0800 
 31 H       -3.3870    -0.6430    -0.2720 H     1 <1>   0.4500 
 32 H        1.8300     2.5450     0.8020 H     1 <1>   0.0800 
 33 H        0.5460     3.6890     0.5140 H     1 <1>   0.0800 
 34 H       -4.1290     1.1360     1.1610 H     1 <1>   0.0800 
 35 H       -5.4590     0.1320     1.6750 H     1 <1>   0.0800 
 36 H       -5.5450    -2.2770     0.9240 H     1 <1>   0.0800 
 37 H       -4.2850    -2.8920    -0.1240 H     1 <1>   0.0800 
 38 H        2.5340     2.7300    -1.5720 H     1 <1>   0.0800 
 39 H        2.5540     4.2860    -0.7820 H     1 <1>   0.0800 
 40 H        1.2460     3.8790    -1.8630 H     1 <1>   0.0800 
 41 H       -6.3850    -2.4150    -1.3520 H     1 <1>   0.0800 
 42 H       -5.0480    -1.5000    -1.9580 H     1 <1>   0.0800 
 43 H       -6.9980    -0.0200    -1.7850 H     1 <1>   0.0800 
 44 H       -7.2800    -0.5280    -0.1520 H     1 <1>   0.0800 
 45 H       -4.5870     0.8060    -2.2940 H     1 <1>   0.0800 
 46 H       -3.7940     1.7470    -1.0550 H     1 <1>   0.0800 
 47 H       -6.0600     2.5730    -2.7920 H     1 <1>   0.0800 
 48 H       -4.7870     3.5570    -2.0750 H     1 <1>   0.0800 
 49 H       -7.1070     5.0220    -1.0810 H     1 <1>   0.1500 
 50 H       -8.8760     2.1950     3.0540 H     1 <1>   0.0800 
 51 H       -9.6990     3.5850     2.3880 H     1 <1>   0.0800 
 52 H       -8.2680     3.8070     3.3680 H     1 <1>   0.0800 
@<TRIPOS>BOND
  1   1   2  1   
  2   1   3  1   
  3   2   4  2   
  4   2   5  1   
  5   3   6  2   
  6   3   7  1   
  7   4   6  1   
  8   4  25  1   
  9   5   8  1   
 10   5  26  1   
 11   5  27  1   
 12   6  28  1   
 13   7   9  1   
 14   7  29  1   
 15   7  30  1   
 16   8  10  1   
 17   8  11  1   
 18   8  31  1   
 19   9  12  1   
 20   9  32  1   
 21   9  33  1   
 22  10  13  1   
 23  10  34  1   
 24  10  35  1   
 25  11  14  1   
 26  11  36  1   
 27  11  37  1   
 28  12  38  1   
 29  12  39  1   
 30  12  40  1   
 31  13  15  1   
 32  13  16  1   
 33  13  17  1   
 34  14  16  1   
 35  14  41  1   
 36  14  42  1   
 37  15  18  ar  
 38  15  19  ar  
 39  16  43  1   
 40  16  44  1   
 41  17  20  1   
 42  17  45  1   
 43  17  46  1   
 44  18  21  ar  
 45  19  20  1   
 46  19  22  ar  
 47  20  47  1   
 48  20  48  1   
 49  21  23  ar  
 50  21  24  1   
 51  22  23  ar  
 52  22  49  1   
 53  24  50  1   
 54  24  51  1   
 55  24  52  1   
@<TRIPOS>SUBSTRUCTURE
  1 ****  10 GROUP 4 **** **** 0

# MOE 2024.06 (io_trps.svl 2023.06)
