@<TRIPOS>MOLECULE
NONAME
45 47 1 0 0 
SMALL
USER_CHARGES


@<TRIPOS>ATOM
  1 O       -2.2110     2.2240    -0.0410 O.co2 1 <1>  -0.9000 
  2 C       -3.0340     1.8700     0.8210 C.2   1 <1>   0.9790 
  3 O       -3.1750     2.5640     1.8440 O.co2 1 <1>  -0.9000 
  4 C       -3.8440     0.6760     0.6200 C.ar  1 <1>  -0.1790 
  5 C       -4.8210     0.2990     1.5410 C.ar  1 <1>  -0.1500 
  6 C       -3.6840    -0.1320    -0.5060 C.ar  1 <1>  -0.1500 
  7 C       -5.6270    -0.8020     1.3320 C.ar  1 <1>  -0.1500 
  8 C       -4.4830    -1.2360    -0.7260 C.ar  1 <1>  -0.1500 
  9 C       -5.4770    -1.5650     0.1830 C.ar  1 <1>  -0.1430 
 10 C       -6.4340    -2.6980    -0.1020 C.3   1 <1>   0.4870 
 11 N       -7.7430    -2.0670    -0.4060 N.4   1 <1>  -0.9590 
 12 C       -8.9150    -2.9720    -0.4180 C.3   1 <1>   0.3430 
 13 C       -7.7000    -1.1320    -1.5710 C.3   1 <1>   0.3430 
 14 C      -10.2110    -2.1490    -0.3580 C.3   1 <1>  -0.1600 
 15 C       -9.0580    -0.4520    -1.7760 C.3   1 <1>  -0.1600 
 16 C      -10.0010    -0.6450    -0.5830 C.3   1 <1>   0.4180 
 17 O       -9.3780    -0.1630     0.5880 O.3   1 <1>  -0.5600 
 18 C      -11.3350     0.0550    -0.8000 C.2   1 <1>  -0.2880 
 19 C       -9.4130     1.2230     0.8130 C.3   1 <1>   0.1200 
 20 C      -11.7470     1.1090    -0.0910 C.2   1 <1>  -0.2760 
 21 C      -10.8600     1.7020     0.9900 C.3   1 <1>  -0.0220 
 22 C      -13.0900     1.7940    -0.2720 C.3   1 <1>  -0.1020 
 23 H       -4.9410     0.8990     2.4300 H     1 <1>   0.1500 
 24 H       -2.9160     0.1340    -1.2160 H     1 <1>   0.1500 
 25 H       -6.3730    -1.0400     2.0700 H     1 <1>   0.1500 
 26 H       -4.3240    -1.8180    -1.6170 H     1 <1>   0.1500 
 27 H       -6.5130    -3.3320     0.7660 H     1 <1>   0.0800 
 28 H       -6.0900    -3.2820    -0.9390 H     1 <1>   0.0800 
 29 H       -7.9260    -1.4170     0.3850 H     1 <1>   0.4500 
 30 H       -8.8790    -3.6380     0.4290 H     1 <1>   0.0800 
 31 H       -8.9030    -3.5660    -1.3180 H     1 <1>   0.0800 
 32 H       -7.4150    -1.6590    -2.4670 H     1 <1>   0.0800 
 33 H       -6.9590    -0.3690    -1.3830 H     1 <1>   0.0800 
 34 H      -10.6950    -2.2960     0.5920 H     1 <1>   0.0800 
 35 H      -10.8810    -2.5330    -1.1060 H     1 <1>   0.0800 
 36 H       -9.5190    -0.8670    -2.6530 H     1 <1>   0.0800 
 37 H       -8.9150     0.5940    -1.9770 H     1 <1>   0.0800 
 38 H      -11.9270    -0.3840    -1.5830 H     1 <1>   0.1500 
 39 H       -8.9500     1.7230    -0.0200 H     1 <1>   0.0800 
 40 H       -8.8390     1.4330     1.6990 H     1 <1>   0.0800 
 41 H      -10.8720     2.7760     0.9360 H     1 <1>   0.0800 
 42 H      -11.2240     1.4130     1.9600 H     1 <1>   0.0800 
 43 H      -13.6520     1.7560     0.6450 H     1 <1>   0.0800 
 44 H      -13.6630     1.3080    -1.0410 H     1 <1>   0.0800 
 45 H      -12.9500     2.8230    -0.5510 H     1 <1>   0.0800 
@<TRIPOS>BOND
  1   1   2  ar  
  2   2   3  ar  
  3   2   4  1   
  4   4   5  ar  
  5   4   6  ar  
  6   5   7  ar  
  7   5  23  1   
  8   6   8  ar  
  9   6  24  1   
 10   7   9  ar  
 11   7  25  1   
 12   8   9  ar  
 13   8  26  1   
 14   9  10  1   
 15  10  11  1   
 16  10  27  1   
 17  10  28  1   
 18  11  12  1   
 19  11  13  1   
 20  11  29  1   
 21  12  14  1   
 22  12  30  1   
 23  12  31  1   
 24  13  15  1   
 25  13  32  1   
 26  13  33  1   
 27  14  16  1   
 28  14  34  1   
 29  14  35  1   
 30  15  16  1   
 31  15  36  1   
 32  15  37  1   
 33  16  17  1   
 34  16  18  1   
 35  17  19  1   
 36  18  20  2   
 37  18  38  1   
 38  19  21  1   
 39  19  39  1   
 40  19  40  1   
 41  20  21  1   
 42  20  22  1   
 43  21  41  1   
 44  21  42  1   
 45  22  43  1   
 46  22  44  1   
 47  22  45  1   
@<TRIPOS>SUBSTRUCTURE
  1 ****  13 GROUP 4 **** **** 0

# MOE 2024.06 (io_trps.svl 2023.06)
