@<TRIPOS>MOLECULE
NONAME
39 40 1 0 0 
SMALL
USER_CHARGES


@<TRIPOS>ATOM
  1 CL      -0.5560    -3.6370     1.6170 Cl    1 <1>  -0.1770 
  2 C        0.9510    -3.0350     0.9750 C.ar  1 <1>   0.1770 
  3 C        1.5320    -3.6010    -0.1530 C.ar  1 <1>  -0.0090 
  4 C        1.5280    -1.9740     1.6470 C.ar  1 <1>  -0.1500 
  5 S        0.7680    -4.9690    -1.0530 S.o2  1 <1>   1.4470 
  6 C        2.7380    -3.0540    -0.5840 C.ar  1 <1>  -0.1500 
  7 C        2.7220    -1.4280     1.2070 C.ar  1 <1>   0.0830 
  8 O        0.2040    -5.9580    -0.1680 O.2   1 <1>  -0.6500 
  9 O        1.6710    -5.4140    -2.0870 O.2   1 <1>  -0.6500 
 10 N       -0.4390    -4.2450    -1.9530 N.am  1 <1>  -0.9140 
 11 C        3.3290    -1.9940     0.0810 C.ar  1 <1>   0.1770 
 12 O        3.1920    -0.3830     1.9340 O.3   1 <1>  -0.3620 
 13 C       -1.7090    -4.9390    -2.1020 C.3   1 <1>   0.4560 
 14 CL       4.8670    -1.4480    -0.5550 Cl    1 <1>  -0.1770 
 15 C        3.8700     0.6980     1.3330 C.3   1 <1>   0.0400 
 16 C       -2.6240    -4.8400    -0.8720 C.2   1 <1>   0.0060 
 17 C       -1.5490    -6.2970    -2.7930 C.3   1 <1>  -0.2400 
 18 N       -3.2830    -3.7520    -0.6550 N.2   1 <1>  -0.5650 
 19 N       -2.9240    -5.7710     0.0640 N.pl3 1 <1>   0.3140 
 20 C       -3.9890    -4.0580     0.4340 C.2   1 <1>   0.3660 
 21 N       -3.8300    -5.2510     0.8890 N.2   1 <1>  -0.7070 
 22 C       -2.5150    -7.1890     0.2560 C.3   1 <1>   0.0960 
 23 C       -2.0480    -7.4700     1.6930 C.3   1 <1>  -0.2400 
 24 H        1.0450    -1.5650     2.5170 H     1 <1>   0.1500 
 25 H        3.2340    -3.4610    -1.4490 H     1 <1>   0.1500 
 26 H       -0.0290    -4.1890    -2.8800 H     1 <1>   0.4200 
 27 H       -2.2450    -4.3510    -2.8290 H     1 <1>   0.0800 
 28 H        3.7480     1.5600     1.9640 H     1 <1>   0.0800 
 29 H        3.4470     0.8930     0.3630 H     1 <1>   0.0800 
 30 H        4.9150     0.4570     1.2580 H     1 <1>   0.0800 
 31 H       -0.8870    -6.9590    -2.2700 H     1 <1>   0.0800 
 32 H       -1.1630    -6.1540    -3.7860 H     1 <1>   0.0800 
 33 H       -2.5110    -6.7690    -2.8790 H     1 <1>   0.0800 
 34 H       -4.6520    -3.3370     0.8830 H     1 <1>   0.1500 
 35 H       -1.7250    -7.4390    -0.4160 H     1 <1>   0.0800 
 36 H       -3.3620    -7.8090     0.0280 H     1 <1>   0.0800 
 37 H       -1.2250    -6.8260     1.9480 H     1 <1>   0.0800 
 38 H       -1.7230    -8.4910     1.7790 H     1 <1>   0.0800 
 39 H       -2.8520    -7.3070     2.3890 H     1 <1>   0.0800 
@<TRIPOS>BOND
  1   1   2  1   
  2   2   3  ar  
  3   2   4  ar  
  4   3   5  1   
  5   3   6  ar  
  6   4   7  ar  
  7   4  24  1   
  8   5   8  2   
  9   5   9  2   
 10   5  10  am  
 11   6  11  ar  
 12   6  25  1   
 13   7  11  ar  
 14   7  12  1   
 15  10  13  1   
 16  10  26  1   
 17  11  14  1   
 18  12  15  1   
 19  13  16  1   
 20  13  17  1   
 21  13  27  1   
 22  15  28  1   
 23  15  29  1   
 24  15  30  1   
 25  16  18  2   
 26  16  19  1   
 27  17  31  1   
 28  17  32  1   
 29  17  33  1   
 30  18  20  1   
 31  19  21  1   
 32  19  22  1   
 33  20  21  2   
 34  20  34  1   
 35  22  23  1   
 36  22  35  1   
 37  22  36  1   
 38  23  37  1   
 39  23  38  1   
 40  23  39  1   
@<TRIPOS>SUBSTRUCTURE
  1 ****   3 GROUP 4 **** **** 0

# MOE 2024.06 (io_trps.svl 2023.06)
