@<TRIPOS>MOLECULE
NONAME
45 47 1 0 0 
SMALL
USER_CHARGES


@<TRIPOS>ATOM
  1 F       -1.6340    -0.4350    -2.1450 F     1 <1>  -0.1900 
  2 C       -2.1700     0.4410    -1.3350 C.ar  1 <1>   0.1900 
  3 C       -2.7730     0.0160    -0.1610 C.ar  1 <1>  -0.1440 
  4 C       -2.1020     1.7740    -1.6920 C.ar  1 <1>  -0.1500 
  5 C       -3.3140     0.9830     0.6760 C.ar  1 <1>  -0.1500 
  6 C       -2.8390    -1.4590     0.2100 C.3   1 <1>   0.2540 
  7 C       -2.6530     2.7210    -0.8460 C.ar  1 <1>  -0.1500 
  8 C       -3.2590     2.3280     0.3380 C.ar  1 <1>  -0.1440 
  9 N       -3.9060    -2.1610    -0.5350 N.3   1 <1>  -0.8100 
 10 C       -3.8580     3.3690     1.2670 C.3   1 <1>  -0.0970 
 11 C       -3.9370    -3.6140    -0.2280 C.3   1 <1>   0.3330 
 12 C       -5.2370    -1.5620    -0.3010 C.3   1 <1>   0.1100 
 13 C       -2.5960    -4.2720    -0.5600 C.ar  1 <1>  -0.1430 
 14 C       -5.0980    -4.3160    -0.9860 C.3   1 <1>   0.2000 
 15 C       -6.3420    -2.3370    -1.0370 C.3   1 <1>   0.1200 
 16 C       -2.0010    -4.0800    -1.7980 C.ar  1 <1>  -0.1500 
 17 C       -1.9670    -5.0860     0.3730 C.ar  1 <1>  -0.1500 
 18 O       -6.3150    -3.6870    -0.6750 O.3   1 <1>  -0.5600 
 19 C       -5.2540    -5.8060    -0.6370 C.3   1 <1>   0.1200 
 20 C       -0.8020    -4.6990    -2.1050 C.ar  1 <1>  -0.1500 
 21 C       -0.7690    -5.7070     0.0670 C.ar  1 <1>  -0.1500 
 22 O       -4.2660    -6.5760    -1.2460 O.3   1 <1>  -0.6800 
 23 C       -0.1860    -5.5150    -1.1730 C.ar  1 <1>  -0.1500 
 24 H       -1.6270     2.0590    -2.6130 H     1 <1>   0.1500 
 25 H       -3.7830     0.6870     1.5980 H     1 <1>   0.1500 
 26 H       -3.0080    -1.5630     1.2680 H     1 <1>   0.0800 
 27 H       -1.8830    -1.9020    -0.0130 H     1 <1>   0.0800 
 28 H       -2.6050     3.7620    -1.1130 H     1 <1>   0.1500 
 29 H       -4.1770     4.2330     0.7100 H     1 <1>   0.0800 
 30 H       -3.1250     3.6750     1.9910 H     1 <1>   0.0800 
 31 H       -4.7110     2.9670     1.7830 H     1 <1>   0.0800 
 32 H       -4.1220    -3.7340     0.8260 H     1 <1>   0.0800 
 33 H       -5.4590    -1.5500     0.7530 H     1 <1>   0.0800 
 34 H       -5.2460    -0.5470    -0.6580 H     1 <1>   0.0800 
 35 H       -4.9490    -4.2270    -2.0480 H     1 <1>   0.0800 
 36 H       -6.2100    -2.2590    -2.1030 H     1 <1>   0.0800 
 37 H       -7.3090    -1.9450    -0.7780 H     1 <1>   0.0800 
 38 H       -2.4720    -3.4390    -2.5250 H     1 <1>   0.1500 
 39 H       -2.4070    -5.2460     1.3420 H     1 <1>   0.1500 
 40 H       -6.2020    -6.1670    -0.9950 H     1 <1>   0.0800 
 41 H       -5.1920    -5.9560     0.4260 H     1 <1>   0.0800 
 42 H       -0.3500    -4.5420    -3.0690 H     1 <1>   0.1500 
 43 H       -0.2880    -6.3390     0.7930 H     1 <1>   0.1500 
 44 H       -3.3750    -6.1840    -1.0990 H     1 <1>   0.4000 
 45 H        0.7460    -5.9970    -1.4120 H     1 <1>   0.1500 
@<TRIPOS>BOND
  1   1   2  1   
  2   2   3  ar  
  3   2   4  ar  
  4   3   5  ar  
  5   3   6  1   
  6   4   7  ar  
  7   4  24  1   
  8   5   8  ar  
  9   5  25  1   
 10   6   9  1   
 11   6  26  1   
 12   6  27  1   
 13   7   8  ar  
 14   7  28  1   
 15   8  10  1   
 16   9  11  1   
 17   9  12  1   
 18  10  29  1   
 19  10  30  1   
 20  10  31  1   
 21  11  13  1   
 22  11  14  1   
 23  11  32  1   
 24  12  15  1   
 25  12  33  1   
 26  12  34  1   
 27  13  16  ar  
 28  13  17  ar  
 29  14  18  1   
 30  14  19  1   
 31  14  35  1   
 32  15  18  1   
 33  15  36  1   
 34  15  37  1   
 35  16  20  ar  
 36  16  38  1   
 37  17  21  ar  
 38  17  39  1   
 39  19  22  1   
 40  19  40  1   
 41  19  41  1   
 42  20  23  ar  
 43  20  42  1   
 44  21  23  ar  
 45  21  43  1   
 46  22  44  1   
 47  23  45  1   
@<TRIPOS>SUBSTRUCTURE
  1 ****   9 GROUP 4 **** **** 0

# MOE 2024.06 (io_trps.svl 2023.06)
