@<TRIPOS>MOLECULE
NONAME
63 66 1 0 0 
SMALL
USER_CHARGES


@<TRIPOS>ATOM
  1 O       -1.6470    -3.6910     1.1630 O.2   1 <1>  -0.5700 
  2 C       -0.5130    -3.7850     0.7630 C.2   1 <1>   0.5690 
  3 N       -0.0560    -4.8400     0.0220 N.am  1 <1>  -0.6600 
  4 C        0.4740    -2.6830     1.0900 C.3   1 <1>  -0.0990 
  5 C        1.3580    -4.9010    -0.4190 C.3   1 <1>   0.1400 
  6 C       -0.9190    -6.0010    -0.3280 C.3   1 <1>   0.0600 
  7 C        1.2890    -2.3050    -0.1610 C.3   1 <1>  -0.0800 
  8 C        1.8030    -3.5260    -0.9600 C.3   1 <1>  -0.0800 
  9 C        2.5130    -1.4340     0.1520 C.3   1 <1>  -0.1600 
 10 C        3.3280    -3.3690    -1.0340 C.3   1 <1>  -0.1600 
 11 C        3.5560    -1.8670    -0.8720 C.3   1 <1>   0.4230 
 12 N        4.9430    -1.4870    -0.4850 N.4   1 <1>  -0.9590 
 13 C        5.4860    -2.1520     0.7380 C.3   1 <1>   0.4860 
 14 C        5.8880    -1.6370    -1.6360 C.3   1 <1>   0.2630 
 15 C        6.6830    -1.3500     1.2040 C.ar  1 <1>  -0.1440 
 16 C        7.9710    -1.8330     1.0190 C.ar  1 <1>  -0.1500 
 17 C        6.4960    -0.1150     1.8090 C.ar  1 <1>  -0.1500 
 18 C        9.0580    -1.0740     1.4140 C.ar  1 <1>  -0.1500 
 19 C        7.5840     0.6420     2.2020 C.ar  1 <1>  -0.1500 
 20 C        8.8760     0.1700     1.9940 C.ar  1 <1>   0.0820 
 21 O        9.9950     0.8610     2.3240 O.3   1 <1>  -0.3620 
 22 C        9.9530     2.2530     2.6220 C.3   1 <1>   0.1810 
 23 C        9.4720     3.0940     1.4380 C.2   1 <1>   0.5690 
 24 O        8.4570     3.7380     1.5800 O.2   1 <1>  -0.5700 
 25 N       10.1760     3.1230     0.2640 N.am  1 <1>  -0.6600 
 26 C       11.3770     2.3180    -0.0480 C.3   1 <1>   0.1400 
 27 C        9.7580     3.9330    -0.9000 C.3   1 <1>   0.1400 
 28 C       11.8450     2.8290    -1.4060 C.3   1 <1>  -0.1600 
 29 C       10.5880     3.3970    -2.0610 C.3   1 <1>  -0.1600 
 30 H       -0.0610    -1.8260     1.4590 H     1 <1>   0.0800 
 31 H        1.1130    -3.0450     1.8740 H     1 <1>   0.0800 
 32 H        1.9580    -5.1880     0.4280 H     1 <1>   0.0800 
 33 H        1.4740    -5.6490    -1.1850 H     1 <1>   0.0800 
 34 H       -0.5070    -6.9020     0.0890 H     1 <1>   0.0800 
 35 H       -0.9840    -6.0980    -1.3980 H     1 <1>   0.0800 
 36 H       -1.9130    -5.8650     0.0640 H     1 <1>   0.0800 
 37 H        0.6310    -1.7520    -0.8140 H     1 <1>   0.0800 
 38 H        1.4100    -3.4410    -1.9610 H     1 <1>   0.0800 
 39 H        2.8440    -1.6310     1.1540 H     1 <1>   0.0800 
 40 H        2.2740    -0.3890     0.0540 H     1 <1>   0.0800 
 41 H        3.7060    -3.7320    -1.9730 H     1 <1>   0.0800 
 42 H        3.7760    -3.9170    -0.2260 H     1 <1>   0.0800 
 43 H        3.3060    -1.3900    -1.8080 H     1 <1>   0.0800 
 44 H        4.9280    -0.4840    -0.2510 H     1 <1>   0.4500 
 45 H        4.7510    -2.1680     1.5240 H     1 <1>   0.0800 
 46 H        5.7780    -3.1660     0.5190 H     1 <1>   0.0800 
 47 H        5.9910    -2.6750    -1.9060 H     1 <1>   0.0800 
 48 H        6.8600    -1.2500    -1.3740 H     1 <1>   0.0800 
 49 H        5.5250    -1.0910    -2.4920 H     1 <1>   0.0800 
 50 H        8.1480    -2.7960     0.5700 H     1 <1>   0.1500 
 51 H        5.5080     0.2770     1.9850 H     1 <1>   0.1500 
 52 H       10.0600    -1.4400     1.2730 H     1 <1>   0.1500 
 53 H        7.4050     1.5950     2.6670 H     1 <1>   0.1500 
 54 H        9.3160     2.4020     3.4730 H     1 <1>   0.0800 
 55 H       10.9480     2.5560     2.8870 H     1 <1>   0.0800 
 56 H       12.1380     2.4440     0.7040 H     1 <1>   0.0800 
 57 H       11.0980     1.2800    -0.1150 H     1 <1>   0.0800 
 58 H        8.7010     3.8320    -1.0810 H     1 <1>   0.0800 
 59 H        9.9940     4.9660    -0.7080 H     1 <1>   0.0800 
 60 H       12.5640     3.6160    -1.2540 H     1 <1>   0.0800 
 61 H       12.2980     2.0500    -1.9930 H     1 <1>   0.0800 
 62 H       10.0400     2.6090    -2.5470 H     1 <1>   0.0800 
 63 H       10.8100     4.1650    -2.7800 H     1 <1>   0.0800 
@<TRIPOS>BOND
  1   1   2  2   
  2   2   3  am  
  3   2   4  1   
  4   3   5  1   
  5   3   6  1   
  6   4   7  1   
  7   4  30  1   
  8   4  31  1   
  9   5   8  1   
 10   5  32  1   
 11   5  33  1   
 12   6  34  1   
 13   6  35  1   
 14   6  36  1   
 15   7   8  1   
 16   7   9  1   
 17   7  37  1   
 18   8  10  1   
 19   8  38  1   
 20   9  11  1   
 21   9  39  1   
 22   9  40  1   
 23  10  11  1   
 24  10  41  1   
 25  10  42  1   
 26  11  12  1   
 27  11  43  1   
 28  12  13  1   
 29  12  14  1   
 30  12  44  1   
 31  13  15  1   
 32  13  45  1   
 33  13  46  1   
 34  14  47  1   
 35  14  48  1   
 36  14  49  1   
 37  15  16  ar  
 38  15  17  ar  
 39  16  18  ar  
 40  16  50  1   
 41  17  19  ar  
 42  17  51  1   
 43  18  20  ar  
 44  18  52  1   
 45  19  20  ar  
 46  19  53  1   
 47  20  21  1   
 48  21  22  1   
 49  22  23  1   
 50  22  54  1   
 51  22  55  1   
 52  23  24  2   
 53  23  25  am  
 54  25  26  1   
 55  25  27  1   
 56  26  28  1   
 57  26  56  1   
 58  26  57  1   
 59  27  29  1   
 60  27  58  1   
 61  27  59  1   
 62  28  29  1   
 63  28  60  1   
 64  28  61  1   
 65  29  62  1   
 66  29  63  1   
@<TRIPOS>SUBSTRUCTURE
  1 ****  12 GROUP 4 **** **** 0

# MOE 2024.06 (io_trps.svl 2023.06)
