@<TRIPOS>MOLECULE
NONAME
57 60 1 0 0 
SMALL
USER_CHARGES


@<TRIPOS>ATOM
  1 O       -2.5850     5.3330    -0.0830 O.2   1 <1>  -0.5700 
  2 C       -2.2120     4.3540     0.5340 C.2   1 <1>   0.6160 
  3 N       -3.0570     3.2670     0.6570 N.am  1 <1>  -0.6600 
  4 C       -0.9030     4.3760     1.1460 C.2   1 <1>  -0.0140 
  5 C       -4.3060     3.2070    -0.1590 C.3   1 <1>   0.2200 
  6 C       -2.7970     2.1800     1.6520 C.3   1 <1>   0.0600 
  7 C        0.1220     3.4410     0.7310 C.ar  1 <1>   0.0280 
  8 C       -0.6100     5.2740     2.1290 C.2   1 <1>  -0.1360 
  9 C       -5.5440     3.5860     0.6460 C.3   1 <1>  -0.1600 
 10 C       -4.6300     1.8300    -0.7390 C.3   1 <1>  -0.1600 
 11 C        1.3550     3.4490     1.4070 C.ar  1 <1>   0.1170 
 12 C       -0.0390     2.5290    -0.3190 C.ar  1 <1>  -0.1500 
 13 C        0.6420     5.2930     2.7920 C.2   1 <1>   0.6160 
 14 C       -6.7120     3.0090    -0.1650 C.3   1 <1>  -0.0800 
 15 C       -6.1290     1.9080    -1.0600 C.3   1 <1>  -0.0800 
 16 N        1.5680     4.3720     2.4230 N.am  1 <1>  -0.5470 
 17 C        2.3540     2.5470     1.0540 C.ar  1 <1>  -0.1500 
 18 C        0.9570     1.6390    -0.6670 C.ar  1 <1>  -0.1430 
 19 O        0.9200     6.0780     3.6790 O.2   1 <1>  -0.5700 
 20 C       -7.8180     2.3360     0.6580 C.3   1 <1>  -0.1600 
 21 C       -6.9400     0.6410    -0.7490 C.3   1 <1>  -0.1600 
 22 C        2.1580     1.6490     0.0300 C.ar  1 <1>  -0.1500 
 23 C        0.7630     0.6520    -1.8040 C.3   1 <1>  -0.0970 
 24 C       -8.2750     1.1400    -0.1850 C.3   1 <1>   0.4230 
 25 N       -9.1840     1.5860    -1.2910 N.4   1 <1>  -0.9590 
 26 C      -10.4420     2.2260    -0.7870 C.3   1 <1>   0.2630 
 27 C       -9.5600     0.4680    -2.2160 C.3   1 <1>   0.2630 
 28 H       -4.2280     3.8910    -0.9890 H     1 <1>   0.0800 
 29 H       -3.7160     1.8590     2.1080 H     1 <1>   0.0800 
 30 H       -2.1420     2.5240     2.4330 H     1 <1>   0.0800 
 31 H       -2.3360     1.3410     1.1600 H     1 <1>   0.0800 
 32 H       -1.3240     6.0080     2.4520 H     1 <1>   0.1500 
 33 H       -5.4980     3.1430     1.6230 H     1 <1>   0.0800 
 34 H       -5.6200     4.6550     0.7450 H     1 <1>   0.0800 
 35 H       -4.0460     1.6360    -1.6220 H     1 <1>   0.0800 
 36 H       -4.4480     1.0580    -0.0160 H     1 <1>   0.0800 
 37 H       -0.9600     2.5200    -0.8730 H     1 <1>   0.1500 
 38 H       -7.1280     3.7830    -0.7900 H     1 <1>   0.0800 
 39 H       -6.2590     2.1940    -2.0920 H     1 <1>   0.0800 
 40 H        2.4560     4.4230     2.9190 H     1 <1>   0.3700 
 41 H        3.2890     2.5570     1.5850 H     1 <1>   0.1500 
 42 H       -8.5950     3.0200     0.9400 H     1 <1>   0.0800 
 43 H       -7.3970     1.9410     1.5670 H     1 <1>   0.0800 
 44 H       -6.4530     0.0860     0.0350 H     1 <1>   0.0800 
 45 H       -7.0210    -0.0120    -1.5970 H     1 <1>   0.0800 
 46 H        2.9380     0.9560    -0.2370 H     1 <1>   0.1500 
 47 H        1.5210     0.8030    -2.5520 H     1 <1>   0.0800 
 48 H       -0.2000     0.7780    -2.2660 H     1 <1>   0.0800 
 49 H        0.8370    -0.3540    -1.4330 H     1 <1>   0.0800 
 50 H       -8.7570     0.3890     0.4210 H     1 <1>   0.0800 
 51 H       -8.6540     2.2890    -1.8260 H     1 <1>   0.4500 
 52 H      -10.9740     1.5480    -0.1400 H     1 <1>   0.0800 
 53 H      -11.0830     2.4890    -1.6130 H     1 <1>   0.0800 
 54 H      -10.2190     3.1260    -0.2380 H     1 <1>   0.0800 
 55 H      -10.0360    -0.3280    -1.6680 H     1 <1>   0.0800 
 56 H       -8.6890     0.0730    -2.7130 H     1 <1>   0.0800 
 57 H      -10.2430     0.8230    -2.9710 H     1 <1>   0.0800 
@<TRIPOS>BOND
  1   1   2  2   
  2   2   3  am  
  3   2   4  1   
  4   3   5  1   
  5   3   6  1   
  6   4   7  1   
  7   4   8  2   
  8   5   9  1   
  9   5  10  1   
 10   5  28  1   
 11   6  29  1   
 12   6  30  1   
 13   6  31  1   
 14   7  11  ar  
 15   7  12  ar  
 16   8  13  1   
 17   8  32  1   
 18   9  14  1   
 19   9  33  1   
 20   9  34  1   
 21  10  15  1   
 22  10  35  1   
 23  10  36  1   
 24  11  16  1   
 25  11  17  ar  
 26  12  18  ar  
 27  12  37  1   
 28  13  16  am  
 29  13  19  2   
 30  14  15  1   
 31  14  20  1   
 32  14  38  1   
 33  15  21  1   
 34  15  39  1   
 35  16  40  1   
 36  17  22  ar  
 37  17  41  1   
 38  18  22  ar  
 39  18  23  1   
 40  20  24  1   
 41  20  42  1   
 42  20  43  1   
 43  21  24  1   
 44  21  44  1   
 45  21  45  1   
 46  22  46  1   
 47  23  47  1   
 48  23  48  1   
 49  23  49  1   
 50  24  25  1   
 51  24  50  1   
 52  25  26  1   
 53  25  27  1   
 54  25  51  1   
 55  26  52  1   
 56  26  53  1   
 57  26  54  1   
 58  27  55  1   
 59  27  56  1   
 60  27  57  1   
@<TRIPOS>SUBSTRUCTURE
  1 ****   3 GROUP 4 **** **** 0

# MOE 2024.06 (io_trps.svl 2023.06)
