@<TRIPOS>MOLECULE
NONAME
38 39 1 0 0 
SMALL
USER_CHARGES


@<TRIPOS>ATOM
  1 O        2.3220    -0.4040     3.1260 O.2   1 <1>  -0.5700 
  2 C        2.5000    -1.0310     2.0970 C.2   1 <1>   0.7670 
  3 N        2.7120    -0.3560     0.9280 N.2   1 <1>  -0.6610 
  4 C        2.4760    -2.4490     2.1100 C.2   1 <1>  -0.1360 
  5 C        2.8960    -1.0380    -0.1370 C.2   1 <1>   0.4390 
  6 C        2.6580    -3.1460     0.9640 C.2   1 <1>  -0.0380 
  7 N        2.8800    -2.4040    -0.1770 N.pl3 1 <1>  -0.5500 
  8 C        3.1510    -0.3260    -1.4430 C.3   1 <1>  -0.1790 
  9 C        2.6260    -4.6720     0.9020 C.3   1 <1>   0.4810 
 10 N        1.2230    -5.1590     0.7590 N.4   1 <1>  -0.9590 
 11 C        1.1760    -6.6720     0.8460 C.3   1 <1>   0.3430 
 12 C        0.5560    -4.6430    -0.4740 C.3   1 <1>   0.3430 
 13 C        0.0210    -7.3270     0.0480 C.3   1 <1>   0.2000 
 14 C       -0.9300    -5.0200    -0.4660 C.3   1 <1>  -0.1600 
 15 O        0.4340    -7.4710    -1.2740 O.3   1 <1>  -0.6800 
 16 C       -1.2280    -6.4320     0.1030 C.3   1 <1>  -0.0800 
 17 C       -2.4530    -7.0790    -0.5610 C.3   1 <1>   0.1200 
 18 O       -3.5380    -6.2460    -0.3550 O.3   1 <1>  -0.6800 
 19 H        2.3060    -2.9000     3.0690 H     1 <1>   0.1500 
 20 H        3.0990    -2.8280    -1.0840 H     1 <1>   0.4000 
 21 H        2.3920    -0.5800    -2.1590 H     1 <1>   0.0800 
 22 H        4.1170    -0.5950    -1.8290 H     1 <1>   0.0800 
 23 H        3.1320     0.7380    -1.2900 H     1 <1>   0.0800 
 24 H        3.0500    -5.0630     1.8130 H     1 <1>   0.0800 
 25 H        3.2280    -5.0170     0.0780 H     1 <1>   0.0800 
 26 H        0.6790    -4.7760     1.5430 H     1 <1>   0.4500 
 27 H        2.0990    -7.0950     0.4840 H     1 <1>   0.0800 
 28 H        1.0740    -6.9530     1.8810 H     1 <1>   0.0800 
 29 H        0.6480    -3.5710    -0.5420 H     1 <1>   0.0800 
 30 H        1.0240    -5.0820    -1.3410 H     1 <1>   0.0800 
 31 H       -0.1790    -8.3110     0.4380 H     1 <1>   0.0800 
 32 H       -1.4880    -4.2880     0.0920 H     1 <1>   0.0800 
 33 H       -1.2780    -4.9590    -1.4820 H     1 <1>   0.0800 
 34 H       -0.1840    -8.0380    -1.7820 H     1 <1>   0.4000 
 35 H       -1.4740    -6.3220     1.1460 H     1 <1>   0.0800 
 36 H       -2.6770    -8.0350    -0.1180 H     1 <1>   0.0800 
 37 H       -2.3130    -7.1930    -1.6230 H     1 <1>   0.0800 
 38 H       -4.3540    -6.6200    -0.7480 H     1 <1>   0.4000 
@<TRIPOS>BOND
  1   1   2  2   
  2   2   3  1   
  3   2   4  1   
  4   3   5  2   
  5   4   6  2   
  6   4  19  1   
  7   5   7  1   
  8   5   8  1   
  9   6   7  1   
 10   6   9  1   
 11   7  20  1   
 12   8  21  1   
 13   8  22  1   
 14   8  23  1   
 15   9  10  1   
 16   9  24  1   
 17   9  25  1   
 18  10  11  1   
 19  10  12  1   
 20  10  26  1   
 21  11  13  1   
 22  11  27  1   
 23  11  28  1   
 24  12  14  1   
 25  12  29  1   
 26  12  30  1   
 27  13  15  1   
 28  13  16  1   
 29  13  31  1   
 30  14  16  1   
 31  14  32  1   
 32  14  33  1   
 33  15  34  1   
 34  16  17  1   
 35  16  35  1   
 36  17  18  1   
 37  17  36  1   
 38  17  37  1   
 39  18  38  1   
@<TRIPOS>SUBSTRUCTURE
  1 ****  12 GROUP 4 **** **** 0

# MOE 2024.06 (io_trps.svl 2023.06)
