@<TRIPOS>MOLECULE
NONAME
41 43 1 0 0 
SMALL
USER_CHARGES


@<TRIPOS>ATOM
  1 S       -0.0290     0.1860     0.0720 S.3   1 <1>  -0.0800 
  2 C       -1.5850    -0.4750     0.5180 C.2   1 <1>  -0.1100 
  3 C        0.1500    -0.9990    -1.2040 C.2   1 <1>  -0.1100 
  4 C       -1.9410    -1.5190    -0.2710 C.2   1 <1>  -0.0860 
  5 C       -0.9230    -1.8090    -1.2490 C.2   1 <1>  -0.1500 
  6 C       -3.1590    -2.3040    -0.1930 C.2   1 <1>   0.7160 
  7 O       -3.1150    -3.4980    -0.4270 O.2   1 <1>  -0.5700 
  8 N       -4.3750    -1.7400     0.1320 N.am  1 <1>  -0.6600 
  9 C       -5.5310    -2.6150     0.4840 C.3   1 <1>   0.1400 
 10 C       -4.6600    -0.2840    -0.0240 C.3   1 <1>   0.1400 
 11 C       -6.5850    -1.8180     1.2550 C.3   1 <1>  -0.1600 
 12 C       -6.0840    -0.0910    -0.5450 C.3   1 <1>  -0.1600 
 13 C       -7.1480    -0.6220     0.4490 C.3   1 <1>   0.2800 
 14 O       -7.4130     0.3600     1.4160 O.3   1 <1>  -0.5600 
 15 C       -8.4680    -1.0300    -0.2490 C.3   1 <1>  -0.1600 
 16 C       -8.1390     1.5070     1.0730 C.3   1 <1>   0.1200 
 17 C       -9.3570     0.1420    -0.6720 C.3   1 <1>   0.2800 
 18 C       -9.4980     1.1250     0.4870 C.3   1 <1>  -0.1600 
 19 O       -8.7640     0.7940    -1.7250 O.3   1 <1>  -0.6800 
 20 C      -10.7180    -0.3320    -1.1770 C.3   1 <1>  -0.2400 
 21 H       -2.0930    -0.0170     1.3470 H     1 <1>   0.1500 
 22 H        1.0520    -0.9660    -1.7890 H     1 <1>   0.1500 
 23 H       -1.0570    -2.6250    -1.9390 H     1 <1>   0.1500 
 24 H       -5.1850    -3.4370     1.0880 H     1 <1>   0.0800 
 25 H       -5.9550    -3.0190    -0.4200 H     1 <1>   0.0800 
 26 H       -3.9660     0.1560    -0.7200 H     1 <1>   0.0800 
 27 H       -4.5530     0.2070     0.9290 H     1 <1>   0.0800 
 28 H       -6.1190    -1.4600     2.1560 H     1 <1>   0.0800 
 29 H       -7.3710    -2.4850     1.5570 H     1 <1>   0.0800 
 30 H       -6.1600    -0.6260    -1.4750 H     1 <1>   0.0800 
 31 H       -6.2280     0.9460    -0.7700 H     1 <1>   0.0800 
 32 H       -9.0430    -1.6190     0.4410 H     1 <1>   0.0800 
 33 H       -8.2660    -1.6620    -1.0950 H     1 <1>   0.0800 
 34 H       -7.5670     2.1030     0.3860 H     1 <1>   0.0800 
 35 H       -8.2760     2.0800     1.9740 H     1 <1>   0.0800 
 36 H      -10.0210     2.0070     0.1610 H     1 <1>   0.0800 
 37 H      -10.0830     0.6740     1.2680 H     1 <1>   0.0800 
 38 H       -7.8750     1.0830    -1.4580 H     1 <1>   0.4000 
 39 H      -11.2470    -0.8480    -0.3980 H     1 <1>   0.0800 
 40 H      -10.5930    -1.0040    -2.0070 H     1 <1>   0.0800 
 41 H      -11.3110     0.5080    -1.4930 H     1 <1>   0.0800 
@<TRIPOS>BOND
  1   1   2  1   
  2   1   3  1   
  3   2   4  2   
  4   2  21  1   
  5   3   5  2   
  6   3  22  1   
  7   4   5  1   
  8   4   6  1   
  9   5  23  1   
 10   6   7  2   
 11   6   8  am  
 12   8   9  1   
 13   8  10  1   
 14   9  11  1   
 15   9  24  1   
 16   9  25  1   
 17  10  12  1   
 18  10  26  1   
 19  10  27  1   
 20  11  13  1   
 21  11  28  1   
 22  11  29  1   
 23  12  13  1   
 24  12  30  1   
 25  12  31  1   
 26  13  14  1   
 27  13  15  1   
 28  14  16  1   
 29  15  17  1   
 30  15  32  1   
 31  15  33  1   
 32  16  18  1   
 33  16  34  1   
 34  16  35  1   
 35  17  18  1   
 36  17  19  1   
 37  17  20  1   
 38  18  36  1   
 39  18  37  1   
 40  19  38  1   
 41  20  39  1   
 42  20  40  1   
 43  20  41  1   
@<TRIPOS>SUBSTRUCTURE
  1 ****  10 GROUP 4 **** **** 0

# MOE 2024.06 (io_trps.svl 2023.06)
