@<TRIPOS>MOLECULE
NONAME
42 43 1 0 0 
SMALL
USER_CHARGES


@<TRIPOS>ATOM
  1 S       -0.4120     0.3010    -2.2480 S.o2  1 <1>   1.4470 
  2 O        0.1220    -0.4250    -3.3790 O.2   1 <1>  -0.6500 
  3 O       -1.1500     1.5290    -2.4620 O.2   1 <1>  -0.6500 
  4 N       -1.3860    -0.7400    -1.3250 N.am  1 <1>  -0.8490 
  5 C        0.9760     0.6800    -1.1320 C.ar  1 <1>  -0.0090 
  6 C       -0.7290    -2.0200    -0.9840 C.3   1 <1>   0.1960 
  7 C       -2.0700    -0.0780    -0.2180 C.3   1 <1>   0.1960 
  8 C        2.1180    -0.1200    -1.1160 C.ar  1 <1>  -0.1500 
  9 C        0.9170     1.7610    -0.2530 C.ar  1 <1>  -0.1500 
 10 C       -1.6060    -3.0220    -0.1970 C.3   1 <1>  -0.1060 
 11 C       -3.0640    -1.0260     0.4390 C.3   1 <1>  -0.1600 
 12 C        3.1670     0.1370    -0.2490 C.ar  1 <1>  -0.1500 
 13 C        1.9560     2.0370     0.6220 C.ar  1 <1>  -0.1500 
 14 C       -2.5940    -3.6770    -1.1780 C.2   1 <1>   0.9060 
 15 C       -2.3260    -2.2600     0.9430 C.3   1 <1>   0.2000 
 16 C       -0.7140    -4.1700     0.3710 C.3   1 <1>  -0.1600 
 17 C        3.0650     1.2140     0.6080 C.ar  1 <1>   0.1900 
 18 O       -2.1640    -4.1140    -2.2520 O.co2 1 <1>  -0.9000 
 19 O       -3.7760    -3.8630    -0.8410 O.co2 1 <1>  -0.9000 
 20 O       -3.2440    -3.0740     1.5660 O.3   1 <1>  -0.6800 
 21 C        0.3120    -3.8010     1.4610 C.3   1 <1>  -0.1600 
 22 F        4.0460     1.4620     1.4310 F     1 <1>  -0.1900 
 23 C        1.1550    -5.0210     1.8410 C.3   1 <1>  -0.2400 
 24 H       -0.3870    -2.4920    -1.8910 H     1 <1>   0.0800 
 25 H        0.1380    -1.7960    -0.3950 H     1 <1>   0.0800 
 26 H       -1.3520     0.2560     0.5120 H     1 <1>   0.0800 
 27 H       -2.6090     0.7780    -0.5880 H     1 <1>   0.0800 
 28 H        2.1840    -0.9550    -1.7960 H     1 <1>   0.1500 
 29 H        0.0470     2.3980    -0.2580 H     1 <1>   0.1500 
 30 H       -3.8190    -1.2980    -0.2780 H     1 <1>   0.0800 
 31 H       -3.5380    -0.5280     1.2640 H     1 <1>   0.0800 
 32 H        4.0470    -0.4820    -0.2370 H     1 <1>   0.1500 
 33 H        1.9130     2.8710     1.2990 H     1 <1>   0.1500 
 34 H       -1.6220    -1.9470     1.6910 H     1 <1>   0.0800 
 35 H       -1.3700    -4.9250     0.7730 H     1 <1>   0.0800 
 36 H       -0.1970    -4.6280    -0.4560 H     1 <1>   0.0800 
 37 H       -3.7320    -3.5250     0.8120 H     1 <1>   0.4000 
 38 H        0.9710    -3.0230     1.1240 H     1 <1>   0.0800 
 39 H       -0.2000    -3.4570     2.3430 H     1 <1>   0.0800 
 40 H        1.6980    -5.3840     0.9860 H     1 <1>   0.0800 
 41 H        0.5230    -5.8100     2.2100 H     1 <1>   0.0800 
 42 H        1.8600    -4.7580     2.6110 H     1 <1>   0.0800 
@<TRIPOS>BOND
  1   1   2  2   
  2   1   3  2   
  3   1   4  am  
  4   1   5  1   
  5   4   6  1   
  6   4   7  1   
  7   5   8  ar  
  8   5   9  ar  
  9   6  10  1   
 10   6  24  1   
 11   6  25  1   
 12   7  11  1   
 13   7  26  1   
 14   7  27  1   
 15   8  12  ar  
 16   8  28  1   
 17   9  13  ar  
 18   9  29  1   
 19  10  14  1   
 20  10  15  1   
 21  10  16  1   
 22  11  15  1   
 23  11  30  1   
 24  11  31  1   
 25  12  17  ar  
 26  12  32  1   
 27  13  17  ar  
 28  13  33  1   
 29  14  18  ar  
 30  14  19  ar  
 31  15  20  1   
 32  15  34  1   
 33  16  21  1   
 34  16  35  1   
 35  16  36  1   
 36  17  22  1   
 37  20  37  1   
 38  21  23  1   
 39  21  38  1   
 40  21  39  1   
 41  23  40  1   
 42  23  41  1   
 43  23  42  1   
@<TRIPOS>SUBSTRUCTURE
  1 ****   6 GROUP 4 **** **** 0

# MOE 2024.06 (io_trps.svl 2023.06)
