@<TRIPOS>MOLECULE
NONAME
47 48 1 0 0 
SMALL
USER_CHARGES


@<TRIPOS>ATOM
  1 O       -1.1550    -1.2450    -0.3380 O.co2 1 <1>  -0.9000 
  2 C       -1.9420    -1.0590     0.6080 C.2   1 <1>   0.9790 
  3 O       -2.0160    -1.9020     1.5160 O.co2 1 <1>  -0.9000 
  4 C       -2.7410     0.1570     0.6500 C.ar  1 <1>  -0.1790 
  5 C       -2.7380     1.0430    -0.4250 C.ar  1 <1>  -0.1500 
  6 C       -3.5200     0.4990     1.7560 C.ar  1 <1>  -0.1500 
  7 C       -3.4430     2.2300    -0.3890 C.ar  1 <1>  -0.1440 
  8 C       -4.2380     1.6800     1.8020 C.ar  1 <1>  -0.1500 
  9 C       -4.1950     2.5650     0.7290 C.ar  1 <1>   0.0830 
 10 C       -3.3530     3.1750    -1.5580 C.3   1 <1>   0.4870 
 11 O       -4.8340     3.7650     0.7170 O.3   1 <1>  -0.3630 
 12 N       -2.5780     4.3560    -1.0990 N.4   1 <1>  -0.9590 
 13 C       -5.6890     4.1430     1.7770 C.3   1 <1>   0.0400 
 14 C       -2.6690     5.5450    -1.9760 C.3   1 <1>   0.5660 
 15 C       -1.1640     3.9720    -0.7710 C.3   1 <1>   0.2630 
 16 C       -1.8940     6.6880    -1.3330 C.ar  1 <1>  -0.1430 
 17 C       -4.1260     5.9580    -2.1850 C.3   1 <1>  -0.2400 
 18 C       -2.2050     7.1410    -0.0580 C.ar  1 <1>  -0.1500 
 19 C       -0.8490     7.2860    -2.0240 C.ar  1 <1>  -0.1500 
 20 C       -1.4850     8.1680     0.5280 C.ar  1 <1>   0.0830 
 21 C       -0.1270     8.3160    -1.4460 C.ar  1 <1>  -0.1500 
 22 O       -1.8610     8.5320     1.7770 O.3   1 <1>  -0.3630 
 23 C       -0.4390     8.7590    -0.1730 C.ar  1 <1>  -0.1500 
 24 C       -1.2380     9.6070     2.4470 C.3   1 <1>   0.0400 
 25 H       -2.1510     0.7740    -1.2900 H     1 <1>   0.1500 
 26 H       -3.5450    -0.1850     2.5890 H     1 <1>   0.1500 
 27 H       -4.8130     1.8860     2.6840 H     1 <1>   0.1500 
 28 H       -4.3520     3.4580    -1.8440 H     1 <1>   0.0800 
 29 H       -2.8660     2.6980    -2.3920 H     1 <1>   0.0800 
 30 H       -3.0360     4.6070    -0.2100 H     1 <1>   0.4500 
 31 H       -6.1160     5.1020     1.5430 H     1 <1>   0.0800 
 32 H       -5.1150     4.2110     2.6850 H     1 <1>   0.0800 
 33 H       -6.4710     3.4100     1.8740 H     1 <1>   0.0800 
 34 H       -2.2260     5.3210    -2.9330 H     1 <1>   0.0800 
 35 H       -0.6410     3.6620    -1.6600 H     1 <1>   0.0800 
 36 H       -1.1490     3.1570    -0.0640 H     1 <1>   0.0800 
 37 H       -0.6380     4.8050    -0.3320 H     1 <1>   0.0800 
 38 H       -4.6420     6.0530    -1.2460 H     1 <1>   0.0800 
 39 H       -4.6440     5.2600    -2.8150 H     1 <1>   0.0800 
 40 H       -4.1530     6.9140    -2.6770 H     1 <1>   0.0800 
 41 H       -3.0100     6.7120     0.5110 H     1 <1>   0.1500 
 42 H       -0.5850     6.9640    -3.0180 H     1 <1>   0.1500 
 43 H        0.6810     8.7790    -1.9880 H     1 <1>   0.1500 
 44 H        0.1380     9.5590     0.2520 H     1 <1>   0.1500 
 45 H       -1.7130     9.7270     3.4040 H     1 <1>   0.0800 
 46 H       -1.3630    10.5030     1.8630 H     1 <1>   0.0800 
 47 H       -0.1960     9.3780     2.5830 H     1 <1>   0.0800 
@<TRIPOS>BOND
  1   1   2  ar  
  2   2   3  ar  
  3   2   4  1   
  4   4   5  ar  
  5   4   6  ar  
  6   5   7  ar  
  7   5  25  1   
  8   6   8  ar  
  9   6  26  1   
 10   7   9  ar  
 11   7  10  1   
 12   8   9  ar  
 13   8  27  1   
 14   9  11  1   
 15  10  12  1   
 16  10  28  1   
 17  10  29  1   
 18  11  13  1   
 19  12  14  1   
 20  12  15  1   
 21  12  30  1   
 22  13  31  1   
 23  13  32  1   
 24  13  33  1   
 25  14  16  1   
 26  14  17  1   
 27  14  34  1   
 28  15  35  1   
 29  15  36  1   
 30  15  37  1   
 31  16  18  ar  
 32  16  19  ar  
 33  17  38  1   
 34  17  39  1   
 35  17  40  1   
 36  18  20  ar  
 37  18  41  1   
 38  19  21  ar  
 39  19  42  1   
 40  20  22  1   
 41  20  23  ar  
 42  21  23  ar  
 43  21  43  1   
 44  22  24  1   
 45  23  44  1   
 46  24  45  1   
 47  24  46  1   
 48  24  47  1   
@<TRIPOS>SUBSTRUCTURE
  1 ****  12 GROUP 4 **** **** 0

# MOE 2024.06 (io_trps.svl 2023.06)
