@<TRIPOS>MOLECULE
NONAME
51 53 1 0 0 
SMALL
USER_CHARGES


@<TRIPOS>ATOM
  1 O       -1.0290     0.6510    -1.5140 O.2   1 <1>  -0.5700 
  2 C       -1.6590     1.1470    -0.5970 C.2   1 <1>   0.5440 
  3 N       -2.8560     0.5730    -0.2290 N.am  1 <1>  -0.6600 
  4 C       -1.1350     2.3280     0.0680 C.ar  1 <1>   0.0860 
  5 C       -3.2410    -0.7860    -0.7440 C.3   1 <1>   0.1400 
  6 C       -3.8810     1.2810     0.6070 C.3   1 <1>   0.1400 
  7 C       -0.6770     3.4190    -0.6680 C.ar  1 <1>  -0.1500 
  8 C       -1.0620     2.4180     1.4560 C.ar  1 <1>  -0.1500 
  9 C       -4.3090    -1.4100     0.1600 C.3   1 <1>   0.2000 
 10 C       -5.2810     0.9410     0.0980 C.3   1 <1>  -0.1600 
 11 C       -0.1840     4.5620    -0.0600 C.ar  1 <1>  -0.1440 
 12 C       -0.5740     3.5520     2.0770 C.ar  1 <1>  -0.1500 
 13 O       -4.5880    -2.7150    -0.2190 O.3   1 <1>  -0.6800 
 14 C       -5.6150    -0.5790     0.2280 C.3   1 <1>  -0.1060 
 15 C       -0.1340     4.6320     1.3280 C.ar  1 <1>  -0.1440 
 16 C        0.2970     5.7130    -0.9310 C.3   1 <1>  -0.0970 
 17 C       -6.1830    -0.9530     1.5990 C.2   1 <1>   0.9060 
 18 C       -6.6250    -0.9590    -0.8980 C.3   1 <1>  -0.0160 
 19 C        0.3960     5.8640     2.0460 C.3   1 <1>  -0.0960 
 20 O       -6.1690    -0.1390     2.5290 O.co2 1 <1>  -0.9000 
 21 O       -6.5650    -2.1220     1.7640 O.co2 1 <1>  -0.9000 
 22 C       -7.8200    -0.0160    -1.0240 C.ar  1 <1>  -0.1440 
 23 C       -7.9320     0.8390    -2.1120 C.ar  1 <1>  -0.1500 
 24 C       -8.8110    -0.0080    -0.0550 C.ar  1 <1>  -0.1500 
 25 C       -9.0160     1.6910    -2.2270 C.ar  1 <1>  -0.1500 
 26 C       -9.8950     0.8450    -0.1670 C.ar  1 <1>  -0.1500 
 27 C      -10.0000     1.6960    -1.2530 C.ar  1 <1>  -0.1500 
 28 H       -3.6210    -0.6870    -1.7450 H     1 <1>   0.0800 
 29 H       -2.3720    -1.4200    -0.7600 H     1 <1>   0.0800 
 30 H       -3.7900     0.9750     1.6370 H     1 <1>   0.0800 
 31 H       -3.7350     2.3460     0.5530 H     1 <1>   0.0800 
 32 H       -0.7160     3.3490    -1.7400 H     1 <1>   0.1500 
 33 H       -1.3930     1.5840     2.0510 H     1 <1>   0.1500 
 34 H       -3.8790    -1.4760     1.1470 H     1 <1>   0.0800 
 35 H       -6.0110     1.5200     0.6360 H     1 <1>   0.0800 
 36 H       -5.3300     1.2520    -0.9300 H     1 <1>   0.0800 
 37 H       -0.5390     3.5860     3.1520 H     1 <1>   0.1500 
 38 H       -5.3080    -3.0180     0.3940 H     1 <1>   0.4000 
 39 H        0.1960     5.4760    -1.9750 H     1 <1>   0.0800 
 40 H        1.3330     5.9190    -0.7320 H     1 <1>   0.0800 
 41 H       -0.2830     6.5960    -0.7290 H     1 <1>   0.0800 
 42 H       -6.1010    -0.9830    -1.8360 H     1 <1>   0.0800 
 43 H       -7.0040    -1.9520    -0.7330 H     1 <1>   0.0800 
 44 H        0.3430     5.7430     3.1130 H     1 <1>   0.0800 
 45 H       -0.1850     6.7270     1.7760 H     1 <1>   0.0800 
 46 H        1.4230     6.0340     1.7770 H     1 <1>   0.0800 
 47 H       -7.1710     0.8430    -2.8710 H     1 <1>   0.1500 
 48 H       -8.7360    -0.6660     0.7960 H     1 <1>   0.1500 
 49 H       -9.0930     2.3510    -3.0730 H     1 <1>   0.1500 
 50 H      -10.6520     0.8430     0.5980 H     1 <1>   0.1500 
 51 H      -10.8420     2.3580    -1.3380 H     1 <1>   0.1500 
@<TRIPOS>BOND
  1   1   2  2   
  2   2   3  am  
  3   2   4  1   
  4   3   5  1   
  5   3   6  1   
  6   4   7  ar  
  7   4   8  ar  
  8   5   9  1   
  9   5  28  1   
 10   5  29  1   
 11   6  10  1   
 12   6  30  1   
 13   6  31  1   
 14   7  11  ar  
 15   7  32  1   
 16   8  12  ar  
 17   8  33  1   
 18   9  13  1   
 19   9  14  1   
 20   9  34  1   
 21  10  14  1   
 22  10  35  1   
 23  10  36  1   
 24  11  15  ar  
 25  11  16  1   
 26  12  15  ar  
 27  12  37  1   
 28  13  38  1   
 29  14  17  1   
 30  14  18  1   
 31  15  19  1   
 32  16  39  1   
 33  16  40  1   
 34  16  41  1   
 35  17  20  ar  
 36  17  21  ar  
 37  18  22  1   
 38  18  42  1   
 39  18  43  1   
 40  19  44  1   
 41  19  45  1   
 42  19  46  1   
 43  22  23  ar  
 44  22  24  ar  
 45  23  25  ar  
 46  23  47  1   
 47  24  26  ar  
 48  24  48  1   
 49  25  27  ar  
 50  25  49  1   
 51  26  27  ar  
 52  26  50  1   
 53  27  51  1   
@<TRIPOS>SUBSTRUCTURE
  1 ****   6 GROUP 4 **** **** 0

# MOE 2024.06 (io_trps.svl 2023.06)
