@<TRIPOS>MOLECULE
NONAME
30 31 1 0 0 
SMALL
USER_CHARGES


@<TRIPOS>ATOM
  1 S       -0.1080     0.7660     1.5010 S.3   1 <1>   0.1810 
  2 N       -0.7060    -0.8010     1.6940 N.2   1 <1>  -0.2210 
  3 C       -1.3800     1.2450     0.4250 C.2   1 <1>  -0.0450 
  4 N       -1.7570    -0.9560     1.0200 N.2   1 <1>  -0.2270 
  5 C       -2.1580     0.1490     0.3090 C.2   1 <1>   0.0460 
  6 C       -1.3920     2.5830    -0.1050 C.2   1 <1>   0.7150 
  7 C       -3.4250    -0.0130    -0.5130 C.3   1 <1>  -0.0590 
  8 O       -2.2800     2.9300    -0.8590 O.2   1 <1>  -0.5700 
  9 N       -0.4080     3.4740     0.2340 N.am  1 <1>  -0.4930 
 10 C       -0.2310     4.8220    -0.1680 C.2   1 <1>   0.0630 
 11 C       -1.0060     5.6160    -1.0170 C.2   1 <1>   0.1390 
 12 C        0.7760     5.6310     0.2180 C.2   1 <1>  -0.3020 
 13 N       -0.5230     6.8150    -1.1480 N.2   1 <1>  -0.7070 
 14 N        0.5840     6.8290    -0.3830 N.pl3 1 <1>   0.3140 
 15 C        1.4350     8.0460    -0.2640 C.3   1 <1>   0.1760 
 16 C        2.8500     7.7740    -0.7920 C.3   1 <1>  -0.2400 
 17 C        1.4730     8.5440     1.1870 C.3   1 <1>  -0.2400 
 18 H       -3.6780     0.8870    -1.0400 H     1 <1>   0.0800 
 19 H       -4.2440    -0.2710     0.1340 H     1 <1>   0.0800 
 20 H       -3.2910    -0.8030    -1.2290 H     1 <1>   0.0800 
 21 H        0.3090     3.1310     0.8680 H     1 <1>   0.3700 
 22 H       -1.9030     5.2830    -1.5110 H     1 <1>   0.1500 
 23 H        1.6050     5.4360     0.8710 H     1 <1>   0.1500 
 24 H        0.9820     8.8070    -0.8760 H     1 <1>   0.0800 
 25 H        3.3460     7.0290    -0.1950 H     1 <1>   0.0800 
 26 H        3.4320     8.6770    -0.7630 H     1 <1>   0.0800 
 27 H        2.8020     7.4370    -1.8120 H     1 <1>   0.0800 
 28 H        1.9360     7.8180     1.8310 H     1 <1>   0.0800 
 29 H        0.4730     8.7400     1.5330 H     1 <1>   0.0800 
 30 H        2.0340     9.4600     1.2450 H     1 <1>   0.0800 
@<TRIPOS>BOND
  1   1   2  1   
  2   1   3  1   
  3   2   4  2   
  4   3   5  2   
  5   3   6  1   
  6   4   5  1   
  7   5   7  1   
  8   6   8  2   
  9   6   9  am  
 10   7  18  1   
 11   7  19  1   
 12   7  20  1   
 13   9  10  1   
 14   9  21  1   
 15  10  11  1   
 16  10  12  2   
 17  11  13  2   
 18  11  22  1   
 19  12  14  1   
 20  12  23  1   
 21  13  14  1   
 22  14  15  1   
 23  15  16  1   
 24  15  17  1   
 25  15  24  1   
 26  16  25  1   
 27  16  26  1   
 28  16  27  1   
 29  17  28  1   
 30  17  29  1   
 31  17  30  1   
@<TRIPOS>SUBSTRUCTURE
  1 ****   9 GROUP 4 **** **** 0

# MOE 2024.06 (io_trps.svl 2023.06)
