@<TRIPOS>MOLECULE
NONAME
44 46 1 0 0 
SMALL
USER_CHARGES


@<TRIPOS>ATOM
  1 F       -0.0670    -0.5790    -0.9840 F     1 <1>  -0.3400 
  2 C       -1.3610    -0.7910    -0.7480 C.3   1 <1>   1.1640 
  3 F       -1.9980    -0.3400    -1.8250 F     1 <1>  -0.3400 
  4 F       -1.6820     0.0300     0.2470 F     1 <1>  -0.3400 
  5 C       -1.6790    -2.2770    -0.4310 C.ar  1 <1>   0.1660 
  6 N       -2.9340    -2.6550    -0.2400 N.ar  1 <1>  -0.6200 
  7 C       -0.6610    -3.2080    -0.3450 C.ar  1 <1>  -0.1500 
  8 C       -3.1670    -3.9380     0.0320 C.ar  1 <1>   0.7200 
  9 C       -0.9970    -4.5090    -0.0640 C.ar  1 <1>   0.1600 
 10 N       -2.2350    -4.8830     0.1210 N.ar  1 <1>  -0.6200 
 11 N       -4.4780    -4.3170     0.2220 N.pl3 1 <1>  -0.8380 
 12 C       -4.9210    -5.7340    -0.0220 C.3   1 <1>   0.2090 
 13 C       -5.5790    -3.3110     0.3300 C.3   1 <1>   0.2090 
 14 C       -6.0890    -6.1630     0.8840 C.3   1 <1>   0.2000 
 15 C       -6.6640    -3.7860     1.2990 C.3   1 <1>  -0.1600 
 16 O       -6.5460    -7.4040     0.4640 O.3   1 <1>  -0.6800 
 17 C       -7.2700    -5.1650     0.9230 C.3   1 <1>  -0.1060 
 18 C       -8.2340    -5.6740     2.0070 C.2   1 <1>   0.9060 
 19 C       -8.0190    -5.1130    -0.4450 C.3   1 <1>  -0.0160 
 20 O       -8.5730    -4.9450     2.9460 O.co2 1 <1>  -0.9000 
 21 O       -8.6530    -6.8400     1.9190 O.co2 1 <1>  -0.9000 
 22 C       -8.9330    -3.9050    -0.6560 C.ar  1 <1>  -0.1430 
 23 C      -10.0570    -3.7190     0.1350 C.ar  1 <1>  -0.1500 
 24 C       -8.6520    -2.9810    -1.6530 C.ar  1 <1>  -0.1500 
 25 C      -10.8820    -2.6250    -0.0610 C.ar  1 <1>  -0.1500 
 26 C       -9.4750    -1.8860    -1.8510 C.ar  1 <1>  -0.1500 
 27 C      -10.5920    -1.7070    -1.0550 C.ar  1 <1>  -0.1500 
 28 H        0.3710    -2.9460    -0.4910 H     1 <1>   0.1500 
 29 H       -0.2290    -5.2610     0.0090 H     1 <1>   0.1500 
 30 H       -5.2150    -5.8250    -1.0520 H     1 <1>   0.0800 
 31 H       -4.1120    -6.4200     0.1510 H     1 <1>   0.0800 
 32 H       -5.1980    -2.3720     0.6920 H     1 <1>   0.0800 
 33 H       -5.9990    -3.1440    -0.6450 H     1 <1>   0.0800 
 34 H       -5.7090    -6.2920     1.8840 H     1 <1>   0.0800 
 35 H       -6.2320    -3.8460     2.2830 H     1 <1>   0.0800 
 36 H       -7.4420    -3.0470     1.3540 H     1 <1>   0.0800 
 37 H       -7.4060    -7.5460     0.9620 H     1 <1>   0.4000 
 38 H       -7.3060    -5.1340    -1.2460 H     1 <1>   0.0800 
 39 H       -8.6150    -6.0030    -0.5550 H     1 <1>   0.0800 
 40 H      -10.2920    -4.4240     0.9150 H     1 <1>   0.1500 
 41 H       -7.7880    -3.1100    -2.2800 H     1 <1>   0.1500 
 42 H      -11.7450    -2.4950     0.5670 H     1 <1>   0.1500 
 43 H       -9.2460    -1.1750    -2.6250 H     1 <1>   0.1500 
 44 H      -11.2340    -0.8570    -1.2050 H     1 <1>   0.1500 
@<TRIPOS>BOND
  1   1   2  1   
  2   2   3  1   
  3   2   4  1   
  4   2   5  1   
  5   5   6  ar  
  6   5   7  ar  
  7   6   8  ar  
  8   7   9  ar  
  9   7  28  1   
 10   8  10  ar  
 11   8  11  1   
 12   9  10  ar  
 13   9  29  1   
 14  11  12  1   
 15  11  13  1   
 16  12  14  1   
 17  12  30  1   
 18  12  31  1   
 19  13  15  1   
 20  13  32  1   
 21  13  33  1   
 22  14  16  1   
 23  14  17  1   
 24  14  34  1   
 25  15  17  1   
 26  15  35  1   
 27  15  36  1   
 28  16  37  1   
 29  17  18  1   
 30  17  19  1   
 31  18  20  ar  
 32  18  21  ar  
 33  19  22  1   
 34  19  38  1   
 35  19  39  1   
 36  22  23  ar  
 37  22  24  ar  
 38  23  25  ar  
 39  23  40  1   
 40  24  26  ar  
 41  24  41  1   
 42  25  27  ar  
 43  25  42  1   
 44  26  27  ar  
 45  26  43  1   
 46  27  44  1   
@<TRIPOS>SUBSTRUCTURE
  1 ****  13 GROUP 4 **** **** 0

# MOE 2024.06 (io_trps.svl 2023.06)
