@<TRIPOS>MOLECULE
NONAME
49 52 1 0 0 
SMALL
USER_CHARGES


@<TRIPOS>ATOM
  1 O       -1.1310     1.1170     2.0430 O.2   1 <1>  -0.5700 
  2 C       -1.5050     1.6970     1.0340 C.2   1 <1>   0.7150 
  3 N       -2.5600     1.1430     0.3250 N.am  1 <1>  -0.6600 
  4 C       -0.8050     2.9230     0.6680 C.2   1 <1>   0.1010 
  5 C       -3.4280     0.0790     0.9120 C.3   1 <1>   0.1400 
  6 C       -2.9110     1.5360    -1.0680 C.3   1 <1>   0.1400 
  7 N       -1.1200     3.8440    -0.2100 N.2   1 <1>  -0.5650 
  8 N        0.3540     3.2320     1.3180 N.pl3 1 <1>   0.0330 
  9 C       -4.8970     0.5200     1.0190 C.3   1 <1>   0.1400 
 10 C       -4.0660     2.5410    -1.0330 C.3   1 <1>  -0.1600 
 11 C       -0.1330     4.7700    -0.1290 C.ar  1 <1>   0.2270 
 12 C        0.7990     4.4070     0.8210 C.ar  1 <1>  -0.1520 
 13 N       -5.5500     0.5860    -0.3260 N.am  1 <1>  -0.6600 
 14 C       -5.4650     1.9100    -1.0240 C.3   1 <1>   0.1400 
 15 C        0.0320     5.9570    -0.8430 C.ar  1 <1>  -0.1500 
 16 C        1.9140     5.2050     1.0920 C.ar  1 <1>  -0.1500 
 17 C       -6.2230    -0.4620    -0.9200 C.2   1 <1>   0.5690 
 18 C        1.1270     6.7520    -0.5860 C.ar  1 <1>  -0.1500 
 19 C        2.0680     6.3750     0.3830 C.ar  1 <1>  -0.1500 
 20 O       -6.5750    -0.3940    -2.0760 O.2   1 <1>  -0.5700 
 21 C       -6.5650    -1.7460    -0.1430 C.3   1 <1>  -0.0190 
 22 C       -5.4040    -2.7420    -0.0110 C.3   1 <1>  -0.1600 
 23 C       -7.6920    -2.5940    -0.7460 C.3   1 <1>  -0.1600 
 24 C       -6.0330    -4.1360     0.1170 C.3   1 <1>  -0.1600 
 25 C       -7.5400    -3.9540    -0.0740 C.3   1 <1>  -0.1600 
 26 H       -3.0850    -0.1750     1.8990 H     1 <1>   0.0800 
 27 H       -3.3530    -0.8060     0.3080 H     1 <1>   0.0800 
 28 H       -3.1870     0.6670    -1.6410 H     1 <1>   0.0800 
 29 H       -2.0570     1.9740    -1.5520 H     1 <1>   0.0800 
 30 H        0.7650     2.6650     2.0650 H     1 <1>   0.2700 
 31 H       -4.9480     1.4810     1.5000 H     1 <1>   0.0800 
 32 H       -5.4180    -0.1730     1.6510 H     1 <1>   0.0800 
 33 H       -3.9980     3.1610    -1.9080 H     1 <1>   0.0800 
 34 H       -3.9520     3.1970    -0.1880 H     1 <1>   0.0800 
 35 H       -5.7770     1.7970    -2.0480 H     1 <1>   0.0800 
 36 H       -6.1580     2.5910    -0.5610 H     1 <1>   0.0800 
 37 H       -0.7050     6.2220    -1.5780 H     1 <1>   0.1500 
 38 H        2.6290     4.9050     1.8370 H     1 <1>   0.1500 
 39 H        1.2700     7.6710    -1.1260 H     1 <1>   0.1500 
 40 H        2.9150     7.0130     0.5650 H     1 <1>   0.1500 
 41 H       -6.8960    -1.4700     0.8410 H     1 <1>   0.0800 
 42 H       -4.7900    -2.5210     0.8430 H     1 <1>   0.0800 
 43 H       -4.7980    -2.7060    -0.9010 H     1 <1>   0.0800 
 44 H       -7.5420    -2.7090    -1.8060 H     1 <1>   0.0800 
 45 H       -8.6610    -2.1580    -0.5740 H     1 <1>   0.0800 
 46 H       -5.8240    -4.5730     1.0780 H     1 <1>   0.0800 
 47 H       -5.6390    -4.7810    -0.6500 H     1 <1>   0.0800 
 48 H       -7.9700    -4.7430    -0.6670 H     1 <1>   0.0800 
 49 H       -8.0240    -3.9340     0.8870 H     1 <1>   0.0800 
@<TRIPOS>BOND
  1   1   2  2   
  2   2   3  am  
  3   2   4  1   
  4   3   5  1   
  5   3   6  1   
  6   4   7  2   
  7   4   8  1   
  8   5   9  1   
  9   5  26  1   
 10   5  27  1   
 11   6  10  1   
 12   6  28  1   
 13   6  29  1   
 14   7  11  1   
 15   8  12  1   
 16   8  30  1   
 17   9  13  1   
 18   9  31  1   
 19   9  32  1   
 20  10  14  1   
 21  10  33  1   
 22  10  34  1   
 23  11  12  ar  
 24  11  15  ar  
 25  12  16  ar  
 26  13  14  1   
 27  13  17  am  
 28  14  35  1   
 29  14  36  1   
 30  15  18  ar  
 31  15  37  1   
 32  16  19  ar  
 33  16  38  1   
 34  17  20  2   
 35  17  21  1   
 36  18  19  ar  
 37  18  39  1   
 38  19  40  1   
 39  21  22  1   
 40  21  23  1   
 41  21  41  1   
 42  22  24  1   
 43  22  42  1   
 44  22  43  1   
 45  23  25  1   
 46  23  44  1   
 47  23  45  1   
 48  24  25  1   
 49  24  46  1   
 50  24  47  1   
 51  25  48  1   
 52  25  49  1   
@<TRIPOS>SUBSTRUCTURE
  1 ****   3 GROUP 4 **** **** 0

# MOE 2024.06 (io_trps.svl 2023.06)
