@<TRIPOS>MOLECULE
NONAME
56 58 1 0 0 
SMALL
USER_CHARGES


@<TRIPOS>ATOM
  1 O       -0.1840    -5.0560    -1.7090 O.2   1 <1>  -0.5700 
  2 C       -0.0070    -3.9300    -1.2790 C.2   1 <1>   0.5440 
  3 N       -0.9310    -3.0070    -1.6370 N.am  1 <1>  -0.8000 
  4 C        1.1290    -3.5490    -0.4740 C.ar  1 <1>   0.0860 
  5 C        1.3420    -4.0390     0.8290 C.ar  1 <1>   0.4100 
  6 C        2.0440    -2.6320    -0.9690 C.ar  1 <1>  -0.1500 
  7 N        2.3490    -3.6550     1.6050 N.ar  1 <1>  -0.6200 
  8 N        0.5110    -4.9830     1.3960 N.pl3 1 <1>  -0.8380 
  9 C        3.0970    -2.2390    -0.1720 C.ar  1 <1>  -0.1430 
 10 C        3.1990    -2.7810     1.1060 C.ar  1 <1>   0.1670 
 11 C        0.5500    -6.3620     0.8790 C.3   1 <1>   0.2090 
 12 C       -0.0060    -4.8460     2.7770 C.3   1 <1>   0.2090 
 13 C        4.1040    -1.2300    -0.7100 C.3   1 <1>  -0.0970 
 14 C        4.3340    -2.3840     2.0330 C.3   1 <1>  -0.0970 
 15 C       -0.8820    -6.8380     0.6190 C.3   1 <1>   0.2000 
 16 C       -1.5320    -4.9590     2.7320 C.3   1 <1>  -0.1600 
 17 O       -1.4520    -7.3030     1.8210 O.3   1 <1>  -0.5600 
 18 C       -0.8770    -7.9750    -0.4100 C.3   1 <1>   0.3430 
 19 C       -2.1250    -6.3820     2.6430 C.3   1 <1>   0.1200 
 20 N       -2.1610    -8.7360    -0.3450 N.4   1 <1>  -0.9590 
 21 C       -2.0130   -10.1310    -0.8380 C.3   1 <1>   0.3430 
 22 C       -3.2660    -7.9990    -1.0170 C.3   1 <1>   0.3430 
 23 C       -3.3150   -10.8990    -0.5970 C.3   1 <1>  -0.1600 
 24 C       -4.5880    -8.7300    -0.7780 C.3   1 <1>  -0.1600 
 25 C       -4.5200   -10.1940    -1.2350 C.3   1 <1>  -0.1600 
 26 H       -1.6820    -3.2550    -2.2810 H     1 <1>   0.3700 
 27 H       -0.8920    -2.0330    -1.3320 H     1 <1>   0.3700 
 28 H        1.9230    -2.2400    -1.9640 H     1 <1>   0.1500 
 29 H        1.0410    -7.0100     1.5840 H     1 <1>   0.0800 
 30 H        1.1200    -6.3770    -0.0340 H     1 <1>   0.0800 
 31 H        0.2690    -3.8790     3.1640 H     1 <1>   0.0800 
 32 H        0.4220    -5.5990     3.4170 H     1 <1>   0.0800 
 33 H        3.8170    -0.8780    -1.6840 H     1 <1>   0.0800 
 34 H        5.0750    -1.6860    -0.7900 H     1 <1>   0.0800 
 35 H        4.1690    -0.3820    -0.0520 H     1 <1>   0.0800 
 36 H        4.3220    -2.9930     2.9200 H     1 <1>   0.0800 
 37 H        4.2240    -1.3560     2.3240 H     1 <1>   0.0800 
 38 H        5.2800    -2.5210     1.5450 H     1 <1>   0.0800 
 39 H       -1.4770    -6.0310     0.2310 H     1 <1>   0.0800 
 40 H       -1.9030    -4.3570     1.9220 H     1 <1>   0.0800 
 41 H       -1.9160    -4.5150     3.6320 H     1 <1>   0.0800 
 42 H       -0.0560    -8.6320    -0.1770 H     1 <1>   0.0800 
 43 H       -0.7150    -7.5730    -1.3970 H     1 <1>   0.0800 
 44 H       -3.1440    -6.3200     2.3010 H     1 <1>   0.0800 
 45 H       -2.1380    -6.8140     3.6290 H     1 <1>   0.0800 
 46 H       -2.3770    -8.7620     0.6680 H     1 <1>   0.4500 
 47 H       -1.2050   -10.6230    -0.3210 H     1 <1>   0.0800 
 48 H       -1.7900   -10.1220    -1.8930 H     1 <1>   0.0800 
 49 H       -3.0720    -7.9380    -2.0760 H     1 <1>   0.0800 
 50 H       -3.3340    -6.9960    -0.6250 H     1 <1>   0.0800 
 51 H       -3.4720   -11.0080     0.4620 H     1 <1>   0.0800 
 52 H       -3.2210   -11.8890    -1.0110 H     1 <1>   0.0800 
 53 H       -5.3720    -8.2250    -1.3160 H     1 <1>   0.0800 
 54 H       -4.8350    -8.6840     0.2690 H     1 <1>   0.0800 
 55 H       -5.4290   -10.7050    -0.9630 H     1 <1>   0.0800 
 56 H       -4.4310   -10.2310    -2.3080 H     1 <1>   0.0800 
@<TRIPOS>BOND
  1   1   2  2   
  2   2   3  am  
  3   2   4  1   
  4   3  26  1   
  5   3  27  1   
  6   4   5  ar  
  7   4   6  ar  
  8   5   7  ar  
  9   5   8  1   
 10   6   9  ar  
 11   6  28  1   
 12   7  10  ar  
 13   8  11  1   
 14   8  12  1   
 15   9  10  ar  
 16   9  13  1   
 17  10  14  1   
 18  11  15  1   
 19  11  29  1   
 20  11  30  1   
 21  12  16  1   
 22  12  31  1   
 23  12  32  1   
 24  13  33  1   
 25  13  34  1   
 26  13  35  1   
 27  14  36  1   
 28  14  37  1   
 29  14  38  1   
 30  15  17  1   
 31  15  18  1   
 32  15  39  1   
 33  16  19  1   
 34  16  40  1   
 35  16  41  1   
 36  17  19  1   
 37  18  20  1   
 38  18  42  1   
 39  18  43  1   
 40  19  44  1   
 41  19  45  1   
 42  20  21  1   
 43  20  22  1   
 44  20  46  1   
 45  21  23  1   
 46  21  47  1   
 47  21  48  1   
 48  22  24  1   
 49  22  49  1   
 50  22  50  1   
 51  23  25  1   
 52  23  51  1   
 53  23  52  1   
 54  24  25  1   
 55  24  53  1   
 56  24  54  1   
 57  25  55  1   
 58  25  56  1   
@<TRIPOS>SUBSTRUCTURE
  1 ****  11 GROUP 4 **** **** 0

# MOE 2024.06 (io_trps.svl 2023.06)
