@<TRIPOS>MOLECULE
NONAME
37 37 1 0 0 
SMALL
USER_CHARGES


@<TRIPOS>ATOM
  1 S        1.9270    -0.2910    -0.0130 S.3   1 <1>  -0.4600 
  2 C        2.4170     0.8290     1.3460 C.3   1 <1>   0.1310 
  3 C        0.1250    -0.1090    -0.0630 C.3   1 <1>   0.0700 
  4 C        1.9910     2.2670     1.0610 C.2   1 <1>   0.5690 
  5 C       -0.4080    -1.0940    -1.0990 C.3   1 <1>  -0.2400 
  6 O        0.9700     2.6490     1.5860 O.2   1 <1>  -0.5700 
  7 N        2.7280     3.0930     0.2490 N.am  1 <1>  -0.6600 
  8 C        2.2620     4.4940    -0.0240 C.3   1 <1>   0.3200 
  9 C        3.9290     2.6560    -0.5180 C.3   1 <1>   0.1400 
 10 C        3.2560     5.5440     0.4460 C.2   1 <1>   0.2980 
 11 C        5.1970     2.8390     0.3170 C.3   1 <1>  -0.2400 
 12 O        3.4730     5.6720     1.7310 O.3   1 <1>  -0.0190 
 13 N        3.9230     6.3290    -0.3050 N.2   1 <1>  -0.5650 
 14 N        4.3660     6.6110     1.8070 N.2   1 <1>  -0.4100 
 15 C        4.6310     6.9790     0.6140 C.2   1 <1>   0.3350 
 16 C        5.6360     8.0650     0.2440 C.3   1 <1>   0.3010 
 17 O        6.8170     7.5080    -0.2700 O.3   1 <1>  -0.5600 
 18 C        7.7780     8.4440    -0.6350 C.3   1 <1>   0.0400 
 19 H        3.4800     0.7490     1.4600 H     1 <1>   0.0800 
 20 H        1.9350     0.4700     2.2360 H     1 <1>   0.0800 
 21 H       -0.0950     0.9100    -0.3330 H     1 <1>   0.0800 
 22 H       -0.2520    -0.3220     0.9220 H     1 <1>   0.0800 
 23 H        0.0110    -0.8770    -2.0660 H     1 <1>   0.0800 
 24 H       -1.4780    -1.0190    -1.1600 H     1 <1>   0.0800 
 25 H       -0.1470    -2.1000    -0.8220 H     1 <1>   0.0800 
 26 H        1.3200     4.6860     0.4560 H     1 <1>   0.0800 
 27 H        2.1120     4.6090    -1.0830 H     1 <1>   0.0800 
 28 H        4.0120     3.2300    -1.4260 H     1 <1>   0.0800 
 29 H        3.8290     1.6230    -0.8010 H     1 <1>   0.0800 
 30 H        5.3940     3.8810     0.4940 H     1 <1>   0.0800 
 31 H        6.0370     2.4340    -0.2170 H     1 <1>   0.0800 
 32 H        5.1180     2.3320     1.2600 H     1 <1>   0.0800 
 33 H        5.8830     8.6380     1.1200 H     1 <1>   0.0800 
 34 H        5.2060     8.7090    -0.5020 H     1 <1>   0.0800 
 35 H        8.6340     7.9120    -1.0120 H     1 <1>   0.0800 
 36 H        8.0620     9.0200     0.2290 H     1 <1>   0.0800 
 37 H        7.3810     9.0810    -1.4060 H     1 <1>   0.0800 
@<TRIPOS>BOND
  1   1   2  1   
  2   1   3  1   
  3   2   4  1   
  4   2  19  1   
  5   2  20  1   
  6   3   5  1   
  7   3  21  1   
  8   3  22  1   
  9   4   6  2   
 10   4   7  am  
 11   5  23  1   
 12   5  24  1   
 13   5  25  1   
 14   7   8  1   
 15   7   9  1   
 16   8  10  1   
 17   8  26  1   
 18   8  27  1   
 19   9  11  1   
 20   9  28  1   
 21   9  29  1   
 22  10  12  1   
 23  10  13  2   
 24  11  30  1   
 25  11  31  1   
 26  11  32  1   
 27  12  14  1   
 28  13  15  1   
 29  14  15  2   
 30  15  16  1   
 31  16  17  1   
 32  16  33  1   
 33  16  34  1   
 34  17  18  1   
 35  18  35  1   
 36  18  36  1   
 37  18  37  1   
@<TRIPOS>SUBSTRUCTURE
  1 ****   7 GROUP 4 **** **** 0

# MOE 2024.06 (io_trps.svl 2023.06)
