@<TRIPOS>MOLECULE
NONAME
43 45 1 0 0 
SMALL
USER_CHARGES


@<TRIPOS>ATOM
  1 F       -1.9150     1.3280    -0.9150 F     1 <1>  -0.1900 
  2 C       -1.0420     2.0180    -0.2330 C.ar  1 <1>   0.1900 
  3 C       -1.4320     2.6410     0.9510 C.ar  1 <1>   0.0860 
  4 C        0.2450     2.0900    -0.7350 C.ar  1 <1>  -0.1500 
  5 C       -2.7820     2.5710     1.4640 C.2   1 <1>   0.5440 
  6 C       -0.4420     3.3450     1.6390 C.ar  1 <1>  -0.1500 
  7 C        1.1990     2.8050    -0.0340 C.ar  1 <1>  -0.1500 
  8 O       -2.9740     2.0460     2.5450 O.2   1 <1>  -0.5700 
  9 N       -3.8520     3.1200     0.7880 N.am  1 <1>  -0.6600 
 10 C        0.8530     3.4300     1.1540 C.ar  1 <1>  -0.1500 
 11 C       -5.2520     2.8640     1.2570 C.3   1 <1>   0.1400 
 12 C       -3.6860     3.9880    -0.4150 C.3   1 <1>   0.1400 
 13 C       -6.2810     2.8930     0.1010 C.3   1 <1>   0.0000 
 14 C       -4.8510     4.9720    -0.5310 C.3   1 <1>  -0.1600 
 15 C       -7.6830     2.5790     0.6660 C.3   1 <1>   0.2000 
 16 C       -6.2200     4.2700    -0.6180 C.3   1 <1>  -0.1600 
 17 C       -6.0450     1.7040    -0.8540 C.3   1 <1>  -0.1600 
 18 O       -8.6590     2.9640    -0.2620 O.3   1 <1>  -0.5600 
 19 C       -7.7280     1.0530     0.8090 C.3   1 <1>  -0.1600 
 20 C       -6.7200     0.4920    -0.2030 C.3   1 <1>  -0.1600 
 21 C       -9.9150     3.2260     0.2770 C.3   1 <1>   0.0400 
 22 H        0.4920     1.5920    -1.6550 H     1 <1>   0.1500 
 23 H       -0.7030     3.8250     2.5670 H     1 <1>   0.1500 
 24 H        2.2080     2.8740    -0.4060 H     1 <1>   0.1500 
 25 H        1.5960     3.9810     1.7050 H     1 <1>   0.1500 
 26 H       -5.2880     1.9100     1.7540 H     1 <1>   0.0800 
 27 H       -5.5070     3.6170     1.9810 H     1 <1>   0.0800 
 28 H       -2.7640     4.5380    -0.3450 H     1 <1>   0.0800 
 29 H       -3.6460     3.3710    -1.2960 H     1 <1>   0.0800 
 30 H       -4.8320     5.6130     0.3330 H     1 <1>   0.0800 
 31 H       -4.7120     5.5950    -1.3960 H     1 <1>   0.0800 
 32 H       -7.8580     3.0920     1.5980 H     1 <1>   0.0800 
 33 H       -6.4960     4.1470    -1.6500 H     1 <1>   0.0800 
 34 H       -6.9490     4.9320    -0.1840 H     1 <1>   0.0800 
 35 H       -6.5380     1.8950    -1.7920 H     1 <1>   0.0800 
 36 H       -5.0050     1.5140    -1.0490 H     1 <1>   0.0800 
 37 H       -7.4140     0.7820     1.8020 H     1 <1>   0.0800 
 38 H       -8.7140     0.6600     0.6430 H     1 <1>   0.0800 
 39 H       -5.9870    -0.1110     0.3050 H     1 <1>   0.0800 
 40 H       -7.2120    -0.1090    -0.9480 H     1 <1>   0.0800 
 41 H      -10.5780     3.4770    -0.5310 H     1 <1>   0.0800 
 42 H       -9.8420     4.0560     0.9570 H     1 <1>   0.0800 
 43 H      -10.2800     2.3510     0.7850 H     1 <1>   0.0800 
@<TRIPOS>BOND
  1   1   2  1   
  2   2   3  ar  
  3   2   4  ar  
  4   3   5  1   
  5   3   6  ar  
  6   4   7  ar  
  7   4  22  1   
  8   5   8  2   
  9   5   9  am  
 10   6  10  ar  
 11   6  23  1   
 12   7  10  ar  
 13   7  24  1   
 14   9  11  1   
 15   9  12  1   
 16  10  25  1   
 17  11  13  1   
 18  11  26  1   
 19  11  27  1   
 20  12  14  1   
 21  12  28  1   
 22  12  29  1   
 23  13  15  1   
 24  13  16  1   
 25  13  17  1   
 26  14  16  1   
 27  14  30  1   
 28  14  31  1   
 29  15  18  1   
 30  15  19  1   
 31  15  32  1   
 32  16  33  1   
 33  16  34  1   
 34  17  20  1   
 35  17  35  1   
 36  17  36  1   
 37  18  21  1   
 38  19  20  1   
 39  19  37  1   
 40  19  38  1   
 41  20  39  1   
 42  20  40  1   
 43  21  41  1   
 44  21  42  1   
 45  21  43  1   
@<TRIPOS>SUBSTRUCTURE
  1 ****   9 GROUP 4 **** **** 0

# MOE 2024.06 (io_trps.svl 2023.06)
