@<TRIPOS>MOLECULE
NONAME
50 53 1 0 0 
SMALL
USER_CHARGES


@<TRIPOS>ATOM
  1 O       -0.6580    -0.2990     0.1830 O.2   1 <1>  -0.5700 
  2 C       -1.6330     0.3850    -0.0590 C.2   1 <1>   0.7160 
  3 N       -2.7770    -0.2410    -0.4570 N.am  1 <1>  -0.7300 
  4 C       -1.5990     1.8120     0.0700 C.2   1 <1>  -0.0860 
  5 C       -3.0090    -1.6680    -0.7790 C.3   1 <1>   0.2200 
  6 C       -2.6900     2.6850    -0.0470 C.2   1 <1>   0.3720 
  7 C       -0.5620     2.6550     0.3400 C.2   1 <1>   0.0870 
  8 C       -2.5540    -2.5810     0.3720 C.3   1 <1>   0.0960 
  9 C       -2.3140    -1.9760    -2.1080 C.3   1 <1>  -0.2400 
 10 N       -2.3360     3.9060     0.1430 N.2   1 <1>  -0.4100 
 11 N       -4.0160     2.3120    -0.3190 N.pl3 1 <1>  -0.8210 
 12 O       -1.0540     3.8670     0.3780 O.3   1 <1>  -0.0190 
 13 C        0.8480     2.4660     0.5660 C.ar  1 <1>   0.0530 
 14 N       -2.9400    -3.9770     0.1130 N.pl3 1 <1>   0.3140 
 15 C       -4.7020     3.1270    -1.3800 C.3   1 <1>   0.2090 
 16 C       -4.8680     2.1740     0.9080 C.3   1 <1>   0.2090 
 17 C        1.4970     3.1500     1.5940 C.ar  1 <1>  -0.1500 
 18 C        1.6200     1.6220    -0.2320 C.ar  1 <1>  -0.1500 
 19 N       -4.2020    -4.3820     0.0610 N.2   1 <1>  -0.7070 
 20 C       -2.1460    -5.0280    -0.1120 C.2   1 <1>   0.0360 
 21 C       -5.3910     4.3890    -0.8220 C.3   1 <1>   0.1200 
 22 C       -5.5150     3.5060     1.3300 C.3   1 <1>   0.1200 
 23 C        2.8520     2.9920     1.8230 C.ar  1 <1>  -0.1500 
 24 C        2.9740     1.4590    -0.0090 C.ar  1 <1>  -0.1500 
 25 C       -4.0780    -5.6440    -0.1890 C.2   1 <1>   0.3660 
 26 N       -2.8240    -6.1000    -0.3080 N.2   1 <1>  -0.5650 
 27 O       -6.2160     4.0710     0.2610 O.3   1 <1>  -0.5600 
 28 C        3.5940     2.1440     1.0210 C.ar  1 <1>  -0.1500 
 29 H       -3.5570     0.4030    -0.6620 H     1 <1>   0.3700 
 30 H       -4.0710    -1.8010    -0.9060 H     1 <1>   0.0800 
 31 H       -3.0230    -2.2720     1.2860 H     1 <1>   0.0800 
 32 H       -1.4880    -2.5450     0.4900 H     1 <1>   0.0800 
 33 H       -1.2460    -1.8950    -2.0070 H     1 <1>   0.0800 
 34 H       -2.6500    -1.2940    -2.8680 H     1 <1>   0.0800 
 35 H       -2.5520    -2.9740    -2.4320 H     1 <1>   0.0800 
 36 H       -5.4430     2.5160    -1.8640 H     1 <1>   0.0800 
 37 H       -3.9850     3.4220    -2.1270 H     1 <1>   0.0800 
 38 H       -4.2710     1.8010     1.7230 H     1 <1>   0.0800 
 39 H       -5.6460     1.4560     0.7180 H     1 <1>   0.0800 
 40 H        0.9290     3.8130     2.2230 H     1 <1>   0.1500 
 41 H        1.1520     1.0860    -1.0380 H     1 <1>   0.1500 
 42 H       -1.0730    -4.9600    -0.1230 H     1 <1>   0.1500 
 43 H       -6.0040     4.8410    -1.5810 H     1 <1>   0.0800 
 44 H       -4.6600     5.1110    -0.4990 H     1 <1>   0.0800 
 45 H       -4.7650     4.2040     1.6620 H     1 <1>   0.0800 
 46 H       -6.2130     3.3430     2.1310 H     1 <1>   0.0800 
 47 H        3.3300     3.5280     2.6240 H     1 <1>   0.1500 
 48 H        3.5480     0.7980    -0.6360 H     1 <1>   0.1500 
 49 H       -4.9180    -6.3120    -0.3000 H     1 <1>   0.1500 
 50 H        4.6480     2.0170     1.1970 H     1 <1>   0.1500 
@<TRIPOS>BOND
  1   1   2  2   
  2   2   3  am  
  3   2   4  1   
  4   3   5  1   
  5   3  29  1   
  6   4   6  1   
  7   4   7  2   
  8   5   8  1   
  9   5   9  1   
 10   5  30  1   
 11   6  10  2   
 12   6  11  1   
 13   7  12  1   
 14   7  13  1   
 15   8  14  1   
 16   8  31  1   
 17   8  32  1   
 18   9  33  1   
 19   9  34  1   
 20   9  35  1   
 21  10  12  1   
 22  11  15  1   
 23  11  16  1   
 24  13  17  ar  
 25  13  18  ar  
 26  14  19  1   
 27  14  20  1   
 28  15  21  1   
 29  15  36  1   
 30  15  37  1   
 31  16  22  1   
 32  16  38  1   
 33  16  39  1   
 34  17  23  ar  
 35  17  40  1   
 36  18  24  ar  
 37  18  41  1   
 38  19  25  2   
 39  20  26  2   
 40  20  42  1   
 41  21  27  1   
 42  21  43  1   
 43  21  44  1   
 44  22  27  1   
 45  22  45  1   
 46  22  46  1   
 47  23  28  ar  
 48  23  47  1   
 49  24  28  ar  
 50  24  48  1   
 51  25  26  1   
 52  25  49  1   
 53  28  50  1   
@<TRIPOS>SUBSTRUCTURE
  1 ****   2 GROUP 4 **** **** 0

# MOE 2024.06 (io_trps.svl 2023.06)
