@<TRIPOS>MOLECULE
NONAME
51 54 1 0 0 
SMALL
USER_CHARGES


@<TRIPOS>ATOM
  1 O       -1.9610     0.1470    -1.9050 O.2   1 <1>  -0.5700 
  2 C       -1.8620     0.2290    -0.6960 C.2   1 <1>   0.7160 
  3 N       -1.8030    -0.9280     0.0220 N.am  1 <1>  -0.7300 
  4 C       -1.8390     1.5010    -0.0160 C.2   1 <1>  -0.0860 
  5 C       -1.9100    -2.2970    -0.5330 C.3   1 <1>   0.2200 
  6 C       -1.5060     2.7620    -0.4250 C.2   1 <1>  -0.3320 
  7 C       -2.2080     1.6920     1.3180 C.2   1 <1>   0.1390 
  8 C       -3.2980    -2.8840    -0.2930 C.3   1 <1>  -0.0800 
  9 C       -1.0630    -3.2330     0.3160 C.3   1 <1>   0.1200 
 10 N       -1.6820     3.5900     0.6240 N.pl3 1 <1>   0.3140 
 11 C       -1.0180     3.2170    -1.7950 C.3   1 <1>  -0.0600 
 12 N       -2.1150     2.9210     1.7050 N.2   1 <1>  -0.7070 
 13 C       -3.1930    -3.4190     1.1420 C.3   1 <1>   0.1200 
 14 C       -4.4730    -1.9090    -0.5240 C.3   1 <1>  -0.0170 
 15 O       -1.8310    -3.4800     1.4540 O.3   1 <1>  -0.5600 
 16 C       -1.4570     5.0520     0.6820 C.3   1 <1>   0.0960 
 17 C       -5.8860    -2.4880    -0.3840 C.ar  1 <1>  -0.1440 
 18 C       -2.7140     5.8230     0.2580 C.3   1 <1>  -0.2400 
 19 C       -7.0000    -1.6120    -0.3610 C.ar  1 <1>   0.0000 
 20 C       -6.1490    -3.8260    -0.2840 C.ar  1 <1>  -0.1500 
 21 C       -8.2890    -2.1780    -0.2030 C.ar  1 <1>   0.3100 
 22 C       -6.9130    -0.2050    -0.4930 C.ar  1 <1>  -0.1500 
 23 C       -7.4650    -4.2830    -0.1400 C.ar  1 <1>   0.1600 
 24 N       -8.5030    -3.5120    -0.0920 N.ar  1 <1>  -0.6200 
 25 C       -9.4070    -1.3300    -0.1600 C.ar  1 <1>  -0.1500 
 26 C       -8.0230     0.5940    -0.4500 C.ar  1 <1>  -0.1500 
 27 C       -9.2880     0.0270    -0.2790 C.ar  1 <1>  -0.1500 
 28 H       -1.6640    -0.8950     1.0330 H     1 <1>   0.3700 
 29 H       -1.6240    -2.3140    -1.5720 H     1 <1>   0.0800 
 30 H       -2.5440     0.9050     1.9720 H     1 <1>   0.1500 
 31 H       -3.4060    -3.7200    -0.9590 H     1 <1>   0.0800 
 32 H       -0.1180    -2.8030     0.5990 H     1 <1>   0.0800 
 33 H       -0.9050    -4.1710    -0.1870 H     1 <1>   0.0800 
 34 H       -0.9100     2.3820    -2.4630 H     1 <1>   0.0800 
 35 H       -0.0610     3.6990    -1.7090 H     1 <1>   0.0800 
 36 H       -1.7210     3.9050    -2.2290 H     1 <1>   0.0800 
 37 H       -3.6130    -4.4050     1.2390 H     1 <1>   0.0800 
 38 H       -3.6600    -2.7550     1.8500 H     1 <1>   0.0800 
 39 H       -4.3790    -1.4880    -1.5110 H     1 <1>   0.0800 
 40 H       -4.3820    -1.1050     0.1830 H     1 <1>   0.0800 
 41 H       -1.1960     5.3080     1.6930 H     1 <1>   0.0800 
 42 H       -0.6310     5.3020     0.0440 H     1 <1>   0.0800 
 43 H       -3.5320     5.5770     0.9130 H     1 <1>   0.0800 
 44 H       -2.9830     5.5790    -0.7540 H     1 <1>   0.0800 
 45 H       -2.5320     6.8810     0.3210 H     1 <1>   0.0800 
 46 H       -5.3820    -4.5740    -0.3120 H     1 <1>   0.1500 
 47 H       -5.9550     0.2590    -0.6360 H     1 <1>   0.1500 
 48 H       -7.6230    -5.3450    -0.0630 H     1 <1>   0.1500 
 49 H      -10.3700    -1.7900    -0.0320 H     1 <1>   0.1500 
 50 H       -7.9380     1.6620    -0.5490 H     1 <1>   0.1500 
 51 H      -10.1540     0.6660    -0.2450 H     1 <1>   0.1500 
@<TRIPOS>BOND
  1   1   2  2   
  2   2   3  am  
  3   2   4  1   
  4   3   5  1   
  5   3  28  1   
  6   4   6  2   
  7   4   7  1   
  8   5   8  1   
  9   5   9  1   
 10   5  29  1   
 11   6  10  1   
 12   6  11  1   
 13   7  12  2   
 14   7  30  1   
 15   8  13  1   
 16   8  14  1   
 17   8  31  1   
 18   9  15  1   
 19   9  32  1   
 20   9  33  1   
 21  10  12  1   
 22  10  16  1   
 23  11  34  1   
 24  11  35  1   
 25  11  36  1   
 26  13  15  1   
 27  13  37  1   
 28  13  38  1   
 29  14  17  1   
 30  14  39  1   
 31  14  40  1   
 32  16  18  1   
 33  16  41  1   
 34  16  42  1   
 35  17  19  ar  
 36  17  20  ar  
 37  18  43  1   
 38  18  44  1   
 39  18  45  1   
 40  19  21  ar  
 41  19  22  ar  
 42  20  23  ar  
 43  20  46  1   
 44  21  24  ar  
 45  21  25  ar  
 46  22  26  ar  
 47  22  47  1   
 48  23  24  ar  
 49  23  48  1   
 50  25  27  ar  
 51  25  49  1   
 52  26  27  ar  
 53  26  50  1   
 54  27  51  1   
@<TRIPOS>SUBSTRUCTURE
  1 ****  14 GROUP 4 **** **** 0

# MOE 2024.06 (io_trps.svl 2023.06)
