@<TRIPOS>MOLECULE
NONAME
52 55 1 0 0 
SMALL
USER_CHARGES


@<TRIPOS>ATOM
  1 S        0.7140    -0.8740     0.6570 S.o2  1 <1>   1.3330 
  2 O        0.6020    -1.0000    -0.7800 O.2   1 <1>  -0.6500 
  3 O        1.3280    -1.9480     1.4090 O.2   1 <1>  -0.6500 
  4 N       -0.8220    -0.5660     1.3240 N.am  1 <1>  -0.8490 
  5 C        1.6350     0.6210     1.0540 C.3   1 <1>   0.0890 
  6 C       -1.3440    -1.5700     2.2590 C.3   1 <1>   0.1960 
  7 C       -1.8500    -0.0830     0.3930 C.3   1 <1>   0.1960 
  8 C        1.0310     1.9030     0.4850 C.ar  1 <1>  -0.1440 
  9 C       -1.9310    -2.7690     1.5130 C.3   1 <1>  -0.1600 
 10 C       -2.5060    -1.2260    -0.3920 C.3   1 <1>  -0.1600 
 11 C        1.3860     2.3750    -0.7690 C.ar  1 <1>   0.1900 
 12 C        0.0920     2.6240     1.2090 C.ar  1 <1>  -0.1500 
 13 C       -3.0320    -2.3400     0.5300 C.3   1 <1>   0.4240 
 14 F        2.2750     1.7250    -1.4710 F     1 <1>  -0.1900 
 15 C        0.8400     3.5220    -1.3140 C.ar  1 <1>  -0.1500 
 16 C       -0.4660     3.7780     0.6800 C.ar  1 <1>  -0.1500 
 17 O       -4.0130    -1.7510     1.3580 O.3   1 <1>  -0.5600 
 18 C       -3.6020    -3.5530    -0.2610 C.ar  1 <1>  -0.1430 
 19 C       -0.0960     4.2280    -0.5780 C.ar  1 <1>  -0.1500 
 20 C       -5.3100    -1.6560     0.8640 C.3   1 <1>   0.1200 
 21 C       -2.7990    -4.3340    -1.1030 C.ar  1 <1>   0.0820 
 22 C       -4.9510    -3.8870    -0.1510 C.ar  1 <1>  -0.1430 
 23 C       -5.8700    -3.0630     0.7270 C.3   1 <1>  -0.0170 
 24 O       -1.4870    -4.0160    -1.2360 O.3   1 <1>  -0.3630 
 25 C       -3.3410    -5.4170    -1.7910 C.ar  1 <1>  -0.1500 
 26 C       -5.4810    -4.9660    -0.8390 C.ar  1 <1>  -0.1500 
 27 C       -0.6810    -4.4970    -2.2870 C.3   1 <1>   0.0400 
 28 C       -4.6770    -5.7320    -1.6590 C.ar  1 <1>  -0.1500 
 29 H        2.6390     0.5130     0.6950 H     1 <1>   0.0800 
 30 H        1.6910     0.7130     2.1200 H     1 <1>   0.0800 
 31 H       -2.1150    -1.1150     2.8590 H     1 <1>   0.0800 
 32 H       -0.5700    -1.8970     2.9310 H     1 <1>   0.0800 
 33 H       -1.4210     0.6290    -0.2930 H     1 <1>   0.0800 
 34 H       -2.6100     0.4300     0.9590 H     1 <1>   0.0800 
 35 H       -2.3460    -3.4670     2.2160 H     1 <1>   0.0800 
 36 H       -1.1290    -3.2710     1.0110 H     1 <1>   0.0800 
 37 H       -1.7870    -1.6210    -1.0780 H     1 <1>   0.0800 
 38 H       -3.3050    -0.8400    -0.9940 H     1 <1>   0.0800 
 39 H       -0.2160     2.2870     2.1850 H     1 <1>   0.1500 
 40 H        1.1430     3.8500    -2.2910 H     1 <1>   0.1500 
 41 H       -1.1940     4.3290     1.2510 H     1 <1>   0.1500 
 42 H       -0.5350     5.1250    -0.9820 H     1 <1>   0.1500 
 43 H       -5.2980    -1.1470    -0.0840 H     1 <1>   0.0800 
 44 H       -5.8910    -1.0850     1.5670 H     1 <1>   0.0800 
 45 H       -6.8530    -3.0110     0.2950 H     1 <1>   0.0800 
 46 H       -5.9490    -3.5160     1.6990 H     1 <1>   0.0800 
 47 H       -2.7340    -6.0290    -2.4290 H     1 <1>   0.1500 
 48 H       -6.5230    -5.2150    -0.7400 H     1 <1>   0.1500 
 49 H        0.2580    -3.9730    -2.2470 H     1 <1>   0.0800 
 50 H       -1.1710    -4.2970    -3.2230 H     1 <1>   0.0800 
 51 H       -0.5170    -5.5500    -2.1480 H     1 <1>   0.0800 
 52 H       -5.0910    -6.5710    -2.1900 H     1 <1>   0.1500 
@<TRIPOS>BOND
  1   1   2  2   
  2   1   3  2   
  3   1   4  am  
  4   1   5  1   
  5   4   6  1   
  6   4   7  1   
  7   5   8  1   
  8   5  29  1   
  9   5  30  1   
 10   6   9  1   
 11   6  31  1   
 12   6  32  1   
 13   7  10  1   
 14   7  33  1   
 15   7  34  1   
 16   8  11  ar  
 17   8  12  ar  
 18   9  13  1   
 19   9  35  1   
 20   9  36  1   
 21  10  13  1   
 22  10  37  1   
 23  10  38  1   
 24  11  14  1   
 25  11  15  ar  
 26  12  16  ar  
 27  12  39  1   
 28  13  17  1   
 29  13  18  1   
 30  15  19  ar  
 31  15  40  1   
 32  16  19  ar  
 33  16  41  1   
 34  17  20  1   
 35  18  21  ar  
 36  18  22  ar  
 37  19  42  1   
 38  20  23  1   
 39  20  43  1   
 40  20  44  1   
 41  21  24  1   
 42  21  25  ar  
 43  22  23  1   
 44  22  26  ar  
 45  23  45  1   
 46  23  46  1   
 47  24  27  1   
 48  25  28  ar  
 49  25  47  1   
 50  26  28  ar  
 51  26  48  1   
 52  27  49  1   
 53  27  50  1   
 54  27  51  1   
 55  28  52  1   
@<TRIPOS>SUBSTRUCTURE
  1 ****  10 GROUP 4 **** **** 0

# MOE 2024.06 (io_trps.svl 2023.06)
