@<TRIPOS>MOLECULE
NONAME
45 47 1 0 0 
SMALL
USER_CHARGES


@<TRIPOS>ATOM
  1 F       -1.5360     0.0390    -1.7370 F     1 <1>  -0.1900 
  2 C       -1.9800     0.7510    -0.7380 C.ar  1 <1>   0.1900 
  3 C       -2.6040     0.1280     0.3530 C.ar  1 <1>   0.3960 
  4 C       -1.8230     2.1170    -0.8270 C.ar  1 <1>  -0.1500 
  5 N       -3.1170     0.8650     1.3670 N.ar  1 <1>  -0.6200 
  6 C       -2.7030    -1.3270     0.3910 C.2   1 <1>   0.5440 
  7 C       -2.3380     2.8230     0.2330 C.ar  1 <1>   0.1900 
  8 C       -2.9660     2.1800     1.2890 C.ar  1 <1>   0.1600 
  9 O       -1.6860    -1.9970     0.3320 O.2   1 <1>  -0.5700 
 10 N       -3.9130    -1.9970     0.4850 N.am  1 <1>  -0.6600 
 11 F       -2.2370     4.1230     0.2400 F     1 <1>  -0.1900 
 12 C       -4.0020    -3.4860     0.6230 C.3   1 <1>   0.1400 
 13 C       -5.2540    -1.3400     0.4450 C.3   1 <1>   0.1400 
 14 C       -4.9940    -4.0800    -0.3930 C.3   1 <1>   0.3440 
 15 C       -6.1790    -2.0440    -0.5750 C.3   1 <1>   0.2000 
 16 O       -6.2300    -3.4190    -0.3090 O.3   1 <1>  -0.5600 
 17 C       -5.1950    -5.5720    -0.1420 C.ar  1 <1>  -0.1430 
 18 C       -7.6290    -1.5070    -0.5940 C.3   1 <1>  -0.0800 
 19 C       -4.3990    -6.4940    -0.8070 C.ar  1 <1>  -0.1500 
 20 C       -6.1530    -6.0320     0.7520 C.ar  1 <1>  -0.1500 
 21 C       -7.6900    -0.0320    -1.0210 C.3   1 <1>  -0.2400 
 22 C       -8.3730    -1.6890     0.7400 C.3   1 <1>  -0.2400 
 23 C       -4.5570    -7.8510    -0.5830 C.ar  1 <1>  -0.1500 
 24 C       -6.3120    -7.3880     0.9770 C.ar  1 <1>  -0.1500 
 25 C       -5.5130    -8.2990     0.3100 C.ar  1 <1>  -0.1500 
 26 H       -1.3390     2.5930    -1.6600 H     1 <1>   0.1500 
 27 H       -3.3560     2.7800     2.0940 H     1 <1>   0.1500 
 28 H       -3.0400    -3.9440     0.4770 H     1 <1>   0.0800 
 29 H       -4.3310    -3.7290     1.6170 H     1 <1>   0.0800 
 30 H       -5.6900    -1.3880     1.4260 H     1 <1>   0.0800 
 31 H       -5.1590    -0.3050     0.1750 H     1 <1>   0.0800 
 32 H       -4.6120    -3.9390    -1.3900 H     1 <1>   0.0800 
 33 H       -5.7630    -1.9210    -1.5600 H     1 <1>   0.0800 
 34 H       -8.1550    -2.0760    -1.3430 H     1 <1>   0.0800 
 35 H       -3.6490    -6.1600    -1.5030 H     1 <1>   0.1500 
 36 H       -6.7810    -5.3300     1.2730 H     1 <1>   0.1500 
 37 H       -7.2460     0.6080    -0.2800 H     1 <1>   0.0800 
 38 H       -8.7150     0.2690    -1.1520 H     1 <1>   0.0800 
 39 H       -7.1790     0.1100    -1.9570 H     1 <1>   0.0800 
 40 H       -7.9370    -1.0890     1.5180 H     1 <1>   0.0800 
 41 H       -8.3450    -2.7210     1.0440 H     1 <1>   0.0800 
 42 H       -9.4040    -1.4040     0.6300 H     1 <1>   0.0800 
 43 H       -3.9350    -8.5580    -1.1040 H     1 <1>   0.1500 
 44 H       -7.0590    -7.7330     1.6710 H     1 <1>   0.1500 
 45 H       -5.6370    -9.3530     0.4840 H     1 <1>   0.1500 
@<TRIPOS>BOND
  1   1   2  1   
  2   2   3  ar  
  3   2   4  ar  
  4   3   5  ar  
  5   3   6  1   
  6   4   7  ar  
  7   4  26  1   
  8   5   8  ar  
  9   6   9  2   
 10   6  10  am  
 11   7   8  ar  
 12   7  11  1   
 13   8  27  1   
 14  10  12  1   
 15  10  13  1   
 16  12  14  1   
 17  12  28  1   
 18  12  29  1   
 19  13  15  1   
 20  13  30  1   
 21  13  31  1   
 22  14  16  1   
 23  14  17  1   
 24  14  32  1   
 25  15  16  1   
 26  15  18  1   
 27  15  33  1   
 28  17  19  ar  
 29  17  20  ar  
 30  18  21  1   
 31  18  22  1   
 32  18  34  1   
 33  19  23  ar  
 34  19  35  1   
 35  20  24  ar  
 36  20  36  1   
 37  21  37  1   
 38  21  38  1   
 39  21  39  1   
 40  22  40  1   
 41  22  41  1   
 42  22  42  1   
 43  23  25  ar  
 44  23  43  1   
 45  24  25  ar  
 46  24  44  1   
 47  25  45  1   
@<TRIPOS>SUBSTRUCTURE
  1 ****  10 GROUP 4 **** **** 0

# MOE 2024.06 (io_trps.svl 2023.06)
