@<TRIPOS>MOLECULE
NONAME
48 50 1 0 0 
SMALL
USER_CHARGES


@<TRIPOS>ATOM
  1 O       -1.7590     0.4660    -2.1730 O.2   1 <1>  -0.5700 
  2 C       -1.6850     0.7600    -0.9950 C.2   1 <1>   0.5440 
  3 N       -1.8950    -0.2260    -0.0750 N.am  1 <1>  -0.7300 
  4 C       -1.3800     2.1190    -0.5780 C.ar  1 <1>   0.0860 
  5 C       -2.2310    -1.6320    -0.3930 C.3   1 <1>   0.2200 
  6 C       -1.7580     2.6160     0.6710 C.ar  1 <1>  -0.1500 
  7 C       -0.6890     2.9880    -1.4230 C.ar  1 <1>  -0.1500 
  8 C       -3.7260    -1.8350    -0.2190 C.3   1 <1>  -0.0800 
  9 C       -1.6650    -2.5500     0.6830 C.3   1 <1>   0.1200 
 10 C       -1.4500     3.9080     1.0600 C.ar  1 <1>  -0.1500 
 11 C       -0.3790     4.2810    -1.0400 C.ar  1 <1>  -0.1500 
 12 C       -3.8440    -2.1050     1.2860 C.3   1 <1>   0.1200 
 13 C       -4.2390    -3.0120    -1.0690 C.3   1 <1>  -0.0160 
 14 O       -2.5880    -2.5300     1.7310 O.3   1 <1>  -0.5600 
 15 C       -0.7550     4.7490     0.2080 C.ar  1 <1>  -0.1430 
 16 C       -5.7420    -3.1870    -0.9220 C.ar  1 <1>  -0.1430 
 17 C       -0.4140     6.1690     0.6330 C.3   1 <1>  -0.0170 
 18 C       -6.6340    -2.3210    -1.5230 C.ar  1 <1>  -0.1500 
 19 C       -6.2950    -4.2160    -0.1850 C.ar  1 <1>  -0.1500 
 20 C       -1.5370     7.1350     0.2400 C.3   1 <1>  -0.1600 
 21 C       -7.9950    -2.5160    -1.3580 C.ar  1 <1>   0.1600 
 22 C       -7.6720    -4.3210    -0.0830 C.ar  1 <1>   0.1600 
 23 C       -1.2170     8.5740     0.6580 C.3   1 <1>  -0.2400 
 24 N       -8.5360    -3.4940    -0.6500 N.ar  1 <1>  -0.6200 
 25 H       -1.8130    -0.0280     0.9240 H     1 <1>   0.3700 
 26 H       -1.8760    -1.8890    -1.3780 H     1 <1>   0.0800 
 27 H       -2.3080     1.9910     1.3500 H     1 <1>   0.1500 
 28 H       -0.3920     2.6390    -2.3970 H     1 <1>   0.1500 
 29 H       -4.2700    -0.9490    -0.4950 H     1 <1>   0.0800 
 30 H       -0.7020    -2.2300     1.0390 H     1 <1>   0.0800 
 31 H       -1.6010    -3.5620     0.3240 H     1 <1>   0.0800 
 32 H       -1.7560     4.2600     2.0300 H     1 <1>   0.1500 
 33 H        0.1550     4.9220    -1.7190 H     1 <1>   0.1500 
 34 H       -4.5720    -2.8600     1.5230 H     1 <1>   0.0800 
 35 H       -4.0860    -1.2000     1.8150 H     1 <1>   0.0800 
 36 H       -3.7390    -3.9220    -0.7890 H     1 <1>   0.0800 
 37 H       -4.0160    -2.8240    -2.1060 H     1 <1>   0.0800 
 38 H       -0.2640     6.2000     1.6980 H     1 <1>   0.0800 
 39 H        0.5070     6.4730     0.1650 H     1 <1>   0.0800 
 40 H       -6.2820    -1.4980    -2.1170 H     1 <1>   0.1500 
 41 H       -5.6700    -4.9350     0.3120 H     1 <1>   0.1500 
 42 H       -1.6820     7.0970    -0.8260 H     1 <1>   0.0800 
 43 H       -2.4550     6.8230     0.7090 H     1 <1>   0.0800 
 44 H       -8.6750    -1.8300    -1.8330 H     1 <1>   0.1500 
 45 H       -8.0850    -5.1290     0.4970 H     1 <1>   0.1500 
 46 H       -0.3140     8.9130     0.1810 H     1 <1>   0.0800 
 47 H       -1.0910     8.6380     1.7250 H     1 <1>   0.0800 
 48 H       -2.0210     9.2280     0.3700 H     1 <1>   0.0800 
@<TRIPOS>BOND
  1   1   2  2   
  2   2   3  am  
  3   2   4  1   
  4   3   5  1   
  5   3  25  1   
  6   4   6  ar  
  7   4   7  ar  
  8   5   8  1   
  9   5   9  1   
 10   5  26  1   
 11   6  10  ar  
 12   6  27  1   
 13   7  11  ar  
 14   7  28  1   
 15   8  12  1   
 16   8  13  1   
 17   8  29  1   
 18   9  14  1   
 19   9  30  1   
 20   9  31  1   
 21  10  15  ar  
 22  10  32  1   
 23  11  15  ar  
 24  11  33  1   
 25  12  14  1   
 26  12  34  1   
 27  12  35  1   
 28  13  16  1   
 29  13  36  1   
 30  13  37  1   
 31  15  17  1   
 32  16  18  ar  
 33  16  19  ar  
 34  17  20  1   
 35  17  38  1   
 36  17  39  1   
 37  18  21  ar  
 38  18  40  1   
 39  19  22  ar  
 40  19  41  1   
 41  20  23  1   
 42  20  42  1   
 43  20  43  1   
 44  21  24  ar  
 45  21  44  1   
 46  22  24  ar  
 47  22  45  1   
 48  23  46  1   
 49  23  47  1   
 50  23  48  1   
@<TRIPOS>SUBSTRUCTURE
  1 ****   3 GROUP 4 **** **** 0

# MOE 2024.06 (io_trps.svl 2023.06)
