@<TRIPOS>MOLECULE
NONAME
33 34 1 0 0 
SMALL
USER_CHARGES


@<TRIPOS>ATOM
  1 F        0.9580     0.3110     1.5750 F     1 <1>  -0.3400 
  2 C        1.2180     0.9830     0.4550 C.3   1 <1>   0.8560 
  3 F        0.3430     0.5180    -0.4340 F     1 <1>  -0.3400 
  4 N        2.6270     0.6910    -0.0030 N.pl3 1 <1>   0.0480 
  5 C        3.6480     1.6130    -0.1870 C.2   1 <1>  -0.2370 
  6 C        3.1430    -0.5440    -0.3040 C.2   1 <1>  -0.3320 
  7 C        3.5340     3.0330     0.0250 C.2   1 <1>   0.7150 
  8 C        4.7620     0.9250    -0.6030 C.2   1 <1>  -0.1500 
  9 C        4.4430    -0.4230    -0.6730 C.2   1 <1>  -0.1500 
 10 C        2.3610    -1.8470    -0.2320 C.3   1 <1>  -0.0600 
 11 O        2.4480     3.5530     0.2040 O.2   1 <1>  -0.5700 
 12 N        4.6730     3.7860     0.0310 N.am  1 <1>  -0.4930 
 13 C        4.8520     5.1850     0.1890 C.2   1 <1>   0.0630 
 14 C        6.0690     5.8690     0.2480 C.2   1 <1>   0.1080 
 15 C        3.9220     6.1540     0.3120 C.2   1 <1>  -0.3020 
 16 N        5.9110     7.1480     0.3940 N.2   1 <1>  -0.7070 
 17 C        7.4400     5.2370     0.1570 C.3   1 <1>  -0.0590 
 18 N        4.5800     7.3240     0.4350 N.pl3 1 <1>   0.3140 
 19 C        3.9830     8.6550     0.5890 C.3   1 <1>   0.0160 
 20 H        0.9980     2.0160     0.6310 H     1 <1>   0.0800 
 21 H        5.7340     1.3160    -0.8500 H     1 <1>   0.1500 
 22 H        5.1170    -1.2090    -0.9700 H     1 <1>   0.1500 
 23 H        1.5230    -1.8210    -0.9060 H     1 <1>   0.0800 
 24 H        2.0030    -2.0160     0.7680 H     1 <1>   0.0800 
 25 H        2.9910    -2.6740    -0.5090 H     1 <1>   0.0800 
 26 H        5.5280     3.2500    -0.0780 H     1 <1>   0.3700 
 27 H        2.8520     6.0710     0.3170 H     1 <1>   0.1500 
 28 H        7.5640     4.5180     0.9460 H     1 <1>   0.0800 
 29 H        8.1960     5.9940     0.2570 H     1 <1>   0.0800 
 30 H        7.5570     4.7540    -0.7950 H     1 <1>   0.0800 
 31 H        2.9800     8.5580     0.9570 H     1 <1>   0.0800 
 32 H        3.9800     9.1470    -0.3650 H     1 <1>   0.0800 
 33 H        4.5730     9.2220     1.2850 H     1 <1>   0.0800 
@<TRIPOS>BOND
  1   1   2  1   
  2   2   3  1   
  3   2   4  1   
  4   2  20  1   
  5   4   5  1   
  6   4   6  1   
  7   5   7  1   
  8   5   8  2   
  9   6   9  2   
 10   6  10  1   
 11   7  11  2   
 12   7  12  am  
 13   8   9  1   
 14   8  21  1   
 15   9  22  1   
 16  10  23  1   
 17  10  24  1   
 18  10  25  1   
 19  12  13  1   
 20  12  26  1   
 21  13  14  1   
 22  13  15  2   
 23  14  16  2   
 24  14  17  1   
 25  15  18  1   
 26  15  27  1   
 27  16  18  1   
 28  17  28  1   
 29  17  29  1   
 30  17  30  1   
 31  18  19  1   
 32  19  31  1   
 33  19  32  1   
 34  19  33  1   
@<TRIPOS>SUBSTRUCTURE
  1 ****   7 GROUP 4 **** **** 0

# MOE 2024.06 (io_trps.svl 2023.06)
