@<TRIPOS>MOLECULE
NONAME
43 44 1 0 0 
SMALL
USER_CHARGES


@<TRIPOS>ATOM
  1 O        4.6870     2.2880     4.4400 O.co2 1 <1>  -0.9000 
  2 C        4.3330     2.2540     3.2440 C.2   1 <1>   1.0320 
  3 O        3.7000     1.2560     2.8480 O.co2 1 <1>  -0.9000 
  4 C        4.6670     3.3650     2.3630 C.2   1 <1>  -0.0920 
  5 O        4.3190     3.4030     1.0750 O.3   1 <1>  -0.2800 
  6 C        5.3530     4.5060     2.6470 C.2   1 <1>  -0.1500 
  7 C        4.7610     4.5210     0.5400 C.2   1 <1>  -0.0400 
  8 C        5.4140     5.2530     1.4690 C.2   1 <1>  -0.1500 
  9 C        4.4760     4.7610    -0.9320 C.3   1 <1>   0.3200 
 10 N        5.1570     5.9880    -1.3950 N.am  1 <1>  -0.7300 
 11 C        4.6550     6.8990    -2.2610 C.2   1 <1>   0.5690 
 12 O        3.6110     6.7270    -2.8450 O.2   1 <1>  -0.5700 
 13 C        5.4500     8.1870    -2.5050 C.3   1 <1>   0.1710 
 14 N        6.3230     8.6020    -1.3660 N.3   1 <1>  -0.8100 
 15 C        7.2980     9.6370    -1.7980 C.3   1 <1>   0.2900 
 16 C        5.5120     9.0810    -0.2300 C.3   1 <1>   0.0300 
 17 C        8.3070    10.0150    -0.7180 C.2   1 <1>   0.2980 
 18 O        9.1250     9.0960    -0.2710 O.3   1 <1>  -0.0190 
 19 N        8.4420    11.1700    -0.1960 N.2   1 <1>  -0.5650 
 20 N        9.8440     9.7190     0.6120 N.2   1 <1>  -0.4100 
 21 C        9.4370    10.9270     0.6490 C.2   1 <1>   0.3350 
 22 C        9.9930    12.0380     1.5420 C.3   1 <1>   0.1010 
 23 C       11.0260    12.8770     0.7780 C.3   1 <1>  -0.2400 
 24 C       10.6130    11.4960     2.8400 C.3   1 <1>  -0.2400 
 25 H        5.7680     4.7730     3.6020 H     1 <1>   0.1500 
 26 H        5.8930     6.2100     1.3690 H     1 <1>   0.1500 
 27 H        3.4140     4.8470    -1.0820 H     1 <1>   0.0800 
 28 H        4.8350     3.9210    -1.5000 H     1 <1>   0.0800 
 29 H        6.0140     6.2360    -0.8940 H     1 <1>   0.3700 
 30 H        4.7580     8.9760    -2.7420 H     1 <1>   0.0800 
 31 H        6.0580     8.0120    -3.3740 H     1 <1>   0.0800 
 32 H        6.7710    10.5240    -2.1030 H     1 <1>   0.0800 
 33 H        7.8510     9.2700    -2.6440 H     1 <1>   0.0800 
 34 H        4.7990     8.3300     0.0670 H     1 <1>   0.0800 
 35 H        4.9800     9.9790    -0.4960 H     1 <1>   0.0800 
 36 H        6.1430     9.2890     0.6180 H     1 <1>   0.0800 
 37 H        9.1690    12.6760     1.8110 H     1 <1>   0.0800 
 38 H       11.8610    12.2650     0.4860 H     1 <1>   0.0800 
 39 H       11.3830    13.6850     1.3910 H     1 <1>   0.0800 
 40 H       10.5780    13.2910    -0.1080 H     1 <1>   0.0800 
 41 H       11.4570    10.8670     2.6200 H     1 <1>   0.0800 
 42 H        9.8860    10.9140     3.3780 H     1 <1>   0.0800 
 43 H       10.9370    12.3060     3.4690 H     1 <1>   0.0800 
@<TRIPOS>BOND
  1   1   2  ar  
  2   2   3  ar  
  3   2   4  1   
  4   4   5  1   
  5   4   6  2   
  6   5   7  1   
  7   6   8  1   
  8   6  25  1   
  9   7   8  2   
 10   7   9  1   
 11   8  26  1   
 12   9  10  1   
 13   9  27  1   
 14   9  28  1   
 15  10  11  am  
 16  10  29  1   
 17  11  12  2   
 18  11  13  1   
 19  13  14  1   
 20  13  30  1   
 21  13  31  1   
 22  14  15  1   
 23  14  16  1   
 24  15  17  1   
 25  15  32  1   
 26  15  33  1   
 27  16  34  1   
 28  16  35  1   
 29  16  36  1   
 30  17  18  1   
 31  17  19  2   
 32  18  20  1   
 33  19  21  1   
 34  20  21  2   
 35  21  22  1   
 36  22  23  1   
 37  22  24  1   
 38  22  37  1   
 39  23  38  1   
 40  23  39  1   
 41  23  40  1   
 42  24  41  1   
 43  24  42  1   
 44  24  43  1   
@<TRIPOS>SUBSTRUCTURE
  1 ****  16 GROUP 4 **** **** 0

# MOE 2024.06 (io_trps.svl 2023.06)
