@<TRIPOS>MOLECULE
NONAME
37 38 1 0 0 
SMALL
USER_CHARGES


@<TRIPOS>ATOM
  1 O        0.9580     0.1870     0.1310 O.co2 1 <1>  -0.9000 
  2 C        1.7330     1.1160    -0.1690 C.2   1 <1>   0.9790 
  3 O        1.2630     2.0740    -0.8200 O.co2 1 <1>  -0.9000 
  4 C        3.1600     1.1190     0.1720 C.ar  1 <1>   0.1310 
  5 N        3.6990     0.4150     1.1950 N.ar  1 <1>  -0.6200 
  6 C        3.9750     1.9250    -0.6260 C.ar  1 <1>   0.1600 
  7 C        4.9930     0.5830     1.3260 C.ar  1 <1>   0.1600 
  8 N        5.2790     2.1100    -0.4850 N.ar  1 <1>  -0.6200 
  9 C        5.7910     1.4080     0.5170 C.ar  1 <1>   0.4100 
 10 N        7.1590     1.5540     0.7360 N.pl3 1 <1>  -0.8380 
 11 C        7.8730     2.7620     0.2270 C.3   1 <1>   0.2090 
 12 C        7.9970     0.3230     0.8420 C.3   1 <1>   0.1290 
 13 C        7.2840     4.0420     0.8600 C.3   1 <1>   0.3430 
 14 N        7.1490     5.1880    -0.1040 N.4   1 <1>  -0.9590 
 15 C        6.9350     6.4830     0.6250 C.3   1 <1>   0.3430 
 16 C        5.9910     4.9480    -1.0410 C.3   1 <1>   0.3430 
 17 C        6.6720     7.6400    -0.3570 C.3   1 <1>   0.1200 
 18 C        5.7270     6.1660    -1.9480 C.3   1 <1>   0.1200 
 19 O        5.5900     7.3350    -1.1880 O.3   1 <1>  -0.5600 
 20 H        3.4990     2.4520    -1.4360 H     1 <1>   0.1500 
 21 H        5.4740     0.0520     2.1250 H     1 <1>   0.1500 
 22 H        7.7810     2.7860    -0.8450 H     1 <1>   0.0800 
 23 H        8.9180     2.6950     0.4780 H     1 <1>   0.0800 
 24 H        7.3800    -0.5600     0.8650 H     1 <1>   0.0800 
 25 H        8.5860     0.3570     1.7420 H     1 <1>   0.0800 
 26 H        8.6540     0.2480    -0.0080 H     1 <1>   0.0800 
 27 H        7.9150     4.3280     1.6840 H     1 <1>   0.0800 
 28 H        6.3100     3.8040     1.2560 H     1 <1>   0.0800 
 29 H        8.0020     5.2700    -0.6680 H     1 <1>   0.4500 
 30 H        7.7980     6.7150     1.2270 H     1 <1>   0.0800 
 31 H        6.0840     6.3950     1.2820 H     1 <1>   0.0800 
 32 H        5.0970     4.7450    -0.4720 H     1 <1>   0.0800 
 33 H        6.1810     4.0820    -1.6540 H     1 <1>   0.0800 
 34 H        7.5350     7.8370    -0.9700 H     1 <1>   0.0800 
 35 H        6.4230     8.5360     0.1840 H     1 <1>   0.0800 
 36 H        4.8110     6.0230    -2.4950 H     1 <1>   0.0800 
 37 H        6.5280     6.3030    -2.6530 H     1 <1>   0.0800 
@<TRIPOS>BOND
  1   1   2  ar  
  2   2   3  ar  
  3   2   4  1   
  4   4   5  ar  
  5   4   6  ar  
  6   5   7  ar  
  7   6   8  ar  
  8   6  20  1   
  9   7   9  ar  
 10   7  21  1   
 11   8   9  ar  
 12   9  10  1   
 13  10  11  1   
 14  10  12  1   
 15  11  13  1   
 16  11  22  1   
 17  11  23  1   
 18  12  24  1   
 19  12  25  1   
 20  12  26  1   
 21  13  14  1   
 22  13  27  1   
 23  13  28  1   
 24  14  15  1   
 25  14  16  1   
 26  14  29  1   
 27  15  17  1   
 28  15  30  1   
 29  15  31  1   
 30  16  18  1   
 31  16  32  1   
 32  16  33  1   
 33  17  19  1   
 34  17  34  1   
 35  17  35  1   
 36  18  19  1   
 37  18  36  1   
 38  18  37  1   
@<TRIPOS>SUBSTRUCTURE
  1 ****   8 GROUP 4 **** **** 0

# MOE 2024.06 (io_trps.svl 2023.06)
