@<TRIPOS>MOLECULE
NONAME
54 56 1 0 0 
SMALL
USER_CHARGES


@<TRIPOS>ATOM
  1 O       -1.0970     0.1170     1.6570 O.2   1 <1>  -0.5700 
  2 C       -1.9430     0.7580     1.0820 C.2   1 <1>   0.5690 
  3 N       -3.2070     0.2320     0.9160 N.am  1 <1>  -0.6600 
  4 C       -1.5220     2.1410     0.5680 C.3   1 <1>  -0.0190 
  5 C       -4.2210     0.6580    -0.0960 C.3   1 <1>   0.1400 
  6 C       -3.6080    -0.9990     1.6690 C.3   1 <1>   0.1400 
  7 C       -2.4480     3.2830     1.0440 C.3   1 <1>  -0.1600 
  8 C       -1.2410     2.1590    -0.9560 C.3   1 <1>  -0.1600 
  9 C       -4.5400    -0.5030    -1.0640 C.3   1 <1>   0.3430 
 10 C       -3.8890    -2.1540     0.6940 C.3   1 <1>   0.3430 
 11 C       -1.9450     4.6800     0.6260 C.3   1 <1>   0.2000 
 12 C       -1.4500     3.5390    -1.6040 C.3   1 <1>  -0.1600 
 13 N       -4.9170    -1.7720    -0.3450 N.4   1 <1>  -0.9590 
 14 O       -3.0790     5.4740     0.3770 O.3   1 <1>  -0.5600 
 15 C       -1.0510     4.6600    -0.6430 C.3   1 <1>   0.2000 
 16 C       -5.1670    -2.8900    -1.2960 C.3   1 <1>   0.4860 
 17 C       -3.6140     6.1040     1.5000 C.3   1 <1>   0.0400 
 18 O       -1.1840     5.8590    -1.3110 O.3   1 <1>  -0.6800 
 19 C       -5.7470    -4.0580    -0.5230 C.ar  1 <1>  -0.1440 
 20 C       -7.0800    -4.0560    -0.1340 C.ar  1 <1>  -0.1500 
 21 C       -4.9390    -5.1390    -0.1900 C.ar  1 <1>  -0.1500 
 22 C       -7.5850    -5.1200     0.5960 C.ar  1 <1>   0.0820 
 23 C       -5.4500    -6.1980     0.5400 C.ar  1 <1>  -0.1500 
 24 O       -8.8690    -5.1380     0.9830 O.3   1 <1>  -0.5330 
 25 C       -6.7740    -6.1870     0.9370 C.ar  1 <1>  -0.1500 
 26 H       -0.5730     2.3420     1.0390 H     1 <1>   0.0800 
 27 H       -5.1190     0.9680     0.4110 H     1 <1>   0.0800 
 28 H       -3.8710     1.4940    -0.6700 H     1 <1>   0.0800 
 29 H       -2.8350    -1.3020     2.3560 H     1 <1>   0.0800 
 30 H       -4.4860    -0.7910     2.2530 H     1 <1>   0.0800 
 31 H       -2.5230     3.2480     2.1160 H     1 <1>   0.0800 
 32 H       -3.4330     3.1440     0.6420 H     1 <1>   0.0800 
 33 H       -0.2160     1.8600    -1.1040 H     1 <1>   0.0800 
 34 H       -1.8430     1.4370    -1.4750 H     1 <1>   0.0800 
 35 H       -3.6660    -0.6810    -1.6700 H     1 <1>   0.0800 
 36 H       -5.3390    -0.2010    -1.7210 H     1 <1>   0.0800 
 37 H       -4.2330    -3.0080     1.2560 H     1 <1>   0.0800 
 38 H       -2.9630    -2.4240     0.2140 H     1 <1>   0.0800 
 39 H       -1.3710     5.1240     1.4220 H     1 <1>   0.0800 
 40 H       -2.4870     3.6620    -1.8640 H     1 <1>   0.0800 
 41 H       -0.8640     3.6060    -2.5050 H     1 <1>   0.0800 
 42 H       -5.7980    -1.6180     0.1620 H     1 <1>   0.4500 
 43 H       -0.0160     4.5460    -0.3710 H     1 <1>   0.0800 
 44 H       -5.8680    -2.5850    -2.0560 H     1 <1>   0.0800 
 45 H       -4.2480    -3.1860    -1.7760 H     1 <1>   0.0800 
 46 H       -4.4800     6.6630     1.1900 H     1 <1>   0.0800 
 47 H       -2.8810     6.7760     1.9120 H     1 <1>   0.0800 
 48 H       -3.9020     5.3650     2.2270 H     1 <1>   0.0800 
 49 H       -2.0910     6.1820    -1.1070 H     1 <1>   0.4000 
 50 H       -7.7330    -3.2420    -0.3920 H     1 <1>   0.1500 
 51 H       -3.9050    -5.1750    -0.4930 H     1 <1>   0.1500 
 52 H       -4.8230    -7.0350     0.7990 H     1 <1>   0.1500 
 53 H       -9.4150    -4.4150     0.6280 H     1 <1>   0.4500 
 54 H       -7.1850    -7.0030     1.5060 H     1 <1>   0.1500 
@<TRIPOS>BOND
  1   1   2  2   
  2   2   3  am  
  3   2   4  1   
  4   3   5  1   
  5   3   6  1   
  6   4   7  1   
  7   4   8  1   
  8   4  26  1   
  9   5   9  1   
 10   5  27  1   
 11   5  28  1   
 12   6  10  1   
 13   6  29  1   
 14   6  30  1   
 15   7  11  1   
 16   7  31  1   
 17   7  32  1   
 18   8  12  1   
 19   8  33  1   
 20   8  34  1   
 21   9  13  1   
 22   9  35  1   
 23   9  36  1   
 24  10  13  1   
 25  10  37  1   
 26  10  38  1   
 27  11  14  1   
 28  11  15  1   
 29  11  39  1   
 30  12  15  1   
 31  12  40  1   
 32  12  41  1   
 33  13  16  1   
 34  13  42  1   
 35  14  17  1   
 36  15  18  1   
 37  15  43  1   
 38  16  19  1   
 39  16  44  1   
 40  16  45  1   
 41  17  46  1   
 42  17  47  1   
 43  17  48  1   
 44  18  49  1   
 45  19  20  ar  
 46  19  21  ar  
 47  20  22  ar  
 48  20  50  1   
 49  21  23  ar  
 50  21  51  1   
 51  22  24  1   
 52  22  25  ar  
 53  23  25  ar  
 54  23  52  1   
 55  24  53  1   
 56  25  54  1   
@<TRIPOS>SUBSTRUCTURE
  1 ****   5 GROUP 4 **** **** 0

# MOE 2024.06 (io_trps.svl 2023.06)
