@<TRIPOS>MOLECULE
NONAME
51 54 1 0 0 
SMALL
USER_CHARGES


@<TRIPOS>ATOM
  1 CL      -1.0440    -0.0670    -2.3800 Cl    1 <1>  -0.1770 
  2 C       -2.0690    -0.9210    -1.2400 C.ar  1 <1>   0.1770 
  3 C       -2.6470    -0.2460    -0.1580 C.ar  1 <1>   0.1000 
  4 C       -2.2650    -2.2680    -1.4550 C.ar  1 <1>  -0.1500 
  5 N       -2.4530     1.1210     0.0660 N.pl3 1 <1>  -0.8380 
  6 C       -3.4440    -1.0080     0.6940 C.ar  1 <1>  -0.1500 
  7 C       -3.0520    -3.0330    -0.5940 C.ar  1 <1>   0.0860 
  8 C       -2.9520     2.1090    -0.9190 C.3   1 <1>   0.2090 
  9 C       -2.3390     1.7360     1.4110 C.3   1 <1>   0.2090 
 10 C       -3.6400    -2.3600     0.4820 C.ar  1 <1>  -0.1500 
 11 C       -3.2410    -4.4530    -0.8220 C.2   1 <1>   0.5440 
 12 C       -3.4080     3.2970    -0.0820 C.3   1 <1>  -0.1600 
 13 C       -2.5470     3.2270     1.1750 C.3   1 <1>  -0.1600 
 14 O       -3.0800    -4.9370    -1.9260 O.2   1 <1>  -0.5700 
 15 N       -3.5990    -5.2910     0.1960 N.am  1 <1>  -0.7300 
 16 C       -3.7890    -6.7540     0.0740 C.3   1 <1>   0.2200 
 17 C       -5.2750    -7.0670     0.1040 C.3   1 <1>  -0.0800 
 18 C       -3.3040    -7.4360     1.3470 C.3   1 <1>   0.1200 
 19 C       -5.5690    -7.1120     1.6090 C.3   1 <1>   0.1200 
 20 C       -5.5850    -8.4050    -0.5940 C.3   1 <1>  -0.0170 
 21 O       -4.3490    -7.3180     2.2640 O.3   1 <1>  -0.5600 
 22 C       -7.0760    -8.7020    -0.5890 C.ar  1 <1>  -0.1430 
 23 C       -7.6360    -9.6460     0.2490 C.ar  1 <1>  -0.1500 
 24 C       -7.9490    -8.0390    -1.4280 C.ar  1 <1>  -0.1500 
 25 C       -9.0020    -9.8700     0.2120 C.ar  1 <1>   0.1600 
 26 C       -9.3000    -8.3390    -1.3860 C.ar  1 <1>   0.1600 
 27 N       -9.8490    -9.2370    -0.5840 N.ar  1 <1>  -0.6200 
 28 H       -1.7980    -2.7380    -2.3030 H     1 <1>   0.1500 
 29 H       -3.9260    -0.5350     1.5270 H     1 <1>   0.1500 
 30 H       -2.1410     2.3990    -1.5650 H     1 <1>   0.0800 
 31 H       -3.7570     1.7020    -1.5080 H     1 <1>   0.0800 
 32 H       -3.1070     1.3610     2.0620 H     1 <1>   0.0800 
 33 H       -1.3700     1.5360     1.8370 H     1 <1>   0.0800 
 34 H       -4.2730    -2.9000     1.1620 H     1 <1>   0.1500 
 35 H       -3.2910     4.2260    -0.6110 H     1 <1>   0.0800 
 36 H       -4.4440     3.1640     0.1740 H     1 <1>   0.0800 
 37 H       -3.0090     3.7060     2.0190 H     1 <1>   0.0800 
 38 H       -1.5910     3.6850     0.9890 H     1 <1>   0.0800 
 39 H       -3.6940    -4.9380     1.1500 H     1 <1>   0.3700 
 40 H       -3.2900    -7.1280    -0.8050 H     1 <1>   0.0800 
 41 H       -5.8430    -6.2890    -0.3760 H     1 <1>   0.0800 
 42 H       -2.4140    -6.9840     1.7480 H     1 <1>   0.0800 
 43 H       -3.1340    -8.4850     1.1770 H     1 <1>   0.0800 
 44 H       -6.2490    -7.8990     1.8830 H     1 <1>   0.0800 
 45 H       -5.9620    -6.1690     1.9470 H     1 <1>   0.0800 
 46 H       -5.0550    -9.2090    -0.1140 H     1 <1>   0.0800 
 47 H       -5.2480    -8.3590    -1.6150 H     1 <1>   0.0800 
 48 H       -7.0250   -10.2090     0.9310 H     1 <1>   0.1500 
 49 H       -7.5910    -7.2940    -2.1150 H     1 <1>   0.1500 
 50 H       -9.4210   -10.6090     0.8740 H     1 <1>   0.1500 
 51 H       -9.9660    -7.8110    -2.0480 H     1 <1>   0.1500 
@<TRIPOS>BOND
  1   1   2  1   
  2   2   3  ar  
  3   2   4  ar  
  4   3   5  1   
  5   3   6  ar  
  6   4   7  ar  
  7   4  28  1   
  8   5   8  1   
  9   5   9  1   
 10   6  10  ar  
 11   6  29  1   
 12   7  10  ar  
 13   7  11  1   
 14   8  12  1   
 15   8  30  1   
 16   8  31  1   
 17   9  13  1   
 18   9  32  1   
 19   9  33  1   
 20  10  34  1   
 21  11  14  2   
 22  11  15  am  
 23  12  13  1   
 24  12  35  1   
 25  12  36  1   
 26  13  37  1   
 27  13  38  1   
 28  15  16  1   
 29  15  39  1   
 30  16  17  1   
 31  16  18  1   
 32  16  40  1   
 33  17  19  1   
 34  17  20  1   
 35  17  41  1   
 36  18  21  1   
 37  18  42  1   
 38  18  43  1   
 39  19  21  1   
 40  19  44  1   
 41  19  45  1   
 42  20  22  1   
 43  20  46  1   
 44  20  47  1   
 45  22  23  ar  
 46  22  24  ar  
 47  23  25  ar  
 48  23  48  1   
 49  24  26  ar  
 50  24  49  1   
 51  25  27  ar  
 52  25  50  1   
 53  26  27  ar  
 54  26  51  1   
@<TRIPOS>SUBSTRUCTURE
  1 ****  11 GROUP 4 **** **** 0

# MOE 2024.06 (io_trps.svl 2023.06)
