@<TRIPOS>MOLECULE
NONAME
38 40 1 0 0 
SMALL
USER_CHARGES


@<TRIPOS>ATOM
  1 F        0.0810    -0.9270     1.6650 F     1 <1>  -0.3400 
  2 C        0.4920    -1.5590     0.5760 C.3   1 <1>   0.7800 
  3 F        0.2420    -0.7150    -0.4140 F     1 <1>  -0.3400 
  4 C       -0.3430    -2.8040     0.3840 C.2   1 <1>  -0.3320 
  5 N       -1.6800    -2.7440     0.2870 N.pl3 1 <1>   0.3000 
  6 C       -0.0090    -4.1070     0.2770 C.2   1 <1>  -0.1500 
  7 N       -2.2240    -3.9570     0.1220 N.2   1 <1>  -0.7070 
  8 C       -1.2100    -4.8120     0.1120 C.2   1 <1>   0.2030 
  9 C       -1.2520    -6.2680    -0.0380 C.2   1 <1>   0.7160 
 10 O       -0.2100    -6.9030     0.0260 O.2   1 <1>  -0.5700 
 11 N       -2.4150    -6.9890    -0.2520 N.am  1 <1>  -0.6600 
 12 C       -3.7820    -6.4220    -0.3540 C.3   1 <1>   0.1400 
 13 C       -2.4530    -8.4670    -0.3480 C.3   1 <1>   0.1400 
 14 C       -4.7010    -7.6280    -0.5510 C.3   1 <1>   0.2000 
 15 C       -3.9080    -8.8370    -0.0580 C.3   1 <1>  -0.0800 
 16 O       -5.8730    -7.5060     0.1810 O.3   1 <1>  -0.6800 
 17 C       -4.3670   -10.1520    -0.7080 C.3   1 <1>  -0.0170 
 18 C       -3.5770   -11.3390    -0.1830 C.ar  1 <1>   0.1670 
 19 N       -2.4410   -11.6160    -0.8030 N.ar  1 <1>  -0.6200 
 20 C       -4.0580   -12.0660     0.9040 C.ar  1 <1>   0.1600 
 21 C       -1.8240   -12.6560    -0.2670 C.ar  1 <1>   0.1600 
 22 N       -3.4430   -13.1060     1.4420 N.ar  1 <1>  -0.6200 
 23 C       -2.3090   -13.3760     0.8180 C.ar  1 <1>   0.1600 
 24 H        1.5540    -1.7180     0.6410 H     1 <1>   0.0800 
 25 H       -2.2400    -1.8800     0.3310 H     1 <1>   0.2700 
 26 H        0.9650    -4.5670     0.3060 H     1 <1>   0.1500 
 27 H       -4.0190    -5.8970     0.5560 H     1 <1>   0.0800 
 28 H       -3.8450    -5.7510    -1.1930 H     1 <1>   0.0800 
 29 H       -2.1710    -8.7620    -1.3450 H     1 <1>   0.0800 
 30 H       -1.7800    -8.9230     0.3590 H     1 <1>   0.0800 
 31 H       -4.9580    -7.7240    -1.5920 H     1 <1>   0.0800 
 32 H       -4.0060    -8.9140     1.0110 H     1 <1>   0.0800 
 33 H       -5.6690    -7.3310     1.1200 H     1 <1>   0.4000 
 34 H       -4.2490   -10.0960    -1.7770 H     1 <1>   0.0800 
 35 H       -5.4130   -10.3000    -0.5070 H     1 <1>   0.0800 
 36 H       -4.9920   -11.7730     1.3500 H     1 <1>   0.1500 
 37 H       -0.8900   -12.9530    -0.7080 H     1 <1>   0.1500 
 38 H       -1.7340   -14.2090     1.1830 H     1 <1>   0.1500 
@<TRIPOS>BOND
  1   1   2  1   
  2   2   3  1   
  3   2   4  1   
  4   2  24  1   
  5   4   5  1   
  6   4   6  2   
  7   5   7  1   
  8   5  25  1   
  9   6   8  1   
 10   6  26  1   
 11   7   8  2   
 12   8   9  1   
 13   9  10  2   
 14   9  11  am  
 15  11  12  1   
 16  11  13  1   
 17  12  14  1   
 18  12  27  1   
 19  12  28  1   
 20  13  15  1   
 21  13  29  1   
 22  13  30  1   
 23  14  15  1   
 24  14  16  1   
 25  14  31  1   
 26  15  17  1   
 27  15  32  1   
 28  16  33  1   
 29  17  18  1   
 30  17  34  1   
 31  17  35  1   
 32  18  19  ar  
 33  18  20  ar  
 34  19  21  ar  
 35  20  22  ar  
 36  20  36  1   
 37  21  23  ar  
 38  21  37  1   
 39  22  23  ar  
 40  23  38  1   
@<TRIPOS>SUBSTRUCTURE
  1 ****  11 GROUP 4 **** **** 0

# MOE 2024.06 (io_trps.svl 2023.06)
