@<TRIPOS>MOLECULE
NONAME
58 61 1 0 0 
SMALL
USER_CHARGES


@<TRIPOS>ATOM
  1 O       -1.5400     0.3490     0.2240 O.2   1 <1>  -0.5700 
  2 C       -2.4190     1.1610     0.4600 C.2   1 <1>   0.5440 
  3 N       -3.6430     0.6780     0.8640 N.am  1 <1>  -0.6600 
  4 C       -2.1680     2.5810     0.2880 C.ar  1 <1>   0.0860 
  5 C       -3.7680    -0.7230     1.3590 C.3   1 <1>   0.1400 
  6 C       -4.9210     1.2200     0.3210 C.3   1 <1>   0.1400 
  7 C       -1.3270     3.0470    -0.7230 C.ar  1 <1>  -0.1500 
  8 C       -2.7440     3.5380     1.1240 C.ar  1 <1>  -0.1500 
  9 C       -4.1590    -1.6300     0.1690 C.3   1 <1>   0.4230 
 10 C       -5.3830     0.3220    -0.8360 C.3   1 <1>  -0.1600 
 11 C       -1.0860     4.3960    -0.8970 C.ar  1 <1>  -0.1500 
 12 C       -2.5040     4.8870     0.9510 C.ar  1 <1>  -0.1500 
 13 N       -4.1970    -3.0970     0.4910 N.4   1 <1>  -0.9590 
 14 C       -5.5150    -1.1700    -0.4120 C.3   1 <1>  -0.1060 
 15 C       -1.6710     5.3440    -0.0650 C.ar  1 <1>   0.0000 
 16 C       -4.4560    -3.9210    -0.7160 C.3   1 <1>   0.3430 
 17 C       -3.0400    -3.5960     1.2800 C.3   1 <1>   0.2630 
 18 C       -6.5960    -1.3360     0.6740 C.2   1 <1>   0.9060 
 19 C       -5.8570    -2.0150    -1.6630 C.3   1 <1>  -0.1600 
 20 C       -1.4150     6.7540    -0.2440 C.ar  1 <1>   0.0000 
 21 C       -5.7840    -3.5200    -1.3630 C.3   1 <1>  -0.1600 
 22 O       -6.4940    -2.2720     1.4850 O.co2 1 <1>  -0.9000 
 23 O       -7.5270    -0.5340     0.7330 O.co2 1 <1>  -0.9000 
 24 C       -0.1200     7.2570    -0.1650 C.ar  1 <1>  -0.1500 
 25 C       -2.4550     7.6440    -0.5000 C.ar  1 <1>  -0.1500 
 26 C        0.1340     8.6130    -0.3380 C.ar  1 <1>   0.0820 
 27 C       -2.2120     8.9950    -0.6730 C.ar  1 <1>  -0.1500 
 28 O        1.3720     9.1630    -0.2710 O.3   1 <1>  -0.3630 
 29 C       -0.9180     9.4770    -0.5920 C.ar  1 <1>  -0.1500 
 30 C        2.5100     8.3780     0.0100 C.3   1 <1>   0.0400 
 31 H       -2.8260    -1.0290     1.7750 H     1 <1>   0.0800 
 32 H       -4.5110    -0.7610     2.1380 H     1 <1>   0.0800 
 33 H       -5.6660     1.2380     1.1010 H     1 <1>   0.0800 
 34 H       -4.7920     2.2260    -0.0370 H     1 <1>   0.0800 
 35 H       -0.8580     2.3320    -1.3770 H     1 <1>   0.1500 
 36 H       -3.3860     3.2130     1.9250 H     1 <1>   0.1500 
 37 H       -3.4060    -1.4790    -0.5850 H     1 <1>   0.0800 
 38 H       -6.3360     0.6810    -1.1890 H     1 <1>   0.0800 
 39 H       -4.6830     0.4220    -1.6460 H     1 <1>   0.0800 
 40 H       -0.4370     4.7250    -1.6900 H     1 <1>   0.1500 
 41 H       -2.9620     5.6020     1.6130 H     1 <1>   0.1500 
 42 H       -5.0740    -3.1460     1.0770 H     1 <1>   0.4500 
 43 H       -3.6550    -3.7840    -1.4240 H     1 <1>   0.0800 
 44 H       -4.4980    -4.9630    -0.4440 H     1 <1>   0.0800 
 45 H       -2.1220    -3.4320     0.7400 H     1 <1>   0.0800 
 46 H       -3.1520    -4.6500     1.4740 H     1 <1>   0.0800 
 47 H       -2.9860    -3.0820     2.2260 H     1 <1>   0.0800 
 48 H       -6.8500    -1.7640    -2.0010 H     1 <1>   0.0800 
 49 H       -5.1700    -1.7830    -2.4580 H     1 <1>   0.0800 
 50 H       -5.9130    -4.0720    -2.2770 H     1 <1>   0.0800 
 51 H       -6.5920    -3.8000    -0.7070 H     1 <1>   0.0800 
 52 H        0.6750     6.5660     0.0370 H     1 <1>   0.1500 
 53 H       -3.4620     7.2710    -0.5680 H     1 <1>   0.1500 
 54 H       -3.0250     9.6710    -0.8710 H     1 <1>   0.1500 
 55 H       -0.7160    10.5240    -0.7250 H     1 <1>   0.1500 
 56 H        3.3670     9.0260     0.0220 H     1 <1>   0.0800 
 57 H        2.6220     7.6380    -0.7620 H     1 <1>   0.0800 
 58 H        2.3860     7.9170     0.9730 H     1 <1>   0.0800 
@<TRIPOS>BOND
  1   1   2  2   
  2   2   3  am  
  3   2   4  1   
  4   3   5  1   
  5   3   6  1   
  6   4   7  ar  
  7   4   8  ar  
  8   5   9  1   
  9   5  31  1   
 10   5  32  1   
 11   6  10  1   
 12   6  33  1   
 13   6  34  1   
 14   7  11  ar  
 15   7  35  1   
 16   8  12  ar  
 17   8  36  1   
 18   9  13  1   
 19   9  14  1   
 20   9  37  1   
 21  10  14  1   
 22  10  38  1   
 23  10  39  1   
 24  11  15  ar  
 25  11  40  1   
 26  12  15  ar  
 27  12  41  1   
 28  13  16  1   
 29  13  17  1   
 30  13  42  1   
 31  14  18  1   
 32  14  19  1   
 33  15  20  1   
 34  16  21  1   
 35  16  43  1   
 36  16  44  1   
 37  17  45  1   
 38  17  46  1   
 39  17  47  1   
 40  18  22  ar  
 41  18  23  ar  
 42  19  21  1   
 43  19  48  1   
 44  19  49  1   
 45  20  24  ar  
 46  20  25  ar  
 47  21  50  1   
 48  21  51  1   
 49  24  26  ar  
 50  24  52  1   
 51  25  27  ar  
 52  25  53  1   
 53  26  28  1   
 54  26  29  ar  
 55  27  29  ar  
 56  27  54  1   
 57  28  30  1   
 58  29  55  1   
 59  30  56  1   
 60  30  57  1   
 61  30  58  1   
@<TRIPOS>SUBSTRUCTURE
  1 ****   4 GROUP 4 **** **** 0

# MOE 2024.06 (io_trps.svl 2023.06)
