@<TRIPOS>MOLECULE
NONAME
50 52 1 0 0 
SMALL
USER_CHARGES


@<TRIPOS>ATOM
  1 CL      -6.4360    -0.6740    -1.2970 Cl    1 <1>  -0.1770 
  2 C       -5.3170    -0.0430    -0.1080 C.ar  1 <1>   0.1770 
  3 C       -4.4270    -0.8940     0.5370 C.ar  1 <1>   0.0830 
  4 C       -5.3360     1.3130     0.1620 C.ar  1 <1>  -0.1500 
  5 O       -4.4350    -2.2200     0.2520 O.3   1 <1>  -0.3630 
  6 C       -3.5520    -0.3650     1.4790 C.ar  1 <1>  -0.1500 
  7 C       -4.4540     1.8320     1.0950 C.ar  1 <1>  -0.1500 
  8 C       -3.2010    -2.8370    -0.1060 C.3   1 <1>   0.1810 
  9 C       -3.5670     0.9930     1.7510 C.ar  1 <1>  -0.1500 
 10 C       -3.4110    -4.3250    -0.3700 C.2   1 <1>   0.5690 
 11 O       -2.8300    -5.1030     0.3470 O.2   1 <1>  -0.5700 
 12 N       -4.2750    -4.7800    -1.3420 N.am  1 <1>  -0.6600 
 13 C       -5.2480    -3.9120    -2.0780 C.3   1 <1>   0.1400 
 14 C       -4.6590    -6.2280    -1.4070 C.3   1 <1>   0.1400 
 15 C       -6.6580    -4.0080    -1.4330 C.3   1 <1>   0.4230 
 16 C       -6.1460    -6.4280    -1.0240 C.3   1 <1>   0.3430 
 17 N       -6.7610    -5.1690    -0.4580 N.4   1 <1>  -0.9590 
 18 C       -7.7540    -4.0870    -2.5210 C.3   1 <1>   0.1200 
 19 C       -8.1650    -5.2950     0.0530 C.3   1 <1>   0.4230 
 20 O       -9.0230    -4.2420    -1.9520 O.3   1 <1>  -0.5600 
 21 C       -9.1770    -5.3540    -1.1150 C.3   1 <1>   0.1200 
 22 C       -8.2860    -6.4870     1.0160 C.3   1 <1>  -0.1600 
 23 C       -9.5800    -6.4430     1.8440 C.3   1 <1>  -0.1600 
 24 C       -9.6230    -7.5970     2.8490 C.3   1 <1>  -0.2400 
 25 H       -6.0310     1.9540    -0.3510 H     1 <1>   0.1500 
 26 H       -2.8670    -0.9990     2.0140 H     1 <1>   0.1500 
 27 H       -4.4600     2.8870     1.3130 H     1 <1>   0.1500 
 28 H       -2.8160    -2.3530    -0.9850 H     1 <1>   0.0800 
 29 H       -2.5030    -2.7210     0.7030 H     1 <1>   0.0800 
 30 H       -2.8870     1.4020     2.4810 H     1 <1>   0.1500 
 31 H       -4.9240    -2.8880    -2.1020 H     1 <1>   0.0800 
 32 H       -5.2890    -4.2410    -3.1020 H     1 <1>   0.0800 
 33 H       -4.4880    -6.6000    -2.4020 H     1 <1>   0.0800 
 34 H       -4.0460    -6.8160    -0.7450 H     1 <1>   0.0800 
 35 H       -6.8240    -3.0960    -0.8850 H     1 <1>   0.0800 
 36 H       -6.2050    -7.2280    -0.3040 H     1 <1>   0.0800 
 37 H       -6.6940    -6.7380    -1.8980 H     1 <1>   0.0800 
 38 H       -6.1560    -4.9020     0.3320 H     1 <1>   0.4500 
 39 H       -7.5810    -4.9090    -3.1930 H     1 <1>   0.0800 
 40 H       -7.7690    -3.1760    -3.0950 H     1 <1>   0.0800 
 41 H       -8.3950    -4.4050     0.6170 H     1 <1>   0.0800 
 42 H      -10.1840    -5.3280    -0.7380 H     1 <1>   0.0800 
 43 H       -9.0540    -6.2490    -1.6980 H     1 <1>   0.0800 
 44 H       -8.2620    -7.4130     0.4690 H     1 <1>   0.0800 
 45 H       -7.4560    -6.4680     1.7010 H     1 <1>   0.0800 
 46 H       -9.6420    -5.5110     2.3830 H     1 <1>   0.0800 
 47 H      -10.4440    -6.5150     1.2050 H     1 <1>   0.0800 
 48 H       -8.7940    -7.5400     3.5340 H     1 <1>   0.0800 
 49 H       -9.5900    -8.5460     2.3430 H     1 <1>   0.0800 
 50 H      -10.5340    -7.5520     3.4210 H     1 <1>   0.0800 
@<TRIPOS>BOND
  1   1   2  1   
  2   2   3  ar  
  3   2   4  ar  
  4   3   5  1   
  5   3   6  ar  
  6   4   7  ar  
  7   4  25  1   
  8   5   8  1   
  9   6   9  ar  
 10   6  26  1   
 11   7   9  ar  
 12   7  27  1   
 13   8  10  1   
 14   8  28  1   
 15   8  29  1   
 16   9  30  1   
 17  10  11  2   
 18  10  12  am  
 19  12  13  1   
 20  12  14  1   
 21  13  15  1   
 22  13  31  1   
 23  13  32  1   
 24  14  16  1   
 25  14  33  1   
 26  14  34  1   
 27  15  17  1   
 28  15  18  1   
 29  15  35  1   
 30  16  17  1   
 31  16  36  1   
 32  16  37  1   
 33  17  19  1   
 34  17  38  1   
 35  18  20  1   
 36  18  39  1   
 37  18  40  1   
 38  19  21  1   
 39  19  22  1   
 40  19  41  1   
 41  20  21  1   
 42  21  42  1   
 43  21  43  1   
 44  22  23  1   
 45  22  44  1   
 46  22  45  1   
 47  23  24  1   
 48  23  46  1   
 49  23  47  1   
 50  24  48  1   
 51  24  49  1   
 52  24  50  1   
@<TRIPOS>SUBSTRUCTURE
  1 ****  15 GROUP 4 **** **** 0

# MOE 2024.06 (io_trps.svl 2023.06)
