@<TRIPOS>MOLECULE
NONAME
39 42 1 0 0 
SMALL
USER_CHARGES


@<TRIPOS>ATOM
  1 S        0.1160     0.4720     1.4700 S.3   1 <1>  -0.0800 
  2 C        0.0580     1.9460     0.5260 C.2   1 <1>  -0.1400 
  3 C        1.8060     0.7630     1.8560 C.2   1 <1>  -0.1100 
  4 C        1.2390     2.5770     0.5120 C.2   1 <1>  -0.1810 
  5 C       -1.1890     2.4210    -0.1680 C.3   1 <1>   0.0200 
  6 C        2.2450     1.9010     1.2820 C.2   1 <1>  -0.1500 
  7 C        1.4310     3.8810    -0.2660 C.3   1 <1>   0.4610 
  8 C       -0.9890     3.9120    -0.4880 C.3   1 <1>   0.1200 
  9 O        0.2800     4.1490    -1.0500 O.3   1 <1>  -0.5600 
 10 C        2.5900     3.7410    -1.2550 C.3   1 <1>  -0.1600 
 11 C        1.6690     5.0570     0.6900 C.3   1 <1>  -0.1600 
 12 C        2.8870     5.0570    -1.9750 C.3   1 <1>   0.2090 
 13 C        1.9290     6.3510    -0.0770 C.3   1 <1>   0.2090 
 14 N        3.0860     6.1470    -0.9800 N.pl3 1 <1>  -0.8380 
 15 C        4.3600     6.4270    -0.5000 C.ar  1 <1>   0.4100 
 16 N        5.2570     5.4360    -0.4440 N.ar  1 <1>  -0.3100 
 17 C        4.6730     7.7010    -0.0680 C.ar  1 <1>  -0.1500 
 18 N        6.4500     5.6410     0.0550 N.ar  1 <1>  -0.3100 
 19 C        5.9220     7.9170     0.4510 C.ar  1 <1>  -0.1500 
 20 C        6.8190     6.8550     0.5180 C.ar  1 <1>   0.1310 
 21 C        8.1490     7.0770     1.0960 C.2   1 <1>   0.9790 
 22 O        8.4440     8.1970     1.5680 O.co2 1 <1>  -0.9000 
 23 O        9.0270     6.1920     1.1490 O.co2 1 <1>  -0.9000 
 24 H        2.3010     0.0410     2.4800 H     1 <1>   0.1500 
 25 H       -2.0450     2.2960     0.4690 H     1 <1>   0.0800 
 26 H       -1.3410     1.8620    -1.0730 H     1 <1>   0.0800 
 27 H        3.2420     2.2980     1.3680 H     1 <1>   0.1500 
 28 H       -1.0820     4.5020     0.4070 H     1 <1>   0.0800 
 29 H       -1.7290     4.2420    -1.1960 H     1 <1>   0.0800 
 30 H        2.3570     2.9760    -1.9720 H     1 <1>   0.0800 
 31 H        3.4760     3.4330    -0.7340 H     1 <1>   0.0800 
 32 H        2.5300     4.8460     1.2980 H     1 <1>   0.0800 
 33 H        0.8340     5.1760     1.3520 H     1 <1>   0.0800 
 34 H        2.0650     5.3170    -2.6200 H     1 <1>   0.0800 
 35 H        3.7700     4.9520    -2.5840 H     1 <1>   0.0800 
 36 H        2.1320     7.1480     0.6180 H     1 <1>   0.0800 
 37 H        1.0650     6.6220    -0.6600 H     1 <1>   0.0800 
 38 H        3.9520     8.4900    -0.1440 H     1 <1>   0.1500 
 39 H        6.2180     8.8880     0.8060 H     1 <1>   0.1500 
@<TRIPOS>BOND
  1   1   2  1   
  2   1   3  1   
  3   2   4  2   
  4   2   5  1   
  5   3   6  2   
  6   3  24  1   
  7   4   6  1   
  8   4   7  1   
  9   5   8  1   
 10   5  25  1   
 11   5  26  1   
 12   6  27  1   
 13   7   9  1   
 14   7  10  1   
 15   7  11  1   
 16   8   9  1   
 17   8  28  1   
 18   8  29  1   
 19  10  12  1   
 20  10  30  1   
 21  10  31  1   
 22  11  13  1   
 23  11  32  1   
 24  11  33  1   
 25  12  14  1   
 26  12  34  1   
 27  12  35  1   
 28  13  14  1   
 29  13  36  1   
 30  13  37  1   
 31  14  15  1   
 32  15  16  ar  
 33  15  17  ar  
 34  16  18  ar  
 35  17  19  ar  
 36  17  38  1   
 37  18  20  ar  
 38  19  20  ar  
 39  19  39  1   
 40  20  21  1   
 41  21  22  ar  
 42  21  23  ar  
@<TRIPOS>SUBSTRUCTURE
  1 ****  11 GROUP 4 **** **** 0

# MOE 2024.06 (io_trps.svl 2023.06)
