@<TRIPOS>MOLECULE
NONAME
50 52 1 0 0 
SMALL
USER_CHARGES


@<TRIPOS>ATOM
  1 CL       1.5490    -4.8850    -2.3950 Cl    1 <1>  -0.1770 
  2 C        2.1190    -3.4960    -1.5030 C.ar  1 <1>   0.1770 
  3 C        1.2710    -2.8360    -0.6160 C.ar  1 <1>   0.0860 
  4 C        3.4230    -3.0880    -1.7100 C.ar  1 <1>  -0.1500 
  5 C       -0.0860    -3.2730    -0.3880 C.2   1 <1>   0.5440 
  6 C        1.7860    -1.7260     0.0540 C.ar  1 <1>  -0.1500 
  7 C        3.9130    -1.9890    -1.0260 C.ar  1 <1>  -0.1500 
  8 O       -0.9950    -2.6350    -0.8830 O.2   1 <1>  -0.5700 
  9 N       -0.3790    -4.3660     0.4040 N.am  1 <1>  -0.6600 
 10 C        3.0900    -1.3070    -0.1450 C.ar  1 <1>  -0.1500 
 11 C       -1.7680    -4.8910     0.5230 C.3   1 <1>   0.1400 
 12 C        0.6340    -5.1020     1.2110 C.3   1 <1>   0.1400 
 13 C       -1.7930    -6.3740     0.1430 C.3   1 <1>  -0.1600 
 14 C        0.6170    -6.5850     0.8340 C.3   1 <1>  -0.1600 
 15 C       -0.7930    -7.1970     0.9780 C.3   1 <1>  -0.0190 
 16 C       -0.8310    -8.6850     0.5950 C.2   1 <1>   0.5690 
 17 O       -0.0380    -9.0820    -0.2300 O.2   1 <1>  -0.5700 
 18 N       -1.7410    -9.5540     1.1490 N.am  1 <1>  -0.6600 
 19 C       -1.6190   -11.0190     0.8690 C.3   1 <1>   0.3200 
 20 C       -2.9510    -9.1690     1.9410 C.3   1 <1>   0.1400 
 21 C       -2.2800   -11.3700    -0.4530 C.2   1 <1>   0.0060 
 22 C       -4.2220    -9.2360     1.0850 C.3   1 <1>   0.1200 
 23 N       -3.2900   -12.1700    -0.5950 N.2   1 <1>  -0.5650 
 24 N       -1.8380   -10.8440    -1.6140 N.pl3 1 <1>   0.0330 
 25 O       -5.2730    -8.6750     1.7970 O.3   1 <1>  -0.6800 
 26 C       -3.5160   -12.1640    -1.9240 C.2   1 <1>   0.0770 
 27 C       -2.6400   -11.3580    -2.5630 C.2   1 <1>  -0.3020 
 28 H        4.0470    -3.6260    -2.4020 H     1 <1>   0.1500 
 29 H        1.1460    -1.1890     0.7330 H     1 <1>   0.1500 
 30 H        4.9280    -1.6630    -1.1810 H     1 <1>   0.1500 
 31 H        3.4660    -0.4470     0.3830 H     1 <1>   0.1500 
 32 H       -2.4390    -4.3490    -0.1210 H     1 <1>   0.0800 
 33 H       -2.1060    -4.7620     1.5370 H     1 <1>   0.0800 
 34 H        0.3940    -4.9890     2.2540 H     1 <1>   0.0800 
 35 H        1.6200    -4.7040     1.0540 H     1 <1>   0.0800 
 36 H       -1.5550    -6.4660    -0.9030 H     1 <1>   0.0800 
 37 H       -2.7910    -6.7450     0.2830 H     1 <1>   0.0800 
 38 H        1.3070    -7.1190     1.4620 H     1 <1>   0.0800 
 39 H        0.9590    -6.6860    -0.1820 H     1 <1>   0.0800 
 40 H       -1.0560    -7.1120     2.0150 H     1 <1>   0.0800 
 41 H       -2.0790   -11.5860     1.6590 H     1 <1>   0.0800 
 42 H       -0.5800   -11.2970     0.8290 H     1 <1>   0.0800 
 43 H       -2.8520    -8.1700     2.3220 H     1 <1>   0.0800 
 44 H       -3.0500    -9.8340     2.7810 H     1 <1>   0.0800 
 45 H       -4.4840   -10.2500     0.8360 H     1 <1>   0.0800 
 46 H       -4.0980    -8.6660     0.1800 H     1 <1>   0.0800 
 47 H       -1.0570   -10.1760    -1.6950 H     1 <1>   0.2700 
 48 H       -5.6840    -9.3380     2.3860 H     1 <1>   0.4000 
 49 H       -4.3110   -12.7480    -2.3580 H     1 <1>   0.1500 
 50 H       -2.5450   -11.1280    -3.6080 H     1 <1>   0.1500 
@<TRIPOS>BOND
  1   1   2  1   
  2   2   3  ar  
  3   2   4  ar  
  4   3   5  1   
  5   3   6  ar  
  6   4   7  ar  
  7   4  28  1   
  8   5   8  2   
  9   5   9  am  
 10   6  10  ar  
 11   6  29  1   
 12   7  10  ar  
 13   7  30  1   
 14   9  11  1   
 15   9  12  1   
 16  10  31  1   
 17  11  13  1   
 18  11  32  1   
 19  11  33  1   
 20  12  14  1   
 21  12  34  1   
 22  12  35  1   
 23  13  15  1   
 24  13  36  1   
 25  13  37  1   
 26  14  15  1   
 27  14  38  1   
 28  14  39  1   
 29  15  16  1   
 30  15  40  1   
 31  16  17  2   
 32  16  18  am  
 33  18  19  1   
 34  18  20  1   
 35  19  21  1   
 36  19  41  1   
 37  19  42  1   
 38  20  22  1   
 39  20  43  1   
 40  20  44  1   
 41  21  23  2   
 42  21  24  1   
 43  22  25  1   
 44  22  45  1   
 45  22  46  1   
 46  23  26  1   
 47  24  27  1   
 48  24  47  1   
 49  25  48  1   
 50  26  27  2   
 51  26  49  1   
 52  27  50  1   
@<TRIPOS>SUBSTRUCTURE
  1 ****  15 GROUP 4 **** **** 0

# MOE 2024.06 (io_trps.svl 2023.06)
