@<TRIPOS>MOLECULE
NONAME
58 60 1 0 0 
SMALL
USER_CHARGES


@<TRIPOS>ATOM
  1 O        0.6110     3.4450    -2.5180 O.2   1 <1>  -0.5700 
  2 C        0.3320     3.4030    -1.3370 C.2   1 <1>   0.5690 
  3 N       -0.9120     3.8750    -0.9370 N.am  1 <1>  -0.6600 
  4 C        1.4140     2.8120    -0.3620 C.3   1 <1>   0.3410 
  5 C       -1.8810     4.4050    -1.9400 C.3   1 <1>   0.1400 
  6 C       -1.4950     3.9350     0.4330 C.3   1 <1>   0.1400 
  7 O        2.5500     2.4060    -1.1450 O.3   1 <1>  -0.3630 
  8 C        0.8980     1.5510     0.3660 C.3   1 <1>  -0.2400 
  9 C        1.9200     3.8800     0.6300 C.3   1 <1>  -0.2400 
 10 C       -3.1430     3.5390    -1.9330 C.3   1 <1>  -0.1600 
 11 C       -2.7420     3.0510     0.4870 C.3   1 <1>  -0.1600 
 12 C        3.6480     1.8110    -0.6190 C.ar  1 <1>   0.0830 
 13 C       -3.8130     3.4690    -0.5410 C.3   1 <1>   0.2800 
 14 C        3.7270     0.4280    -0.5670 C.ar  1 <1>  -0.1500 
 15 C        4.7170     2.5780    -0.1830 C.ar  1 <1>  -0.1500 
 16 O       -4.1850     4.7840    -0.1880 O.3   1 <1>  -0.5600 
 17 C       -5.0370     2.4800    -0.4850 C.3   1 <1>   0.2000 
 18 C        4.8520    -0.1830    -0.0410 C.ar  1 <1>  -0.1500 
 19 C        5.8410     1.9650     0.3420 C.ar  1 <1>  -0.1500 
 20 C       -5.4610     5.2150    -0.5340 C.3   1 <1>   0.1200 
 21 O       -5.6140     2.3100    -1.7560 O.3   1 <1>  -0.6800 
 22 C       -6.1310     2.9540     0.5130 C.3   1 <1>   0.2800 
 23 C        5.9110     0.5830     0.4220 C.ar  1 <1>  -0.1430 
 24 C       -6.5280     4.4180     0.2350 C.3   1 <1>  -0.1600 
 25 O       -5.6240     2.8930     1.7970 O.3   1 <1>  -0.6800 
 26 C       -7.3610     2.0390     0.5430 C.3   1 <1>  -0.2400 
 27 C        7.1450    -0.0890     0.9980 C.3   1 <1>  -0.0970 
 28 H       -2.1310     5.4210    -1.6870 H     1 <1>   0.0800 
 29 H       -1.4600     4.4100    -2.9310 H     1 <1>   0.0800 
 30 H       -0.8060     3.6180     1.1860 H     1 <1>   0.0800 
 31 H       -1.7660     4.9540     0.6530 H     1 <1>   0.0800 
 32 H        0.0150     1.7430     0.9370 H     1 <1>   0.0800 
 33 H        1.6370     1.1720     1.0470 H     1 <1>   0.0800 
 34 H        0.6580     0.7940    -0.3590 H     1 <1>   0.0800 
 35 H        1.1250     4.3220     1.1920 H     1 <1>   0.0800 
 36 H        2.4060     4.6690     0.0850 H     1 <1>   0.0800 
 37 H        2.6100     3.4520     1.3330 H     1 <1>   0.0800 
 38 H       -2.8730     2.5470    -2.2500 H     1 <1>   0.0800 
 39 H       -3.8280     3.9300    -2.6610 H     1 <1>   0.0800 
 40 H       -3.1480     3.0960     1.4790 H     1 <1>   0.0800 
 41 H       -2.4490     2.0320     0.3060 H     1 <1>   0.0800 
 42 H        2.9120    -0.1620    -0.9430 H     1 <1>   0.1500 
 43 H        4.6690     3.6480    -0.2630 H     1 <1>   0.1500 
 44 H       -4.6960     1.5030    -0.1920 H     1 <1>   0.0800 
 45 H        4.9010    -1.2560     0.0000 H     1 <1>   0.1500 
 46 H        6.6630     2.5690     0.6840 H     1 <1>   0.1500 
 47 H       -5.5310     6.2620    -0.2920 H     1 <1>   0.0800 
 48 H       -5.5790     5.1050    -1.5980 H     1 <1>   0.0800 
 49 H       -5.8830     3.1740    -2.1150 H     1 <1>   0.4000 
 50 H       -7.4210     4.4410    -0.3620 H     1 <1>   0.0800 
 51 H       -6.7590     4.9270     1.1530 H     1 <1>   0.0800 
 52 H       -6.2930     3.2110     2.4290 H     1 <1>   0.4000 
 53 H       -7.8460     2.0300    -0.4160 H     1 <1>   0.0800 
 54 H       -8.0750     2.3750     1.2740 H     1 <1>   0.0800 
 55 H       -7.0650     1.0300     0.7710 H     1 <1>   0.0800 
 56 H        6.8830    -1.0230     1.4620 H     1 <1>   0.0800 
 57 H        7.6040     0.5400     1.7400 H     1 <1>   0.0800 
 58 H        7.8560    -0.2770     0.2140 H     1 <1>   0.0800 
@<TRIPOS>BOND
  1   1   2  2   
  2   2   3  am  
  3   2   4  1   
  4   3   5  1   
  5   3   6  1   
  6   4   7  1   
  7   4   8  1   
  8   4   9  1   
  9   5  10  1   
 10   5  28  1   
 11   5  29  1   
 12   6  11  1   
 13   6  30  1   
 14   6  31  1   
 15   7  12  1   
 16   8  32  1   
 17   8  33  1   
 18   8  34  1   
 19   9  35  1   
 20   9  36  1   
 21   9  37  1   
 22  10  13  1   
 23  10  38  1   
 24  10  39  1   
 25  11  13  1   
 26  11  40  1   
 27  11  41  1   
 28  12  14  ar  
 29  12  15  ar  
 30  13  16  1   
 31  13  17  1   
 32  14  18  ar  
 33  14  42  1   
 34  15  19  ar  
 35  15  43  1   
 36  16  20  1   
 37  17  21  1   
 38  17  22  1   
 39  17  44  1   
 40  18  23  ar  
 41  18  45  1   
 42  19  23  ar  
 43  19  46  1   
 44  20  24  1   
 45  20  47  1   
 46  20  48  1   
 47  21  49  1   
 48  22  24  1   
 49  22  25  1   
 50  22  26  1   
 51  23  27  1   
 52  24  50  1   
 53  24  51  1   
 54  25  52  1   
 55  26  53  1   
 56  26  54  1   
 57  26  55  1   
 58  27  56  1   
 59  27  57  1   
 60  27  58  1   
@<TRIPOS>SUBSTRUCTURE
  1 ****   3 GROUP 4 **** **** 0

# MOE 2024.06 (io_trps.svl 2023.06)
