@<TRIPOS>MOLECULE
NONAME
36 38 1 0 0 
SMALL
USER_CHARGES


@<TRIPOS>ATOM
  1 O        1.8010     0.5360    -1.5940 O.3   1 <1>  -0.0190 
  2 N        1.8170    -0.7060    -1.2810 N.2   1 <1>  -0.4100 
  3 C        2.0950     1.2670    -0.5530 C.2   1 <1>   0.4250 
  4 C        2.1230    -0.6940    -0.0420 C.2   1 <1>   0.3350 
  5 N        2.3130     0.5220     0.4740 N.2   1 <1>  -0.5650 
  6 C        2.1470     2.7080    -0.6410 C.ar  1 <1>   0.0530 
  7 C        2.2720    -1.9280     0.8150 C.3   1 <1>  -0.0590 
  8 C        2.4390     3.5050     0.4520 C.ar  1 <1>  -0.1500 
  9 C        1.9080     3.4070    -1.8190 C.ar  1 <1>  -0.1500 
 10 C        2.4840     4.8870     0.3450 C.ar  1 <1>   0.4100 
 11 C        1.9800     4.7840    -1.8380 C.ar  1 <1>   0.1600 
 12 N        2.2730     5.5380    -0.7910 N.ar  1 <1>  -0.6200 
 13 N        2.7740     5.6300     1.4630 N.pl3 1 <1>  -0.8690 
 14 C        2.7460     7.1070     1.5120 C.3   1 <1>   0.4690 
 15 C        4.0740     7.6650     1.0080 C.2   1 <1>   0.0070 
 16 C        2.4460     7.5050     2.9540 C.3   1 <1>  -0.2400 
 17 N        4.8870     8.4640     1.6160 N.2   1 <1>  -0.3380 
 18 N        4.5310     7.3470    -0.1990 N.pl3 1 <1>   0.0330 
 19 N        5.9140     8.6820     0.7880 N.2   1 <1>  -0.3380 
 20 C        5.6830     8.0080    -0.2850 C.2   1 <1>   0.0060 
 21 C        6.5940     7.9610    -1.4930 C.3   1 <1>  -0.0600 
 22 H        2.0810    -2.8090     0.2310 H     1 <1>   0.0800 
 23 H        1.5730    -1.8870     1.6290 H     1 <1>   0.0800 
 24 H        3.2700    -1.9750     1.2090 H     1 <1>   0.0800 
 25 H        2.6270     3.0510     1.4070 H     1 <1>   0.1500 
 26 H        1.6640     2.8760    -2.7220 H     1 <1>   0.1500 
 27 H        1.7850     5.2970    -2.7650 H     1 <1>   0.1500 
 28 H        3.4560     5.2380     2.1140 H     1 <1>   0.4000 
 29 H        1.9530     7.4730     0.8820 H     1 <1>   0.0800 
 30 H        3.2310     7.1660     3.6070 H     1 <1>   0.0800 
 31 H        1.5070     7.0860     3.2650 H     1 <1>   0.0800 
 32 H        2.3860     8.5750     3.0250 H     1 <1>   0.0800 
 33 H        4.0590     6.7160    -0.8570 H     1 <1>   0.2700 
 34 H        6.9080     6.9510    -1.6790 H     1 <1>   0.0800 
 35 H        7.4650     8.5670    -1.3150 H     1 <1>   0.0800 
 36 H        6.0800     8.3420    -2.3570 H     1 <1>   0.0800 
@<TRIPOS>BOND
  1   1   2  1   
  2   1   3  1   
  3   2   4  2   
  4   3   5  2   
  5   3   6  1   
  6   4   5  1   
  7   4   7  1   
  8   6   8  ar  
  9   6   9  ar  
 10   7  22  1   
 11   7  23  1   
 12   7  24  1   
 13   8  10  ar  
 14   8  25  1   
 15   9  11  ar  
 16   9  26  1   
 17  10  12  ar  
 18  10  13  1   
 19  11  12  ar  
 20  11  27  1   
 21  13  14  1   
 22  13  28  1   
 23  14  15  1   
 24  14  16  1   
 25  14  29  1   
 26  15  17  2   
 27  15  18  1   
 28  16  30  1   
 29  16  31  1   
 30  16  32  1   
 31  17  19  1   
 32  18  20  1   
 33  18  33  1   
 34  19  20  2   
 35  20  21  1   
 36  21  34  1   
 37  21  35  1   
 38  21  36  1   
@<TRIPOS>SUBSTRUCTURE
  1 ****  10 GROUP 4 **** **** 0

# MOE 2024.06 (io_trps.svl 2023.06)
