@<TRIPOS>MOLECULE
NONAME
49 51 1 0 0 
SMALL
USER_CHARGES


@<TRIPOS>ATOM
  1 O       -0.5960     0.5260     0.0050 O.2   1 <1>  -0.5700 
  2 C       -1.6410     1.1340     0.0050 C.2   1 <1>   0.5690 
  3 N       -2.8310     0.5120    -0.2990 N.am  1 <1>  -0.6600 
  4 C       -1.6070     2.6210     0.3560 C.3   1 <1>  -0.0990 
  5 C       -4.1630     1.1790    -0.1670 C.3   1 <1>   0.2200 
  6 C       -2.8110    -0.9070    -0.7730 C.3   1 <1>   0.0600 
  7 C       -0.2000     3.2500     0.3530 C.3   1 <1>  -0.1600 
  8 C       -5.2550     0.3220     0.4730 C.3   1 <1>  -0.1600 
  9 C       -4.7430     1.5870    -1.5170 C.3   1 <1>  -0.1600 
 10 C       -0.2470     4.7450     0.6930 C.3   1 <1>  -0.0170 
 11 C       -6.5670     0.9770     0.0230 C.3   1 <1>  -0.0800 
 12 C       -6.2430     1.7730    -1.2540 C.3   1 <1>  -0.0800 
 13 C        1.1480     5.3480     0.6690 C.ar  1 <1>  -0.1440 
 14 C       -7.1300     1.9870     1.0330 C.3   1 <1>  -0.1600 
 15 C       -6.6390     3.2300    -0.9680 C.3   1 <1>  -0.1600 
 16 C        1.6440     5.9200    -0.4920 C.ar  1 <1>  -0.1500 
 17 C        1.9370     5.3310     1.8090 C.ar  1 <1>  -0.1500 
 18 C       -7.6310     3.1400     0.1800 C.3   1 <1>   0.2000 
 19 C        2.9130     6.4730    -0.5130 C.ar  1 <1>  -0.1500 
 20 C        3.2060     5.8840     1.7890 C.ar  1 <1>  -0.1500 
 21 O       -7.6270     4.3090     0.9070 O.3   1 <1>  -0.6800 
 22 C        3.6950     6.4570     0.6280 C.ar  1 <1>  -0.1500 
 23 H       -2.2120     3.1490    -0.3560 H     1 <1>   0.0800 
 24 H       -2.0390     2.7390     1.3320 H     1 <1>   0.0800 
 25 H       -4.0750     2.0640     0.4370 H     1 <1>   0.0800 
 26 H       -3.5480    -1.0620    -1.5400 H     1 <1>   0.0800 
 27 H       -3.0110    -1.5660     0.0530 H     1 <1>   0.0800 
 28 H       -1.8470    -1.1570    -1.1830 H     1 <1>   0.0800 
 29 H        0.4230     2.7420     1.0700 H     1 <1>   0.0800 
 30 H        0.2480     3.1190    -0.6180 H     1 <1>   0.0800 
 31 H       -5.2410    -0.6790     0.0850 H     1 <1>   0.0800 
 32 H       -5.1570     0.2850     1.5430 H     1 <1>   0.0800 
 33 H       -4.2770     2.4770    -1.9010 H     1 <1>   0.0800 
 34 H       -4.6140     0.7920    -2.2280 H     1 <1>   0.0800 
 35 H       -0.6780     4.8820     1.6700 H     1 <1>   0.0800 
 36 H       -0.8710     5.2610    -0.0150 H     1 <1>   0.0800 
 37 H       -7.3120     0.2270    -0.1890 H     1 <1>   0.0800 
 38 H       -6.8220     1.3980    -2.0820 H     1 <1>   0.0800 
 39 H       -6.3490     2.3310     1.6890 H     1 <1>   0.0800 
 40 H       -7.9260     1.5570     1.6150 H     1 <1>   0.0800 
 41 H       -7.0840     3.6920    -1.8320 H     1 <1>   0.0800 
 42 H       -5.7780     3.7970    -0.6600 H     1 <1>   0.0800 
 43 H        1.0450     5.9350    -1.3860 H     1 <1>   0.1500 
 44 H        1.5680     4.8860     2.7150 H     1 <1>   0.1500 
 45 H       -8.6290     2.9520    -0.1820 H     1 <1>   0.0800 
 46 H        3.2910     6.9150    -1.4180 H     1 <1>   0.1500 
 47 H        3.8130     5.8670     2.6770 H     1 <1>   0.1500 
 48 H       -6.7350     4.4810     1.2580 H     1 <1>   0.4000 
 49 H        4.6810     6.8860     0.6120 H     1 <1>   0.1500 
@<TRIPOS>BOND
  1   1   2  2   
  2   2   3  am  
  3   2   4  1   
  4   3   5  1   
  5   3   6  1   
  6   4   7  1   
  7   4  23  1   
  8   4  24  1   
  9   5   8  1   
 10   5   9  1   
 11   5  25  1   
 12   6  26  1   
 13   6  27  1   
 14   6  28  1   
 15   7  10  1   
 16   7  29  1   
 17   7  30  1   
 18   8  11  1   
 19   8  31  1   
 20   8  32  1   
 21   9  12  1   
 22   9  33  1   
 23   9  34  1   
 24  10  13  1   
 25  10  35  1   
 26  10  36  1   
 27  11  12  1   
 28  11  14  1   
 29  11  37  1   
 30  12  15  1   
 31  12  38  1   
 32  13  16  ar  
 33  13  17  ar  
 34  14  18  1   
 35  14  39  1   
 36  14  40  1   
 37  15  18  1   
 38  15  41  1   
 39  15  42  1   
 40  16  19  ar  
 41  16  43  1   
 42  17  20  ar  
 43  17  44  1   
 44  18  21  1   
 45  18  45  1   
 46  19  22  ar  
 47  19  46  1   
 48  20  22  ar  
 49  20  47  1   
 50  21  48  1   
 51  22  49  1   
@<TRIPOS>SUBSTRUCTURE
  1 ****   4 GROUP 4 **** **** 0

# MOE 2024.06 (io_trps.svl 2023.06)
