@<TRIPOS>MOLECULE
NONAME
56 59 1 0 0 
SMALL
USER_CHARGES


@<TRIPOS>ATOM
  1 O        1.2270    -2.3680    -2.1810 O.2   1 <1>  -0.5700 
  2 C        1.0170    -2.0570    -1.0240 C.2   1 <1>   0.7160 
  3 N        2.0580    -2.0630    -0.1390 N.am  1 <1>  -0.7300 
  4 C       -0.2990    -1.6840    -0.5760 C.2   1 <1>  -0.0860 
  5 C        3.4570    -2.4510    -0.4720 C.3   1 <1>   0.3000 
  6 C       -1.4350    -1.6350    -1.3870 C.2   1 <1>   0.1390 
  7 C       -0.7730    -1.3080     0.6470 C.2   1 <1>  -0.3020 
  8 C        4.9520    -2.9140    -0.8830 C.3   1 <1>   0.2000 
  9 C        3.7750    -0.9260    -0.7950 C.3   1 <1>  -0.1600 
 10 C        3.0780    -3.9390    -0.0730 C.3   1 <1>  -0.2400 
 11 N       -2.5020    -1.2690    -0.7460 N.2   1 <1>  -0.7070 
 12 N       -2.0880    -1.0680     0.5150 N.pl3 1 <1>   0.3000 
 13 O        5.0820    -2.9300    -2.2850 O.3   1 <1>  -0.6800 
 14 C        6.1270    -2.1460    -0.1690 C.3   1 <1>   0.2800 
 15 C        4.6890    -0.3030     0.2630 C.3   1 <1>   0.1200 
 16 O        5.5830    -1.2460     0.7560 O.3   1 <1>  -0.5600 
 17 C        7.0960    -1.3930    -1.1170 C.3   1 <1>  -0.1600 
 18 C        6.9630    -3.1230     0.6830 C.3   1 <1>  -0.1600 
 19 C        8.2410    -0.7120    -0.3640 C.3   1 <1>   0.1400 
 20 C        8.1080    -2.4230     1.4210 C.3   1 <1>   0.1400 
 21 N        8.9800    -1.7300     0.4330 N.am  1 <1>  -0.6600 
 22 C       10.3260    -1.9440     0.2380 C.2   1 <1>   0.5690 
 23 O       10.9540    -1.2820    -0.5560 O.2   1 <1>  -0.5700 
 24 C       11.0750    -3.0240     1.0250 C.3   1 <1>  -0.0190 
 25 C       11.4250    -2.5930     2.4660 C.3   1 <1>  -0.0220 
 26 C       12.3980    -3.5280     0.3990 C.3   1 <1>  -0.0220 
 27 C       12.7260    -3.3120     2.7230 C.2   1 <1>  -0.2880 
 28 C       13.2480    -3.8170     1.6130 C.2   1 <1>  -0.2880 
 29 H        1.8820    -1.8340     0.8350 H     1 <1>   0.3700 
 30 H       -1.4250    -1.8760    -2.4390 H     1 <1>   0.1500 
 31 H       -0.2520    -1.2040     1.5800 H     1 <1>   0.1500 
 32 H        5.1750    -3.9400    -0.6490 H     1 <1>   0.0800 
 33 H        2.9490    -0.2350    -0.8930 H     1 <1>   0.0800 
 34 H        4.2400    -0.7970    -1.7540 H     1 <1>   0.0800 
 35 H        3.7140    -4.2800     0.7270 H     1 <1>   0.0800 
 36 H        3.2030    -4.5940    -0.9200 H     1 <1>   0.0800 
 37 H        2.0850    -4.1810     0.2860 H     1 <1>   0.0800 
 38 H       -2.7350    -0.7660     1.2550 H     1 <1>   0.2700 
 39 H        4.2320    -3.1920    -2.6960 H     1 <1>   0.4000 
 40 H        4.1090     0.0490     1.0990 H     1 <1>   0.0800 
 41 H        5.2450     0.5250    -0.1430 H     1 <1>   0.0800 
 42 H        7.5280    -2.0930    -1.8090 H     1 <1>   0.0800 
 43 H        6.5710    -0.6660    -1.7060 H     1 <1>   0.0800 
 44 H        6.3260    -3.6070     1.4010 H     1 <1>   0.0800 
 45 H        7.3820    -3.8850     0.0500 H     1 <1>   0.0800 
 46 H        7.8520     0.0420     0.2990 H     1 <1>   0.0800 
 47 H        8.8940    -0.2270    -1.0700 H     1 <1>   0.0800 
 48 H        8.6530    -3.1430     1.9990 H     1 <1>   0.0800 
 49 H        7.7070    -1.6920     2.1040 H     1 <1>   0.0800 
 50 H       10.4450    -3.8910     1.0870 H     1 <1>   0.0800 
 51 H       11.5800    -1.5300     2.5270 H     1 <1>   0.0800 
 52 H       10.6640    -2.8950     3.1630 H     1 <1>   0.0800 
 53 H       12.2340    -4.4100    -0.1930 H     1 <1>   0.0800 
 54 H       12.8850    -2.7770    -0.1980 H     1 <1>   0.0800 
 55 H       13.1140    -3.3440     3.7280 H     1 <1>   0.1500 
 56 H       14.1680    -4.3640     1.4850 H     1 <1>   0.1500 
@<TRIPOS>BOND
  1   1   2  2   
  2   2   3  am  
  3   2   4  1   
  4   3   5  1   
  5   3  29  1   
  6   4   6  1   
  7   4   7  2   
  8   5   8  1   
  9   5   9  1   
 10   5  10  1   
 11   6  11  2   
 12   6  30  1   
 13   7  12  1   
 14   7  31  1   
 15   8  13  1   
 16   8  14  1   
 17   8  32  1   
 18   9  15  1   
 19   9  33  1   
 20   9  34  1   
 21  10  35  1   
 22  10  36  1   
 23  10  37  1   
 24  11  12  1   
 25  12  38  1   
 26  13  39  1   
 27  14  16  1   
 28  14  17  1   
 29  14  18  1   
 30  15  16  1   
 31  15  40  1   
 32  15  41  1   
 33  17  19  1   
 34  17  42  1   
 35  17  43  1   
 36  18  20  1   
 37  18  44  1   
 38  18  45  1   
 39  19  21  1   
 40  19  46  1   
 41  19  47  1   
 42  20  21  1   
 43  20  48  1   
 44  20  49  1   
 45  21  22  am  
 46  22  23  2   
 47  22  24  1   
 48  24  25  1   
 49  24  26  1   
 50  24  50  1   
 51  25  27  1   
 52  25  51  1   
 53  25  52  1   
 54  26  28  1   
 55  26  53  1   
 56  26  54  1   
 57  27  28  2   
 58  27  55  1   
 59  28  56  1   
@<TRIPOS>SUBSTRUCTURE
  1 ****  14 GROUP 4 **** **** 0

# MOE 2024.06 (io_trps.svl 2023.06)
