@<TRIPOS>MOLECULE
NONAME
58 60 1 0 0 
SMALL
USER_CHARGES


@<TRIPOS>ATOM
  1 O       -0.6250     1.2610     1.9320 O.2   1 <1>  -0.5700 
  2 C       -1.4570     1.8200     1.2550 C.2   1 <1>   0.5690 
  3 N       -2.7460     1.3420     1.1640 N.am  1 <1>  -0.6600 
  4 C       -1.0450     3.0830     0.5080 C.3   1 <1>  -0.0990 
  5 C       -3.7840     1.9430     0.2720 C.3   1 <1>   0.2200 
  6 C       -3.1320     0.1510     1.9860 C.3   1 <1>   0.0600 
  7 C        0.3840     3.5590     0.8090 C.3   1 <1>  -0.0160 
  8 C       -4.8360     2.7300     1.0500 C.3   1 <1>  -0.1600 
  9 C       -4.5880     0.9300    -0.5470 C.3   1 <1>  -0.1600 
 10 C        0.6660     4.8760     0.0920 C.ar  1 <1>  -0.1430 
 11 C       -6.0350     2.8140     0.0950 C.3   1 <1>  -0.0800 
 12 C       -5.8680     1.6860    -0.9290 C.3   1 <1>  -0.0800 
 13 C        0.9920     4.9100    -1.2630 C.ar  1 <1>   0.0820 
 14 C        0.5920     6.0610     0.8080 C.ar  1 <1>  -0.1500 
 15 C       -7.4090     2.5910     0.7430 C.3   1 <1>  -0.1600 
 16 C       -7.1640     0.8630    -0.8620 C.3   1 <1>  -0.1600 
 17 O        1.0500     3.7280    -1.9330 O.3   1 <1>  -0.3630 
 18 C        1.2410     6.1340    -1.8790 C.ar  1 <1>  -0.1500 
 19 C        0.8400     7.2740     0.1890 C.ar  1 <1>  -0.1500 
 20 C       -8.2260     1.8120    -0.2950 C.3   1 <1>   0.4230 
 21 C        1.5050     3.6510    -3.2650 C.3   1 <1>   0.0400 
 22 C        1.1650     7.3100    -1.1540 C.ar  1 <1>  -0.1500 
 23 N       -8.7460     2.7280    -1.3620 N.4   1 <1>  -0.9590 
 24 C       -9.6830     3.7690    -0.8260 C.3   1 <1>   0.2630 
 25 C       -9.4440     1.9910    -2.4660 C.3   1 <1>   0.2630 
 26 H       -1.1220     2.8960    -0.5460 H     1 <1>   0.0800 
 27 H       -1.7260     3.8710     0.7680 H     1 <1>   0.0800 
 28 H       -3.3280     2.6150    -0.4330 H     1 <1>   0.0800 
 29 H       -4.1540     0.2210     2.3070 H     1 <1>   0.0800 
 30 H       -2.5120     0.0810     2.8640 H     1 <1>   0.0800 
 31 H       -3.0000    -0.7440     1.4050 H     1 <1>   0.0800 
 32 H        1.0900     2.8110     0.4920 H     1 <1>   0.0800 
 33 H        0.5060     3.6850     1.8700 H     1 <1>   0.0800 
 34 H       -5.0980     2.2020     1.9480 H     1 <1>   0.0800 
 35 H       -4.4700     3.7070     1.3110 H     1 <1>   0.0800 
 36 H       -4.0390     0.6160    -1.4170 H     1 <1>   0.0800 
 37 H       -4.8330     0.0680     0.0440 H     1 <1>   0.0800 
 38 H       -6.0150     3.7600    -0.4210 H     1 <1>   0.0800 
 39 H       -5.7490     2.1200    -1.9090 H     1 <1>   0.0800 
 40 H        0.3410     6.0460     1.8540 H     1 <1>   0.1500 
 41 H       -7.8580     3.5050     1.0820 H     1 <1>   0.0800 
 42 H       -7.3000     1.9530     1.6030 H     1 <1>   0.0800 
 43 H       -7.0460     0.0620    -0.1530 H     1 <1>   0.0800 
 44 H       -7.4130     0.4140    -1.8060 H     1 <1>   0.0800 
 45 H        1.4920     6.1940    -2.9200 H     1 <1>   0.1500 
 46 H        0.7810     8.1870     0.7550 H     1 <1>   0.1500 
 47 H       -9.0360     1.2700     0.1660 H     1 <1>   0.0800 
 48 H        1.5160     2.6150    -3.5530 H     1 <1>   0.0800 
 49 H        2.5000     4.0550    -3.3170 H     1 <1>   0.0800 
 50 H        0.8300     4.1990    -3.8970 H     1 <1>   0.0800 
 51 H        1.3580     8.2530    -1.6340 H     1 <1>   0.1500 
 52 H       -7.9220     3.2030    -1.7570 H     1 <1>   0.4500 
 53 H      -10.5130     3.3020    -0.3220 H     1 <1>   0.0800 
 54 H      -10.0660     4.3750    -1.6310 H     1 <1>   0.0800 
 55 H       -9.1770     4.4180    -0.1310 H     1 <1>   0.0800 
 56 H      -10.2600     1.4080    -2.0700 H     1 <1>   0.0800 
 57 H       -8.7630     1.3310    -2.9770 H     1 <1>   0.0800 
 58 H       -9.8380     2.6880    -3.1880 H     1 <1>   0.0800 
@<TRIPOS>BOND
  1   1   2  2   
  2   2   3  am  
  3   2   4  1   
  4   3   5  1   
  5   3   6  1   
  6   4   7  1   
  7   4  26  1   
  8   4  27  1   
  9   5   8  1   
 10   5   9  1   
 11   5  28  1   
 12   6  29  1   
 13   6  30  1   
 14   6  31  1   
 15   7  10  1   
 16   7  32  1   
 17   7  33  1   
 18   8  11  1   
 19   8  34  1   
 20   8  35  1   
 21   9  12  1   
 22   9  36  1   
 23   9  37  1   
 24  10  13  ar  
 25  10  14  ar  
 26  11  12  1   
 27  11  15  1   
 28  11  38  1   
 29  12  16  1   
 30  12  39  1   
 31  13  17  1   
 32  13  18  ar  
 33  14  19  ar  
 34  14  40  1   
 35  15  20  1   
 36  15  41  1   
 37  15  42  1   
 38  16  20  1   
 39  16  43  1   
 40  16  44  1   
 41  17  21  1   
 42  18  22  ar  
 43  18  45  1   
 44  19  22  ar  
 45  19  46  1   
 46  20  23  1   
 47  20  47  1   
 48  21  48  1   
 49  21  49  1   
 50  21  50  1   
 51  22  51  1   
 52  23  24  1   
 53  23  25  1   
 54  23  52  1   
 55  24  53  1   
 56  24  54  1   
 57  24  55  1   
 58  25  56  1   
 59  25  57  1   
 60  25  58  1   
@<TRIPOS>SUBSTRUCTURE
  1 ****   5 GROUP 4 **** **** 0

# MOE 2024.06 (io_trps.svl 2023.06)
