@<TRIPOS>MOLECULE
NONAME
41 42 1 0 0 
SMALL
USER_CHARGES


@<TRIPOS>ATOM
  1 S       -0.2270     0.0090     0.3860 S.o2  1 <1>   1.3330 
  2 O       -0.1020    -0.6880     1.6460 O.2   1 <1>  -0.6500 
  3 O       -0.9050     1.2850     0.3430 O.2   1 <1>  -0.6500 
  4 N       -1.0010    -1.0380    -0.7050 N.am  1 <1>  -0.8490 
  5 C        1.3890     0.2180    -0.3630 C.3   1 <1>  -0.0550 
  6 C       -2.4510    -0.8290    -0.7430 C.3   1 <1>   0.1160 
  7 C       -0.7060    -2.4540    -0.4600 C.3   1 <1>   0.1160 
  8 C        2.3010     1.2100     0.3850 C.3   1 <1>  -0.0800 
  9 C        3.5630     1.4940    -0.4110 C.3   1 <1>   0.2200 
 10 C        2.8750     0.6130     1.6740 C.3   1 <1>   0.1200 
 11 N        4.1280     2.7910     0.0230 N.am  1 <1>  -0.7300 
 12 C        4.4800     0.3600     0.0330 C.3   1 <1>   0.1200 
 13 O        4.1010     0.0310     1.3370 O.3   1 <1>  -0.5600 
 14 C        4.0520     3.9540    -0.6880 C.2   1 <1>   0.5440 
 15 O        3.5140     3.9310    -1.7760 O.2   1 <1>  -0.5700 
 16 C        4.5880     5.1800    -0.1520 C.ar  1 <1>   0.0860 
 17 C        4.2170     5.6760     1.0970 C.ar  1 <1>   0.1900 
 18 C        5.5140     5.9610    -0.8410 C.ar  1 <1>   0.1900 
 19 F        3.3650     5.0070     1.8240 F     1 <1>  -0.1900 
 20 C        4.7080     6.8580     1.6260 C.ar  1 <1>  -0.1500 
 21 F        5.9480     5.5630    -2.0050 F     1 <1>  -0.1900 
 22 C        6.0270     7.1490    -0.3480 C.ar  1 <1>  -0.1500 
 23 C        5.6200     7.6030     0.8970 C.ar  1 <1>  -0.1500 
 24 H        1.8760    -0.7360    -0.4320 H     1 <1>   0.0800 
 25 H        1.2410     0.5820    -1.3610 H     1 <1>   0.0800 
 26 H       -2.9070    -1.4990    -1.4520 H     1 <1>   0.0800 
 27 H       -2.6700     0.1810    -1.0470 H     1 <1>   0.0800 
 28 H       -2.8790    -0.9970     0.2320 H     1 <1>   0.0800 
 29 H       -1.1420    -3.0620    -1.2340 H     1 <1>   0.0800 
 30 H       -1.1030    -2.7620     0.4930 H     1 <1>   0.0800 
 31 H        0.3580    -2.6180    -0.4590 H     1 <1>   0.0800 
 32 H        1.7500     2.1160     0.5780 H     1 <1>   0.0800 
 33 H        3.4050     1.4920    -1.4770 H     1 <1>   0.0800 
 34 H        2.2480    -0.1350     2.1260 H     1 <1>   0.0800 
 35 H        3.0730     1.3890     2.3940 H     1 <1>   0.0800 
 36 H        4.4960     2.7950     0.9770 H     1 <1>   0.3700 
 37 H        5.5190     0.6380     0.0170 H     1 <1>   0.0800 
 38 H        4.3280    -0.5120    -0.5790 H     1 <1>   0.0800 
 39 H        4.3790     7.1900     2.5960 H     1 <1>   0.1500 
 40 H        6.7380     7.7070    -0.9320 H     1 <1>   0.1500 
 41 H        6.0110     8.5260     1.2930 H     1 <1>   0.1500 
@<TRIPOS>BOND
  1   1   2  2   
  2   1   3  2   
  3   1   4  am  
  4   1   5  1   
  5   4   6  1   
  6   4   7  1   
  7   5   8  1   
  8   5  24  1   
  9   5  25  1   
 10   6  26  1   
 11   6  27  1   
 12   6  28  1   
 13   7  29  1   
 14   7  30  1   
 15   7  31  1   
 16   8   9  1   
 17   8  10  1   
 18   8  32  1   
 19   9  11  1   
 20   9  12  1   
 21   9  33  1   
 22  10  13  1   
 23  10  34  1   
 24  10  35  1   
 25  11  14  am  
 26  11  36  1   
 27  12  13  1   
 28  12  37  1   
 29  12  38  1   
 30  14  15  2   
 31  14  16  1   
 32  16  17  ar  
 33  16  18  ar  
 34  17  19  1   
 35  17  20  ar  
 36  18  21  1   
 37  18  22  ar  
 38  20  23  ar  
 39  20  39  1   
 40  22  23  ar  
 41  22  40  1   
 42  23  41  1   
@<TRIPOS>SUBSTRUCTURE
  1 ****  11 GROUP 4 **** **** 0

# MOE 2024.06 (io_trps.svl 2023.06)
