@<TRIPOS>MOLECULE
NONAME
45 46 1 0 0 
SMALL
USER_CHARGES


@<TRIPOS>ATOM
  1 O        0.4160    -0.2130     3.0810 O.2   1 <1>  -0.5700 
  2 C        1.3220    -1.0030     2.9510 C.2   1 <1>   0.5690 
  3 N        2.6210    -0.6230     3.0650 N.am  1 <1>  -0.7300 
  4 C        0.9940    -2.4610     2.5960 C.3   1 <1>   0.1710 
  5 C        3.0700     0.7800     3.0230 C.3   1 <1>   0.2840 
  6 N        1.0940    -2.8140     1.1480 N.3   1 <1>  -0.8100 
  7 C        3.6240     1.0340     1.6320 C.ar  1 <1>  -0.1430 
  8 C        0.2080    -1.9410     0.3340 C.3   1 <1>   0.2530 
  9 C        2.4810    -2.7720     0.6520 C.3   1 <1>   0.0300 
 10 C        2.7510     1.1590     0.5620 C.ar  1 <1>  -0.1500 
 11 C        4.9900     1.1210     1.4050 C.ar  1 <1>  -0.1500 
 12 C        0.1240    -2.3650    -1.1290 C.ar  1 <1>   0.1670 
 13 C        3.2340     1.3560    -0.7180 C.ar  1 <1>  -0.1500 
 14 C        5.4700     1.3280     0.1240 C.ar  1 <1>  -0.1500 
 15 N        0.2600    -1.4160    -2.0470 N.ar  1 <1>  -0.6200 
 16 C       -0.0900    -3.7070    -1.4360 C.ar  1 <1>   0.1600 
 17 C        4.6000     1.4520    -0.9510 C.ar  1 <1>   0.1170 
 18 C        0.1700    -1.9010    -3.2750 C.ar  1 <1>   0.1600 
 19 N       -0.1830    -4.1920    -2.6650 N.ar  1 <1>  -0.6200 
 20 N        5.1120     1.6510    -2.2370 N.am  1 <1>  -0.5470 
 21 C       -0.0450    -3.2410    -3.5730 C.ar  1 <1>   0.1600 
 22 C        4.7900     2.5640    -3.1900 C.2   1 <1>   0.5690 
 23 O        5.3370     2.5300    -4.2610 O.2   1 <1>  -0.5700 
 24 C        3.7690     3.6460    -2.9260 C.3   1 <1>  -0.1790 
 25 H        3.3480    -1.2970     2.8320 H     1 <1>   0.3700 
 26 H       -0.0100    -2.6590     2.9260 H     1 <1>   0.0800 
 27 H        1.6420    -3.1070     3.1600 H     1 <1>   0.0800 
 28 H        3.8240     0.9410     3.7730 H     1 <1>   0.0800 
 29 H        2.2460     1.4470     3.2200 H     1 <1>   0.0800 
 30 H        0.5610    -0.9250     0.3760 H     1 <1>   0.0800 
 31 H       -0.7870    -1.9570     0.7450 H     1 <1>   0.0800 
 32 H        3.1210    -3.3550     1.2920 H     1 <1>   0.0800 
 33 H        2.8430    -1.7590     0.6100 H     1 <1>   0.0800 
 34 H        2.5320    -3.1910    -0.3390 H     1 <1>   0.0800 
 35 H        1.6880     1.0930     0.7260 H     1 <1>   0.1500 
 36 H        5.6840     1.0270     2.2230 H     1 <1>   0.1500 
 37 H        2.5430     1.4230    -1.5380 H     1 <1>   0.1500 
 38 H        6.5300     1.3990    -0.0430 H     1 <1>   0.1500 
 39 H       -0.1830    -4.4070    -0.6230 H     1 <1>   0.1500 
 40 H        0.2710    -1.2030    -4.0870 H     1 <1>   0.1500 
 41 H        5.8860     1.0500    -2.5200 H     1 <1>   0.3700 
 42 H       -0.1030    -3.5370    -4.6050 H     1 <1>   0.1500 
 43 H        3.8460     3.9950    -1.9130 H     1 <1>   0.0800 
 44 H        2.7830     3.2630    -3.1020 H     1 <1>   0.0800 
 45 H        3.9440     4.4730    -3.5900 H     1 <1>   0.0800 
@<TRIPOS>BOND
  1   1   2  2   
  2   2   3  am  
  3   2   4  1   
  4   3   5  1   
  5   3  25  1   
  6   4   6  1   
  7   4  26  1   
  8   4  27  1   
  9   5   7  1   
 10   5  28  1   
 11   5  29  1   
 12   6   8  1   
 13   6   9  1   
 14   7  10  ar  
 15   7  11  ar  
 16   8  12  1   
 17   8  30  1   
 18   8  31  1   
 19   9  32  1   
 20   9  33  1   
 21   9  34  1   
 22  10  13  ar  
 23  10  35  1   
 24  11  14  ar  
 25  11  36  1   
 26  12  15  ar  
 27  12  16  ar  
 28  13  17  ar  
 29  13  37  1   
 30  14  17  ar  
 31  14  38  1   
 32  15  18  ar  
 33  16  19  ar  
 34  16  39  1   
 35  17  20  1   
 36  18  21  ar  
 37  18  40  1   
 38  19  21  ar  
 39  20  22  am  
 40  20  41  1   
 41  21  42  1   
 42  22  23  2   
 43  22  24  1   
 44  24  43  1   
 45  24  44  1   
 46  24  45  1   
@<TRIPOS>SUBSTRUCTURE
  1 ****  10 GROUP 4 **** **** 0

# MOE 2024.06 (io_trps.svl 2023.06)
