@<TRIPOS>MOLECULE
NONAME
46 47 1 0 0 
SMALL
USER_CHARGES


@<TRIPOS>ATOM
  1 S       -0.0710     0.0790    -0.6030 S.o2  1 <1>   1.3330 
  2 O       -1.0010     0.6280    -1.5580 O.2   1 <1>  -0.6500 
  3 O        0.5900    -1.1760    -0.8530 O.2   1 <1>  -0.6500 
  4 N        1.2400     1.1750    -0.4120 N.am  1 <1>  -0.7570 
  5 C       -0.8110    -0.0010     1.0370 C.3   1 <1>  -0.0550 
  6 C        1.2910     2.5600    -0.4150 C.ar  1 <1>   0.1990 
  7 C       -1.4360     1.3060     1.5600 C.3   1 <1>  -0.2400 
  8 C        2.5020     3.1780    -0.1240 C.ar  1 <1>  -0.1500 
  9 C        0.2010     3.3790    -0.6930 C.ar  1 <1>  -0.1500 
 10 C        2.6170     4.5540    -0.0950 C.ar  1 <1>  -0.1500 
 11 C        0.3170     4.7550    -0.6620 C.ar  1 <1>  -0.1500 
 12 C        1.5240     5.3860    -0.3530 C.ar  1 <1>   0.0860 
 13 C        1.6210     6.8330    -0.3100 C.2   1 <1>   0.5440 
 14 O        0.8380     7.5310    -0.9240 O.2   1 <1>  -0.5700 
 15 N        2.5860     7.4560     0.4340 N.am  1 <1>  -0.7300 
 16 C        2.6770     8.9270     0.6250 C.3   1 <1>   0.1400 
 17 C        3.1400     9.6110    -0.6640 C.3   1 <1>   0.0960 
 18 N        3.3710    11.0450    -0.4060 N.pl3 1 <1>   0.0480 
 19 C        4.5220    11.6850    -0.0740 C.2   1 <1>   0.0070 
 20 C        2.4320    12.0070    -0.4200 C.2   1 <1>  -0.3020 
 21 N        4.3640    12.9560     0.1160 N.2   1 <1>  -0.5650 
 22 C        5.8580    10.9560     0.0540 C.3   1 <1>   0.0200 
 23 C        3.0530    13.1610    -0.1020 C.2   1 <1>   0.0770 
 24 C        6.9910    11.8450     0.5810 C.3   1 <1>  -0.2400 
 25 H        2.1120     0.6570    -0.4620 H     1 <1>   0.4200 
 26 H       -0.0670    -0.3270     1.7370 H     1 <1>   0.0800 
 27 H       -1.5780    -0.7520     1.0200 H     1 <1>   0.0800 
 28 H       -0.6810     2.0610     1.6880 H     1 <1>   0.0800 
 29 H       -1.9090     1.1340     2.5110 H     1 <1>   0.0800 
 30 H       -2.1770     1.6670     0.8680 H     1 <1>   0.0800 
 31 H        3.3630     2.5690     0.0820 H     1 <1>   0.1500 
 32 H       -0.7510     2.9500    -0.9440 H     1 <1>   0.1500 
 33 H        3.5750     4.9900     0.1240 H     1 <1>   0.1500 
 34 H       -0.5440     5.3630    -0.8840 H     1 <1>   0.1500 
 35 H        3.1310     6.8940     1.0910 H     1 <1>   0.3700 
 36 H        3.3720     9.1370     1.4200 H     1 <1>   0.0800 
 37 H        1.7070     9.3070     0.9030 H     1 <1>   0.0800 
 38 H        2.3850     9.5160    -1.4240 H     1 <1>   0.0800 
 39 H        4.0500     9.1640    -1.0170 H     1 <1>   0.0800 
 40 H        1.3980    11.8250    -0.6510 H     1 <1>   0.1500 
 41 H        6.1360    10.5770    -0.9130 H     1 <1>   0.0800 
 42 H        5.7380    10.1230     0.7220 H     1 <1>   0.0800 
 43 H        2.6210    14.1440    -0.0170 H     1 <1>   0.1500 
 44 H        7.1490    12.6740    -0.0870 H     1 <1>   0.0800 
 45 H        7.9040    11.2830     0.6600 H     1 <1>   0.0800 
 46 H        6.7340    12.2340     1.5500 H     1 <1>   0.0800 
@<TRIPOS>BOND
  1   1   2  2   
  2   1   3  2   
  3   1   4  am  
  4   1   5  1   
  5   4   6  1   
  6   4  25  1   
  7   5   7  1   
  8   5  26  1   
  9   5  27  1   
 10   6   8  ar  
 11   6   9  ar  
 12   7  28  1   
 13   7  29  1   
 14   7  30  1   
 15   8  10  ar  
 16   8  31  1   
 17   9  11  ar  
 18   9  32  1   
 19  10  12  ar  
 20  10  33  1   
 21  11  12  ar  
 22  11  34  1   
 23  12  13  1   
 24  13  14  2   
 25  13  15  am  
 26  15  16  1   
 27  15  35  1   
 28  16  17  1   
 29  16  36  1   
 30  16  37  1   
 31  17  18  1   
 32  17  38  1   
 33  17  39  1   
 34  18  19  1   
 35  18  20  1   
 36  19  21  2   
 37  19  22  1   
 38  20  23  2   
 39  20  40  1   
 40  21  23  1   
 41  22  24  1   
 42  22  41  1   
 43  22  42  1   
 44  23  43  1   
 45  24  44  1   
 46  24  45  1   
 47  24  46  1   
@<TRIPOS>SUBSTRUCTURE
  1 ****  13 GROUP 4 **** **** 0

# MOE 2024.06 (io_trps.svl 2023.06)
