@<TRIPOS>MOLECULE
Untitled Document
58 61 1 0 0 
SMALL
USER_CHARGES


@<TRIPOS>ATOM
  1 O        1.6130    -0.2720     2.1910 O.2   1 <1>  -0.5700 
  2 C        1.9030    -0.8620     1.1950 C.2   1 <1>   0.4480 
  3 C        1.4620    -2.3160     1.0020 C.3   1 <1>  -0.0190 
  4 C        2.7300    -0.1690     0.1300 C.3   1 <1>  -0.1790 
  5 C        0.0150    -2.5190     0.5100 C.3   1 <1>   0.0000 
  6 C        2.3110    -3.2170     0.0690 C.3   1 <1>  -0.1600 
  7 C        0.0300    -4.0280     0.2400 C.3   1 <1>  -0.0800 
  8 C       -1.0760    -2.2420     1.5610 C.3   1 <1>  -0.1600 
  9 C       -0.2480    -1.6580    -0.7560 C.3   1 <1>  -0.2400 
 10 C        1.3450    -4.2720    -0.5050 C.3   1 <1>  -0.1600 
 11 C       -1.2920    -4.5520    -0.3470 C.3   1 <1>  -0.0800 
 12 C       -2.4570    -2.7640     1.1050 C.3   1 <1>  -0.1600 
 13 C       -2.4420    -4.2570     0.6630 C.3   1 <1>  -0.0800 
 14 C       -1.1990    -6.0550    -0.6590 C.3   1 <1>  -0.1600 
 15 C       -3.8230    -4.8120     0.1750 C.3   1 <1>   0.0000 
 16 C       -2.5440    -6.6160    -1.1220 C.3   1 <1>   0.2000 
 17 C       -3.6550    -6.3410    -0.0880 C.3   1 <1>  -0.0800 
 18 C       -4.8960    -4.6290     1.2820 C.3   1 <1>  -0.1600 
 19 C       -4.3020    -4.0570    -1.0940 C.3   1 <1>  -0.2400 
 20 O       -2.3830    -7.9760    -1.2950 O.3   1 <1>  -0.6800 
 21 C       -4.9880    -7.0430    -0.4370 C.3   1 <1>  -0.1600 
 22 C       -6.2300    -5.3370     0.9850 C.3   1 <1>  -0.1600 
 23 C       -6.0170    -6.8180     0.6730 C.3   1 <1>   0.2000 
 24 O       -7.2180    -7.3540     0.2680 O.3   1 <1>  -0.6800 
 25 H        1.5210    -2.7590     1.9820 H     1 <1>   0.0800 
 26 H        2.2540    -0.2440    -0.8280 H     1 <1>   0.0800 
 27 H        3.7090    -0.6100     0.0840 H     1 <1>   0.0800 
 28 H        2.8360     0.8700     0.3810 H     1 <1>   0.0800 
 29 H        2.7400    -2.6670    -0.7480 H     1 <1>   0.0800 
 30 H        3.1060    -3.6830     0.6250 H     1 <1>   0.0800 
 31 H        0.1480    -4.5230     1.1910 H     1 <1>   0.0800 
 32 H       -0.8150    -2.7250     2.4860 H     1 <1>   0.0800 
 33 H       -1.1340    -1.1860     1.7610 H     1 <1>   0.0800 
 34 H       -1.2020    -1.8680    -1.1990 H     1 <1>   0.0800 
 35 H        0.4980    -1.8230    -1.5110 H     1 <1>   0.0800 
 36 H       -0.2430    -0.6140    -0.5010 H     1 <1>   0.0800 
 37 H        1.7080    -5.2720    -0.3430 H     1 <1>   0.0800 
 38 H        1.2080    -4.1150    -1.5610 H     1 <1>   0.0800 
 39 H       -1.4780    -4.0450    -1.2740 H     1 <1>   0.0800 
 40 H       -2.8140    -2.1450     0.3050 H     1 <1>   0.0800 
 41 H       -3.1350    -2.6350     1.9290 H     1 <1>   0.0800 
 42 H       -2.1980    -4.8080     1.5560 H     1 <1>   0.0800 
 43 H       -0.8770    -6.5780     0.2240 H     1 <1>   0.0800 
 44 H       -0.4730    -6.2160    -1.4370 H     1 <1>   0.0800 
 45 H       -2.8100    -6.2050    -2.0800 H     1 <1>   0.0800 
 46 H       -3.3200    -6.7760     0.8380 H     1 <1>   0.0800 
 47 H       -4.5110    -5.0120     2.2110 H     1 <1>   0.0800 
 48 H       -5.1040    -3.5840     1.4290 H     1 <1>   0.0800 
 49 H       -4.4920    -3.0230    -0.8730 H     1 <1>   0.0800 
 50 H       -5.2150    -4.4650    -1.4820 H     1 <1>   0.0800 
 51 H       -3.5800    -4.0950    -1.8860 H     1 <1>   0.0800 
 52 H       -2.1770    -8.3990    -0.4410 H     1 <1>   0.4000 
 53 H       -4.8280    -8.1020    -0.5310 H     1 <1>   0.0800 
 54 H       -5.3600    -6.6810    -1.3770 H     1 <1>   0.0800 
 55 H       -6.7180    -4.8550     0.1580 H     1 <1>   0.0800 
 56 H       -6.8710    -5.2510     1.8450 H     1 <1>   0.0800 
 57 H       -5.7120    -7.3390     1.5650 H     1 <1>   0.0800 
 58 H       -7.5000    -6.9350    -0.5660 H     1 <1>   0.4000 
@<TRIPOS>BOND
  1   1   2  2   
  2   2   3  1   
  3   2   4  1   
  4   3   5  1   
  5   3   6  1   
  6   3  25  1   
  7   4  26  1   
  8   4  27  1   
  9   4  28  1   
 10   5   7  1   
 11   5   8  1   
 12   5   9  1   
 13   6  10  1   
 14   6  29  1   
 15   6  30  1   
 16   7  10  1   
 17   7  11  1   
 18   7  31  1   
 19   8  12  1   
 20   8  32  1   
 21   8  33  1   
 22   9  34  1   
 23   9  35  1   
 24   9  36  1   
 25  10  37  1   
 26  10  38  1   
 27  11  13  1   
 28  11  14  1   
 29  11  39  1   
 30  12  13  1   
 31  12  40  1   
 32  12  41  1   
 33  13  15  1   
 34  13  42  1   
 35  14  16  1   
 36  14  43  1   
 37  14  44  1   
 38  15  17  1   
 39  15  18  1   
 40  15  19  1   
 41  16  17  1   
 42  16  20  1   
 43  16  45  1   
 44  17  21  1   
 45  17  46  1   
 46  18  22  1   
 47  18  47  1   
 48  18  48  1   
 49  19  49  1   
 50  19  50  1   
 51  19  51  1   
 52  20  52  1   
 53  21  23  1   
 54  21  53  1   
 55  21  54  1   
 56  22  23  1   
 57  22  55  1   
 58  22  56  1   
 59  23  24  1   
 60  23  57  1   
 61  24  58  1   
@<TRIPOS>SUBSTRUCTURE
  1 ****  13 GROUP 4 **** **** 0

# MOE 2024.06 (io_trps.svl 2023.06)
