@<TRIPOS>MOLECULE
NONAME
42 43 1 0 0 
SMALL
USER_CHARGES


@<TRIPOS>ATOM
  1 F       -0.1910    -0.7090     0.8360 F     1 <1>  -0.1900 
  2 C       -0.3680    -1.8550     0.2290 C.ar  1 <1>   0.1900 
  3 C        0.2650    -3.0260     0.6620 C.ar  1 <1>   0.0820 
  4 C       -1.2190    -1.8480    -0.8600 C.ar  1 <1>  -0.1500 
  5 O        1.1210    -3.1620     1.7120 O.3   1 <1>  -0.3630 
  6 C        0.0060    -4.1930    -0.0400 C.ar  1 <1>  -0.1500 
  7 C       -1.4620    -3.0280    -1.5420 C.ar  1 <1>  -0.1500 
  8 C        1.5990    -2.0630     2.4580 C.3   1 <1>   0.0400 
  9 C       -0.8540    -4.2080    -1.1320 C.ar  1 <1>  -0.1430 
 10 C       -1.1260    -5.5070    -1.8710 C.3   1 <1>   0.4870 
 11 N       -1.8500    -6.4560    -0.9850 N.4   1 <1>  -0.9590 
 12 C       -1.9790    -7.7980    -1.6030 C.3   1 <1>   0.5230 
 13 C       -3.1340    -5.9020    -0.4420 C.3   1 <1>   0.3430 
 14 C       -2.6340    -8.7370    -0.6220 C.2   1 <1>  -0.3320 
 15 C       -3.2040    -6.1150     1.0870 C.3   1 <1>   0.1200 
 16 N       -2.0310    -9.3250     0.4360 N.pl3 1 <1>   0.0480 
 17 C       -3.9190    -9.1580    -0.6160 C.2   1 <1>   0.0770 
 18 O       -1.9160    -6.1760     1.6330 O.3   1 <1>  -0.6800 
 19 C       -3.0120   -10.0450     1.0240 C.2   1 <1>   0.0360 
 20 C       -0.6200    -9.2650     0.8690 C.3   1 <1>   0.0160 
 21 N       -4.1560    -9.9620     0.4290 N.2   1 <1>  -0.5650 
 22 H       -1.6820    -0.9250    -1.1650 H     1 <1>   0.1500 
 23 H        0.4950    -5.0910     0.2940 H     1 <1>   0.1500 
 24 H       -2.1240    -3.0080    -2.3920 H     1 <1>   0.1500 
 25 H        2.3080    -2.4300     3.1780 H     1 <1>   0.0800 
 26 H        0.7740    -1.5980     2.9670 H     1 <1>   0.0800 
 27 H        2.0820    -1.3690     1.7930 H     1 <1>   0.0800 
 28 H       -0.1860    -5.9340    -2.1790 H     1 <1>   0.0800 
 29 H       -1.7120    -5.3050    -2.7530 H     1 <1>   0.0800 
 30 H       -1.2990    -6.5510    -0.1130 H     1 <1>   0.4500 
 31 H       -1.0110    -8.1820    -1.8800 H     1 <1>   0.0800 
 32 H       -2.5860    -7.7330    -2.4910 H     1 <1>   0.0800 
 33 H       -3.9870    -6.3580    -0.9170 H     1 <1>   0.0800 
 34 H       -3.1840    -4.8420    -0.6270 H     1 <1>   0.0800 
 35 H       -3.7110    -7.0380     1.3180 H     1 <1>   0.0800 
 36 H       -3.7400    -5.3040     1.5490 H     1 <1>   0.0800 
 37 H       -4.7110    -8.9240    -1.3100 H     1 <1>   0.1500 
 38 H       -1.9570    -6.1080     2.6130 H     1 <1>   0.4000 
 39 H       -2.8390   -10.6340     1.9090 H     1 <1>   0.1500 
 40 H       -0.3690    -8.2620     1.1580 H     1 <1>   0.0800 
 41 H        0.0170    -9.5850     0.0650 H     1 <1>   0.0800 
 42 H       -0.4760    -9.9180     1.7110 H     1 <1>   0.0800 
@<TRIPOS>BOND
  1   1   2  1   
  2   2   3  ar  
  3   2   4  ar  
  4   3   5  1   
  5   3   6  ar  
  6   4   7  ar  
  7   4  22  1   
  8   5   8  1   
  9   6   9  ar  
 10   6  23  1   
 11   7   9  ar  
 12   7  24  1   
 13   8  25  1   
 14   8  26  1   
 15   8  27  1   
 16   9  10  1   
 17  10  11  1   
 18  10  28  1   
 19  10  29  1   
 20  11  12  1   
 21  11  13  1   
 22  11  30  1   
 23  12  14  1   
 24  12  31  1   
 25  12  32  1   
 26  13  15  1   
 27  13  33  1   
 28  13  34  1   
 29  14  16  1   
 30  14  17  2   
 31  15  18  1   
 32  15  35  1   
 33  15  36  1   
 34  16  19  1   
 35  16  20  1   
 36  17  21  1   
 37  17  37  1   
 38  18  38  1   
 39  19  21  2   
 40  19  39  1   
 41  20  40  1   
 42  20  41  1   
 43  20  42  1   
@<TRIPOS>SUBSTRUCTURE
  1 ****  11 GROUP 4 **** **** 0

# MOE 2024.06 (io_trps.svl 2023.06)
