@<TRIPOS>MOLECULE
NONAME
56 59 1 0 0 
SMALL
USER_CHARGES


@<TRIPOS>ATOM
  1 O       -1.3880     1.3290     2.8500 O.co2 1 <1>  -0.9000 
  2 C       -1.5190     0.6900     1.7890 C.2   1 <1>   0.9790 
  3 O       -0.6750    -0.1790     1.5060 O.co2 1 <1>  -0.9000 
  4 C       -2.6480     0.9150     0.9350 C.ar  1 <1>  -0.1790 
  5 C       -2.7300     1.9290    -0.0170 C.ar  1 <1>   0.1000 
  6 C       -3.7330     0.0440     1.1030 C.ar  1 <1>   0.1600 
  7 N       -1.7290     2.8690    -0.2290 N.pl3 1 <1>  -0.8380 
  8 C       -3.9290     1.9760    -0.7540 C.ar  1 <1>   0.0000 
  9 N       -4.8680     0.0820     0.4490 N.ar  1 <1>  -0.5670 
 10 C       -1.5640     3.8920     0.8360 C.3   1 <1>   0.4330 
 11 C       -0.3920     2.3710    -0.6430 C.3   1 <1>   0.2090 
 12 C       -4.9240     1.0680    -0.4700 C.ar  1 <1>   0.1050 
 13 C       -4.4810     2.7530    -1.7950 C.2   1 <1>   0.1080 
 14 C       -2.5200     5.0660     0.5910 C.ar  1 <1>  -0.1440 
 15 C       -0.0700     4.2190     0.8710 C.3   1 <1>  -0.1600 
 16 C        0.6010     2.9520     0.3570 C.3   1 <1>  -0.1600 
 17 N       -5.9600     1.3610    -1.3000 N.pl3 1 <1>   0.3140 
 18 N       -5.6840     2.4050    -2.1150 N.2   1 <1>  -0.7070 
 19 C       -3.7750     3.8820    -2.5080 C.3   1 <1>  -0.0590 
 20 C       -3.7330     5.0630     1.2630 C.ar  1 <1>  -0.1500 
 21 C       -2.2570     6.1020    -0.2970 C.ar  1 <1>  -0.1500 
 22 C       -7.2370     0.6440    -1.3560 C.3   1 <1>   0.0160 
 23 C       -4.6610     6.0690     1.0640 C.ar  1 <1>  -0.1500 
 24 C       -3.1780     7.1160    -0.4950 C.ar  1 <1>  -0.1500 
 25 C       -4.3870     7.1050     0.1850 C.ar  1 <1>  -0.1430 
 26 C       -5.4060     8.2040    -0.0380 C.3   1 <1>   0.4860 
 27 N       -5.4240     9.0910     1.1610 N.4   1 <1>  -0.9590 
 28 C       -6.5620    10.0550     1.1140 C.3   1 <1>   0.2630 
 29 C       -4.1140     9.7920     1.3420 C.3   1 <1>   0.2630 
 30 H       -3.6160    -0.7270     1.8470 H     1 <1>   0.1500 
 31 H       -1.8160     3.4440     1.7810 H     1 <1>   0.0800 
 32 H       -0.1810     2.7350    -1.6330 H     1 <1>   0.0800 
 33 H       -0.3530     1.2940    -0.6480 H     1 <1>   0.0800 
 34 H        0.2430     4.4590     1.8710 H     1 <1>   0.0800 
 35 H        0.1700     5.0360     0.2220 H     1 <1>   0.0800 
 36 H        1.5600     3.1380    -0.0910 H     1 <1>   0.0800 
 37 H        0.7240     2.2500     1.1650 H     1 <1>   0.0800 
 38 H       -2.7140     3.7210    -2.5060 H     1 <1>   0.0800 
 39 H       -3.9990     4.8040    -2.0120 H     1 <1>   0.0800 
 40 H       -4.1160     3.9370    -3.5250 H     1 <1>   0.0800 
 41 H       -3.9590     4.2500     1.9350 H     1 <1>   0.1500 
 42 H       -1.3400     6.1120    -0.8580 H     1 <1>   0.1500 
 43 H       -7.7180     0.7150    -0.3980 H     1 <1>   0.0800 
 44 H       -7.0460    -0.3860    -1.5900 H     1 <1>   0.0800 
 45 H       -7.8580     1.0830    -2.1130 H     1 <1>   0.0800 
 46 H       -5.5960     6.0130     1.5940 H     1 <1>   0.1500 
 47 H       -2.9410     7.8980    -1.1950 H     1 <1>   0.1500 
 48 H       -6.3760     7.7580    -0.1860 H     1 <1>   0.0800 
 49 H       -5.1520     8.7690    -0.9200 H     1 <1>   0.0800 
 50 H       -5.5440     8.4580     1.9660 H     1 <1>   0.4500 
 51 H       -6.4610    10.7160     0.2680 H     1 <1>   0.0800 
 52 H       -6.5860    10.6500     2.0140 H     1 <1>   0.0800 
 53 H       -7.4990     9.5280     1.0300 H     1 <1>   0.0800 
 54 H       -3.9090    10.4320     0.4990 H     1 <1>   0.0800 
 55 H       -3.3140     9.0730     1.4320 H     1 <1>   0.0800 
 56 H       -4.1320    10.3940     2.2370 H     1 <1>   0.0800 
@<TRIPOS>BOND
  1   1   2  ar  
  2   2   3  ar  
  3   2   4  1   
  4   4   5  ar  
  5   4   6  ar  
  6   5   7  1   
  7   5   8  ar  
  8   6   9  ar  
  9   6  30  1   
 10   7  10  1   
 11   7  11  1   
 12   8  12  ar  
 13   8  13  1   
 14   9  12  ar  
 15  10  14  1   
 16  10  15  1   
 17  10  31  1   
 18  11  16  1   
 19  11  32  1   
 20  11  33  1   
 21  12  17  1   
 22  13  18  2   
 23  13  19  1   
 24  14  20  ar  
 25  14  21  ar  
 26  15  16  1   
 27  15  34  1   
 28  15  35  1   
 29  16  36  1   
 30  16  37  1   
 31  17  18  1   
 32  17  22  1   
 33  19  38  1   
 34  19  39  1   
 35  19  40  1   
 36  20  23  ar  
 37  20  41  1   
 38  21  24  ar  
 39  21  42  1   
 40  22  43  1   
 41  22  44  1   
 42  22  45  1   
 43  23  25  ar  
 44  23  46  1   
 45  24  25  ar  
 46  24  47  1   
 47  25  26  1   
 48  26  27  1   
 49  26  48  1   
 50  26  49  1   
 51  27  28  1   
 52  27  29  1   
 53  27  50  1   
 54  28  51  1   
 55  28  52  1   
 56  28  53  1   
 57  29  54  1   
 58  29  55  1   
 59  29  56  1   
@<TRIPOS>SUBSTRUCTURE
  1 ****  14 GROUP 4 **** **** 0

# MOE 2024.06 (io_trps.svl 2023.06)
