@<TRIPOS>MOLECULE
NONAME
45 47 1 0 0 
SMALL
USER_CHARGES


@<TRIPOS>ATOM
  1 O       -1.0970     0.3860     2.1520 O.2   1 <1>  -0.5700 
  2 C       -1.6230     0.9320     1.2020 C.2   1 <1>   0.5440 
  3 N       -2.3540     0.1680     0.3240 N.am  1 <1>  -0.6600 
  4 C       -1.4920     2.3640     1.0110 C.ar  1 <1>   0.0860 
  5 C       -3.3160     0.7020    -0.6720 C.3   1 <1>   0.1400 
  6 C       -2.5370    -1.2950     0.4830 C.3   1 <1>   0.1400 
  7 C       -0.6250     2.9220     0.0600 C.ar  1 <1>  -0.1440 
  8 C       -2.2710     3.2200     1.7880 C.ar  1 <1>  -0.1500 
  9 C       -4.4190    -0.3530    -0.7200 C.3   1 <1>   0.2000 
 10 C       -3.6660    -1.6680    -0.4850 C.3   1 <1>  -0.0800 
 11 C       -0.5880     4.3020    -0.1030 C.ar  1 <1>  -0.1500 
 12 C        0.2610     1.9810    -0.7680 C.3   1 <1>  -0.0160 
 13 C       -2.2220     4.5900     1.6220 C.ar  1 <1>  -0.1500 
 14 O       -5.2820    -0.1190     0.3400 O.3   1 <1>  -0.6800 
 15 C       -4.5320    -2.8480    -0.0050 C.3   1 <1>  -0.0170 
 16 C       -1.3810     5.1310     0.6700 C.ar  1 <1>  -0.1500 
 17 C        1.3580     2.6570    -1.5980 C.3   1 <1>  -0.2400 
 18 C       -3.7020    -4.1180     0.1070 C.ar  1 <1>  -0.1430 
 19 C       -3.4650    -4.9290    -0.9850 C.ar  1 <1>  -0.1500 
 20 C       -3.1400    -4.5240     1.3000 C.ar  1 <1>  -0.1500 
 21 C       -2.6960    -6.0720    -0.8350 C.ar  1 <1>   0.1600 
 22 C       -2.3860    -5.6840     1.3430 C.ar  1 <1>   0.1600 
 23 N       -2.1490    -6.4680     0.3030 N.ar  1 <1>  -0.6200 
 24 H       -3.7020     1.6690    -0.3950 H     1 <1>   0.0800 
 25 H       -2.8280     0.7690    -1.6290 H     1 <1>   0.0800 
 26 H       -1.6250    -1.8190     0.2490 H     1 <1>   0.0800 
 27 H       -2.8140    -1.5060     1.5020 H     1 <1>   0.0800 
 28 H       -2.9220     2.7970     2.5320 H     1 <1>   0.1500 
 29 H       -4.9860    -0.3370    -1.6350 H     1 <1>   0.0800 
 30 H       -3.2060    -1.9480    -1.4170 H     1 <1>   0.0800 
 31 H        0.0580     4.7620    -0.8270 H     1 <1>   0.1500 
 32 H        0.7400     1.2880    -0.0970 H     1 <1>   0.0800 
 33 H       -0.3640     1.4070    -1.4290 H     1 <1>   0.0800 
 34 H       -2.8340     5.2330     2.2310 H     1 <1>   0.1500 
 35 H       -4.7470     0.0030     1.1510 H     1 <1>   0.4000 
 36 H       -5.3360    -3.0080    -0.7020 H     1 <1>   0.0800 
 37 H       -4.9740    -2.6260     0.9500 H     1 <1>   0.0800 
 38 H       -1.3380     6.1980     0.5330 H     1 <1>   0.1500 
 39 H        1.9950     3.2490    -0.9650 H     1 <1>   0.0800 
 40 H        0.9270     3.2840    -2.3580 H     1 <1>   0.0800 
 41 H        1.9610     1.9090    -2.0810 H     1 <1>   0.0800 
 42 H       -3.8700    -4.6850    -1.9490 H     1 <1>   0.1500 
 43 H       -3.2790    -3.9500     2.1980 H     1 <1>   0.1500 
 44 H       -2.5220    -6.6930    -1.6970 H     1 <1>   0.1500 
 45 H       -1.9540    -5.9840     2.2820 H     1 <1>   0.1500 
@<TRIPOS>BOND
  1   1   2  2   
  2   2   3  am  
  3   2   4  1   
  4   3   5  1   
  5   3   6  1   
  6   4   7  ar  
  7   4   8  ar  
  8   5   9  1   
  9   5  24  1   
 10   5  25  1   
 11   6  10  1   
 12   6  26  1   
 13   6  27  1   
 14   7  11  ar  
 15   7  12  1   
 16   8  13  ar  
 17   8  28  1   
 18   9  10  1   
 19   9  14  1   
 20   9  29  1   
 21  10  15  1   
 22  10  30  1   
 23  11  16  ar  
 24  11  31  1   
 25  12  17  1   
 26  12  32  1   
 27  12  33  1   
 28  13  16  ar  
 29  13  34  1   
 30  14  35  1   
 31  15  18  1   
 32  15  36  1   
 33  15  37  1   
 34  16  38  1   
 35  17  39  1   
 36  17  40  1   
 37  17  41  1   
 38  18  19  ar  
 39  18  20  ar  
 40  19  21  ar  
 41  19  42  1   
 42  20  22  ar  
 43  20  43  1   
 44  21  23  ar  
 45  21  44  1   
 46  22  23  ar  
 47  22  45  1   
@<TRIPOS>SUBSTRUCTURE
  1 ****   3 GROUP 4 **** **** 0

# MOE 2024.06 (io_trps.svl 2023.06)
