@<TRIPOS>MOLECULE
NONAME
44 46 1 0 0 
SMALL
USER_CHARGES


@<TRIPOS>ATOM
  1 F       -1.5600     0.2070    -2.0100 F     1 <1>  -0.1900 
  2 C       -2.5520     0.7260    -1.3380 C.ar  1 <1>   0.1900 
  3 C       -2.9930     0.0870    -0.1970 C.ar  1 <1>  -0.1500 
  4 C       -3.1250     1.8940    -1.7940 C.ar  1 <1>  -0.1500 
  5 C       -4.0510     0.6280     0.5230 C.ar  1 <1>  -0.1440 
  6 C       -4.1720     2.4370    -1.0720 C.ar  1 <1>  -0.1500 
  7 C       -4.6380     1.8180     0.0830 C.ar  1 <1>  -0.1440 
  8 C       -4.5200    -0.1220     1.7750 C.3   1 <1>   0.0440 
  9 C       -5.7850     2.4820     0.8330 C.3   1 <1>  -0.0960 
 10 C       -4.7180    -1.6160     1.5540 C.2   1 <1>   0.5690 
 11 O       -4.0410    -2.3760     2.2060 O.2   1 <1>  -0.5700 
 12 N       -5.6450    -2.0800     0.6590 N.am  1 <1>  -0.6600 
 13 C       -6.5050    -1.2600    -0.2300 C.3   1 <1>   0.1400 
 14 C       -5.8750    -3.5230     0.4200 C.3   1 <1>   0.1400 
 15 C       -7.3500    -2.2680    -1.0140 C.3   1 <1>   0.2000 
 16 C       -7.2440    -3.5920    -0.2570 C.3   1 <1>  -0.0800 
 17 O       -8.6780    -1.8740    -1.0810 O.3   1 <1>  -0.6800 
 18 C       -7.4340    -4.8120    -1.1750 C.3   1 <1>  -0.0170 
 19 C       -7.3780    -6.1170    -0.3990 C.ar  1 <1>   0.1670 
 20 N       -6.1740    -6.6030    -0.1450 N.ar  1 <1>  -0.6200 
 21 C       -8.5590    -6.7370     0.0090 C.ar  1 <1>   0.1600 
 22 C       -6.2280    -7.7340     0.5400 C.ar  1 <1>   0.1600 
 23 N       -8.6150    -7.8670     0.6940 N.ar  1 <1>  -0.6200 
 24 C       -7.4080    -8.3450     0.9450 C.ar  1 <1>   0.1600 
 25 H       -2.5080    -0.8220     0.1150 H     1 <1>   0.1500 
 26 H       -2.7560     2.3650    -2.6870 H     1 <1>   0.1500 
 27 H       -4.6220     3.3520    -1.4180 H     1 <1>   0.1500 
 28 H       -5.4420     0.2670     2.1550 H     1 <1>   0.0800 
 29 H       -3.7800     0.0120     2.5440 H     1 <1>   0.0800 
 30 H       -6.0400     3.4290     0.3920 H     1 <1>   0.0800 
 31 H       -5.5050     2.6590     1.8560 H     1 <1>   0.0800 
 32 H       -6.6580     1.8560     0.8070 H     1 <1>   0.0800 
 33 H       -7.1240    -0.6110     0.3630 H     1 <1>   0.0800 
 34 H       -5.8990    -0.6830    -0.9060 H     1 <1>   0.0800 
 35 H       -5.1020    -3.8990    -0.2300 H     1 <1>   0.0800 
 36 H       -5.8590    -4.0790     1.3440 H     1 <1>   0.0800 
 37 H       -6.9700    -2.3550    -2.0180 H     1 <1>   0.0800 
 38 H       -7.9800    -3.6170     0.5270 H     1 <1>   0.0800 
 39 H       -9.0570    -1.8030    -0.1840 H     1 <1>   0.4000 
 40 H       -6.6720    -4.8240    -1.9350 H     1 <1>   0.0800 
 41 H       -8.3840    -4.7320    -1.6740 H     1 <1>   0.0800 
 42 H       -9.4990    -6.2770    -0.2400 H     1 <1>   0.1500 
 43 H       -5.2920    -8.2000     0.7930 H     1 <1>   0.1500 
 44 H       -7.3490    -9.2640     1.5000 H     1 <1>   0.1500 
@<TRIPOS>BOND
  1   1   2  1   
  2   2   3  ar  
  3   2   4  ar  
  4   3   5  ar  
  5   3  25  1   
  6   4   6  ar  
  7   4  26  1   
  8   5   7  ar  
  9   5   8  1   
 10   6   7  ar  
 11   6  27  1   
 12   7   9  1   
 13   8  10  1   
 14   8  28  1   
 15   8  29  1   
 16   9  30  1   
 17   9  31  1   
 18   9  32  1   
 19  10  11  2   
 20  10  12  am  
 21  12  13  1   
 22  12  14  1   
 23  13  15  1   
 24  13  33  1   
 25  13  34  1   
 26  14  16  1   
 27  14  35  1   
 28  14  36  1   
 29  15  16  1   
 30  15  17  1   
 31  15  37  1   
 32  16  18  1   
 33  16  38  1   
 34  17  39  1   
 35  18  19  1   
 36  18  40  1   
 37  18  41  1   
 38  19  20  ar  
 39  19  21  ar  
 40  20  22  ar  
 41  21  23  ar  
 42  21  42  1   
 43  22  24  ar  
 44  22  43  1   
 45  23  24  ar  
 46  24  44  1   
@<TRIPOS>SUBSTRUCTURE
  1 ****  12 GROUP 4 **** **** 0

# MOE 2024.06 (io_trps.svl 2023.06)
