@<TRIPOS>MOLECULE
NONAME
44 46 1 0 0 
SMALL
USER_CHARGES


@<TRIPOS>ATOM
  1 F        1.2750    -0.1450    -1.0820 F     1 <1>  -0.1900 
  2 C        2.1820     0.7010    -0.6710 C.ar  1 <1>   0.1900 
  3 C        3.0680     1.2270    -1.5900 C.ar  1 <1>  -0.1500 
  4 C        2.2200     1.0380     0.6680 C.ar  1 <1>  -0.1500 
  5 C        4.0250     2.1240    -1.1460 C.ar  1 <1>  -0.1500 
  6 C        3.1830     1.9350     1.1000 C.ar  1 <1>  -0.1500 
  7 C        4.0880     2.4800     0.1960 C.ar  1 <1>  -0.1430 
  8 C        5.1510     3.4680     0.6650 C.3   1 <1>   0.3530 
  9 N        4.9600     4.7970     0.0150 N.pl3 1 <1>  -0.8380 
 10 C        6.0520     5.5850    -0.2750 C.ar  1 <1>   0.4100 
 11 C        3.5910     5.3760     0.1040 C.3   1 <1>   0.1290 
 12 N        7.1380     5.4190     0.4740 N.ar  1 <1>  -0.6200 
 13 C        6.0010     6.5100    -1.3180 C.ar  1 <1>  -0.1500 
 14 C        8.1740     6.1860     0.1840 C.ar  1 <1>   0.1600 
 15 C        7.0860     7.3050    -1.5960 C.ar  1 <1>  -0.1500 
 16 C        8.2240     7.1580    -0.8120 C.ar  1 <1>   0.0860 
 17 C        9.4080     7.9580    -1.0230 C.2   1 <1>   0.5440 
 18 O        9.7980     8.1550    -2.1590 O.2   1 <1>  -0.5700 
 19 N       10.1100     8.5180     0.0250 N.am  1 <1>  -0.6600 
 20 C        9.4900     8.9010     1.3310 C.3   1 <1>   0.1400 
 21 C       11.4770     9.0940    -0.1610 C.3   1 <1>   0.1400 
 22 C        9.6190    10.4170     1.5700 C.3   1 <1>   0.1200 
 23 C       11.4780    10.5980     0.1520 C.3   1 <1>   0.1200 
 24 O       10.9470    10.8340     1.4270 O.3   1 <1>  -0.5600 
 25 H        3.0080     0.9430    -2.6250 H     1 <1>   0.1500 
 26 H        1.5120     0.6060     1.3520 H     1 <1>   0.1500 
 27 H        4.7260     2.5540    -1.8430 H     1 <1>   0.1500 
 28 H        3.2240     2.2060     2.1410 H     1 <1>   0.1500 
 29 H        6.1220     3.0760     0.4130 H     1 <1>   0.0800 
 30 H        5.1100     3.5910     1.7330 H     1 <1>   0.0800 
 31 H        3.1620     5.1570     1.0670 H     1 <1>   0.0800 
 32 H        2.9670     4.9490    -0.6620 H     1 <1>   0.0800 
 33 H        3.6210     6.4440    -0.0200 H     1 <1>   0.0800 
 34 H        5.1070     6.5830    -1.9050 H     1 <1>   0.1500 
 35 H        9.0590     6.0410     0.7790 H     1 <1>   0.1500 
 36 H        7.0730     8.0220    -2.3990 H     1 <1>   0.1500 
 37 H        9.9880     8.3760     2.1270 H     1 <1>   0.0800 
 38 H        8.4480     8.6360     1.3530 H     1 <1>   0.0800 
 39 H       11.8250     8.9390    -1.1680 H     1 <1>   0.0800 
 40 H       12.1630     8.5960     0.5010 H     1 <1>   0.0800 
 41 H        9.3040    10.6640     2.5680 H     1 <1>   0.0800 
 42 H        9.0100    10.9630     0.8700 H     1 <1>   0.0800 
 43 H       10.8930    11.1340    -0.5740 H     1 <1>   0.0800 
 44 H       12.4830    10.9800     0.1380 H     1 <1>   0.0800 
@<TRIPOS>BOND
  1   1   2  1   
  2   2   3  ar  
  3   2   4  ar  
  4   3   5  ar  
  5   3  25  1   
  6   4   6  ar  
  7   4  26  1   
  8   5   7  ar  
  9   5  27  1   
 10   6   7  ar  
 11   6  28  1   
 12   7   8  1   
 13   8   9  1   
 14   8  29  1   
 15   8  30  1   
 16   9  10  1   
 17   9  11  1   
 18  10  12  ar  
 19  10  13  ar  
 20  11  31  1   
 21  11  32  1   
 22  11  33  1   
 23  12  14  ar  
 24  13  15  ar  
 25  13  34  1   
 26  14  16  ar  
 27  14  35  1   
 28  15  16  ar  
 29  15  36  1   
 30  16  17  1   
 31  17  18  2   
 32  17  19  am  
 33  19  20  1   
 34  19  21  1   
 35  20  22  1   
 36  20  37  1   
 37  20  38  1   
 38  21  23  1   
 39  21  39  1   
 40  21  40  1   
 41  22  24  1   
 42  22  41  1   
 43  22  42  1   
 44  23  24  1   
 45  23  43  1   
 46  23  44  1   
@<TRIPOS>SUBSTRUCTURE
  1 ****  10 GROUP 4 **** **** 0

# MOE 2024.06 (io_trps.svl 2023.06)
