@<TRIPOS>MOLECULE
NONAME
54 56 1 0 0 
SMALL
USER_CHARGES


@<TRIPOS>ATOM
  1 O        1.4350     0.3060    -0.4790 O.2   1 <1>  -0.5700 
  2 C        2.1480    -0.5060     0.0560 C.2   1 <1>   0.5690 
  3 N        3.2780    -0.1150     0.7240 N.am  1 <1>  -0.6600 
  4 C        1.7770    -1.9730    -0.0620 C.3   1 <1>  -0.0990 
  5 C        4.5520    -0.8910     0.7090 C.3   1 <1>   0.1400 
  6 C        3.3560     1.2510     1.3150 C.3   1 <1>   0.1400 
  7 C        0.2520    -2.1590    -0.1200 C.3   1 <1>   0.0960 
  8 C        5.2970    -0.6960    -0.6300 C.3   1 <1>   0.3430 
  9 C        4.3600     2.1490     0.5830 C.3   1 <1>  -0.1600 
 10 N       -0.0890    -3.5920    -0.1710 N.pl3 1 <1>   0.0480 
 11 N        5.7090     0.7210    -0.9200 N.4   1 <1>  -0.9590 
 12 C        4.6200     1.7450    -0.8680 C.3   1 <1>   0.3430 
 13 C       -0.3160    -4.3600    -1.2380 C.2   1 <1>   0.0360 
 14 C       -0.2260    -4.4530     0.8390 C.2   1 <1>   0.0360 
 15 C        6.4800     0.8340    -2.1960 C.3   1 <1>   0.4860 
 16 N       -0.5610    -5.5800    -0.9080 N.2   1 <1>  -0.3380 
 17 N       -0.5030    -5.6390     0.4240 N.2   1 <1>  -0.3380 
 18 C        7.4000     2.0490    -2.1070 C.ar  1 <1>   0.1670 
 19 N        7.9560     2.2950    -0.9340 N.ar  1 <1>  -0.6200 
 20 C        7.6260     2.8570    -3.1980 C.ar  1 <1>  -0.1500 
 21 C        8.7460     3.3620    -0.8750 C.ar  1 <1>   0.4770 
 22 C        8.4550     3.9370    -3.0230 C.ar  1 <1>   0.1600 
 23 N        9.0150     4.1980    -1.8660 N.ar  1 <1>  -0.6200 
 24 C        9.4020     3.6510     0.4830 C.3   1 <1>   0.0630 
 25 C        8.8730     4.9560     1.1000 C.3   1 <1>  -0.2400 
 26 C       10.9370     3.6960     0.3870 C.3   1 <1>  -0.2400 
 27 H        2.1550    -2.5020     0.7930 H     1 <1>   0.0800 
 28 H        2.2220    -2.3720    -0.9550 H     1 <1>   0.0800 
 29 H        4.3440    -1.9370     0.8440 H     1 <1>   0.0800 
 30 H        5.1810    -0.5830     1.5270 H     1 <1>   0.0800 
 31 H        3.6200     1.1770     2.3570 H     1 <1>   0.0800 
 32 H        2.3820     1.7110     1.2720 H     1 <1>   0.0800 
 33 H       -0.1510    -1.6740    -0.9930 H     1 <1>   0.0800 
 34 H       -0.2080    -1.7230     0.7500 H     1 <1>   0.0800 
 35 H        4.6600    -1.0510    -1.4230 H     1 <1>   0.0800 
 36 H        6.1770    -1.3190    -0.6170 H     1 <1>   0.0800 
 37 H        5.2840     2.2000     1.1310 H     1 <1>   0.0800 
 38 H        3.9520     3.1440     0.5850 H     1 <1>   0.0800 
 39 H        6.4120     1.0290    -0.2250 H     1 <1>   0.4500 
 40 H        4.9340     2.6260    -1.4040 H     1 <1>   0.0800 
 41 H        3.7140     1.3760    -1.3240 H     1 <1>   0.0800 
 42 H       -0.2950    -3.9930    -2.2480 H     1 <1>   0.1500 
 43 H       -0.1140    -4.1770     1.8720 H     1 <1>   0.1500 
 44 H        5.8140     0.9230    -3.0380 H     1 <1>   0.0800 
 45 H        7.0950    -0.0410    -2.3300 H     1 <1>   0.0800 
 46 H        7.1810     2.6690    -4.1580 H     1 <1>   0.1500 
 47 H        8.6650     4.6020    -3.8450 H     1 <1>   0.1500 
 48 H        9.1470     2.8490     1.1530 H     1 <1>   0.0800 
 49 H        9.1280     5.7950     0.4750 H     1 <1>   0.0800 
 50 H        9.2990     5.1110     2.0750 H     1 <1>   0.0800 
 51 H        7.8030     4.9140     1.1940 H     1 <1>   0.0800 
 52 H       11.2510     4.5090    -0.2450 H     1 <1>   0.0800 
 53 H       11.3070     2.7780    -0.0320 H     1 <1>   0.0800 
 54 H       11.3720     3.8290     1.3610 H     1 <1>   0.0800 
@<TRIPOS>BOND
  1   1   2  2   
  2   2   3  am  
  3   2   4  1   
  4   3   5  1   
  5   3   6  1   
  6   4   7  1   
  7   4  27  1   
  8   4  28  1   
  9   5   8  1   
 10   5  29  1   
 11   5  30  1   
 12   6   9  1   
 13   6  31  1   
 14   6  32  1   
 15   7  10  1   
 16   7  33  1   
 17   7  34  1   
 18   8  11  1   
 19   8  35  1   
 20   8  36  1   
 21   9  12  1   
 22   9  37  1   
 23   9  38  1   
 24  10  13  1   
 25  10  14  1   
 26  11  12  1   
 27  11  15  1   
 28  11  39  1   
 29  12  40  1   
 30  12  41  1   
 31  13  16  2   
 32  13  42  1   
 33  14  17  2   
 34  14  43  1   
 35  15  18  1   
 36  15  44  1   
 37  15  45  1   
 38  16  17  1   
 39  18  19  ar  
 40  18  20  ar  
 41  19  21  ar  
 42  20  22  ar  
 43  20  46  1   
 44  21  23  ar  
 45  21  24  1   
 46  22  23  ar  
 47  22  47  1   
 48  24  25  1   
 49  24  26  1   
 50  24  48  1   
 51  25  49  1   
 52  25  50  1   
 53  25  51  1   
 54  26  52  1   
 55  26  53  1   
 56  26  54  1   
@<TRIPOS>SUBSTRUCTURE
  1 ****   8 GROUP 4 **** **** 0

# MOE 2024.06 (io_trps.svl 2023.06)
