@<TRIPOS>MOLECULE
NONAME
45 47 1 0 0 
SMALL
USER_CHARGES


@<TRIPOS>ATOM
  1 O       -2.1910    -0.2200    -2.2650 O.2   1 <1>  -0.5700 
  2 C       -2.2810    -0.9150    -1.2900 C.2   1 <1>   0.5690 
  3 N       -2.2360    -0.3700    -0.0510 N.am  1 <1>  -0.7300 
  4 C       -2.5760    -2.3950    -1.4500 C.3   1 <1>  -0.0190 
  5 C       -2.2800    -1.1800     1.2070 C.3   1 <1>   0.2200 
  6 C       -1.6040    -3.3440    -0.7160 C.3   1 <1>   0.1200 
  7 C       -4.0330    -2.6550    -1.0590 C.3   1 <1>   0.3430 
  8 C       -1.0700    -2.1370     1.2950 C.3   1 <1>   0.1200 
  9 C       -3.6150    -1.9660     1.3470 C.3   1 <1>   0.3430 
 10 O       -0.6750    -2.6510     0.0550 O.3   1 <1>  -0.5600 
 11 N       -4.5110    -1.8720     0.1380 N.4   1 <1>  -0.9590 
 12 C       -5.9300    -2.1910     0.4520 C.3   1 <1>   0.4810 
 13 C       -6.0410    -3.6650     0.7810 C.2   1 <1>  -0.2880 
 14 C       -6.6260    -4.5840    -0.0070 C.2   1 <1>  -0.1780 
 15 C       -6.7530    -6.0050     0.2290 C.ar  1 <1>   0.0280 
 16 C       -6.4750    -6.5900     1.4630 C.ar  1 <1>  -0.1500 
 17 C       -7.1660    -6.8460    -0.8030 C.ar  1 <1>  -0.1500 
 18 C       -6.5900    -7.9550     1.6520 C.ar  1 <1>  -0.1500 
 19 C       -7.2850    -8.2120    -0.6220 C.ar  1 <1>  -0.1500 
 20 C       -6.9930    -8.7780     0.6150 C.ar  1 <1>   0.0830 
 21 O       -7.0790   -10.1030     0.8810 O.3   1 <1>  -0.3630 
 22 C       -7.4990   -11.0270    -0.0980 C.3   1 <1>   0.0400 
 23 H       -1.8410     0.5760     0.0000 H     1 <1>   0.3700 
 24 H       -2.4940    -2.6320    -2.4950 H     1 <1>   0.0800 
 25 H       -2.2170    -0.5110     2.0480 H     1 <1>   0.0800 
 26 H       -1.0340    -3.8940    -1.4470 H     1 <1>   0.0800 
 27 H       -2.1110    -4.0590    -0.0910 H     1 <1>   0.0800 
 28 H       -4.1640    -3.7120    -0.8850 H     1 <1>   0.0800 
 29 H       -4.6510    -2.3920    -1.9030 H     1 <1>   0.0800 
 30 H       -1.2590    -2.9590     1.9630 H     1 <1>   0.0800 
 31 H       -0.2240    -1.5950     1.6800 H     1 <1>   0.0800 
 32 H       -4.1360    -1.5680     2.2020 H     1 <1>   0.0800 
 33 H       -3.4020    -3.0000     1.5620 H     1 <1>   0.0800 
 34 H       -4.4640    -0.8770    -0.1450 H     1 <1>   0.4500 
 35 H       -6.2790    -1.5990     1.2830 H     1 <1>   0.0800 
 36 H       -6.5490    -1.9690    -0.4030 H     1 <1>   0.0800 
 37 H       -5.5960    -3.9160     1.7260 H     1 <1>   0.1500 
 38 H       -7.0670    -4.2780    -0.9420 H     1 <1>   0.1500 
 39 H       -6.1700    -5.9860     2.2950 H     1 <1>   0.1500 
 40 H       -7.3990    -6.4320    -1.7680 H     1 <1>   0.1500 
 41 H       -6.3720    -8.3960     2.6080 H     1 <1>   0.1500 
 42 H       -7.6060    -8.8200    -1.4470 H     1 <1>   0.1500 
 43 H       -7.4950   -12.0070     0.3440 H     1 <1>   0.0800 
 44 H       -6.8120   -10.9960    -0.9250 H     1 <1>   0.0800 
 45 H       -8.4960   -10.7720    -0.4130 H     1 <1>   0.0800 
@<TRIPOS>BOND
  1   1   2  2   
  2   2   3  am  
  3   2   4  1   
  4   3   5  1   
  5   3  23  1   
  6   4   6  1   
  7   4   7  1   
  8   4  24  1   
  9   5   8  1   
 10   5   9  1   
 11   5  25  1   
 12   6  10  1   
 13   6  26  1   
 14   6  27  1   
 15   7  11  1   
 16   7  28  1   
 17   7  29  1   
 18   8  10  1   
 19   8  30  1   
 20   8  31  1   
 21   9  11  1   
 22   9  32  1   
 23   9  33  1   
 24  11  12  1   
 25  11  34  1   
 26  12  13  1   
 27  12  35  1   
 28  12  36  1   
 29  13  14  2   
 30  13  37  1   
 31  14  15  1   
 32  14  38  1   
 33  15  16  ar  
 34  15  17  ar  
 35  16  18  ar  
 36  16  39  1   
 37  17  19  ar  
 38  17  40  1   
 39  18  20  ar  
 40  18  41  1   
 41  19  20  ar  
 42  19  42  1   
 43  20  21  1   
 44  21  22  1   
 45  22  43  1   
 46  22  44  1   
 47  22  45  1   
@<TRIPOS>SUBSTRUCTURE
  1 ****  13 GROUP 4 **** **** 0

# MOE 2024.06 (io_trps.svl 2023.06)
