@<TRIPOS>MOLECULE
NONAME
50 53 1 0 0 
SMALL
USER_CHARGES


@<TRIPOS>ATOM
  1 F        0.1920    -0.6870     0.0980 F     1 <1>  -0.1900 
  2 C       -0.4990    -1.7970     0.0520 C.ar  1 <1>   0.1900 
  3 C       -0.0280    -2.9390    -0.6050 C.ar  1 <1>   0.0820 
  4 C       -1.7230    -1.7860     0.6920 C.ar  1 <1>  -0.1500 
  5 O        1.1570    -3.0740    -1.2690 O.3   1 <1>  -0.3630 
  6 C       -0.8350    -4.0660    -0.5930 C.ar  1 <1>  -0.1500 
  7 C       -2.5010    -2.9280     0.6850 C.ar  1 <1>  -0.1500 
  8 C        2.0710    -2.0130    -1.4330 C.3   1 <1>   0.0400 
  9 C       -2.0800    -4.0940     0.0410 C.ar  1 <1>   0.0530 
 10 C       -2.8870    -5.2930     0.0270 C.2   1 <1>   0.0870 
 11 O       -2.3170    -6.4650    -0.1340 O.3   1 <1>  -0.0190 
 12 C       -4.2190    -5.5230     0.1470 C.2   1 <1>  -0.2330 
 13 N       -3.1730    -7.4530    -0.1250 N.2   1 <1>  -0.4100 
 14 C       -4.3310    -6.9100     0.0400 C.2   1 <1>   0.3720 
 15 C       -5.2940    -4.6070     0.3440 C.2   1 <1>   1.0330 
 16 N       -5.5160    -7.6560     0.1070 N.pl3 1 <1>  -0.8210 
 17 O       -5.5420    -4.1500     1.4730 O.co2 1 <1>  -0.9000 
 18 O       -5.9820    -4.2200    -0.6180 O.co2 1 <1>  -0.9000 
 19 C       -5.4300    -9.1050     0.4080 C.3   1 <1>   0.2090 
 20 C       -6.6920    -7.1590    -0.6660 C.3   1 <1>   0.2090 
 21 C       -6.8040    -9.5630     0.8880 C.3   1 <1>  -0.1600 
 22 C       -7.4930    -8.3180    -1.2570 C.3   1 <1>  -0.1600 
 23 C       -7.8910    -9.3560    -0.1880 C.3   1 <1>   0.3000 
 24 N       -8.2120   -10.6270    -0.8810 N.am  1 <1>  -0.6600 
 25 C       -9.2420    -8.9830     0.4650 C.3   1 <1>  -0.1600 
 26 C       -9.5460   -10.8330    -0.9880 C.2   1 <1>   0.5690 
 27 C       -7.1760   -11.5230    -1.4650 C.3   1 <1>   0.0600 
 28 C      -10.3200    -9.7230    -0.3390 C.3   1 <1>  -0.0990 
 29 O      -10.0790   -11.7710    -1.5290 O.2   1 <1>  -0.5700 
 30 H       -2.0660    -0.8980     1.1900 H     1 <1>   0.1500 
 31 H       -0.4850    -4.9480    -1.0980 H     1 <1>   0.1500 
 32 H       -3.4500    -2.9110     1.1940 H     1 <1>   0.1500 
 33 H        2.8990    -2.3720    -2.0160 H     1 <1>   0.0800 
 34 H        2.4170    -1.6960    -0.4650 H     1 <1>   0.0800 
 35 H        1.5820    -1.2070    -1.9510 H     1 <1>   0.0800 
 36 H       -4.6980    -9.2650     1.1810 H     1 <1>   0.0800 
 37 H       -5.1250    -9.6420    -0.4740 H     1 <1>   0.0800 
 38 H       -6.3570    -6.5200    -1.4660 H     1 <1>   0.0800 
 39 H       -7.3140    -6.5710    -0.0120 H     1 <1>   0.0800 
 40 H       -7.0300    -8.9650     1.7530 H     1 <1>   0.0800 
 41 H       -6.7710   -10.5870     1.2090 H     1 <1>   0.0800 
 42 H       -6.8770    -8.7690    -2.0110 H     1 <1>   0.0800 
 43 H       -8.3640    -7.9270    -1.7480 H     1 <1>   0.0800 
 44 H       -9.4050    -7.9200     0.4910 H     1 <1>   0.0800 
 45 H       -9.2670    -9.3480     1.4770 H     1 <1>   0.0800 
 46 H       -6.5480   -10.9750    -2.1430 H     1 <1>   0.0800 
 47 H       -7.6480   -12.3250    -2.0060 H     1 <1>   0.0800 
 48 H       -6.5720   -11.9470    -0.6830 H     1 <1>   0.0800 
 49 H      -10.7360    -9.0950    -1.1040 H     1 <1>   0.0800 
 50 H      -11.0990   -10.1130     0.2900 H     1 <1>   0.0800 
@<TRIPOS>BOND
  1   1   2  1   
  2   2   3  ar  
  3   2   4  ar  
  4   3   5  1   
  5   3   6  ar  
  6   4   7  ar  
  7   4  30  1   
  8   5   8  1   
  9   6   9  ar  
 10   6  31  1   
 11   7   9  ar  
 12   7  32  1   
 13   8  33  1   
 14   8  34  1   
 15   8  35  1   
 16   9  10  1   
 17  10  11  1   
 18  10  12  2   
 19  11  13  1   
 20  12  14  1   
 21  12  15  1   
 22  13  14  2   
 23  14  16  1   
 24  15  17  ar  
 25  15  18  ar  
 26  16  19  1   
 27  16  20  1   
 28  19  21  1   
 29  19  36  1   
 30  19  37  1   
 31  20  22  1   
 32  20  38  1   
 33  20  39  1   
 34  21  23  1   
 35  21  40  1   
 36  21  41  1   
 37  22  23  1   
 38  22  42  1   
 39  22  43  1   
 40  23  24  1   
 41  23  25  1   
 42  24  26  am  
 43  24  27  1   
 44  25  28  1   
 45  25  44  1   
 46  25  45  1   
 47  26  28  1   
 48  26  29  2   
 49  27  46  1   
 50  27  47  1   
 51  27  48  1   
 52  28  49  1   
 53  28  50  1   
@<TRIPOS>SUBSTRUCTURE
  1 ****  14 GROUP 4 **** **** 0

# MOE 2024.06 (io_trps.svl 2023.06)
