@<TRIPOS>MOLECULE
NONAME
45 47 1 0 0 
SMALL
USER_CHARGES


@<TRIPOS>ATOM
  1 S        0.7400     0.6070    -1.3380 S.o2  1 <1>   1.3330 
  2 O        0.8960    -0.6980    -1.9420 O.2   1 <1>  -0.6500 
  3 O        0.0150     1.6380    -2.0450 O.2   1 <1>  -0.6500 
  4 N       -0.0310     0.3940     0.1610 N.am  1 <1>  -0.8490 
  5 C        2.3700     1.2160    -0.9040 C.3   1 <1>  -0.0550 
  6 C       -0.5340     1.6470     0.7380 C.3   1 <1>   0.1160 
  7 C       -1.1170    -0.5870     0.0860 C.3   1 <1>   0.1160 
  8 C        3.2750     0.1750    -0.2090 C.3   1 <1>  -0.0800 
  9 C        4.7040     0.6330     0.0370 C.3   1 <1>   0.2200 
 10 C        2.8180    -0.2570     1.1880 C.3   1 <1>   0.1200 
 11 N        4.7300     2.0260     0.5350 N.am  1 <1>  -0.7300 
 12 C        5.1150    -0.3090     1.1610 C.3   1 <1>   0.1200 
 13 O        3.9730    -0.4760     1.9450 O.3   1 <1>  -0.5600 
 14 C        5.0020     3.1500    -0.1890 C.2   1 <1>   0.7160 
 15 O        5.2740     3.0190    -1.3710 O.2   1 <1>  -0.5700 
 16 C        4.9240     4.4480     0.4620 C.2   1 <1>   0.2030 
 17 N        4.5610     4.6620     1.7220 N.2   1 <1>  -0.7070 
 18 C        5.2130     5.6740    -0.1490 C.2   1 <1>  -0.1810 
 19 N        4.6280     5.9970     1.8980 N.pl3 1 <1>   0.3000 
 20 C        5.0200     6.6100     0.7690 C.2   1 <1>  -0.3320 
 21 C        5.6520     6.2430    -1.4680 C.3   1 <1>   0.0210 
 22 C        5.2850     8.0080     0.2890 C.3   1 <1>   0.0200 
 23 C        5.7540     7.7610    -1.1670 C.3   1 <1>  -0.1600 
 24 H        2.8610     1.5310    -1.8050 H     1 <1>   0.0800 
 25 H        2.2670     2.0830    -0.2820 H     1 <1>   0.0800 
 26 H       -0.9370     1.4650     1.7200 H     1 <1>   0.0800 
 27 H       -1.3060     2.0660     0.1140 H     1 <1>   0.0800 
 28 H        0.2640     2.3640     0.8280 H     1 <1>   0.0800 
 29 H       -1.5750    -0.7110     1.0520 H     1 <1>   0.0800 
 30 H       -0.7300    -1.5420    -0.2270 H     1 <1>   0.0800 
 31 H       -1.8620    -0.2660    -0.6230 H     1 <1>   0.0800 
 32 H        3.3140    -0.7080    -0.8250 H     1 <1>   0.0800 
 33 H        5.3320     0.5300    -0.8320 H     1 <1>   0.0800 
 34 H        2.2370    -1.1640     1.1590 H     1 <1>   0.0800 
 35 H        2.2550     0.5180     1.6790 H     1 <1>   0.0800 
 36 H        4.4870     2.1650     1.5220 H     1 <1>   0.3700 
 37 H        5.9160     0.0830     1.7630 H     1 <1>   0.0800 
 38 H        5.3870    -1.2730     0.7680 H     1 <1>   0.0800 
 39 H        4.4040     6.4560     2.7900 H     1 <1>   0.2700 
 40 H        6.6020     5.8310    -1.7610 H     1 <1>   0.0800 
 41 H        4.9150     6.0380    -2.2250 H     1 <1>   0.0800 
 42 H        4.3840     8.5960     0.3140 H     1 <1>   0.0800 
 43 H        6.0560     8.4800     0.8740 H     1 <1>   0.0800 
 44 H        5.1440     8.3180    -1.8560 H     1 <1>   0.0800 
 45 H        6.7750     8.0810    -1.2760 H     1 <1>   0.0800 
@<TRIPOS>BOND
  1   1   2  2   
  2   1   3  2   
  3   1   4  am  
  4   1   5  1   
  5   4   6  1   
  6   4   7  1   
  7   5   8  1   
  8   5  24  1   
  9   5  25  1   
 10   6  26  1   
 11   6  27  1   
 12   6  28  1   
 13   7  29  1   
 14   7  30  1   
 15   7  31  1   
 16   8   9  1   
 17   8  10  1   
 18   8  32  1   
 19   9  11  1   
 20   9  12  1   
 21   9  33  1   
 22  10  13  1   
 23  10  34  1   
 24  10  35  1   
 25  11  14  am  
 26  11  36  1   
 27  12  13  1   
 28  12  37  1   
 29  12  38  1   
 30  14  15  2   
 31  14  16  1   
 32  16  17  2   
 33  16  18  1   
 34  17  19  1   
 35  18  20  2   
 36  18  21  1   
 37  19  20  1   
 38  19  39  1   
 39  20  22  1   
 40  21  23  1   
 41  21  40  1   
 42  21  41  1   
 43  22  23  1   
 44  22  42  1   
 45  22  43  1   
 46  23  44  1   
 47  23  45  1   
@<TRIPOS>SUBSTRUCTURE
  1 ****  11 GROUP 4 **** **** 0

# MOE 2024.06 (io_trps.svl 2023.06)
