@<TRIPOS>MOLECULE
NONAME
58 61 1 0 0 
SMALL
USER_CHARGES


@<TRIPOS>ATOM
  1 O       -0.1940    -0.8240    -0.6150 O.3   1 <1>  -0.6800 
  2 C        0.8880    -0.2500     0.0360 C.3   1 <1>   0.2800 
  3 C        1.2700    -1.1110     1.2760 C.3   1 <1>  -0.0800 
  4 C        2.0530    -0.1940    -0.9800 C.3   1 <1>  -0.1600 
  5 C        0.4580     1.1750     0.4600 C.3   1 <1>   0.1200 
  6 C        2.7680    -0.8800     1.5660 C.3   1 <1>  -0.1600 
  7 C        1.1870    -2.6540     1.0630 C.3   1 <1>  -0.1600 
  8 C        2.9960    -1.4150    -0.9040 C.3   1 <1>  -0.1600 
  9 O       -0.0360     1.8810    -0.6300 O.3   1 <1>  -0.6800 
 10 C        3.4220    -1.8510     0.5620 C.3   1 <1>   0.0000 
 11 C        2.6430    -3.1170     0.9670 C.3   1 <1>  -0.0800 
 12 C        4.9750    -2.1060     0.6970 C.3   1 <1>   0.0000 
 13 C        2.9680    -4.3580     0.1240 C.3   1 <1>  -0.1600 
 14 C        5.3290    -3.3400    -0.2210 C.3   1 <1>  -0.0800 
 15 C        5.7660    -0.8220     0.2810 C.3   1 <1>  -0.1600 
 16 C        5.3900    -2.3940     2.1700 C.3   1 <1>  -0.2400 
 17 C        4.4870    -4.6060     0.1240 C.3   1 <1>  -0.1600 
 18 C        6.8600    -3.6420    -0.4490 C.3   1 <1>   0.0000 
 19 C        6.9240    -1.0740    -0.6950 C.3   1 <1>  -0.1600 
 20 C        7.6920    -2.3270    -0.2810 C.3   1 <1>   0.2000 
 21 C        6.9840    -4.2210    -1.8930 C.3   1 <1>   0.1200 
 22 C        7.4090    -4.6960     0.5490 C.3   1 <1>  -0.2400 
 23 O        8.8810    -2.3430    -0.9950 O.3   1 <1>  -0.6800 
 24 O        8.2540    -4.7140    -2.1500 O.3   1 <1>  -0.6800 
 25 H        0.0670    -1.7130    -0.9170 H     1 <1>   0.4000 
 26 H        0.6730    -0.8190     2.1230 H     1 <1>   0.0800 
 27 H        2.6470     0.6780    -0.7710 H     1 <1>   0.0800 
 28 H        1.6770    -0.0640    -1.9800 H     1 <1>   0.0800 
 29 H        1.2850     1.7270     0.8710 H     1 <1>   0.0800 
 30 H       -0.3230     1.1200     1.1980 H     1 <1>   0.0800 
 31 H        2.9660    -1.1600     2.5850 H     1 <1>   0.0800 
 32 H        3.0870     0.1400     1.4390 H     1 <1>   0.0800 
 33 H        0.6480    -2.9490     0.1830 H     1 <1>   0.0800 
 34 H        0.7150    -3.1220     1.9090 H     1 <1>   0.0800 
 35 H        3.8490    -1.1870    -1.5130 H     1 <1>   0.0800 
 36 H        2.4980    -2.2150    -1.4130 H     1 <1>   0.0800 
 37 H       -0.6080     1.2610    -1.1340 H     1 <1>   0.4000 
 38 H        2.9120    -3.3790     1.9750 H     1 <1>   0.0800 
 39 H        2.6190    -4.2560    -0.8860 H     1 <1>   0.0800 
 40 H        2.4690    -5.2140     0.5450 H     1 <1>   0.0800 
 41 H        4.9760    -3.0590    -1.1950 H     1 <1>   0.0800 
 42 H        6.1800    -0.3510     1.1570 H     1 <1>   0.0800 
 43 H        5.1250    -0.0740    -0.1460 H     1 <1>   0.0800 
 44 H        4.9730    -3.3030     2.5540 H     1 <1>   0.0800 
 45 H        5.0930    -1.5930     2.8200 H     1 <1>   0.0800 
 46 H        6.4540    -2.4720     2.2640 H     1 <1>   0.0800 
 47 H        4.6930    -5.3920    -0.5800 H     1 <1>   0.0800 
 48 H        4.7660    -4.9790     1.0930 H     1 <1>   0.0800 
 49 H        7.5790    -0.2200    -0.6800 H     1 <1>   0.0800 
 50 H        6.5370    -1.1910    -1.6920 H     1 <1>   0.0800 
 51 H        7.9770    -2.2190     0.7510 H     1 <1>   0.0800 
 52 H        6.7740    -3.4610    -2.6250 H     1 <1>   0.0800 
 53 H        6.3000    -5.0360    -2.0470 H     1 <1>   0.0800 
 54 H        7.1770    -4.4440     1.5650 H     1 <1>   0.0800 
 55 H        8.4790    -4.7700     0.4690 H     1 <1>   0.0800 
 56 H        7.0030    -5.6700     0.3420 H     1 <1>   0.0800 
 57 H        8.6990    -2.1880    -1.9430 H     1 <1>   0.4000 
 58 H        8.9020    -4.1640    -1.6500 H     1 <1>   0.4000 
@<TRIPOS>BOND
  1   1   2  1   
  2   1  25  1   
  3   2   3  1   
  4   2   4  1   
  5   2   5  1   
  6   3   6  1   
  7   3   7  1   
  8   3  26  1   
  9   4   8  1   
 10   4  27  1   
 11   4  28  1   
 12   5   9  1   
 13   5  29  1   
 14   5  30  1   
 15   6  10  1   
 16   6  31  1   
 17   6  32  1   
 18   7  11  1   
 19   7  33  1   
 20   7  34  1   
 21   8  10  1   
 22   8  35  1   
 23   8  36  1   
 24   9  37  1   
 25  10  11  1   
 26  10  12  1   
 27  11  13  1   
 28  11  38  1   
 29  12  14  1   
 30  12  15  1   
 31  12  16  1   
 32  13  17  1   
 33  13  39  1   
 34  13  40  1   
 35  14  17  1   
 36  14  18  1   
 37  14  41  1   
 38  15  19  1   
 39  15  42  1   
 40  15  43  1   
 41  16  44  1   
 42  16  45  1   
 43  16  46  1   
 44  17  47  1   
 45  17  48  1   
 46  18  20  1   
 47  18  21  1   
 48  18  22  1   
 49  19  20  1   
 50  19  49  1   
 51  19  50  1   
 52  20  23  1   
 53  20  51  1   
 54  21  24  1   
 55  21  52  1   
 56  21  53  1   
 57  22  54  1   
 58  22  55  1   
 59  22  56  1   
 60  23  57  1   
 61  24  58  1   
@<TRIPOS>SUBSTRUCTURE
  1 ****  10 GROUP 4 **** **** 0

# MOE 2024.06 (io_trps.svl 2023.06)
