@<TRIPOS>MOLECULE
NONAME
47 49 1 0 0 
SMALL
USER_CHARGES


@<TRIPOS>ATOM
  1 O        2.7390    -0.3150    -1.4390 O.2   1 <1>  -0.5700 
  2 C        1.9820    -0.7830    -0.6190 C.2   1 <1>   0.5690 
  3 N        1.4540    -0.0300     0.3800 N.am  1 <1>  -0.7300 
  4 C        1.6090    -2.2690    -0.6840 C.3   1 <1>   0.1710 
  5 C        1.6510     1.4270     0.5500 C.3   1 <1>   0.1400 
  6 N        0.3350    -2.6160     0.0150 N.3   1 <1>  -0.8100 
  7 C        2.9700     1.7040     1.2700 C.3   1 <1>   0.0200 
  8 C       -0.8400    -2.1320    -0.7520 C.3   1 <1>   0.1100 
  9 C        0.2180    -4.0810     0.1980 C.3   1 <1>   0.1100 
 10 C        3.3910     3.1400     1.0280 C.2   1 <1>   0.0060 
 11 C       -2.1730    -2.4610    -0.0550 C.3   1 <1>   0.2090 
 12 C       -1.0770    -4.4790     0.9300 C.3   1 <1>   0.2090 
 13 N        3.1400     4.0990     1.8580 N.2   1 <1>  -0.5650 
 14 N        4.0560     3.5380    -0.0860 N.pl3 1 <1>   0.0480 
 15 N       -2.2850    -3.9240     0.2410 N.pl3 1 <1>  -0.8380 
 16 C        3.6700     5.1830     1.2630 C.2   1 <1>   0.0770 
 17 C        4.2310     4.8610     0.0780 C.2   1 <1>  -0.3020 
 18 C        4.4940     2.7250    -1.2370 C.3   1 <1>   0.0160 
 19 C       -3.4640    -4.6300     0.1060 C.ar  1 <1>   0.7200 
 20 N       -3.4480    -5.9180     0.4510 N.ar  1 <1>  -0.6200 
 21 N       -4.5230    -3.9650    -0.3580 N.ar  1 <1>  -0.6200 
 22 C       -4.5740    -6.5740     0.3190 C.ar  1 <1>   0.1600 
 23 C       -5.6350    -4.6460    -0.4800 C.ar  1 <1>   0.1600 
 24 C       -5.7160    -5.9760    -0.1500 C.ar  1 <1>  -0.1500 
 25 H        0.8100    -0.5120     1.0190 H     1 <1>   0.3700 
 26 H        2.4180    -2.8110    -0.2300 H     1 <1>   0.0800 
 27 H        1.5530    -2.5660    -1.7160 H     1 <1>   0.0800 
 28 H        0.8320     1.8520     1.1050 H     1 <1>   0.0800 
 29 H        1.6680     1.8860    -0.4230 H     1 <1>   0.0800 
 30 H        3.7400     1.0450     0.9120 H     1 <1>   0.0800 
 31 H        2.8450     1.5410     2.3260 H     1 <1>   0.0800 
 32 H       -0.8490    -2.5810    -1.7310 H     1 <1>   0.0800 
 33 H       -0.7770    -1.0650    -0.8800 H     1 <1>   0.0800 
 34 H        1.0560    -4.4360     0.7710 H     1 <1>   0.0800 
 35 H        0.2350    -4.5730    -0.7600 H     1 <1>   0.0800 
 36 H       -2.9750    -2.1330    -0.6920 H     1 <1>   0.0800 
 37 H       -2.2380    -1.9110     0.8670 H     1 <1>   0.0800 
 38 H       -1.0440    -4.1020     1.9360 H     1 <1>   0.0800 
 39 H       -1.1180    -5.5520     0.9830 H     1 <1>   0.0800 
 40 H        3.6190     6.1540     1.7270 H     1 <1>   0.1500 
 41 H        4.7320     5.4870    -0.6360 H     1 <1>   0.1500 
 42 H        3.6470     2.2240    -1.6690 H     1 <1>   0.0800 
 43 H        5.2090     1.9940    -0.9070 H     1 <1>   0.0800 
 44 H        4.9470     3.3600    -1.9760 H     1 <1>   0.0800 
 45 H       -4.5850    -7.6160     0.5910 H     1 <1>   0.1500 
 46 H       -6.5040    -4.1310    -0.8520 H     1 <1>   0.1500 
 47 H       -6.6330    -6.5240    -0.2540 H     1 <1>   0.1500 
@<TRIPOS>BOND
  1   1   2  2   
  2   2   3  am  
  3   2   4  1   
  4   3   5  1   
  5   3  25  1   
  6   4   6  1   
  7   4  26  1   
  8   4  27  1   
  9   5   7  1   
 10   5  28  1   
 11   5  29  1   
 12   6   8  1   
 13   6   9  1   
 14   7  10  1   
 15   7  30  1   
 16   7  31  1   
 17   8  11  1   
 18   8  32  1   
 19   8  33  1   
 20   9  12  1   
 21   9  34  1   
 22   9  35  1   
 23  10  13  2   
 24  10  14  1   
 25  11  15  1   
 26  11  36  1   
 27  11  37  1   
 28  12  15  1   
 29  12  38  1   
 30  12  39  1   
 31  13  16  1   
 32  14  17  1   
 33  14  18  1   
 34  15  19  1   
 35  16  17  2   
 36  16  40  1   
 37  17  41  1   
 38  18  42  1   
 39  18  43  1   
 40  18  44  1   
 41  19  20  ar  
 42  19  21  ar  
 43  20  22  ar  
 44  21  23  ar  
 45  22  24  ar  
 46  22  45  1   
 47  23  24  ar  
 48  23  46  1   
 49  24  47  1   
@<TRIPOS>SUBSTRUCTURE
  1 ****   6 GROUP 4 **** **** 0

# MOE 2024.06 (io_trps.svl 2023.06)
