@<TRIPOS>MOLECULE
NONAME
45 47 1 0 0 
SMALL
USER_CHARGES


@<TRIPOS>ATOM
  1 F        2.0900     2.6230    -1.7650 F     1 <1>  -0.3400 
  2 C        1.1210     3.5160    -1.9250 C.3   1 <1>   1.1640 
  3 F        0.0380     2.8320    -2.2720 F     1 <1>  -0.3400 
  4 F        1.4570     4.2450    -2.9810 F     1 <1>  -0.3400 
  5 C        0.9130     4.3900    -0.6770 C.ar  1 <1>  -0.1440 
  6 C        2.0070     4.8200     0.0690 C.ar  1 <1>  -0.1500 
  7 C       -0.3600     4.7760    -0.2710 C.ar  1 <1>  -0.1500 
  8 C        1.8390     5.6130     1.1940 C.ar  1 <1>  -0.1440 
  9 C       -0.5340     5.5640     0.8520 C.ar  1 <1>  -0.1500 
 10 C        0.5620     5.9810     1.5830 C.ar  1 <1>  -0.1500 
 11 C        3.0490     6.1030     1.9860 C.3   1 <1>   0.0450 
 12 C        3.5070     7.4880     1.5560 C.2   1 <1>   0.5690 
 13 O        4.3110     8.0610     2.2480 O.2   1 <1>  -0.5700 
 14 N        2.9810     8.0150     0.4090 N.am  1 <1>  -0.4940 
 15 C        3.1110     9.2890    -0.1930 C.2   1 <1>  -0.0880 
 16 N        4.2410    10.0450    -0.3560 N.pl3 1 <1>   0.3140 
 17 C        2.0940     9.9850    -0.7540 C.2   1 <1>  -0.1810 
 18 N        3.9450    11.2070    -1.0000 N.2   1 <1>  -0.7070 
 19 C        5.6490     9.6890     0.0220 C.3   1 <1>   0.1760 
 20 C        2.6720    11.1550    -1.2270 C.2   1 <1>   0.1390 
 21 C        0.6240     9.6240    -0.8660 C.3   1 <1>  -0.0590 
 22 C        6.7060    10.7160    -0.4060 C.3   1 <1>  -0.1600 
 23 C        6.1280     8.3710    -0.6100 C.3   1 <1>  -0.1600 
 24 C        8.0100     9.9270    -0.4130 C.3   1 <1>  -0.1600 
 25 C        7.6180     8.5460    -0.9380 C.3   1 <1>  -0.1600 
 26 H        3.0020     4.5340    -0.2330 H     1 <1>   0.1500 
 27 H       -1.2310     4.4640    -0.8250 H     1 <1>   0.1500 
 28 H       -1.5260     5.8520     1.1590 H     1 <1>   0.1500 
 29 H        0.4130     6.5960     2.4560 H     1 <1>   0.1500 
 30 H        3.8720     5.4230     1.8650 H     1 <1>   0.0800 
 31 H        2.8080     6.1360     3.0320 H     1 <1>   0.0800 
 32 H        2.2350     7.4410     0.0080 H     1 <1>   0.3700 
 33 H        5.6990     9.6090     1.0900 H     1 <1>   0.0800 
 34 H        2.1340    11.9420    -1.7280 H     1 <1>   0.1500 
 35 H        0.4110     8.7160    -0.3330 H     1 <1>   0.0800 
 36 H        0.3590     9.4910    -1.8990 H     1 <1>   0.0800 
 37 H        0.0240    10.4130    -0.4510 H     1 <1>   0.0800 
 38 H        6.7420    11.5540     0.2670 H     1 <1>   0.0800 
 39 H        6.5070    11.0620    -1.4060 H     1 <1>   0.0800 
 40 H        5.5820     8.1690    -1.5170 H     1 <1>   0.0800 
 41 H        5.9890     7.5580     0.0790 H     1 <1>   0.0800 
 42 H        8.3800     9.8370     0.5950 H     1 <1>   0.0800 
 43 H        8.7620    10.3950    -1.0250 H     1 <1>   0.0800 
 44 H        7.7540     8.5170    -2.0060 H     1 <1>   0.0800 
 45 H        8.2190     7.7750    -0.4890 H     1 <1>   0.0800 
@<TRIPOS>BOND
  1   1   2  1   
  2   2   3  1   
  3   2   4  1   
  4   2   5  1   
  5   5   6  ar  
  6   5   7  ar  
  7   6   8  ar  
  8   6  26  1   
  9   7   9  ar  
 10   7  27  1   
 11   8  10  ar  
 12   8  11  1   
 13   9  10  ar  
 14   9  28  1   
 15  10  29  1   
 16  11  12  1   
 17  11  30  1   
 18  11  31  1   
 19  12  13  2   
 20  12  14  am  
 21  14  15  1   
 22  14  32  1   
 23  15  16  1   
 24  15  17  2   
 25  16  18  1   
 26  16  19  1   
 27  17  20  1   
 28  17  21  1   
 29  18  20  2   
 30  19  22  1   
 31  19  23  1   
 32  19  33  1   
 33  20  34  1   
 34  21  35  1   
 35  21  36  1   
 36  21  37  1   
 37  22  24  1   
 38  22  38  1   
 39  22  39  1   
 40  23  25  1   
 41  23  40  1   
 42  23  41  1   
 43  24  25  1   
 44  24  42  1   
 45  24  43  1   
 46  25  44  1   
 47  25  45  1   
@<TRIPOS>SUBSTRUCTURE
  1 ****  14 GROUP 4 **** **** 0

# MOE 2024.06 (io_trps.svl 2023.06)
