@<TRIPOS>MOLECULE
NONAME
56 59 1 0 0 
SMALL
USER_CHARGES


@<TRIPOS>ATOM
  1 O       -0.6120     0.0850    -0.4240 O.2   1 <1>  -0.5700 
  2 C       -1.7740     0.3200    -0.6540 C.2   1 <1>   0.5690 
  3 N       -2.6760    -0.6750    -0.9500 N.am  1 <1>  -0.6600 
  4 C       -2.2100     1.7720    -0.5890 C.3   1 <1>  -0.0990 
  5 C       -2.2520    -2.1010    -1.0520 C.3   1 <1>   0.1400 
  6 C       -4.1290    -0.4710    -1.2020 C.3   1 <1>   0.1400 
  7 C       -2.9400     2.0780     0.7280 C.3   1 <1>   0.0210 
  8 C       -3.0660    -2.9640    -0.0800 C.3   1 <1>  -0.1600 
  9 C       -4.9320    -1.2830    -0.1860 C.3   1 <1>  -0.1600 
 10 C       -4.0980     3.0320     0.5060 C.2   1 <1>   0.0460 
 11 C       -4.5840    -2.7840    -0.2690 C.3   1 <1>  -0.0800 
 12 N       -3.9230     4.3090     0.1600 N.2   1 <1>  -0.2270 
 13 C       -5.4080     2.7700     0.6050 C.2   1 <1>  -0.3020 
 14 C       -5.3610    -3.6420     0.7470 C.3   1 <1>   0.1400 
 15 N       -5.0870     4.8480     0.0440 N.2   1 <1>  -0.4180 
 16 N       -6.0170     3.9230     0.3080 N.pl3 1 <1>   0.3140 
 17 N       -6.8060    -3.3440     0.6640 N.am  1 <1>  -0.7300 
 18 C       -7.4570     4.2690     0.3130 C.3   1 <1>   0.0960 
 19 C       -7.7430    -4.0610    -0.0100 C.2   1 <1>   0.5690 
 20 C       -8.3670     3.0640     0.5710 C.3   1 <1>   0.1200 
 21 O       -7.5210    -5.1620    -0.4490 O.2   1 <1>  -0.5700 
 22 C       -9.1050    -3.4210    -0.2400 C.3   1 <1>   0.0440 
 23 O       -8.2600     2.1670    -0.5150 O.3   1 <1>  -0.3630 
 24 C       -8.9870    -1.8990    -0.3130 C.ar  1 <1>  -0.1440 
 25 C       -8.5660     0.8510    -0.4060 C.ar  1 <1>   0.0820 
 26 C       -9.3090    -1.1050     0.7780 C.ar  1 <1>  -0.1500 
 27 C       -8.4980    -1.3040    -1.4660 C.ar  1 <1>  -0.1500 
 28 C       -9.1060     0.2640     0.7340 C.ar  1 <1>  -0.1500 
 29 C       -8.2890     0.0620    -1.5100 C.ar  1 <1>  -0.1500 
 30 H       -2.8320     1.9930    -1.4370 H     1 <1>   0.0800 
 31 H       -1.3460     2.4060    -0.6670 H     1 <1>   0.0800 
 32 H       -1.2030    -2.2030    -0.8310 H     1 <1>   0.0800 
 33 H       -2.4100    -2.4390    -2.0620 H     1 <1>   0.0800 
 34 H       -4.3620    -0.8030    -2.1990 H     1 <1>   0.0800 
 35 H       -4.4100     0.5620    -1.1260 H     1 <1>   0.0800 
 36 H       -2.2500     2.5040     1.4360 H     1 <1>   0.0800 
 37 H       -3.3260     1.1720     1.1580 H     1 <1>   0.0800 
 38 H       -2.7860    -2.6970     0.9250 H     1 <1>   0.0800 
 39 H       -2.8020    -3.9970    -0.2280 H     1 <1>   0.0800 
 40 H       -5.9720    -1.1270    -0.3940 H     1 <1>   0.0800 
 41 H       -4.7340    -0.9100     0.8040 H     1 <1>   0.0800 
 42 H       -4.8420    -3.1390    -1.2530 H     1 <1>   0.0800 
 43 H       -5.9180     1.8600     0.8560 H     1 <1>   0.1500 
 44 H       -5.0200    -3.4340     1.7470 H     1 <1>   0.0800 
 45 H       -5.1950    -4.6880     0.5450 H     1 <1>   0.0800 
 46 H       -7.0600    -2.3870     0.9230 H     1 <1>   0.3700 
 47 H       -7.7040     4.7170    -0.6310 H     1 <1>   0.0800 
 48 H       -7.6100     5.0020     1.0820 H     1 <1>   0.0800 
 49 H       -9.3950     3.3710     0.6440 H     1 <1>   0.0800 
 50 H       -8.0680     2.5750     1.4810 H     1 <1>   0.0800 
 51 H       -9.7610    -3.7130     0.5590 H     1 <1>   0.0800 
 52 H       -9.5160    -3.7990    -1.1580 H     1 <1>   0.0800 
 53 H       -9.7120    -1.5510     1.6720 H     1 <1>   0.1500 
 54 H       -8.2610    -1.9050    -2.3280 H     1 <1>   0.1500 
 55 H       -9.3710     0.8480     1.5940 H     1 <1>   0.1500 
 56 H       -7.8980     0.5230    -2.4000 H     1 <1>   0.1500 
@<TRIPOS>BOND
  1   1   2  2   
  2   2   3  am  
  3   2   4  1   
  4   3   5  1   
  5   3   6  1   
  6   4   7  1   
  7   4  30  1   
  8   4  31  1   
  9   5   8  1   
 10   5  32  1   
 11   5  33  1   
 12   6   9  1   
 13   6  34  1   
 14   6  35  1   
 15   7  10  1   
 16   7  36  1   
 17   7  37  1   
 18   8  11  1   
 19   8  38  1   
 20   8  39  1   
 21   9  11  1   
 22   9  40  1   
 23   9  41  1   
 24  10  12  1   
 25  10  13  2   
 26  11  14  1   
 27  11  42  1   
 28  12  15  2   
 29  13  16  1   
 30  13  43  1   
 31  14  17  1   
 32  14  44  1   
 33  14  45  1   
 34  15  16  1   
 35  16  18  1   
 36  17  19  am  
 37  17  46  1   
 38  18  20  1   
 39  18  47  1   
 40  18  48  1   
 41  19  21  2   
 42  19  22  1   
 43  20  23  1   
 44  20  49  1   
 45  20  50  1   
 46  22  24  1   
 47  22  51  1   
 48  22  52  1   
 49  23  25  1   
 50  24  26  ar  
 51  24  27  ar  
 52  25  28  ar  
 53  25  29  ar  
 54  26  28  ar  
 55  26  53  1   
 56  27  29  ar  
 57  27  54  1   
 58  28  55  1   
 59  29  56  1   
@<TRIPOS>SUBSTRUCTURE
  1 ****   9 GROUP 4 **** **** 0

# MOE 2024.06 (io_trps.svl 2023.06)
