@<TRIPOS>MOLECULE
NONAME
60 63 1 0 0 
SMALL
USER_CHARGES


@<TRIPOS>ATOM
  1 S        0.1090    -0.2910    -0.8730 S.o2  1 <1>   1.0890 
  2 O       -1.0880     0.5130    -0.8330 O.2   1 <1>  -0.6530 
  3 O        1.2540     0.0290    -1.6890 O.2   1 <1>  -0.6530 
  4 C       -0.4210    -1.9450    -1.2300 C.3   1 <1>  -0.0610 
  5 C        0.5940    -0.6680     0.8080 C.3   1 <1>  -0.0610 
  6 C       -0.9770    -2.4400     0.0960 C.3   1 <1>   0.2420 
  7 C        0.0560    -2.0670     1.1670 C.3   1 <1>  -0.1660 
  8 N       -1.2070    -3.8990     0.0770 N.pl3 1 <1>  -0.7170 
  9 C       -2.3630    -4.5520     0.0330 C.cat 1 <1>   1.0690 
 10 N       -3.5500    -3.9690    -0.0530 N.pl3 1 <1>  -0.7030 
 11 N       -2.4980    -5.8820     0.0630 N.pl3 1 <1>  -0.7670 
 12 C       -4.5210    -4.9470    -0.0830 C.ar  1 <1>   0.3040 
 13 C       -3.8610    -6.1590    -0.0110 C.ar  1 <1>   0.3040 
 14 C       -1.4620    -6.9390     0.1590 C.3   1 <1>   0.4300 
 15 C       -5.9010    -4.8730    -0.1680 C.ar  1 <1>  -0.1150 
 16 C       -4.5990    -7.3400    -0.0260 C.ar  1 <1>  -0.1150 
 17 C       -0.6860    -6.8230     1.4800 C.3   1 <1>  -0.1660 
 18 C       -0.5370    -6.9080    -1.0670 C.3   1 <1>  -0.1660 
 19 C       -6.6620    -6.0390    -0.1820 C.ar  1 <1>   0.0800 
 20 C       -5.9760    -7.2680    -0.1130 C.ar  1 <1>  -0.1560 
 21 C        0.4050    -7.8980     1.5730 C.3   1 <1>  -0.1660 
 22 C        0.5550    -7.9820    -0.9590 C.3   1 <1>  -0.1660 
 23 C       -8.1090    -5.9620    -0.2780 C.2   1 <1>   0.5400 
 24 C        1.3370    -7.8520     0.3550 C.3   1 <1>  -0.1660 
 25 O       -8.6270    -4.9540    -0.7150 O.2   1 <1>  -0.5740 
 26 N       -8.9080    -6.9930     0.1310 N.am  1 <1>  -0.7330 
 27 C      -10.3820    -7.0230     0.0210 C.3   1 <1>   0.1340 
 28 C      -10.8200    -8.4290    -0.3860 C.3   1 <1>  -0.1660 
 29 C      -12.3440    -8.5220    -0.5070 C.3   1 <1>  -0.2460 
 30 H        0.4230    -2.5390    -1.5260 H     1 <1>   0.0740 
 31 H       -1.1640    -1.9510    -2.0050 H     1 <1>   0.0740 
 32 H        0.1870     0.0700     1.4740 H     1 <1>   0.0740 
 33 H        1.6650    -0.6520     0.9040 H     1 <1>   0.0740 
 34 H       -1.8960    -1.9150     0.3050 H     1 <1>   0.0740 
 35 H       -0.3830    -2.0620     2.1510 H     1 <1>   0.0740 
 36 H        0.8790    -2.7620     1.1500 H     1 <1>   0.0740 
 37 H       -0.3660    -4.4720     0.1300 H     1 <1>   0.4460 
 38 H       -3.7270    -2.9680    -0.1050 H     1 <1>   0.4460 
 39 H       -1.9450    -7.9010     0.1630 H     1 <1>   0.0740 
 40 H       -6.3870    -3.9140    -0.2250 H     1 <1>   0.1440 
 41 H       -4.1080    -8.2960     0.0250 H     1 <1>   0.1440 
 42 H       -1.3660    -6.9470     2.3060 H     1 <1>   0.0740 
 43 H       -0.2140    -5.8640     1.5710 H     1 <1>   0.0740 
 44 H       -0.0540    -5.9550    -1.1660 H     1 <1>   0.0740 
 45 H       -1.1150    -7.0910    -1.9560 H     1 <1>   0.0740 
 46 H       -6.5450    -8.1830    -0.1390 H     1 <1>   0.1440 
 47 H       -0.0490    -8.8730     1.6330 H     1 <1>   0.0740 
 48 H        0.9820    -7.7550     2.4720 H     1 <1>   0.0740 
 49 H        1.2340    -7.8960    -1.7900 H     1 <1>   0.0740 
 50 H        0.1080    -8.9610    -1.0070 H     1 <1>   0.0740 
 51 H        2.0520    -8.6550     0.4240 H     1 <1>   0.0740 
 52 H        1.8900    -6.9280     0.3570 H     1 <1>   0.0740 
 53 H       -8.5060    -7.7930     0.6180 H     1 <1>   0.3650 
 54 H      -10.7120    -6.3080    -0.7150 H     1 <1>   0.0740 
 55 H      -10.8140    -6.7580     0.9710 H     1 <1>   0.0740 
 56 H      -10.4840    -9.1390     0.3500 H     1 <1>   0.0740 
 57 H      -10.3780    -8.6770    -1.3350 H     1 <1>   0.0740 
 58 H      -12.8120    -8.2920     0.4340 H     1 <1>   0.0740 
 59 H      -12.6300    -9.5180    -0.7980 H     1 <1>   0.0740 
 60 H      -12.7040    -7.8330    -1.2510 H     1 <1>   0.0740 
@<TRIPOS>BOND
  1   1   2  2   
  2   1   3  2   
  3   1   4  1   
  4   1   5  1   
  5   4   6  1   
  6   4  30  1   
  7   4  31  1   
  8   5   7  1   
  9   5  32  1   
 10   5  33  1   
 11   6   7  1   
 12   6   8  1   
 13   6  34  1   
 14   7  35  1   
 15   7  36  1   
 16   8   9  ar  
 17   8  37  1   
 18   9  10  ar  
 19   9  11  ar  
 20  10  12  1   
 21  10  38  1   
 22  11  13  1   
 23  11  14  1   
 24  12  13  ar  
 25  12  15  ar  
 26  13  16  ar  
 27  14  17  1   
 28  14  18  1   
 29  14  39  1   
 30  15  19  ar  
 31  15  40  1   
 32  16  20  ar  
 33  16  41  1   
 34  17  21  1   
 35  17  42  1   
 36  17  43  1   
 37  18  22  1   
 38  18  44  1   
 39  18  45  1   
 40  19  20  ar  
 41  19  23  1   
 42  20  46  1   
 43  21  24  1   
 44  21  47  1   
 45  21  48  1   
 46  22  24  1   
 47  22  49  1   
 48  22  50  1   
 49  23  25  2   
 50  23  26  am  
 51  24  51  1   
 52  24  52  1   
 53  26  27  1   
 54  26  53  1   
 55  27  28  1   
 56  27  54  1   
 57  27  55  1   
 58  28  29  1   
 59  28  56  1   
 60  28  57  1   
 61  29  58  1   
 62  29  59  1   
 63  29  60  1   
@<TRIPOS>SUBSTRUCTURE
  1 ****  12 GROUP 4 **** **** 0

# MOE 2024.06 (io_trps.svl 2023.06)
