@<TRIPOS>MOLECULE
NONAME
44 47 1 0 0 
SMALL
USER_CHARGES


@<TRIPOS>ATOM
  1 O       -2.1300     0.3760    -2.3810 O.2   1 <1>  -0.5700 
  2 C       -2.0940     0.6600    -1.2020 C.2   1 <1>   0.5440 
  3 N       -2.0640    -0.3580    -0.2940 N.am  1 <1>  -0.7300 
  4 C       -2.0910     2.0420    -0.7850 C.ar  1 <1>   0.0860 
  5 C       -2.0870    -1.8040    -0.6250 C.3   1 <1>   0.2200 
  6 C       -1.7000     3.0600    -1.6360 C.ar  1 <1>   0.1600 
  7 C       -2.4840     2.4540     0.4750 C.ar  1 <1>   0.1600 
  8 C       -3.4460    -2.4170    -0.3090 C.3   1 <1>  -0.0800 
  9 C       -1.2140    -2.5410     0.3800 C.3   1 <1>   0.1200 
 10 N       -1.6810     4.3280    -1.2850 N.ar  1 <1>  -0.6200 
 11 N       -2.4790     3.7110     0.8610 N.ar  1 <1>  -0.6200 
 12 C       -3.3440    -2.7370     1.1880 C.3   1 <1>   0.1200 
 13 C       -4.6730    -1.5690    -0.6970 C.3   1 <1>  -0.0170 
 14 O       -1.9940    -2.6160     1.5340 O.3   1 <1>  -0.5600 
 15 C       -2.0690     4.5870    -0.0460 C.ar  1 <1>   0.5880 
 16 C       -5.9640    -2.3110    -0.3940 C.ar  1 <1>  -0.1430 
 17 C       -2.0530     6.0480     0.3800 C.3   1 <1>  -0.0680 
 18 C       -6.4580    -3.2840    -1.2400 C.ar  1 <1>  -0.1500 
 19 C       -6.7100    -2.0530     0.7390 C.ar  1 <1>  -0.1500 
 20 C       -0.8010     6.8720     0.2800 C.3   1 <1>  -0.2000 
 21 C       -1.3360     6.4910     1.6240 C.3   1 <1>  -0.2000 
 22 C       -7.6360    -3.9370    -0.9190 C.ar  1 <1>   0.1600 
 23 C       -7.8760    -2.7650     0.9670 C.ar  1 <1>   0.1600 
 24 N       -8.3560    -3.7020     0.1670 N.ar  1 <1>  -0.6200 
 25 H       -1.9560    -0.1880     0.7090 H     1 <1>   0.3700 
 26 H       -1.7750    -1.9740    -1.6420 H     1 <1>   0.0800 
 27 H       -1.3940     2.8120    -2.6390 H     1 <1>   0.1500 
 28 H       -2.8190     1.7260     1.1910 H     1 <1>   0.1500 
 29 H       -3.5110    -3.3550    -0.8320 H     1 <1>   0.0800 
 30 H       -0.2930    -2.0270     0.5930 H     1 <1>   0.0800 
 31 H       -1.0080    -3.5440     0.0500 H     1 <1>   0.0800 
 32 H       -3.6720    -3.7400     1.4020 H     1 <1>   0.0800 
 33 H       -3.8980    -2.0370     1.7880 H     1 <1>   0.0800 
 34 H       -4.6300    -1.3410    -1.7480 H     1 <1>   0.0800 
 35 H       -4.6700    -0.6350    -0.1650 H     1 <1>   0.0800 
 36 H       -2.9830     6.5340     0.1450 H     1 <1>   0.1000 
 37 H       -5.9390    -3.5380    -2.1460 H     1 <1>   0.1500 
 38 H       -6.3980    -1.3080     1.4470 H     1 <1>   0.1500 
 39 H        0.0960     6.3970    -0.0790 H     1 <1>   0.1000 
 40 H       -0.8870     7.8930    -0.0500 H     1 <1>   0.1000 
 41 H       -1.7960     7.2440     2.2380 H     1 <1>   0.1000 
 42 H       -0.8100     5.7510     2.2020 H     1 <1>   0.1000 
 43 H       -8.0060    -4.6930    -1.5900 H     1 <1>   0.1500 
 44 H       -8.4450    -2.5500     1.8560 H     1 <1>   0.1500 
@<TRIPOS>BOND
  1   1   2  2   
  2   2   3  am  
  3   2   4  1   
  4   3   5  1   
  5   3  25  1   
  6   4   6  ar  
  7   4   7  ar  
  8   5   8  1   
  9   5   9  1   
 10   5  26  1   
 11   6  10  ar  
 12   6  27  1   
 13   7  11  ar  
 14   7  28  1   
 15   8  12  1   
 16   8  13  1   
 17   8  29  1   
 18   9  14  1   
 19   9  30  1   
 20   9  31  1   
 21  10  15  ar  
 22  11  15  ar  
 23  12  14  1   
 24  12  32  1   
 25  12  33  1   
 26  13  16  1   
 27  13  34  1   
 28  13  35  1   
 29  15  17  1   
 30  16  18  ar  
 31  16  19  ar  
 32  17  20  1   
 33  17  21  1   
 34  17  36  1   
 35  18  22  ar  
 36  18  37  1   
 37  19  23  ar  
 38  19  38  1   
 39  20  21  1   
 40  20  39  1   
 41  20  40  1   
 42  21  41  1   
 43  21  42  1   
 44  22  24  ar  
 45  22  43  1   
 46  23  24  ar  
 47  23  44  1   
@<TRIPOS>SUBSTRUCTURE
  1 ****   3 GROUP 4 **** **** 0

# MOE 2024.06 (io_trps.svl 2023.06)
