@<TRIPOS>MOLECULE
NONAME
34 35 1 0 0 
SMALL
USER_CHARGES


@<TRIPOS>ATOM
  1 F       -1.2960    -0.1800     1.8970 F     1 <1>  -0.1900 
  2 C       -2.2090    -0.8480     1.2260 C.ar  1 <1>   0.1900 
  3 C       -2.7940    -0.3820     0.0520 C.ar  1 <1>   0.3920 
  4 C       -2.6000    -2.0690     1.7090 C.ar  1 <1>   0.1600 
  5 O       -2.5210     0.7960    -0.5560 O.3   1 <1>  -0.3630 
  6 N       -3.7010    -1.1030    -0.5720 N.ar  1 <1>  -0.6200 
  7 N       -3.5050    -2.7970     1.0900 N.ar  1 <1>  -0.6200 
  8 C       -1.6260     1.7670    -0.0610 C.3   1 <1>   0.0400 
  9 C       -4.0060    -2.2650    -0.0210 C.ar  1 <1>   0.7200 
 10 N       -4.9510    -2.9470    -0.7080 N.pl3 1 <1>  -0.8690 
 11 C       -5.0570    -4.4130    -0.8660 C.3   1 <1>   0.2890 
 12 C       -5.5740    -5.0730     0.4230 C.3   1 <1>  -0.0160 
 13 C       -3.7240    -4.9830    -1.3550 C.3   1 <1>  -0.2400 
 14 C       -5.9800    -6.5210     0.1890 C.ar  1 <1>  -0.1430 
 15 C       -7.2120    -6.8280    -0.3730 C.ar  1 <1>   0.1600 
 16 C       -5.1310    -7.5560     0.5280 C.ar  1 <1>  -0.1500 
 17 N       -7.6500    -8.0510    -0.6250 N.ar  1 <1>  -0.6200 
 18 C       -5.5720    -8.8370     0.2760 C.ar  1 <1>  -0.1500 
 19 C       -6.8190    -9.0260    -0.2930 C.ar  1 <1>   0.1600 
 20 H       -2.1630    -2.4520     2.6140 H     1 <1>   0.1500 
 21 H       -1.6340     2.6030    -0.7380 H     1 <1>   0.0800 
 22 H       -0.6370     1.3460    -0.0180 H     1 <1>   0.0800 
 23 H       -1.9540     2.0850     0.9130 H     1 <1>   0.0800 
 24 H       -5.1920    -2.4290    -1.5520 H     1 <1>   0.4000 
 25 H       -5.7890    -4.5930    -1.6350 H     1 <1>   0.0800 
 26 H       -6.4270    -4.5230     0.7790 H     1 <1>   0.0800 
 27 H       -4.8190    -5.0350     1.1860 H     1 <1>   0.0800 
 28 H       -2.9730    -4.9060    -0.5900 H     1 <1>   0.0800 
 29 H       -3.3950    -4.4540    -2.2310 H     1 <1>   0.0800 
 30 H       -3.8410    -6.0190    -1.6110 H     1 <1>   0.0800 
 31 H       -7.8760    -6.0210    -0.6320 H     1 <1>   0.1500 
 32 H       -4.1660    -7.3740     0.9700 H     1 <1>   0.1500 
 33 H       -4.9560    -9.6840     0.5190 H     1 <1>   0.1500 
 34 H       -7.1510   -10.0320    -0.4860 H     1 <1>   0.1500 
@<TRIPOS>BOND
  1   1   2  1   
  2   2   3  ar  
  3   2   4  ar  
  4   3   5  1   
  5   3   6  ar  
  6   4   7  ar  
  7   4  20  1   
  8   5   8  1   
  9   6   9  ar  
 10   7   9  ar  
 11   8  21  1   
 12   8  22  1   
 13   8  23  1   
 14   9  10  1   
 15  10  11  1   
 16  10  24  1   
 17  11  12  1   
 18  11  13  1   
 19  11  25  1   
 20  12  14  1   
 21  12  26  1   
 22  12  27  1   
 23  13  28  1   
 24  13  29  1   
 25  13  30  1   
 26  14  15  ar  
 27  14  16  ar  
 28  15  17  ar  
 29  15  31  1   
 30  16  18  ar  
 31  16  32  1   
 32  17  19  ar  
 33  18  19  ar  
 34  18  33  1   
 35  19  34  1   
@<TRIPOS>SUBSTRUCTURE
  1 ****  10 GROUP 4 **** **** 0

# MOE 2024.06 (io_trps.svl 2023.06)
