@<TRIPOS>MOLECULE
NONAME
43 44 1 0 0 
SMALL
USER_CHARGES


@<TRIPOS>ATOM
  1 O        0.1870    -0.3020     0.4310 O.2   1 <1>  -0.5700 
  2 C        1.2030    -0.8750     0.0910 C.2   1 <1>   0.5440 
  3 N        2.2640    -0.1310    -0.3470 N.am  1 <1>  -0.7300 
  4 C        1.2800    -2.3240     0.1320 C.ar  1 <1>   0.0860 
  5 C        2.2990     1.3430    -0.4040 C.3   1 <1>   0.1400 
  6 C        0.1560    -3.1220     0.0260 C.ar  1 <1>  -0.1500 
  7 C        2.4740    -3.0200     0.2850 C.ar  1 <1>  -0.1500 
  8 C        3.7040     1.8100    -0.0470 C.3   1 <1>  -0.2400 
  9 C        0.2490    -4.5060     0.0600 C.ar  1 <1>   0.4100 
 10 C        2.4740    -4.3990     0.3080 C.ar  1 <1>   0.1600 
 11 N        1.3970    -5.1540     0.1970 N.ar  1 <1>  -0.6200 
 12 N       -0.8990    -5.2560    -0.0490 N.pl3 1 <1>  -0.8690 
 13 C       -0.9120    -6.7080     0.2230 C.3   1 <1>   0.2090 
 14 C       -2.2940    -7.2610    -0.1310 C.3   1 <1>  -0.1600 
 15 C       -2.4330    -8.7650     0.1720 C.3   1 <1>  -0.0800 
 16 C       -1.4680    -9.6230    -0.6700 C.3   1 <1>   0.1200 
 17 C       -3.8830    -9.2160    -0.0710 C.3   1 <1>  -0.1600 
 18 O       -1.6740   -10.9760    -0.3960 O.3   1 <1>  -0.5600 
 19 C       -3.9980   -10.7360     0.0980 C.3   1 <1>  -0.1600 
 20 C       -2.9370   -11.4570    -0.7390 C.3   1 <1>   0.1200 
 21 H        3.0580    -0.6010    -0.7790 H     1 <1>   0.3700 
 22 H        1.5850     1.7550     0.2920 H     1 <1>   0.0800 
 23 H        2.0350     1.6680    -1.3960 H     1 <1>   0.0800 
 24 H       -0.8080    -2.6640    -0.0900 H     1 <1>   0.1500 
 25 H        3.4010    -2.4880     0.3940 H     1 <1>   0.1500 
 26 H        3.9620     1.4850     0.9450 H     1 <1>   0.0800 
 27 H        3.7420     2.8840    -0.0720 H     1 <1>   0.0800 
 28 H        4.4200     1.4280    -0.7520 H     1 <1>   0.0800 
 29 H        3.4120    -4.9160     0.4260 H     1 <1>   0.1500 
 30 H       -1.7620    -4.7770     0.2080 H     1 <1>   0.4000 
 31 H       -0.6910    -6.8790     1.2630 H     1 <1>   0.0800 
 32 H       -0.1520    -7.1840    -0.3730 H     1 <1>   0.0800 
 33 H       -2.4810    -7.0860    -1.1760 H     1 <1>   0.0800 
 34 H       -3.0300    -6.7250     0.4410 H     1 <1>   0.0800 
 35 H       -2.1950    -8.9280     1.2100 H     1 <1>   0.0800 
 36 H       -0.4450    -9.4030    -0.4230 H     1 <1>   0.0800 
 37 H       -1.6170    -9.4600    -1.7230 H     1 <1>   0.0800 
 38 H       -4.1800    -8.9530    -1.0720 H     1 <1>   0.0800 
 39 H       -4.5480    -8.7230     0.6170 H     1 <1>   0.0800 
 40 H       -4.9770   -11.0650    -0.2000 H     1 <1>   0.0800 
 41 H       -3.8600   -11.0010     1.1320 H     1 <1>   0.0800 
 42 H       -2.9510   -12.5140    -0.5390 H     1 <1>   0.0800 
 43 H       -3.0920   -11.2970    -1.7930 H     1 <1>   0.0800 
@<TRIPOS>BOND
  1   1   2  2   
  2   2   3  am  
  3   2   4  1   
  4   3   5  1   
  5   3  21  1   
  6   4   6  ar  
  7   4   7  ar  
  8   5   8  1   
  9   5  22  1   
 10   5  23  1   
 11   6   9  ar  
 12   6  24  1   
 13   7  10  ar  
 14   7  25  1   
 15   8  26  1   
 16   8  27  1   
 17   8  28  1   
 18   9  11  ar  
 19   9  12  1   
 20  10  11  ar  
 21  10  29  1   
 22  12  13  1   
 23  12  30  1   
 24  13  14  1   
 25  13  31  1   
 26  13  32  1   
 27  14  15  1   
 28  14  33  1   
 29  14  34  1   
 30  15  16  1   
 31  15  17  1   
 32  15  35  1   
 33  16  18  1   
 34  16  36  1   
 35  16  37  1   
 36  17  19  1   
 37  17  38  1   
 38  17  39  1   
 39  18  20  1   
 40  19  20  1   
 41  19  40  1   
 42  19  41  1   
 43  20  42  1   
 44  20  43  1   
@<TRIPOS>SUBSTRUCTURE
  1 ****   9 GROUP 4 **** **** 0

# MOE 2024.06 (io_trps.svl 2023.06)
