@<TRIPOS>MOLECULE
NONAME
45 47 1 0 0 
SMALL
USER_CHARGES


@<TRIPOS>ATOM
  1 O       -1.1490    -0.6890     0.2220 O.3   1 <1>  -0.5600 
  2 C       -1.5460     0.1950     1.2230 C.3   1 <1>   0.1200 
  3 C       -1.2490    -0.2520    -1.0930 C.3   1 <1>   0.1200 
  4 C       -3.0570     0.5130     1.2070 C.3   1 <1>   0.4230 
  5 C       -2.7050    -0.3080    -1.5820 C.3   1 <1>  -0.0800 
  6 N       -3.3960     1.5140     0.1150 N.4   1 <1>  -0.9590 
  7 C       -3.9280    -0.7780     1.2610 C.3   1 <1>   0.2090 
  8 C       -3.4500    -1.5810    -1.1370 C.3   1 <1>   0.2090 
  9 C       -3.5160     0.9600    -1.2810 C.3   1 <1>   0.3430 
 10 C       -4.6790     2.2030     0.4480 C.3   1 <1>   0.2630 
 11 N       -4.4230    -1.2960    -0.0500 N.pl3 1 <1>  -0.8380 
 12 C       -5.7720    -1.4530    -0.2630 C.ar  1 <1>   0.4100 
 13 N       -6.4330    -0.3530    -0.5630 N.ar  1 <1>  -0.6200 
 14 C       -6.4070    -2.6860    -0.1710 C.ar  1 <1>  -0.1430 
 15 C       -7.7240    -0.5060    -0.7850 C.ar  1 <1>   0.4770 
 16 C       -7.7540    -2.7020    -0.4190 C.ar  1 <1>   0.1600 
 17 C       -5.6840    -3.9780     0.1950 C.3   1 <1>  -0.0170 
 18 N       -8.4310    -1.6160    -0.7310 N.ar  1 <1>  -0.6200 
 19 C       -8.4980     0.7410    -1.1390 C.3   1 <1>  -0.0970 
 20 C       -5.7150    -4.2080     1.7080 C.3   1 <1>  -0.2400 
 21 H       -1.3020    -0.2810     2.1570 H     1 <1>   0.0800 
 22 H       -0.9560     1.0910     1.1490 H     1 <1>   0.0800 
 23 H       -0.8220     0.7320    -1.1820 H     1 <1>   0.0800 
 24 H       -0.6530    -0.9300    -1.6820 H     1 <1>   0.0800 
 25 H       -3.2310     1.0120     2.1450 H     1 <1>   0.0800 
 26 H       -2.6470    -0.3660    -2.6540 H     1 <1>   0.0800 
 27 H       -2.6450     2.2110     0.1010 H     1 <1>   0.4500 
 28 H       -4.7820    -0.5750     1.8840 H     1 <1>   0.0800 
 29 H       -3.3720    -1.5600     1.7490 H     1 <1>   0.0800 
 30 H       -2.7570    -2.3410    -0.8150 H     1 <1>   0.0800 
 31 H       -3.9920    -1.9790    -1.9790 H     1 <1>   0.0800 
 32 H       -4.5500     0.7330    -1.4830 H     1 <1>   0.0800 
 33 H       -3.2250     1.7270    -1.9790 H     1 <1>   0.0800 
 34 H       -5.4790     1.4850     0.5170 H     1 <1>   0.0800 
 35 H       -4.9300     2.9200    -0.3170 H     1 <1>   0.0800 
 36 H       -4.5990     2.7180     1.3910 H     1 <1>   0.0800 
 37 H       -8.3050    -3.6260    -0.3620 H     1 <1>   0.1500 
 38 H       -6.1580    -4.8090    -0.2990 H     1 <1>   0.0800 
 39 H       -4.6630    -3.9490    -0.1420 H     1 <1>   0.0800 
 40 H       -9.2530     0.5050    -1.8680 H     1 <1>   0.0800 
 41 H       -7.8450     1.4870    -1.5490 H     1 <1>   0.0800 
 42 H       -8.9740     1.1260    -0.2580 H     1 <1>   0.0800 
 43 H       -6.7320    -4.2730     2.0550 H     1 <1>   0.0800 
 44 H       -5.2270    -3.3980     2.2180 H     1 <1>   0.0800 
 45 H       -5.2090    -5.1250     1.9530 H     1 <1>   0.0800 
@<TRIPOS>BOND
  1   1   2  1   
  2   1   3  1   
  3   2   4  1   
  4   2  21  1   
  5   2  22  1   
  6   3   5  1   
  7   3  23  1   
  8   3  24  1   
  9   4   6  1   
 10   4   7  1   
 11   4  25  1   
 12   5   8  1   
 13   5   9  1   
 14   5  26  1   
 15   6   9  1   
 16   6  10  1   
 17   6  27  1   
 18   7  11  1   
 19   7  28  1   
 20   7  29  1   
 21   8  11  1   
 22   8  30  1   
 23   8  31  1   
 24   9  32  1   
 25   9  33  1   
 26  10  34  1   
 27  10  35  1   
 28  10  36  1   
 29  11  12  1   
 30  12  13  ar  
 31  12  14  ar  
 32  13  15  ar  
 33  14  16  ar  
 34  14  17  1   
 35  15  18  ar  
 36  15  19  1   
 37  16  18  ar  
 38  16  37  1   
 39  17  20  1   
 40  17  38  1   
 41  17  39  1   
 42  19  40  1   
 43  19  41  1   
 44  19  42  1   
 45  20  43  1   
 46  20  44  1   
 47  20  45  1   
@<TRIPOS>SUBSTRUCTURE
  1 ****  11 GROUP 4 **** **** 0

# MOE 2024.06 (io_trps.svl 2023.06)
