@<TRIPOS>MOLECULE
NONAME
48 50 1 0 0 
SMALL
USER_CHARGES


@<TRIPOS>ATOM
  1 CL       0.4940     1.3110    -1.0970 Cl    1 <1>  -0.1770 
  2 C        1.4010    -0.0050    -0.3950 C.ar  1 <1>   0.1770 
  3 C        1.3530    -1.2500    -0.9930 C.ar  1 <1>  -0.1500 
  4 C        2.1480     0.2180     0.7450 C.ar  1 <1>  -0.1500 
  5 C        2.0650    -2.3130    -0.4510 C.ar  1 <1>  -0.1440 
  6 C        2.8590    -0.8330     1.2930 C.ar  1 <1>  -0.1500 
  7 C        2.8250    -2.0890     0.7020 C.ar  1 <1>   0.0830 
  8 C        1.9730    -3.6570    -1.1640 C.3   1 <1>   0.4870 
  9 O        3.5100    -3.0660     1.3320 O.3   1 <1>  -0.3630 
 10 N        1.5670    -4.7560    -0.2590 N.4   1 <1>  -0.9590 
 11 C        4.7310    -3.5550     0.7660 C.3   1 <1>   0.0140 
 12 C        1.5080    -6.0570    -1.0010 C.3   1 <1>   0.3430 
 13 C        0.3500    -4.4900     0.5670 C.3   1 <1>   0.3430 
 14 C        4.5130    -4.8940     0.0890 C.2   1 <1>   0.9060 
 15 C        1.1470    -7.2370    -0.0750 C.3   1 <1>   0.2090 
 16 C       -0.0160    -5.6860     1.4720 C.3   1 <1>   0.2090 
 17 O        3.9180    -5.7860     0.7080 O.co2 1 <1>  -0.9000 
 18 O        4.6960    -4.9980    -1.1260 O.co2 1 <1>  -0.9000 
 19 N       -0.1040    -6.9650     0.7030 N.pl3 1 <1>  -0.8380 
 20 C       -1.2940    -7.2260     0.0510 C.ar  1 <1>   0.4100 
 21 N       -1.6650    -6.3280    -0.8580 N.ar  1 <1>  -0.6200 
 22 C       -2.0280    -8.3790     0.3520 C.ar  1 <1>  -0.1430 
 23 C       -2.8020    -6.5820    -1.4840 C.ar  1 <1>   0.1600 
 24 C       -3.2080    -8.6180    -0.3170 C.ar  1 <1>  -0.1500 
 25 C       -1.5410    -9.3650     1.4060 C.3   1 <1>  -0.0970 
 26 C       -3.5980    -7.6880    -1.2580 C.ar  1 <1>  -0.1500 
 27 H        0.7580    -1.3700    -1.8810 H     1 <1>   0.1500 
 28 H        2.1690     1.1960     1.1920 H     1 <1>   0.1500 
 29 H        3.4450    -0.6890     2.1840 H     1 <1>   0.1500 
 30 H        2.9220    -3.8830    -1.6180 H     1 <1>   0.0800 
 31 H        1.2520    -3.5800    -1.9590 H     1 <1>   0.0800 
 32 H        2.3750    -4.9170     0.3900 H     1 <1>   0.4500 
 33 H        5.4360    -3.6830     1.5640 H     1 <1>   0.0800 
 34 H        5.1090    -2.8410     0.0580 H     1 <1>   0.0800 
 35 H        2.4700    -6.2530    -1.4490 H     1 <1>   0.0800 
 36 H        0.7680    -5.9990    -1.7810 H     1 <1>   0.0800 
 37 H       -0.4850    -4.2890    -0.0820 H     1 <1>   0.0800 
 38 H        0.5140    -3.6220     1.1820 H     1 <1>   0.0800 
 39 H        1.9620    -7.4170     0.6060 H     1 <1>   0.0800 
 40 H        1.0160    -8.1240    -0.6700 H     1 <1>   0.0800 
 41 H       -0.9620    -5.4930     1.9480 H     1 <1>   0.0800 
 42 H        0.7280    -5.7890     2.2430 H     1 <1>   0.0800 
 43 H       -3.1210    -5.8660    -2.2210 H     1 <1>   0.1500 
 44 H       -3.8070    -9.4890    -0.1200 H     1 <1>   0.1500 
 45 H       -1.4190    -8.8600     2.3470 H     1 <1>   0.0800 
 46 H       -0.5910    -9.7730     1.1110 H     1 <1>   0.0800 
 47 H       -2.2380   -10.1730     1.5370 H     1 <1>   0.0800 
 48 H       -4.5110    -7.8230    -1.8100 H     1 <1>   0.1500 
@<TRIPOS>BOND
  1   1   2  1   
  2   2   3  ar  
  3   2   4  ar  
  4   3   5  ar  
  5   3  27  1   
  6   4   6  ar  
  7   4  28  1   
  8   5   7  ar  
  9   5   8  1   
 10   6   7  ar  
 11   6  29  1   
 12   7   9  1   
 13   8  10  1   
 14   8  30  1   
 15   8  31  1   
 16   9  11  1   
 17  10  12  1   
 18  10  13  1   
 19  10  32  1   
 20  11  14  1   
 21  11  33  1   
 22  11  34  1   
 23  12  15  1   
 24  12  35  1   
 25  12  36  1   
 26  13  16  1   
 27  13  37  1   
 28  13  38  1   
 29  14  17  ar  
 30  14  18  ar  
 31  15  19  1   
 32  15  39  1   
 33  15  40  1   
 34  16  19  1   
 35  16  41  1   
 36  16  42  1   
 37  19  20  1   
 38  20  21  ar  
 39  20  22  ar  
 40  21  23  ar  
 41  22  24  ar  
 42  22  25  1   
 43  23  26  ar  
 44  23  43  1   
 45  24  26  ar  
 46  24  44  1   
 47  25  45  1   
 48  25  46  1   
 49  25  47  1   
 50  26  48  1   
@<TRIPOS>SUBSTRUCTURE
  1 ****  10 GROUP 4 **** **** 0

# MOE 2024.06 (io_trps.svl 2023.06)
