@<TRIPOS>MOLECULE
NONAME
52 54 1 0 0 
SMALL
USER_CHARGES


@<TRIPOS>ATOM
  1 S        0.5840    -0.0530     0.2790 S.3   1 <1>  -0.0800 
  2 C       -0.2570     1.4780     0.5520 C.2   1 <1>  -0.0450 
  3 C       -0.2960    -0.8530     1.5610 C.2   1 <1>  -0.1100 
  4 C        0.0760     2.6140    -0.2700 C.2   1 <1>   0.7150 
  5 C       -1.1390     1.3070     1.5730 C.2   1 <1>  -0.1500 
  6 C       -1.1600    -0.0010     2.1400 C.2   1 <1>  -0.1500 
  7 O        0.8840     2.5430    -1.1760 O.2   1 <1>  -0.5700 
  8 N       -0.5170     3.8150    -0.0220 N.am  1 <1>  -0.7300 
  9 C       -0.0920     5.1080    -0.6250 C.3   1 <1>   0.2810 
 10 C        0.7480     5.9080     0.3990 C.2   1 <1>   0.5690 
 11 C       -1.3580     5.8420    -1.1110 C.3   1 <1>  -0.1600 
 12 O        0.1720     6.3540     1.3700 O.2   1 <1>  -0.5700 
 13 N        2.1000     6.0800     0.2390 N.am  1 <1>  -0.6600 
 14 C       -1.1140     6.8560    -2.2490 C.3   1 <1>  -0.0800 
 15 C        2.8330     7.0720     1.0800 C.3   1 <1>   0.3210 
 16 C        2.9030     5.5180    -0.8840 C.3   1 <1>   0.0600 
 17 C       -0.2440     8.0440    -1.8200 C.3   1 <1>  -0.2400 
 18 C       -2.4600     7.3820    -2.7610 C.3   1 <1>  -0.2400 
 19 C        2.9100     8.4150     0.3680 C.2   1 <1>   0.1080 
 20 N        3.8060     8.7350    -0.5290 N.2   1 <1>  -0.7070 
 21 C        2.0190     9.4580     0.5840 C.2   1 <1>  -0.1810 
 22 N        3.4870     9.9970    -0.9030 N.pl3 1 <1>   0.3000 
 23 C        2.4050    10.4310    -0.2320 C.2   1 <1>  -0.3320 
 24 C        0.8130     9.8370     1.3970 C.3   1 <1>   0.0210 
 25 C        1.5510    11.6640    -0.1610 C.3   1 <1>   0.0200 
 26 C        0.4090    11.2000     0.7770 C.3   1 <1>  -0.1600 
 27 H       -0.0700    -1.8880     1.7490 H     1 <1>   0.1500 
 28 H       -1.7910     2.0720     1.9570 H     1 <1>   0.1500 
 29 H       -1.8210    -0.2450     2.9540 H     1 <1>   0.1500 
 30 H       -1.0270     3.9300     0.8530 H     1 <1>   0.3700 
 31 H        0.5030     4.9020    -1.4940 H     1 <1>   0.0800 
 32 H       -1.8340     6.3350    -0.2810 H     1 <1>   0.0800 
 33 H       -2.0430     5.1020    -1.4870 H     1 <1>   0.0800 
 34 H       -0.6240     6.3510    -3.0650 H     1 <1>   0.0800 
 35 H        3.8280     6.7180     1.2780 H     1 <1>   0.0800 
 36 H        2.3370     7.2020     2.0250 H     1 <1>   0.0800 
 37 H        2.6000     4.5080    -1.1000 H     1 <1>   0.0800 
 38 H        3.9480     5.5070    -0.6270 H     1 <1>   0.0800 
 39 H        2.7750     6.1300    -1.7610 H     1 <1>   0.0800 
 40 H       -0.6540     8.5180    -0.9470 H     1 <1>   0.0800 
 41 H       -0.1900     8.7740    -2.6080 H     1 <1>   0.0800 
 42 H        0.7610     7.7340    -1.6050 H     1 <1>   0.0800 
 43 H       -2.9860     7.9010    -1.9790 H     1 <1>   0.0800 
 44 H       -3.0740     6.5700    -3.1080 H     1 <1>   0.0800 
 45 H       -2.3100     8.0610    -3.5810 H     1 <1>   0.0800 
 46 H        4.0210    10.5180    -1.6090 H     1 <1>   0.2700 
 47 H        1.0890     9.9470     2.4300 H     1 <1>   0.0800 
 48 H        0.0300     9.1050     1.3020 H     1 <1>   0.0800 
 49 H        1.1750    11.9420    -1.1300 H     1 <1>   0.0800 
 50 H        2.1050    12.4780     0.2740 H     1 <1>   0.0800 
 51 H        0.2150    11.9290     1.5430 H     1 <1>   0.0800 
 52 H       -0.4860    11.0640     0.1960 H     1 <1>   0.0800 
@<TRIPOS>BOND
  1   1   2  1   
  2   1   3  1   
  3   2   4  1   
  4   2   5  2   
  5   3   6  2   
  6   3  27  1   
  7   4   7  2   
  8   4   8  am  
  9   5   6  1   
 10   5  28  1   
 11   6  29  1   
 12   8   9  1   
 13   8  30  1   
 14   9  10  1   
 15   9  11  1   
 16   9  31  1   
 17  10  12  2   
 18  10  13  am  
 19  11  14  1   
 20  11  32  1   
 21  11  33  1   
 22  13  15  1   
 23  13  16  1   
 24  14  17  1   
 25  14  18  1   
 26  14  34  1   
 27  15  19  1   
 28  15  35  1   
 29  15  36  1   
 30  16  37  1   
 31  16  38  1   
 32  16  39  1   
 33  17  40  1   
 34  17  41  1   
 35  17  42  1   
 36  18  43  1   
 37  18  44  1   
 38  18  45  1   
 39  19  20  2   
 40  19  21  1   
 41  20  22  1   
 42  21  23  2   
 43  21  24  1   
 44  22  23  1   
 45  22  46  1   
 46  23  25  1   
 47  24  26  1   
 48  24  47  1   
 49  24  48  1   
 50  25  26  1   
 51  25  49  1   
 52  25  50  1   
 53  26  51  1   
 54  26  52  1   
@<TRIPOS>SUBSTRUCTURE
  1 ****  10 GROUP 4 **** **** 0

# MOE 2024.06 (io_trps.svl 2023.06)
