@<TRIPOS>MOLECULE
NONAME
41 43 1 0 0 
SMALL
USER_CHARGES


@<TRIPOS>ATOM
  1 S        0.9480     1.5180     1.9430 S.3   1 <1>  -0.0800 
  2 C        0.4850     2.7220     0.7350 C.2   1 <1>  -0.0450 
  3 C       -0.3690     0.4570     1.5060 C.2   1 <1>  -0.1100 
  4 C        1.2820     3.9120     0.6300 C.2   1 <1>   0.5940 
  5 C       -0.6200     2.2690     0.0810 C.2   1 <1>  -0.1500 
  6 C       -1.0970     0.9980     0.5140 C.2   1 <1>  -0.1500 
  7 O        2.1940     4.1880     1.3760 O.2   1 <1>  -0.5700 
  8 C        0.9920     4.9250    -0.4740 C.3   1 <1>  -0.0190 
  9 C        2.3290     5.3950    -1.0770 C.3   1 <1>   0.3430 
 10 C        0.1510     6.1060     0.0760 C.3   1 <1>  -0.1600 
 11 N        2.9380     6.4060    -0.1670 N.4   1 <1>  -0.9590 
 12 C        0.6600     7.4640    -0.4370 C.3   1 <1>  -0.1600 
 13 C        2.1560     7.6900    -0.1610 C.3   1 <1>   0.3430 
 14 C        4.3930     6.5970    -0.4260 C.3   1 <1>   0.3430 
 15 C        5.1490     6.8560     0.8890 C.3   1 <1>  -0.1600 
 16 C        5.8400     8.2330     0.9550 C.3   1 <1>   0.0960 
 17 N        4.8630     9.3290     0.8270 N.pl3 1 <1>   0.3140 
 18 N        4.4350     9.7670    -0.3360 N.2   1 <1>  -0.4180 
 19 C        4.1800     9.9570     1.7640 C.2   1 <1>   0.0360 
 20 N        3.5260    10.6390    -0.0830 N.2   1 <1>   0.0000 
 21 N        3.3430    10.7570     1.2270 N.2   1 <1>  -0.3380 
 22 H       -0.4630    -0.4700     2.0440 H     1 <1>   0.1500 
 23 H       -1.1400     2.7860    -0.7060 H     1 <1>   0.1500 
 24 H       -1.9640     0.5430     0.0650 H     1 <1>   0.1500 
 25 H        0.4470     4.4380    -1.2610 H     1 <1>   0.0800 
 26 H        2.1630     5.8350    -2.0470 H     1 <1>   0.0800 
 27 H        2.9870     4.5480    -1.1920 H     1 <1>   0.0800 
 28 H        0.1960     6.1190     1.1540 H     1 <1>   0.0800 
 29 H       -0.8840     5.9770    -0.1940 H     1 <1>   0.0800 
 30 H        2.8440     5.9670     0.7700 H     1 <1>   0.4500 
 31 H        0.1000     8.2630     0.0180 H     1 <1>   0.0800 
 32 H        0.4900     7.5340    -1.4970 H     1 <1>   0.0800 
 33 H        2.5400     8.3590    -0.9150 H     1 <1>   0.0800 
 34 H        2.2750     8.1750     0.7950 H     1 <1>   0.0800 
 35 H        4.5440     7.4050    -1.1250 H     1 <1>   0.0800 
 36 H        4.7930     5.7010    -0.8710 H     1 <1>   0.0800 
 37 H        5.9190     6.1090     0.9700 H     1 <1>   0.0800 
 38 H        4.5060     6.7310     1.7420 H     1 <1>   0.0800 
 39 H        6.5610     8.3290     0.1620 H     1 <1>   0.0800 
 40 H        6.3570     8.3430     1.8920 H     1 <1>   0.0800 
 41 H        4.3110     9.8010     2.8190 H     1 <1>   0.1500 
@<TRIPOS>BOND
  1   1   2  1   
  2   1   3  1   
  3   2   4  1   
  4   2   5  2   
  5   3   6  2   
  6   3  22  1   
  7   4   7  2   
  8   4   8  1   
  9   5   6  1   
 10   5  23  1   
 11   6  24  1   
 12   8   9  1   
 13   8  10  1   
 14   8  25  1   
 15   9  11  1   
 16   9  26  1   
 17   9  27  1   
 18  10  12  1   
 19  10  28  1   
 20  10  29  1   
 21  11  13  1   
 22  11  14  1   
 23  11  30  1   
 24  12  13  1   
 25  12  31  1   
 26  12  32  1   
 27  13  33  1   
 28  13  34  1   
 29  14  15  1   
 30  14  35  1   
 31  14  36  1   
 32  15  16  1   
 33  15  37  1   
 34  15  38  1   
 35  16  17  1   
 36  16  39  1   
 37  16  40  1   
 38  17  18  1   
 39  17  19  1   
 40  18  20  2   
 41  19  21  2   
 42  19  41  1   
 43  20  21  1   
@<TRIPOS>SUBSTRUCTURE
  1 ****  11 GROUP 4 **** **** 0

# MOE 2024.06 (io_trps.svl 2023.06)
