@<TRIPOS>MOLECULE
NONAME
42 43 1 0 0 
SMALL
USER_CHARGES


@<TRIPOS>ATOM
  1 O        2.6970     1.5930     1.8420 O.co2 1 <1>  -0.9000 
  2 C        2.0820     0.7230     1.2050 C.2   1 <1>   0.9060 
  3 O        1.8850    -0.3930     1.6820 O.co2 1 <1>  -0.9000 
  4 C        1.8550     0.9210    -0.3060 C.3   1 <1>  -0.1060 
  5 C        2.8130    -0.1130    -0.9430 C.3   1 <1>   0.2000 
  6 C        2.2930     2.3460    -0.7890 C.3   1 <1>  -0.1600 
  7 C        0.3770     0.6380    -0.6910 C.3   1 <1>  -0.1600 
  8 O        2.7850     0.0070    -2.3340 O.3   1 <1>  -0.6800 
  9 C        4.2650     0.1230    -0.4480 C.3   1 <1>   0.3430 
 10 C        3.8100     2.5010    -1.0120 C.3   1 <1>   0.3430 
 11 C       -0.6280     1.5800    -0.0070 C.3   1 <1>  -0.1600 
 12 N        4.5340     1.5690    -0.1090 N.4   1 <1>  -0.9590 
 13 C       -2.0640     1.2330    -0.4090 C.3   1 <1>  -0.2400 
 14 C        5.9530     1.8660     0.1590 C.3   1 <1>   0.4860 
 15 C        6.1360     3.3260     0.5250 C.ar  1 <1>  -0.1440 
 16 C        5.4720     3.8770     1.6140 C.ar  1 <1>   0.1600 
 17 C        6.9700     4.1320    -0.2270 C.ar  1 <1>  -0.1500 
 18 N        5.5800     5.1400     1.9950 N.ar  1 <1>  -0.6200 
 19 C        7.0890     5.4490     0.1630 C.ar  1 <1>  -0.1500 
 20 C        6.3820     5.8950     1.2660 C.ar  1 <1>   0.1600 
 21 H        2.5120    -1.1180    -0.6970 H     1 <1>   0.0800 
 22 H        1.9690     3.0840    -0.0750 H     1 <1>   0.0800 
 23 H        1.8080     2.5850    -1.7180 H     1 <1>   0.0800 
 24 H        0.2510     0.7160    -1.7560 H     1 <1>   0.0800 
 25 H        0.1370    -0.3740    -0.4060 H     1 <1>   0.0800 
 26 H        1.8780    -0.1760    -2.6520 H     1 <1>   0.4000 
 27 H        4.9480    -0.2280    -1.2030 H     1 <1>   0.0800 
 28 H        4.4080    -0.4650     0.4440 H     1 <1>   0.0800 
 29 H        4.0930     3.5230    -0.8190 H     1 <1>   0.0800 
 30 H        4.0490     2.2610    -2.0350 H     1 <1>   0.0800 
 31 H       -0.5360     1.4940     1.0640 H     1 <1>   0.0800 
 32 H       -0.4270     2.6020    -0.2750 H     1 <1>   0.0800 
 33 H        4.0270     1.7050     0.8040 H     1 <1>   0.4500 
 34 H       -2.2990     0.2240    -0.1190 H     1 <1>   0.0800 
 35 H       -2.1950     1.3310    -1.4720 H     1 <1>   0.0800 
 36 H       -2.7520     1.8970     0.0850 H     1 <1>   0.0800 
 37 H        6.3020     1.2510     0.9730 H     1 <1>   0.0800 
 38 H        6.5400     1.6390    -0.7150 H     1 <1>   0.0800 
 39 H        4.8120     3.2560     2.2040 H     1 <1>   0.1500 
 40 H        7.5120     3.7640    -1.0820 H     1 <1>   0.1500 
 41 H        7.7230     6.1280    -0.3780 H     1 <1>   0.1500 
 42 H        6.4820     6.9250     1.5640 H     1 <1>   0.1500 
@<TRIPOS>BOND
  1   1   2  ar  
  2   2   3  ar  
  3   2   4  1   
  4   4   5  1   
  5   4   6  1   
  6   4   7  1   
  7   5   8  1   
  8   5   9  1   
  9   5  21  1   
 10   6  10  1   
 11   6  22  1   
 12   6  23  1   
 13   7  11  1   
 14   7  24  1   
 15   7  25  1   
 16   8  26  1   
 17   9  12  1   
 18   9  27  1   
 19   9  28  1   
 20  10  12  1   
 21  10  29  1   
 22  10  30  1   
 23  11  13  1   
 24  11  31  1   
 25  11  32  1   
 26  12  14  1   
 27  12  33  1   
 28  13  34  1   
 29  13  35  1   
 30  13  36  1   
 31  14  15  1   
 32  14  37  1   
 33  14  38  1   
 34  15  16  ar  
 35  15  17  ar  
 36  16  18  ar  
 37  16  39  1   
 38  17  19  ar  
 39  17  40  1   
 40  18  20  ar  
 41  19  20  ar  
 42  19  41  1   
 43  20  42  1   
@<TRIPOS>SUBSTRUCTURE
  1 ****  12 GROUP 4 **** **** 0

# MOE 2024.06 (io_trps.svl 2023.06)
