@<TRIPOS>MOLECULE
NONAME
51 53 1 0 0 
SMALL
USER_CHARGES


@<TRIPOS>ATOM
  1 O       -0.3130     1.0920     0.3420 O.2   1 <1>  -0.5700 
  2 C       -0.4820     2.2300    -0.0300 C.2   1 <1>   0.5690 
  3 N       -1.3980     3.0880     0.5260 N.am  1 <1>  -0.6600 
  4 C        0.3740     2.7240    -1.1910 C.3   1 <1>   0.1810 
  5 C       -1.5580     4.4850    -0.0050 C.3   1 <1>   0.3640 
  6 C       -2.2350     2.7750     1.7190 C.3   1 <1>   0.2200 
  7 O        0.6480     4.0980    -1.0860 O.3   1 <1>  -0.5600 
  8 C       -2.9690     4.6450    -0.5780 C.ar  1 <1>  -0.1440 
  9 C       -0.5130     4.9160    -1.0740 C.3   1 <1>   0.2610 
 10 C       -1.3470     2.5660     2.9440 C.3   1 <1>  -0.2400 
 11 C       -3.1500     1.5770     1.4630 C.3   1 <1>  -0.2400 
 12 C       -3.7370     5.7470    -0.2310 C.ar  1 <1>  -0.1500 
 13 C       -3.5000     3.7040    -1.4520 C.ar  1 <1>  -0.1500 
 14 C       -0.1170     6.3830    -0.8570 C.2   1 <1>   0.5690 
 15 C       -5.0120     5.9070    -0.7450 C.ar  1 <1>  -0.1500 
 16 C       -4.7750     3.8620    -1.9670 C.ar  1 <1>  -0.1500 
 17 O       -0.9690     7.2260    -0.6910 O.2   1 <1>  -0.5700 
 18 N        1.2020     6.7180    -0.8400 N.am  1 <1>  -0.7300 
 19 C       -5.5320     4.9640    -1.6130 C.ar  1 <1>  -0.1500 
 20 C        1.7280     8.0970    -0.7220 C.3   1 <1>   0.1400 
 21 C        1.7190     8.5430     0.7400 C.3   1 <1>   0.0200 
 22 C        1.9030    10.0430     0.8200 C.2   1 <1>   0.0060 
 23 N        3.0130    10.6470     1.0570 N.2   1 <1>  -0.3380 
 24 N        0.9070    10.9170     0.6320 N.pl3 1 <1>   0.0330 
 25 N        2.7610    11.9650     1.0230 N.2   1 <1>  -0.3380 
 26 C        1.5020    12.1000     0.7720 C.2   1 <1>   0.2700 
 27 N        0.8660    13.3150     0.6620 N.pl3 1 <1>  -0.8840 
 28 H       -0.1260     2.5370    -2.1230 H     1 <1>   0.0800 
 29 H        1.3140     2.2020    -1.1870 H     1 <1>   0.0800 
 30 H       -1.4570     5.1520     0.8340 H     1 <1>   0.0800 
 31 H       -2.8730     3.6200     1.9230 H     1 <1>   0.0800 
 32 H       -0.9580     4.8460    -2.0500 H     1 <1>   0.0800 
 33 H       -0.7370     1.6880     2.8290 H     1 <1>   0.0800 
 34 H       -1.9580     2.4360     3.8190 H     1 <1>   0.0800 
 35 H       -0.7130     3.4210     3.0950 H     1 <1>   0.0800 
 36 H       -2.5830     0.6730     1.3370 H     1 <1>   0.0800 
 37 H       -3.7480     1.7460     0.5870 H     1 <1>   0.0800 
 38 H       -3.8100     1.4410     2.3000 H     1 <1>   0.0800 
 39 H       -3.3460     6.4970     0.4360 H     1 <1>   0.1500 
 40 H       -2.9290     2.8370    -1.7320 H     1 <1>   0.1500 
 41 H       -5.6000     6.7660    -0.4720 H     1 <1>   0.1500 
 42 H       -5.1790     3.1270    -2.6410 H     1 <1>   0.1500 
 43 H        1.8810     5.9550    -0.9450 H     1 <1>   0.3700 
 44 H       -6.5240     5.0880    -2.0130 H     1 <1>   0.1500 
 45 H        2.7280     8.1470    -1.1190 H     1 <1>   0.0800 
 46 H        1.1030     8.7530    -1.3040 H     1 <1>   0.0800 
 47 H        2.5160     8.0550     1.2710 H     1 <1>   0.0800 
 48 H        0.7840     8.2830     1.2040 H     1 <1>   0.0800 
 49 H       -0.0710    10.7480     0.3970 H     1 <1>   0.2700 
 50 H        1.5590    14.0690     0.6380 H     1 <1>   0.4000 
 51 H        0.2130    13.5050     1.4250 H     1 <1>   0.4000 
@<TRIPOS>BOND
  1   1   2  2   
  2   2   3  am  
  3   2   4  1   
  4   3   5  1   
  5   3   6  1   
  6   4   7  1   
  7   4  28  1   
  8   4  29  1   
  9   5   8  1   
 10   5   9  1   
 11   5  30  1   
 12   6  10  1   
 13   6  11  1   
 14   6  31  1   
 15   7   9  1   
 16   8  12  ar  
 17   8  13  ar  
 18   9  14  1   
 19   9  32  1   
 20  10  33  1   
 21  10  34  1   
 22  10  35  1   
 23  11  36  1   
 24  11  37  1   
 25  11  38  1   
 26  12  15  ar  
 27  12  39  1   
 28  13  16  ar  
 29  13  40  1   
 30  14  17  2   
 31  14  18  am  
 32  15  19  ar  
 33  15  41  1   
 34  16  19  ar  
 35  16  42  1   
 36  18  20  1   
 37  18  43  1   
 38  19  44  1   
 39  20  21  1   
 40  20  45  1   
 41  20  46  1   
 42  21  22  1   
 43  21  47  1   
 44  21  48  1   
 45  22  23  2   
 46  22  24  1   
 47  23  25  1   
 48  24  26  1   
 49  24  49  1   
 50  25  26  2   
 51  26  27  1   
 52  27  50  1   
 53  27  51  1   
@<TRIPOS>SUBSTRUCTURE
  1 ****  14 GROUP 4 **** **** 0

# MOE 2024.06 (io_trps.svl 2023.06)
