@<TRIPOS>MOLECULE
NONAME
47 49 1 0 0 
SMALL
USER_CHARGES


@<TRIPOS>ATOM
  1 S        0.5270     0.2220    -1.7530 S.o2  1 <1>   1.4470 
  2 O        1.6820    -0.6340    -1.9180 O.2   1 <1>  -0.6500 
  3 O        0.0270     0.9140    -2.9190 O.2   1 <1>  -0.6500 
  4 N        1.0490     1.4490    -0.7000 N.am  1 <1>  -0.8490 
  5 C       -0.8620    -0.5930    -0.9190 C.ar  1 <1>  -0.0090 
  6 C        1.4280     0.9980     0.6660 C.3   1 <1>   0.2760 
  7 C        1.9200     2.4190    -1.3940 C.3   1 <1>   0.1960 
  8 C       -0.6750    -1.6440    -0.0230 C.ar  1 <1>   0.0830 
  9 C       -2.1660    -0.1640    -1.1450 C.ar  1 <1>  -0.1500 
 10 C        1.4070     2.1610     1.6710 C.3   1 <1>   0.1200 
 11 C        2.7550     0.1970     0.7860 C.3   1 <1>   0.3430 
 12 C        3.1710     2.9000    -0.6440 C.3   1 <1>  -0.0800 
 13 O        0.5680    -2.0800     0.2700 O.3   1 <1>  -0.3630 
 14 C       -1.7500    -2.2440     0.6170 C.ar  1 <1>  -0.1500 
 15 C       -3.2430    -0.7600    -0.5120 C.ar  1 <1>  -0.1500 
 16 O        2.6290     2.8300     1.7070 O.3   1 <1>  -0.5600 
 17 N        3.7420     0.4180    -0.3140 N.4   1 <1>  -0.9590 
 18 C        2.8670     3.6840     0.6390 C.3   1 <1>   0.1200 
 19 C        4.2500     1.8230    -0.4490 C.3   1 <1>   0.3430 
 20 C        0.9480    -3.3190    -0.2920 C.3   1 <1>   0.0400 
 21 C       -3.0350    -1.8040     0.3710 C.ar  1 <1>  -0.1500 
 22 C        4.9250    -0.5380    -0.1730 C.3   1 <1>   0.2370 
 23 C        6.0620    -0.4210    -1.2000 C.2   1 <1>   0.9060 
 24 O        6.7310     0.6200    -1.2160 O.co2 1 <1>  -0.9000 
 25 O        6.2380    -1.3490    -1.9890 O.co2 1 <1>  -0.9000 
 26 H        0.6480     0.3510     1.0190 H     1 <1>   0.0800 
 27 H        2.2540     2.0030    -2.3320 H     1 <1>   0.0800 
 28 H        1.3150     3.2750    -1.6460 H     1 <1>   0.0800 
 29 H       -2.3460     0.6480    -1.8300 H     1 <1>   0.1500 
 30 H        1.2480     1.7680     2.6600 H     1 <1>   0.0800 
 31 H        0.6130     2.8550     1.4540 H     1 <1>   0.0800 
 32 H        2.5030    -0.8490     0.8070 H     1 <1>   0.0800 
 33 H        3.2140     0.4320     1.7310 H     1 <1>   0.0800 
 34 H        3.6240     3.6250    -1.2960 H     1 <1>   0.0800 
 35 H       -1.5820    -3.0500     1.3100 H     1 <1>   0.1500 
 36 H       -4.2440    -0.4120    -0.7080 H     1 <1>   0.1500 
 37 H        3.2660     0.1510    -1.2000 H     1 <1>   0.4500 
 38 H        2.0230     4.3430     0.5140 H     1 <1>   0.0800 
 39 H        3.7220     4.2810     0.9080 H     1 <1>   0.0800 
 40 H        4.8520     2.0720     0.4090 H     1 <1>   0.0800 
 41 H        4.9000     1.8620    -1.3090 H     1 <1>   0.0800 
 42 H        1.9670    -3.5210    -0.0150 H     1 <1>   0.0800 
 43 H        0.8710    -3.2550    -1.3640 H     1 <1>   0.0800 
 44 H        0.3030    -4.0930     0.0840 H     1 <1>   0.0800 
 45 H       -3.8720    -2.2680     0.8650 H     1 <1>   0.1500 
 46 H        5.3770    -0.3990     0.7910 H     1 <1>   0.0800 
 47 H        4.5700    -1.5510    -0.2300 H     1 <1>   0.0800 
@<TRIPOS>BOND
  1   1   2  2   
  2   1   3  2   
  3   1   4  am  
  4   1   5  1   
  5   4   6  1   
  6   4   7  1   
  7   5   8  ar  
  8   5   9  ar  
  9   6  10  1   
 10   6  11  1   
 11   6  26  1   
 12   7  12  1   
 13   7  27  1   
 14   7  28  1   
 15   8  13  1   
 16   8  14  ar  
 17   9  15  ar  
 18   9  29  1   
 19  10  16  1   
 20  10  30  1   
 21  10  31  1   
 22  11  17  1   
 23  11  32  1   
 24  11  33  1   
 25  12  18  1   
 26  12  19  1   
 27  12  34  1   
 28  13  20  1   
 29  14  21  ar  
 30  14  35  1   
 31  15  21  ar  
 32  15  36  1   
 33  16  18  1   
 34  17  19  1   
 35  17  22  1   
 36  17  37  1   
 37  18  38  1   
 38  18  39  1   
 39  19  40  1   
 40  19  41  1   
 41  20  42  1   
 42  20  43  1   
 43  20  44  1   
 44  21  45  1   
 45  22  23  1   
 46  22  46  1   
 47  22  47  1   
 48  23  24  ar  
 49  23  25  ar  
@<TRIPOS>SUBSTRUCTURE
  1 ****   6 GROUP 4 **** **** 0

# MOE 2024.06 (io_trps.svl 2023.06)
