@<TRIPOS>MOLECULE
NONAME
36 37 1 0 0 
SMALL
USER_CHARGES


@<TRIPOS>ATOM
  1 S       -0.7300     0.3610     0.9170 S.o2  1 <1>   1.4470 
  2 O       -0.5970    -0.8990     1.6130 O.2   1 <1>  -0.6500 
  3 O       -1.2870     1.4920     1.6240 O.2   1 <1>  -0.6500 
  4 N       -1.6240     0.0920    -0.4990 N.am  1 <1>  -0.8490 
  5 C        0.9020     0.8410     0.2410 C.ar  1 <1>  -0.0090 
  6 C       -1.3070    -1.1680    -1.2010 C.3   1 <1>   0.1960 
  7 C       -3.0700     0.3940    -0.4150 C.3   1 <1>   0.1960 
  8 C        1.2000     2.0880    -0.3350 C.ar  1 <1>  -0.1440 
  9 C        1.9130    -0.1180     0.2840 C.ar  1 <1>  -0.1500 
 10 C       -2.0260    -2.4190    -0.6410 C.3   1 <1>   0.2000 
 11 C       -3.9800    -0.8340    -0.5720 C.3   1 <1>  -0.1600 
 12 C        2.4870     2.3140    -0.8300 C.ar  1 <1>  -0.1500 
 13 C        0.1720     3.2410    -0.4340 C.3   1 <1>   1.1640 
 14 C        3.1790     0.1200    -0.2130 C.ar  1 <1>  -0.1500 
 15 O       -2.2710    -3.2390    -1.7270 O.3   1 <1>  -0.6800 
 16 C       -3.3490    -2.0770     0.0750 C.3   1 <1>  -0.1860 
 17 C        3.4670     1.3440    -0.7730 C.ar  1 <1>  -0.1500 
 18 F       -1.0130     2.8800    -0.8970 F     1 <1>  -0.3400 
 19 F       -0.0260     3.8390     0.7310 F     1 <1>  -0.3400 
 20 F        0.5740     4.2050    -1.2550 F     1 <1>  -0.3400 
 21 C       -4.3390    -3.2240     0.2200 C.2   1 <1>   0.9060 
 22 O       -5.1030    -3.2090     1.1870 O.co2 1 <1>  -0.9000 
 23 O       -4.3770    -4.1210    -0.6340 O.co2 1 <1>  -0.9000 
 24 H       -1.6090    -1.0430    -2.2270 H     1 <1>   0.0800 
 25 H       -0.2460    -1.3420    -1.1980 H     1 <1>   0.0800 
 26 H       -3.2990     0.8570     0.5290 H     1 <1>   0.0800 
 27 H       -3.3170     1.1090    -1.1820 H     1 <1>   0.0800 
 28 H        1.7110    -1.0840     0.7180 H     1 <1>   0.1500 
 29 H       -1.3840    -2.9630     0.0310 H     1 <1>   0.0800 
 30 H       -4.9310    -0.6300    -0.1110 H     1 <1>   0.0800 
 31 H       -4.1640    -1.0280    -1.6150 H     1 <1>   0.0800 
 32 H        2.7560     3.2610    -1.2700 H     1 <1>   0.1500 
 33 H        3.9360    -0.6450    -0.1620 H     1 <1>   0.1500 
 34 H       -3.0940    -3.7750    -1.4840 H     1 <1>   0.4000 
 35 H       -3.0960    -1.8070     1.0830 H     1 <1>   0.0800 
 36 H        4.4510     1.5420    -1.1630 H     1 <1>   0.1500 
@<TRIPOS>BOND
  1   1   2  2   
  2   1   3  2   
  3   1   4  am  
  4   1   5  1   
  5   4   6  1   
  6   4   7  1   
  7   5   8  ar  
  8   5   9  ar  
  9   6  10  1   
 10   6  24  1   
 11   6  25  1   
 12   7  11  1   
 13   7  26  1   
 14   7  27  1   
 15   8  12  ar  
 16   8  13  1   
 17   9  14  ar  
 18   9  28  1   
 19  10  15  1   
 20  10  16  1   
 21  10  29  1   
 22  11  16  1   
 23  11  30  1   
 24  11  31  1   
 25  12  17  ar  
 26  12  32  1   
 27  13  18  1   
 28  13  19  1   
 29  13  20  1   
 30  14  17  ar  
 31  14  33  1   
 32  15  34  1   
 33  16  21  1   
 34  16  35  1   
 35  17  36  1   
 36  21  22  ar  
 37  21  23  ar  
@<TRIPOS>SUBSTRUCTURE
  1 ****   4 GROUP 4 **** **** 0

# MOE 2024.06 (io_trps.svl 2023.06)
