@<TRIPOS>MOLECULE
NONAME
56 58 1 0 0 
SMALL
USER_CHARGES


@<TRIPOS>ATOM
  1 O       -0.6380     0.6750     1.1190 O.2   1 <1>  -0.5700 
  2 C       -1.4760     1.0530     0.3220 C.2   1 <1>   0.5440 
  3 N       -1.2500     2.2170    -0.3890 N.am  1 <1>  -0.6600 
  4 C       -2.6860     0.2710     0.1550 C.ar  1 <1>   0.0860 
  5 C       -2.3200     2.9630    -1.1080 C.3   1 <1>   0.1400 
  6 C        0.0690     2.9080    -0.3480 C.3   1 <1>   0.1400 
  7 C       -3.5040    -0.0210     1.2450 C.ar  1 <1>  -0.1500 
  8 C       -3.0730    -0.2200    -1.0930 C.ar  1 <1>  -0.1500 
  9 C       -2.4900     4.3500    -0.4820 C.3   1 <1>  -0.1600 
 10 C       -0.0910     4.2900     0.2900 C.3   1 <1>  -0.1600 
 11 C       -4.6680    -0.7540     1.1020 C.ar  1 <1>  -0.1500 
 12 C       -4.2360    -0.9520    -1.2450 C.ar  1 <1>  -0.1500 
 13 C       -1.1590     5.1290    -0.4360 C.3   1 <1>  -0.0190 
 14 C       -5.0450    -1.2230    -0.1540 C.ar  1 <1>   0.0830 
 15 C       -1.3010     6.5090     0.2090 C.2   1 <1>   0.5690 
 16 O       -6.1670    -1.9410    -0.3850 O.3   1 <1>  -0.3630 
 17 O       -2.1320     6.6820     1.0680 O.2   1 <1>  -0.5700 
 18 N       -0.4510     7.4910    -0.2230 N.am  1 <1>  -0.4940 
 19 C       -7.0440    -2.3030     0.6580 C.3   1 <1>   0.0400 
 20 C       -0.2830     8.8380     0.1830 C.2   1 <1>  -0.0880 
 21 N       -1.2350     9.7070     0.6310 N.pl3 1 <1>   0.3140 
 22 C        0.8820     9.5310     0.1690 C.2   1 <1>  -0.1810 
 23 N       -0.7070    10.9220     0.8930 N.2   1 <1>  -0.7070 
 24 C       -2.6840     9.5090     0.7640 C.3   1 <1>   0.0160 
 25 C        0.5530    10.8070     0.6190 C.2   1 <1>   0.1080 
 26 C        2.2670     9.0550    -0.2360 C.3   1 <1>  -0.0590 
 27 C        1.5150    11.9690     0.7870 C.3   1 <1>   0.0210 
 28 C        1.6370    12.7790    -0.5080 C.3   1 <1>  -0.2400 
 29 H       -3.2590     2.4420    -1.0550 H     1 <1>   0.0800 
 30 H       -2.0460     3.0570    -2.1450 H     1 <1>   0.0800 
 31 H        0.4430     3.0050    -1.3520 H     1 <1>   0.0800 
 32 H        0.7860     2.3330     0.2140 H     1 <1>   0.0800 
 33 H       -3.2100     0.3360     2.2170 H     1 <1>   0.1500 
 34 H       -2.4490    -0.0240    -1.9460 H     1 <1>   0.1500 
 35 H       -2.8760     4.2290     0.5160 H     1 <1>   0.0800 
 36 H       -3.2170     4.9090    -1.0440 H     1 <1>   0.0800 
 37 H        0.8560     4.7990     0.2710 H     1 <1>   0.0800 
 38 H       -0.3700     4.1630     1.3230 H     1 <1>   0.0800 
 39 H       -5.2660    -0.9500     1.9710 H     1 <1>   0.1500 
 40 H       -4.5260    -1.3240    -2.2120 H     1 <1>   0.1500 
 41 H       -0.8370     5.2760    -1.4520 H     1 <1>   0.0800 
 42 H        0.2570     7.1800    -0.8840 H     1 <1>   0.3700 
 43 H       -7.8490    -2.8750     0.2330 H     1 <1>   0.0800 
 44 H       -7.4320    -1.4090     1.1130 H     1 <1>   0.0800 
 45 H       -6.5080    -2.9000     1.3730 H     1 <1>   0.0800 
 46 H       -3.0340     8.8830    -0.0340 H     1 <1>   0.0800 
 47 H       -3.1760    10.4620     0.7190 H     1 <1>   0.0800 
 48 H       -2.8860     9.0450     1.7100 H     1 <1>   0.0800 
 49 H        2.2520     8.0180    -0.5120 H     1 <1>   0.0800 
 50 H        2.9480     9.1780     0.5870 H     1 <1>   0.0800 
 51 H        2.6210     9.6320    -1.0710 H     1 <1>   0.0800 
 52 H        2.4800    11.6010     1.0830 H     1 <1>   0.0800 
 53 H        1.1500    12.6060     1.5730 H     1 <1>   0.0800 
 54 H        2.0090    12.1580    -1.3030 H     1 <1>   0.0800 
 55 H        2.3070    13.6070    -0.3670 H     1 <1>   0.0800 
 56 H        0.6700    13.1570    -0.7900 H     1 <1>   0.0800 
@<TRIPOS>BOND
  1   1   2  2   
  2   2   3  am  
  3   2   4  1   
  4   3   5  1   
  5   3   6  1   
  6   4   7  ar  
  7   4   8  ar  
  8   5   9  1   
  9   5  29  1   
 10   5  30  1   
 11   6  10  1   
 12   6  31  1   
 13   6  32  1   
 14   7  11  ar  
 15   7  33  1   
 16   8  12  ar  
 17   8  34  1   
 18   9  13  1   
 19   9  35  1   
 20   9  36  1   
 21  10  13  1   
 22  10  37  1   
 23  10  38  1   
 24  11  14  ar  
 25  11  39  1   
 26  12  14  ar  
 27  12  40  1   
 28  13  15  1   
 29  13  41  1   
 30  14  16  1   
 31  15  17  2   
 32  15  18  am  
 33  16  19  1   
 34  18  20  1   
 35  18  42  1   
 36  19  43  1   
 37  19  44  1   
 38  19  45  1   
 39  20  21  1   
 40  20  22  2   
 41  21  23  1   
 42  21  24  1   
 43  22  25  1   
 44  22  26  1   
 45  23  25  2   
 46  24  46  1   
 47  24  47  1   
 48  24  48  1   
 49  25  27  1   
 50  26  49  1   
 51  26  50  1   
 52  26  51  1   
 53  27  28  1   
 54  27  52  1   
 55  27  53  1   
 56  28  54  1   
 57  28  55  1   
 58  28  56  1   
@<TRIPOS>SUBSTRUCTURE
  1 ****  13 GROUP 4 **** **** 0

# MOE 2024.06 (io_trps.svl 2023.06)
