@<TRIPOS>MOLECULE
NONAME
50 54 1 0 0 
SMALL
USER_CHARGES


@<TRIPOS>ATOM
  1 S        1.0840     0.1060    -1.6900 S.3   1 <1>  -0.0800 
  2 C        1.4150     0.8180    -0.1320 C.2   1 <1>   0.1980 
  3 C        2.2370    -1.1380    -1.3320 C.2   1 <1>  -0.1100 
  4 N        2.2820     0.1940     0.5520 N.2   1 <1>  -0.5650 
  5 C        0.6600     2.0730     0.2380 C.3   1 <1>  -0.0600 
  6 C        2.7800    -0.9430    -0.1080 C.2   1 <1>   0.1410 
  7 C        3.7910    -1.7990     0.5110 C.2   1 <1>   0.7160 
  8 O        4.0000    -1.8060     1.7100 O.2   1 <1>  -0.5700 
  9 N        4.5340    -2.6490    -0.2680 N.am  1 <1>  -0.7300 
 10 C        5.6460    -3.4930     0.2310 C.3   1 <1>   0.1400 
 11 C        5.1020    -4.7810     0.8700 C.3   1 <1>  -0.0800 
 12 C        4.4360    -5.6880    -0.1760 C.3   1 <1>   0.2000 
 13 C        6.1700    -5.7450     1.4430 C.3   1 <1>  -0.0800 
 14 O        5.5280    -6.4000    -0.6200 O.3   1 <1>  -0.5600 
 15 C        3.6070    -6.8000     0.4850 C.3   1 <1>  -0.1600 
 16 C        5.9480    -6.9740     0.5640 C.3   1 <1>   0.2800 
 17 C        7.6770    -5.4360     1.3140 C.3   1 <1>   0.2090 
 18 C        4.7010    -7.7560     0.9760 C.3   1 <1>  -0.1600 
 19 C        7.3020    -7.6490     0.3980 C.3   1 <1>   0.2090 
 20 N        8.2840    -6.5250     0.4810 N.pl3 1 <1>  -0.8380 
 21 C        9.4160    -6.3260    -0.2370 C.ar  1 <1>   0.7710 
 22 N       10.1200    -5.2180    -0.0360 N.ar  1 <1>  -0.6200 
 23 N        9.7920    -7.2560    -1.1340 N.ar  1 <1>  -0.1790 
 24 C       11.2090    -5.0520    -0.7460 C.ar  1 <1>   0.4100 
 25 C       10.9130    -7.1090    -1.8840 C.ar  1 <1>   0.2110 
 26 N       11.8920    -3.9300    -0.5170 N.pl3 1 <1>  -0.9000 
 27 C       11.6480    -5.9870    -1.6960 C.ar  1 <1>  -0.1500 
 28 H        2.3910    -1.8970    -2.0750 H     1 <1>   0.1500 
 29 H        0.9600     2.4000     1.2160 H     1 <1>   0.0800 
 30 H       -0.3960     1.8740     0.2430 H     1 <1>   0.0800 
 31 H        0.8730     2.8500    -0.4720 H     1 <1>   0.0800 
 32 H        4.4500    -2.5770    -1.2810 H     1 <1>   0.3700 
 33 H        6.3040    -3.7310    -0.5880 H     1 <1>   0.0800 
 34 H        6.2000    -2.9320     0.9660 H     1 <1>   0.0800 
 35 H        4.3990    -4.5100     1.6380 H     1 <1>   0.0800 
 36 H        3.9380    -5.1800    -0.9840 H     1 <1>   0.0800 
 37 H        5.9550    -5.9720     2.4720 H     1 <1>   0.0800 
 38 H        2.9960    -6.4190     1.2850 H     1 <1>   0.0800 
 39 H        2.9780    -7.2770    -0.2460 H     1 <1>   0.0800 
 40 H        8.1330    -5.4410     2.2910 H     1 <1>   0.0800 
 41 H        7.8630    -4.4760     0.8680 H     1 <1>   0.0800 
 42 H        4.6550    -8.6950     0.4530 H     1 <1>   0.0800 
 43 H        4.6580    -7.9280     2.0380 H     1 <1>   0.0800 
 44 H        7.3340    -8.1820    -0.5350 H     1 <1>   0.0800 
 45 H        7.4670    -8.3280     1.2190 H     1 <1>   0.0800 
 46 H        9.1750    -8.0550    -1.2180 H     1 <1>   0.4570 
 47 H       11.1790    -7.8750    -2.5960 H     1 <1>   0.1500 
 48 H       11.5610    -3.2670     0.1900 H     1 <1>   0.4000 
 49 H       12.7590    -3.6540    -0.9840 H     1 <1>   0.4000 
 50 H       12.5490    -5.7880    -2.2460 H     1 <1>   0.1500 
@<TRIPOS>BOND
  1   1   2  1   
  2   1   3  1   
  3   2   4  2   
  4   2   5  1   
  5   3   6  2   
  6   3  28  1   
  7   4   6  1   
  8   5  29  1   
  9   5  30  1   
 10   5  31  1   
 11   6   7  1   
 12   7   8  2   
 13   7   9  am  
 14   9  10  1   
 15   9  32  1   
 16  10  11  1   
 17  10  33  1   
 18  10  34  1   
 19  11  12  1   
 20  11  13  1   
 21  11  35  1   
 22  12  14  1   
 23  12  15  1   
 24  12  36  1   
 25  13  16  1   
 26  13  17  1   
 27  13  37  1   
 28  14  16  1   
 29  15  18  1   
 30  15  38  1   
 31  15  39  1   
 32  16  18  1   
 33  16  19  1   
 34  17  20  1   
 35  17  40  1   
 36  17  41  1   
 37  18  42  1   
 38  18  43  1   
 39  19  20  1   
 40  19  44  1   
 41  19  45  1   
 42  20  21  1   
 43  21  22  ar  
 44  21  23  ar  
 45  22  24  ar  
 46  23  25  ar  
 47  23  46  1   
 48  24  26  1   
 49  24  27  ar  
 50  25  27  ar  
 51  25  47  1   
 52  26  48  1   
 53  26  49  1   
 54  27  50  1   
@<TRIPOS>SUBSTRUCTURE
  1 ****  10 GROUP 4 **** **** 0

# MOE 2024.06 (io_trps.svl 2023.06)
