@<TRIPOS>MOLECULE
NONAME
44 46 1 0 0 
SMALL
USER_CHARGES


@<TRIPOS>ATOM
  1 O       -0.4770    -1.0970     0.2020 O.3   1 <1>  -0.5600 
  2 C        0.5970    -1.8750     0.6500 C.3   1 <1>   0.2000 
  3 C       -1.4550    -0.8320     1.1570 C.3   1 <1>   0.0400 
  4 C        1.8360    -1.6090    -0.2290 C.3   1 <1>   0.0000 
  5 C        0.2540    -3.3510     0.4150 C.3   1 <1>  -0.1600 
  6 C        3.0920    -2.1130     0.5210 C.3   1 <1>   0.2090 
  7 C        2.0260    -0.1130    -0.5850 C.3   1 <1>  -0.1600 
  8 C        1.5650    -2.4770    -1.4720 C.3   1 <1>  -0.1600 
  9 C        0.7960    -3.7070    -0.9770 C.3   1 <1>  -0.1600 
 10 N        4.3360    -1.8450    -0.2520 N.pl3 1 <1>  -0.8380 
 11 C        3.3490     0.1360    -1.3300 C.3   1 <1>  -0.1600 
 12 C        5.4270    -2.6480    -0.0040 C.ar  1 <1>   0.4100 
 13 C        4.5520    -0.4080    -0.5550 C.3   1 <1>   0.2090 
 14 N        6.4660    -2.0990     0.6120 N.ar  1 <1>  -0.6200 
 15 C        5.3980    -3.9850    -0.3890 C.ar  1 <1>  -0.1500 
 16 C        7.4870    -2.9040     0.8480 C.ar  1 <1>   0.1600 
 17 C        6.4700    -4.8050    -0.1310 C.ar  1 <1>  -0.1500 
 18 C        7.5710    -4.2570     0.5160 C.ar  1 <1>   0.0280 
 19 C        8.7510    -5.0310     0.8360 C.2   1 <1>  -0.1780 
 20 C        8.9870    -6.3320     0.5960 C.2   1 <1>  -0.3000 
 21 H        0.7880    -1.6490     1.6860 H     1 <1>   0.0800 
 22 H       -2.2350    -0.2620     0.6850 H     1 <1>   0.0800 
 23 H       -1.0210    -0.2580     1.9570 H     1 <1>   0.0800 
 24 H       -1.8570    -1.7580     1.5280 H     1 <1>   0.0800 
 25 H        0.7590    -3.9500     1.1510 H     1 <1>   0.0800 
 26 H       -0.8020    -3.5380     0.4880 H     1 <1>   0.0800 
 27 H        3.0130    -3.1680     0.7160 H     1 <1>   0.0800 
 28 H        3.1700    -1.6090     1.4690 H     1 <1>   0.0800 
 29 H        1.2070     0.2320    -1.1920 H     1 <1>   0.0800 
 30 H        2.0220     0.4640     0.3220 H     1 <1>   0.0800 
 31 H        0.9330    -1.9320    -2.1510 H     1 <1>   0.0800 
 32 H        2.4680    -2.7480    -1.9900 H     1 <1>   0.0800 
 33 H        1.4520    -4.5580    -0.9120 H     1 <1>   0.0800 
 34 H       -0.0090    -3.9380    -1.6540 H     1 <1>   0.0800 
 35 H        3.4800     1.1920    -1.4870 H     1 <1>   0.0800 
 36 H        3.3200    -0.3360    -2.2950 H     1 <1>   0.0800 
 37 H        4.6790     0.1330     0.3670 H     1 <1>   0.0800 
 38 H        5.4480    -0.2940    -1.1410 H     1 <1>   0.0800 
 39 H        4.5260    -4.3540    -0.8930 H     1 <1>   0.1500 
 40 H        8.3290    -2.4600     1.3470 H     1 <1>   0.1500 
 41 H        6.4530    -5.8360    -0.4270 H     1 <1>   0.1500 
 42 H        9.5190    -4.4580     1.3290 H     1 <1>   0.1500 
 43 H        9.9000    -6.8300     0.8710 H     1 <1>   0.1500 
 44 H        8.2990    -7.0020     0.1130 H     1 <1>   0.1500 
@<TRIPOS>BOND
  1   1   2  1   
  2   1   3  1   
  3   2   4  1   
  4   2   5  1   
  5   2  21  1   
  6   3  22  1   
  7   3  23  1   
  8   3  24  1   
  9   4   6  1   
 10   4   7  1   
 11   4   8  1   
 12   5   9  1   
 13   5  25  1   
 14   5  26  1   
 15   6  10  1   
 16   6  27  1   
 17   6  28  1   
 18   7  11  1   
 19   7  29  1   
 20   7  30  1   
 21   8   9  1   
 22   8  31  1   
 23   8  32  1   
 24   9  33  1   
 25   9  34  1   
 26  10  12  1   
 27  10  13  1   
 28  11  13  1   
 29  11  35  1   
 30  11  36  1   
 31  12  14  ar  
 32  12  15  ar  
 33  13  37  1   
 34  13  38  1   
 35  14  16  ar  
 36  15  17  ar  
 37  15  39  1   
 38  16  18  ar  
 39  16  40  1   
 40  17  18  ar  
 41  17  41  1   
 42  18  19  1   
 43  19  20  2   
 44  19  42  1   
 45  20  43  1   
 46  20  44  1   
@<TRIPOS>SUBSTRUCTURE
  1 ****  10 GROUP 4 **** **** 0

# MOE 2024.06 (io_trps.svl 2023.06)
