@<TRIPOS>MOLECULE
NONAME
57 60 1 0 0 
SMALL
USER_CHARGES


@<TRIPOS>ATOM
  1 F        2.9550     0.8470    -2.0890 F     1 <1>  -0.1900 
  2 C        2.8350     1.1200    -0.8160 C.ar  1 <1>   0.1900 
  3 C        2.6270     0.0850     0.0840 C.ar  1 <1>  -0.1440 
  4 C        2.9290     2.4420    -0.4260 C.ar  1 <1>  -0.1500 
  5 C        2.5180     0.4140     1.4290 C.ar  1 <1>  -0.1500 
  6 C        2.5380    -1.3570    -0.4000 C.3   1 <1>   0.2640 
  7 C        2.8140     2.7500     0.9190 C.ar  1 <1>  -0.1500 
  8 C        2.6100     1.7360     1.8420 C.ar  1 <1>  -0.1500 
  9 O        1.6540    -2.0900     0.4240 O.3   1 <1>  -0.3620 
 10 C        1.4230    -3.4060     0.2220 C.ar  1 <1>   0.0830 
 11 C        0.5730    -4.0370     1.1150 C.ar  1 <1>  -0.1500 
 12 C        1.9860    -4.1460    -0.8130 C.ar  1 <1>  -0.1500 
 13 C        0.2870    -5.3820     0.9810 C.ar  1 <1>  -0.1500 
 14 C        1.6910    -5.4910    -0.9400 C.ar  1 <1>  -0.1500 
 15 C        0.8350    -6.1470    -0.0530 C.ar  1 <1>   0.0860 
 16 C        0.5350    -7.5620    -0.2050 C.2   1 <1>   0.5440 
 17 O        1.2330    -8.2740    -0.9050 O.2   1 <1>  -0.5700 
 18 N       -0.5290    -8.1470     0.4400 N.am  1 <1>  -0.6600 
 19 C       -1.8690    -8.1850    -0.2090 C.3   1 <1>   0.2200 
 20 C       -0.2370    -9.3420     1.2790 C.3   1 <1>   0.0600 
 21 C       -2.9940    -8.0990     0.8190 C.3   1 <1>  -0.1600 
 22 C       -2.1610    -7.0100    -1.1420 C.3   1 <1>  -0.1600 
 23 C       -4.2290    -7.6630     0.0190 C.3   1 <1>  -0.0800 
 24 C       -3.6890    -6.9790    -1.2570 C.3   1 <1>  -0.0800 
 25 C       -5.2080    -6.8100     0.8470 C.3   1 <1>   0.1400 
 26 C       -4.2540    -5.5660    -1.4940 C.3   1 <1>  -0.0990 
 27 N       -6.1750    -6.1350    -0.0540 N.am  1 <1>  -0.6600 
 28 C       -5.7410    -5.5260    -1.2000 C.2   1 <1>   0.5690 
 29 C       -7.6010    -6.1290     0.3690 C.3   1 <1>   0.0600 
 30 O       -6.4780    -4.9620    -1.9720 O.2   1 <1>  -0.5700 
 31 H        3.0890     3.2110    -1.1600 H     1 <1>   0.1500 
 32 H        2.3590    -0.3580     2.1630 H     1 <1>   0.1500 
 33 H        3.5080    -1.8190    -0.3520 H     1 <1>   0.0800 
 34 H        2.1600    -1.3990    -1.4060 H     1 <1>   0.0800 
 35 H        2.8840     3.7730     1.2480 H     1 <1>   0.1500 
 36 H        2.5210     1.9740     2.8870 H     1 <1>   0.1500 
 37 H        0.1400    -3.4640     1.9150 H     1 <1>   0.1500 
 38 H        2.6520    -3.6980    -1.5260 H     1 <1>   0.1500 
 39 H       -0.3720    -5.8530     1.6890 H     1 <1>   0.1500 
 40 H        2.1330    -6.0560    -1.7440 H     1 <1>   0.1500 
 41 H       -1.9650    -9.1010    -0.7680 H     1 <1>   0.0800 
 42 H       -0.8250    -9.3140     2.1790 H     1 <1>   0.0800 
 43 H        0.8060    -9.3570     1.5480 H     1 <1>   0.0800 
 44 H       -0.4600   -10.2400     0.7290 H     1 <1>   0.0800 
 45 H       -3.1590    -9.0420     1.3080 H     1 <1>   0.0800 
 46 H       -2.7420    -7.3490     1.5490 H     1 <1>   0.0800 
 47 H       -1.8230    -6.0950    -0.6920 H     1 <1>   0.0800 
 48 H       -1.6920    -7.1390    -2.1020 H     1 <1>   0.0800 
 49 H       -4.7570    -8.5510    -0.2890 H     1 <1>   0.0800 
 50 H       -3.9780    -7.5930    -2.0950 H     1 <1>   0.0800 
 51 H       -4.6710    -6.0540     1.3950 H     1 <1>   0.0800 
 52 H       -5.7280    -7.4350     1.5520 H     1 <1>   0.0800 
 53 H       -4.0790    -5.2640    -2.5110 H     1 <1>   0.0800 
 54 H       -3.7780    -4.8540    -0.8460 H     1 <1>   0.0800 
 55 H       -7.6940    -5.6530     1.3300 H     1 <1>   0.0800 
 56 H       -7.9660    -7.1390     0.4330 H     1 <1>   0.0800 
 57 H       -8.2030    -5.5900    -0.3420 H     1 <1>   0.0800 
@<TRIPOS>BOND
  1   1   2  1   
  2   2   3  ar  
  3   2   4  ar  
  4   3   5  ar  
  5   3   6  1   
  6   4   7  ar  
  7   4  31  1   
  8   5   8  ar  
  9   5  32  1   
 10   6   9  1   
 11   6  33  1   
 12   6  34  1   
 13   7   8  ar  
 14   7  35  1   
 15   8  36  1   
 16   9  10  1   
 17  10  11  ar  
 18  10  12  ar  
 19  11  13  ar  
 20  11  37  1   
 21  12  14  ar  
 22  12  38  1   
 23  13  15  ar  
 24  13  39  1   
 25  14  15  ar  
 26  14  40  1   
 27  15  16  1   
 28  16  17  2   
 29  16  18  am  
 30  18  19  1   
 31  18  20  1   
 32  19  21  1   
 33  19  22  1   
 34  19  41  1   
 35  20  42  1   
 36  20  43  1   
 37  20  44  1   
 38  21  23  1   
 39  21  45  1   
 40  21  46  1   
 41  22  24  1   
 42  22  47  1   
 43  22  48  1   
 44  23  24  1   
 45  23  25  1   
 46  23  49  1   
 47  24  26  1   
 48  24  50  1   
 49  25  27  1   
 50  25  51  1   
 51  25  52  1   
 52  26  28  1   
 53  26  53  1   
 54  26  54  1   
 55  27  28  am  
 56  27  29  1   
 57  28  30  2   
 58  29  55  1   
 59  29  56  1   
 60  29  57  1   
@<TRIPOS>SUBSTRUCTURE
  1 ****  11 GROUP 4 **** **** 0

# MOE 2024.06 (io_trps.svl 2023.06)
