@<TRIPOS>MOLECULE
NONAME
41 43 1 0 0 
SMALL
USER_CHARGES


@<TRIPOS>ATOM
  1 O        1.6700    -1.5690     2.5310 O.2   1 <1>  -0.5700 
  2 C        0.9490    -2.1610     1.7530 C.2   1 <1>   0.5440 
  3 N       -0.2210    -2.5900     2.2710 N.am  1 <1>  -0.8000 
  4 C        1.3360    -2.3760     0.3700 C.ar  1 <1>   0.0860 
  5 C        0.6230    -3.1980    -0.5360 C.ar  1 <1>   0.4100 
  6 C        2.4770    -1.7460    -0.1180 C.ar  1 <1>  -0.1500 
  7 N        0.9840    -3.3890    -1.8070 N.ar  1 <1>  -0.6200 
  8 N       -0.5160    -3.9010    -0.1790 N.pl3 1 <1>  -0.8380 
  9 C        2.8440    -1.9460    -1.4270 C.ar  1 <1>  -0.1500 
 10 C        2.0690    -2.7690    -2.2200 C.ar  1 <1>   0.1600 
 11 C       -1.7540    -3.6660    -0.9830 C.3   1 <1>   0.2090 
 12 C       -0.3440    -5.3700     0.0190 C.3   1 <1>   0.2090 
 13 C       -2.1570    -5.0360    -1.5230 C.3   1 <1>   0.2000 
 14 C       -1.6230    -6.0260    -0.4970 C.3   1 <1>  -0.0800 
 15 O       -3.5340    -5.1680    -1.6460 O.3   1 <1>  -0.6800 
 16 C       -1.4010    -7.4340    -1.0720 C.3   1 <1>   0.0210 
 17 C       -0.7200    -8.3500    -0.0710 C.2   1 <1>   0.1080 
 18 N       -1.0460    -8.4030     1.1850 N.2   1 <1>  -0.7070 
 19 C        0.3200    -9.2200    -0.3790 C.2   1 <1>  -0.1500 
 20 N       -0.2160    -9.3220     1.7130 N.pl3 1 <1>   0.3000 
 21 C        0.6230    -9.8300     0.7860 C.2   1 <1>  -0.3320 
 22 C        1.6760   -10.8840     1.0740 C.3   1 <1>  -0.0600 
 23 H       -0.4160    -2.4970     3.2660 H     1 <1>   0.3700 
 24 H       -0.8170    -3.2020     1.6990 H     1 <1>   0.3700 
 25 H        3.0640    -1.1090     0.5230 H     1 <1>   0.1500 
 26 H        3.7200    -1.4720    -1.8310 H     1 <1>   0.1500 
 27 H        2.3600    -2.9230    -3.2450 H     1 <1>   0.1500 
 28 H       -2.5190    -3.2730    -0.3370 H     1 <1>   0.0800 
 29 H       -1.5750    -2.9770    -1.7910 H     1 <1>   0.0800 
 30 H        0.5080    -5.7150    -0.5430 H     1 <1>   0.0800 
 31 H       -0.1890    -5.6000     1.0600 H     1 <1>   0.0800 
 32 H       -1.7080    -5.1850    -2.4900 H     1 <1>   0.0800 
 33 H       -2.3020    -6.0870     0.3350 H     1 <1>   0.0800 
 34 H       -3.9540    -5.1790    -0.7650 H     1 <1>   0.4000 
 35 H       -0.7980    -7.3740    -1.9600 H     1 <1>   0.0800 
 36 H       -2.3500    -7.8630    -1.3410 H     1 <1>   0.0800 
 37 H        0.7670    -9.3570    -1.3480 H     1 <1>   0.1500 
 38 H       -0.2470    -9.5810     2.7070 H     1 <1>   0.2700 
 39 H        2.2120   -11.1260     0.1730 H     1 <1>   0.0800 
 40 H        1.2130   -11.7800     1.4480 H     1 <1>   0.0800 
 41 H        2.3780   -10.5200     1.8020 H     1 <1>   0.0800 
@<TRIPOS>BOND
  1   1   2  2   
  2   2   3  am  
  3   2   4  1   
  4   3  23  1   
  5   3  24  1   
  6   4   5  ar  
  7   4   6  ar  
  8   5   7  ar  
  9   5   8  1   
 10   6   9  ar  
 11   6  25  1   
 12   7  10  ar  
 13   8  11  1   
 14   8  12  1   
 15   9  10  ar  
 16   9  26  1   
 17  10  27  1   
 18  11  13  1   
 19  11  28  1   
 20  11  29  1   
 21  12  14  1   
 22  12  30  1   
 23  12  31  1   
 24  13  14  1   
 25  13  15  1   
 26  13  32  1   
 27  14  16  1   
 28  14  33  1   
 29  15  34  1   
 30  16  17  1   
 31  16  35  1   
 32  16  36  1   
 33  17  18  2   
 34  17  19  1   
 35  18  20  1   
 36  19  21  2   
 37  19  37  1   
 38  20  21  1   
 39  20  38  1   
 40  21  22  1   
 41  22  39  1   
 42  22  40  1   
 43  22  41  1   
@<TRIPOS>SUBSTRUCTURE
  1 ****  12 GROUP 4 **** **** 0

# MOE 2024.06 (io_trps.svl 2023.06)
