@<TRIPOS>MOLECULE
NONAME
50 54 1 0 0 
SMALL
USER_CHARGES


@<TRIPOS>ATOM
  1 S       -0.3270    -0.3760     0.2630 S.3   1 <1>  -0.0800 
  2 C       -1.7250    -0.8220    -0.7130 C.2   1 <1>  -0.0450 
  3 C       -0.8590     1.2920     0.4690 C.2   1 <1>  -0.0450 
  4 C       -1.8250    -2.1730    -1.2100 C.2   1 <1>   0.7150 
  5 C       -2.5140     0.2770    -0.8440 C.2   1 <1>  -0.1500 
  6 C       -0.0730     2.2220     1.2280 C.2   1 <1>   0.5940 
  7 C       -2.0390     1.4410    -0.1880 C.2   1 <1>  -0.1500 
  8 O       -0.8200    -2.8430    -1.3700 O.2   1 <1>  -0.5700 
  9 N       -3.0440    -2.7420    -1.5180 N.am  1 <1>  -0.6600 
 10 O       -0.4140     3.3640     1.4070 O.2   1 <1>  -0.5700 
 11 C        1.2410     1.7890     1.8440 C.3   1 <1>  -0.1790 
 12 C       -4.2890    -2.4750    -0.7490 C.3   1 <1>   0.1400 
 13 C       -3.1470    -3.8960    -2.4550 C.3   1 <1>   0.1400 
 14 C       -4.6560    -3.7250     0.0540 C.3   1 <1>  -0.1600 
 15 C       -3.5060    -5.1570    -1.6700 C.3   1 <1>  -0.1600 
 16 C       -4.7820    -4.9630    -0.8450 C.3   1 <1>   0.4600 
 17 O       -5.8270    -4.7540    -1.7710 O.3   1 <1>  -0.5600 
 18 C       -5.0750    -6.2120    -0.0250 C.2   1 <1>  -0.3320 
 19 C       -7.1490    -4.9920    -1.3470 C.3   1 <1>   0.1200 
 20 N       -4.2320    -6.8140     0.8690 N.pl3 1 <1>   0.0330 
 21 C       -6.2310    -6.9030    -0.0800 C.2   1 <1>  -0.1810 
 22 C       -7.3600    -6.4710    -0.9820 C.3   1 <1>   0.0210 
 23 C       -4.8760    -7.9130     1.3850 C.ar  1 <1>  -0.1520 
 24 C       -6.1390    -7.9980     0.8040 C.ar  1 <1>   0.0000 
 25 C       -4.4550    -8.8570     2.3240 C.ar  1 <1>  -0.1500 
 26 C       -6.9970    -9.0420     1.1630 C.ar  1 <1>  -0.1500 
 27 C       -5.3100    -9.8790     2.6690 C.ar  1 <1>  -0.1500 
 28 C       -6.5810    -9.9710     2.0890 C.ar  1 <1>  -0.1500 
 29 H       -3.4310     0.2990    -1.4060 H     1 <1>   0.1500 
 30 H       -2.5860     2.3680    -0.2250 H     1 <1>   0.1500 
 31 H        1.0700     1.0040     2.5560 H     1 <1>   0.0800 
 32 H        1.7000     2.6200     2.3480 H     1 <1>   0.0800 
 33 H        1.9070     1.4400     1.0770 H     1 <1>   0.0800 
 34 H       -5.0830    -2.2300    -1.4350 H     1 <1>   0.0800 
 35 H       -4.1550    -1.6510    -0.0730 H     1 <1>   0.0800 
 36 H       -2.2180    -4.0430    -2.9790 H     1 <1>   0.0800 
 37 H       -3.9120    -3.6890    -3.1850 H     1 <1>   0.0800 
 38 H       -5.5710    -3.5650     0.5910 H     1 <1>   0.0800 
 39 H       -3.8880    -3.8980     0.7840 H     1 <1>   0.0800 
 40 H       -2.6840    -5.3980    -1.0230 H     1 <1>   0.0800 
 41 H       -3.6450    -5.9820    -2.3430 H     1 <1>   0.0800 
 42 H       -7.8070    -4.7110    -2.1500 H     1 <1>   0.0800 
 43 H       -7.3540    -4.3670    -0.4970 H     1 <1>   0.0800 
 44 H       -3.2800    -6.5210     1.1080 H     1 <1>   0.2700 
 45 H       -7.3630    -7.0730    -1.8720 H     1 <1>   0.0800 
 46 H       -8.3020    -6.5910    -0.4800 H     1 <1>   0.0800 
 47 H       -3.4770    -8.7800     2.7640 H     1 <1>   0.1500 
 48 H       -7.9680    -9.1000     0.7090 H     1 <1>   0.1500 
 49 H       -5.0090   -10.6190     3.3900 H     1 <1>   0.1500 
 50 H       -7.2300   -10.7800     2.3750 H     1 <1>   0.1500 
@<TRIPOS>BOND
  1   1   2  1   
  2   1   3  1   
  3   2   4  1   
  4   2   5  2   
  5   3   6  1   
  6   3   7  2   
  7   4   8  2   
  8   4   9  am  
  9   5   7  1   
 10   5  29  1   
 11   6  10  2   
 12   6  11  1   
 13   7  30  1   
 14   9  12  1   
 15   9  13  1   
 16  11  31  1   
 17  11  32  1   
 18  11  33  1   
 19  12  14  1   
 20  12  34  1   
 21  12  35  1   
 22  13  15  1   
 23  13  36  1   
 24  13  37  1   
 25  14  16  1   
 26  14  38  1   
 27  14  39  1   
 28  15  16  1   
 29  15  40  1   
 30  15  41  1   
 31  16  17  1   
 32  16  18  1   
 33  17  19  1   
 34  18  20  1   
 35  18  21  2   
 36  19  22  1   
 37  19  42  1   
 38  19  43  1   
 39  20  23  1   
 40  20  44  1   
 41  21  22  1   
 42  21  24  1   
 43  22  45  1   
 44  22  46  1   
 45  23  24  ar  
 46  23  25  ar  
 47  24  26  ar  
 48  25  27  ar  
 49  25  47  1   
 50  26  28  ar  
 51  26  48  1   
 52  27  28  ar  
 53  27  49  1   
 54  28  50  1   
@<TRIPOS>SUBSTRUCTURE
  1 ****  14 GROUP 4 **** **** 0

# MOE 2024.06 (io_trps.svl 2023.06)
