@<TRIPOS>MOLECULE
NONAME
39 40 1 0 0 
SMALL
USER_CHARGES


@<TRIPOS>ATOM
  1 O        0.4580     1.2040     0.2540 O.2   1 <1>  -0.5700 
  2 C        1.2950     0.3380     0.4250 C.2   1 <1>   0.7150 
  3 N        2.2530     0.5380     1.3630 N.am  1 <1>  -0.7300 
  4 C        1.3420    -0.8590    -0.3670 C.2   1 <1>  -0.2370 
  5 C        2.4430     1.7700     2.1420 C.3   1 <1>   0.4000 
  6 N        0.8510    -0.9620    -1.6470 N.pl3 1 <1>   0.0480 
  7 C        1.8780    -2.0780    -0.0330 C.2   1 <1>  -0.1500 
  8 C        3.8070     2.3880     1.8190 C.2   1 <1>   0.0070 
  9 C        2.2810     1.3990     3.6160 C.3   1 <1>  -0.2400 
 10 C        1.0850    -2.2220    -2.0860 C.2   1 <1>  -0.3020 
 11 C        0.2110     0.0990    -2.4500 C.3   1 <1>   0.0160 
 12 C        1.7140    -2.9350    -1.1160 C.2   1 <1>  -0.1500 
 13 N        4.7090     2.6620     2.7040 N.2   1 <1>  -0.3380 
 14 N        4.2260     2.7300     0.5870 N.pl3 1 <1>   0.0480 
 15 N        5.7490     3.1950     2.0670 N.2   1 <1>  -0.3380 
 16 C        5.4430     3.2240     0.8190 C.2   1 <1>   0.0360 
 17 C        3.5970     2.6040    -0.7470 C.3   1 <1>   0.0960 
 18 C        2.4380     3.5840    -0.9070 C.3   1 <1>   0.1200 
 19 O        1.9130     3.4080    -2.1830 O.3   1 <1>  -0.5600 
 20 C        0.7170     4.0880    -2.3940 C.3   1 <1>   0.0400 
 21 H        2.9750    -0.1690     1.4880 H     1 <1>   0.3700 
 22 H        1.6780     2.4860     1.8930 H     1 <1>   0.0800 
 23 H        2.3430    -2.3570     0.8970 H     1 <1>   0.1500 
 24 H        3.0390     0.6970     3.9140 H     1 <1>   0.0800 
 25 H        1.3080     0.9770     3.7880 H     1 <1>   0.0800 
 26 H        2.3810     2.2810     4.2220 H     1 <1>   0.0800 
 27 H        0.7940    -2.5570    -3.0660 H     1 <1>   0.1500 
 28 H        0.8640     0.9520    -2.4990 H     1 <1>   0.0800 
 29 H       -0.7150     0.3850    -1.9850 H     1 <1>   0.0800 
 30 H        0.0180    -0.2610    -3.4430 H     1 <1>   0.0800 
 31 H        2.0310    -3.9630    -1.1570 H     1 <1>   0.1500 
 32 H        6.0850     3.5990     0.0430 H     1 <1>   0.1500 
 33 H        3.2510     1.5980    -0.8820 H     1 <1>   0.0800 
 34 H        4.3370     2.8110    -1.4980 H     1 <1>   0.0800 
 35 H        2.7790     4.6010    -0.8180 H     1 <1>   0.0800 
 36 H        1.6650     3.3850    -0.1860 H     1 <1>   0.0800 
 37 H        0.4060     3.9140    -3.4090 H     1 <1>   0.0800 
 38 H        0.8740     5.1420    -2.2380 H     1 <1>   0.0800 
 39 H       -0.0300     3.7110    -1.7160 H     1 <1>   0.0800 
@<TRIPOS>BOND
  1   1   2  2   
  2   2   3  am  
  3   2   4  1   
  4   3   5  1   
  5   3  21  1   
  6   4   6  1   
  7   4   7  2   
  8   5   8  1   
  9   5   9  1   
 10   5  22  1   
 11   6  10  1   
 12   6  11  1   
 13   7  12  1   
 14   7  23  1   
 15   8  13  2   
 16   8  14  1   
 17   9  24  1   
 18   9  25  1   
 19   9  26  1   
 20  10  12  2   
 21  10  27  1   
 22  11  28  1   
 23  11  29  1   
 24  11  30  1   
 25  12  31  1   
 26  13  15  1   
 27  14  16  1   
 28  14  17  1   
 29  15  16  2   
 30  16  32  1   
 31  17  18  1   
 32  17  33  1   
 33  17  34  1   
 34  18  19  1   
 35  18  35  1   
 36  18  36  1   
 37  19  20  1   
 38  20  37  1   
 39  20  38  1   
 40  20  39  1   
@<TRIPOS>SUBSTRUCTURE
  1 ****   3 GROUP 4 **** **** 0

# MOE 2024.06 (io_trps.svl 2023.06)
