@<TRIPOS>MOLECULE
NONAME
53 55 1 0 0 
SMALL
USER_CHARGES


@<TRIPOS>ATOM
  1 O       -0.6880     1.5330    -2.2470 O.2   1 <1>  -0.5700 
  2 C       -1.3220     1.9090    -1.2730 C.2   1 <1>   0.5440 
  3 N       -2.5650     1.3240    -1.0660 N.am  1 <1>  -0.6600 
  4 C       -0.7400     2.9520    -0.4230 C.ar  1 <1>   0.3960 
  5 C       -2.8810     0.0510    -1.7980 C.3   1 <1>   0.1400 
  6 C       -3.6100     1.9260    -0.1840 C.3   1 <1>   0.1400 
  7 N       -0.8340     2.9020     0.9080 N.ar  1 <1>  -0.6200 
  8 C       -0.0600     4.0030    -1.0110 C.ar  1 <1>  -0.1500 
  9 C       -4.0850    -0.7580    -1.2670 C.3   1 <1>   0.1400 
 10 C       -4.8460     2.3680    -0.9770 C.3   1 <1>  -0.1600 
 11 C       -0.2690     3.8840     1.5790 C.ar  1 <1>   0.4770 
 12 C        0.4870     4.9730    -0.2120 C.ar  1 <1>   0.1660 
 13 N       -5.4110    -0.0420    -1.2530 N.am  1 <1>  -0.6600 
 14 C       -5.4500     1.3060    -1.9000 C.3   1 <1>   0.1400 
 15 N        0.3830     4.9230     1.0930 N.ar  1 <1>  -0.6200 
 16 C       -0.3730     3.8220     3.0830 C.3   1 <1>  -0.0970 
 17 C        1.2420     6.1480    -0.7970 C.3   1 <1>  -0.0970 
 18 C       -6.5490    -0.5620    -0.6800 C.2   1 <1>   0.5690 
 19 O       -7.5800     0.0710    -0.6130 O.2   1 <1>  -0.5700 
 20 C       -6.5910    -1.9850    -0.0700 C.3   1 <1>   0.4840 
 21 N       -7.7430    -2.1850     0.8760 N.4   1 <1>  -0.9590 
 22 C       -6.8150    -3.0680    -1.1200 C.3   1 <1>  -0.1600 
 23 C       -8.1840    -3.6050     0.8230 C.3   1 <1>   0.3430 
 24 C       -7.4810    -1.6700     2.2510 C.3   1 <1>   0.2630 
 25 C       -7.4410    -4.2310    -0.3520 C.3   1 <1>  -0.1600 
 26 H       -3.0250     0.2750    -2.8400 H     1 <1>   0.0800 
 27 H       -2.0120    -0.5840    -1.7460 H     1 <1>   0.0800 
 28 H       -3.8870     1.2140     0.5730 H     1 <1>   0.0800 
 29 H       -3.2290     2.7910     0.3270 H     1 <1>   0.0800 
 30 H        0.0330     4.0440    -2.0800 H     1 <1>   0.1500 
 31 H       -3.8450    -1.0840    -0.2700 H     1 <1>   0.0800 
 32 H       -4.1780    -1.6340    -1.8850 H     1 <1>   0.0800 
 33 H       -5.6010     2.6750    -0.2760 H     1 <1>   0.0800 
 34 H       -4.5960     3.2340    -1.5630 H     1 <1>   0.0800 
 35 H       -4.9160     1.2800    -2.8340 H     1 <1>   0.0800 
 36 H       -6.4640     1.5830    -2.1360 H     1 <1>   0.0800 
 37 H       -0.7500     4.7560     3.4570 H     1 <1>   0.0800 
 38 H        0.6000     3.6450     3.4990 H     1 <1>   0.0800 
 39 H       -1.0340     3.0310     3.3860 H     1 <1>   0.0800 
 40 H        1.2700     6.0950    -1.8700 H     1 <1>   0.0800 
 41 H        2.2490     6.1500    -0.4220 H     1 <1>   0.0800 
 42 H        0.7630     7.0640    -0.5050 H     1 <1>   0.0800 
 43 H       -5.6690    -2.1810     0.4490 H     1 <1>   0.0800 
 44 H       -8.4800    -1.5860     0.4570 H     1 <1>   0.4500 
 45 H       -7.5050    -2.7070    -1.8650 H     1 <1>   0.0800 
 46 H       -5.8990    -3.3500    -1.6080 H     1 <1>   0.0800 
 47 H       -7.9360    -4.1220     1.7360 H     1 <1>   0.0800 
 48 H       -9.2510    -3.6550     0.6670 H     1 <1>   0.0800 
 49 H       -6.6760    -2.2180     2.7120 H     1 <1>   0.0800 
 50 H       -8.3640    -1.7720     2.8610 H     1 <1>   0.0800 
 51 H       -7.2150    -0.6250     2.2110 H     1 <1>   0.0800 
 52 H       -6.6730    -4.8820     0.0290 H     1 <1>   0.0800 
 53 H       -8.1030    -4.8120    -0.9700 H     1 <1>   0.0800 
@<TRIPOS>BOND
  1   1   2  2   
  2   2   3  am  
  3   2   4  1   
  4   3   5  1   
  5   3   6  1   
  6   4   7  ar  
  7   4   8  ar  
  8   5   9  1   
  9   5  26  1   
 10   5  27  1   
 11   6  10  1   
 12   6  28  1   
 13   6  29  1   
 14   7  11  ar  
 15   8  12  ar  
 16   8  30  1   
 17   9  13  1   
 18   9  31  1   
 19   9  32  1   
 20  10  14  1   
 21  10  33  1   
 22  10  34  1   
 23  11  15  ar  
 24  11  16  1   
 25  12  15  ar  
 26  12  17  1   
 27  13  14  1   
 28  13  18  am  
 29  14  35  1   
 30  14  36  1   
 31  16  37  1   
 32  16  38  1   
 33  16  39  1   
 34  17  40  1   
 35  17  41  1   
 36  17  42  1   
 37  18  19  2   
 38  18  20  1   
 39  20  21  1   
 40  20  22  1   
 41  20  43  1   
 42  21  23  1   
 43  21  24  1   
 44  21  44  1   
 45  22  25  1   
 46  22  45  1   
 47  22  46  1   
 48  23  25  1   
 49  23  47  1   
 50  23  48  1   
 51  24  49  1   
 52  24  50  1   
 53  24  51  1   
 54  25  52  1   
 55  25  53  1   
@<TRIPOS>SUBSTRUCTURE
  1 ****   6 GROUP 4 **** **** 0

# MOE 2024.06 (io_trps.svl 2023.06)
