@<TRIPOS>MOLECULE
NONAME
48 51 1 0 0 
SMALL
USER_CHARGES


@<TRIPOS>ATOM
  1 O        1.0780     0.0370     2.2030 O.2   1 <1>  -0.5700 
  2 C        1.9980    -0.0430     1.4190 C.2   1 <1>   0.7150 
  3 N        2.4180    -1.3080     1.1600 N.am  1 <1>  -0.7300 
  4 C        2.5500     1.1490     0.8420 C.2   1 <1>  -0.2370 
  5 C        3.6670    -1.8780     0.5820 C.3   1 <1>   0.1400 
  6 N        3.3630     1.2220    -0.2370 N.pl3 1 <1>   0.3140 
  7 C        2.3620     2.4370     1.2290 C.2   1 <1>  -0.1500 
  8 C        4.6090    -0.8740    -0.1010 C.3   1 <1>   0.2000 
  9 N        3.7000     2.4790    -0.5440 N.2   1 <1>  -0.7070 
 10 C        3.8930     0.1040    -1.0280 C.3   1 <1>   0.0960 
 11 C        3.0890     3.2370     0.3530 C.2   1 <1>   0.2030 
 12 O        5.5360    -1.5930    -0.8460 O.3   1 <1>  -0.6800 
 13 C        3.1710     4.6870     0.4160 C.2   1 <1>   0.7160 
 14 O        2.6230     5.3260     1.2990 O.2   1 <1>  -0.5700 
 15 N        3.9020     5.3340    -0.5400 N.am  1 <1>  -0.5790 
 16 C        4.2260     6.7660    -0.6170 C.3   1 <1>   0.0540 
 17 C        5.3510     7.1560     0.3790 C.3   1 <1>   0.0150 
 18 C        4.1270     7.3540    -1.9880 C.3   1 <1>  -0.2000 
 19 C        3.0760     7.6590    -0.9620 C.3   1 <1>  -0.2000 
 20 C        5.6140     8.6750     0.4800 C.3   1 <1>  -0.1600 
 21 C        6.6600     6.4160     0.0350 C.3   1 <1>  -0.1600 
 22 C        6.7400     8.9960     1.4730 C.3   1 <1>  -0.1600 
 23 C        7.7880     6.7450     1.0230 C.3   1 <1>  -0.1600 
 24 C        8.0300     8.2560     1.1060 C.3   1 <1>  -0.1600 
 25 H        1.8460    -1.9920     1.6620 H     1 <1>   0.3700 
 26 H        3.3750    -2.6230    -0.1380 H     1 <1>   0.0800 
 27 H        4.2110    -2.3730     1.3680 H     1 <1>   0.0800 
 28 H        1.7670     2.7980     2.0510 H     1 <1>   0.1500 
 29 H        5.1710    -0.3310     0.6420 H     1 <1>   0.0800 
 30 H        4.5900     0.5080    -1.7410 H     1 <1>   0.0800 
 31 H        3.0820    -0.3710    -1.5470 H     1 <1>   0.0800 
 32 H        5.1140    -2.0940    -1.5710 H     1 <1>   0.4000 
 33 H        4.3710     4.7230    -1.2120 H     1 <1>   0.3700 
 34 H        5.0290     6.8330     1.3550 H     1 <1>   0.0800 
 35 H        3.8650     6.7160    -2.8130 H     1 <1>   0.1000 
 36 H        4.7850     8.1510    -2.2830 H     1 <1>   0.1000 
 37 H        3.0230     8.6640    -0.5860 H     1 <1>   0.1000 
 38 H        2.1020     7.2110    -1.0500 H     1 <1>   0.1000 
 39 H        4.7210     9.1760     0.8090 H     1 <1>   0.0800 
 40 H        5.8830     9.0660    -0.4850 H     1 <1>   0.0800 
 41 H        6.9690     6.6890    -0.9590 H     1 <1>   0.0800 
 42 H        6.4960     5.3530     0.0480 H     1 <1>   0.0800 
 43 H        6.4330     8.7080     2.4640 H     1 <1>   0.0800 
 44 H        6.9220    10.0570     1.4790 H     1 <1>   0.0800 
 45 H        8.6930     6.2510     0.7130 H     1 <1>   0.0800 
 46 H        7.5260     6.3720     1.9980 H     1 <1>   0.0800 
 47 H        8.7860     8.4600     1.8450 H     1 <1>   0.0800 
 48 H        8.3900     8.6140     0.1560 H     1 <1>   0.0800 
@<TRIPOS>BOND
  1   1   2  2   
  2   2   3  am  
  3   2   4  1   
  4   3   5  1   
  5   3  25  1   
  6   4   6  1   
  7   4   7  2   
  8   5   8  1   
  9   5  26  1   
 10   5  27  1   
 11   6   9  1   
 12   6  10  1   
 13   7  11  1   
 14   7  28  1   
 15   8  10  1   
 16   8  12  1   
 17   8  29  1   
 18   9  11  2   
 19  10  30  1   
 20  10  31  1   
 21  11  13  1   
 22  12  32  1   
 23  13  14  2   
 24  13  15  am  
 25  15  16  1   
 26  15  33  1   
 27  16  17  1   
 28  16  18  1   
 29  16  19  1   
 30  17  20  1   
 31  17  21  1   
 32  17  34  1   
 33  18  19  1   
 34  18  35  1   
 35  18  36  1   
 36  19  37  1   
 37  19  38  1   
 38  20  22  1   
 39  20  39  1   
 40  20  40  1   
 41  21  23  1   
 42  21  41  1   
 43  21  42  1   
 44  22  24  1   
 45  22  43  1   
 46  22  44  1   
 47  23  24  1   
 48  23  45  1   
 49  23  46  1   
 50  24  47  1   
 51  24  48  1   
@<TRIPOS>SUBSTRUCTURE
  1 ****  11 GROUP 4 **** **** 0

# MOE 2024.06 (io_trps.svl 2023.06)
