@<TRIPOS>MOLECULE
NONAME
48 49 1 0 0 
SMALL
USER_CHARGES


@<TRIPOS>ATOM
  1 S        1.3290    -1.0910     1.3410 S.o2  1 <1>   1.5010 
  2 O        2.4640    -1.8960     0.9500 O.2   1 <1>  -0.6500 
  3 O        1.1980    -0.6250     2.7000 O.2   1 <1>  -0.6500 
  4 N       -0.0250    -2.0440     1.0830 N.am  1 <1>  -0.9140 
  5 C        1.0660     0.2440     0.1640 C.2   1 <1>  -0.0630 
  6 C        0.0280    -2.8490    -0.1310 C.3   1 <1>   0.2760 
  7 C        0.0590     1.1420    -0.0100 C.2   1 <1>  -0.3320 
  8 C        1.9580     0.5390    -0.8560 C.2   1 <1>   0.1390 
  9 C       -1.3880    -3.1830    -0.5750 C.3   1 <1>  -0.0800 
 10 C        0.5520    -4.2450     0.1920 C.3   1 <1>   0.1200 
 11 N        0.3820     1.8990    -1.0830 N.pl3 1 <1>   0.3140 
 12 C       -1.2080     1.3120     0.8160 C.3   1 <1>  -0.0600 
 13 N        1.5570     1.5150    -1.6090 N.2   1 <1>  -0.7070 
 14 C       -1.7280    -4.4320     0.2510 C.3   1 <1>   0.1200 
 15 C       -2.3930    -2.0240    -0.4200 C.3   1 <1>  -0.0550 
 16 O       -0.5240    -4.8880     0.8000 O.3   1 <1>  -0.5600 
 17 C       -0.3880     3.0150    -1.6760 C.3   1 <1>   0.0960 
 18 S       -3.9860    -2.3620    -1.1580 S.o2  1 <1>   1.3330 
 19 C       -0.0350     4.3500    -1.0060 C.3   1 <1>  -0.2400 
 20 O       -4.6350    -3.4250    -0.4230 O.2   1 <1>  -0.6500 
 21 O       -3.7830    -2.4930    -2.5820 O.2   1 <1>  -0.6500 
 22 N       -4.8420    -0.9240    -0.8680 N.am  1 <1>  -0.8490 
 23 C       -5.8780    -0.6880    -1.8790 C.3   1 <1>   0.1160 
 24 C       -5.4370    -0.8640     0.4720 C.3   1 <1>   0.1160 
 25 H       -0.0310    -2.7070     1.8590 H     1 <1>   0.4200 
 26 H        0.5880    -2.3600    -0.9120 H     1 <1>   0.0800 
 27 H        2.8860     0.0130    -1.0170 H     1 <1>   0.1500 
 28 H       -1.3540    -3.4740    -1.6110 H     1 <1>   0.0800 
 29 H        1.3990    -4.2450     0.8550 H     1 <1>   0.0800 
 30 H        0.7950    -4.7820    -0.7090 H     1 <1>   0.0800 
 31 H       -1.2360     0.5950     1.6180 H     1 <1>   0.0800 
 32 H       -2.0800     1.1700     0.2020 H     1 <1>   0.0800 
 33 H       -1.2400     2.2970     1.2480 H     1 <1>   0.0800 
 34 H       -2.1510    -5.2130    -0.3590 H     1 <1>   0.0800 
 35 H       -2.3950    -4.2100     1.0670 H     1 <1>   0.0800 
 36 H       -1.9810    -1.1520    -0.8890 H     1 <1>   0.0800 
 37 H       -2.5280    -1.8020     0.6200 H     1 <1>   0.0800 
 38 H       -0.1530     3.0610    -2.7240 H     1 <1>   0.0800 
 39 H       -1.4360     2.8090    -1.5710 H     1 <1>   0.0800 
 40 H        1.0150     4.5550    -1.1280 H     1 <1>   0.0800 
 41 H       -0.2700     4.3210     0.0430 H     1 <1>   0.0800 
 42 H       -0.5930     5.1470    -1.4630 H     1 <1>   0.0800 
 43 H       -6.3950     0.2340    -1.6780 H     1 <1>   0.0800 
 44 H       -6.5880    -1.4990    -1.8850 H     1 <1>   0.0800 
 45 H       -5.4300    -0.6150    -2.8570 H     1 <1>   0.0800 
 46 H       -5.8940     0.0970     0.6310 H     1 <1>   0.0800 
 47 H       -4.6790    -1.0080     1.2230 H     1 <1>   0.0800 
 48 H       -6.1860    -1.6320     0.5870 H     1 <1>   0.0800 
@<TRIPOS>BOND
  1   1   2  2   
  2   1   3  2   
  3   1   4  am  
  4   1   5  1   
  5   4   6  1   
  6   4  25  1   
  7   5   7  2   
  8   5   8  1   
  9   6   9  1   
 10   6  10  1   
 11   6  26  1   
 12   7  11  1   
 13   7  12  1   
 14   8  13  2   
 15   8  27  1   
 16   9  14  1   
 17   9  15  1   
 18   9  28  1   
 19  10  16  1   
 20  10  29  1   
 21  10  30  1   
 22  11  13  1   
 23  11  17  1   
 24  12  31  1   
 25  12  32  1   
 26  12  33  1   
 27  14  16  1   
 28  14  34  1   
 29  14  35  1   
 30  15  18  1   
 31  15  36  1   
 32  15  37  1   
 33  17  19  1   
 34  17  38  1   
 35  17  39  1   
 36  18  20  2   
 37  18  21  2   
 38  18  22  am  
 39  19  40  1   
 40  19  41  1   
 41  19  42  1   
 42  22  23  1   
 43  22  24  1   
 44  23  43  1   
 45  23  44  1   
 46  23  45  1   
 47  24  46  1   
 48  24  47  1   
 49  24  48  1   
@<TRIPOS>SUBSTRUCTURE
  1 ****  15 GROUP 4 **** **** 0

# MOE 2024.06 (io_trps.svl 2023.06)
