@<TRIPOS>MOLECULE
NONAME
61 64 1 0 0 
SMALL
USER_CHARGES


@<TRIPOS>ATOM
  1 O       -0.6800    -0.0250     0.7030 O.2   1 <1>  -0.5700 
  2 C       -1.6560     0.5670     0.2890 C.2   1 <1>   0.5690 
  3 N       -2.6970    -0.1640    -0.2500 N.am  1 <1>  -0.6600 
  4 C       -1.6170     2.1390     0.4560 C.3   1 <1>   0.5640 
  5 C       -4.0670     0.2820    -0.6430 C.3   1 <1>   0.1400 
  6 C       -2.6320    -1.6520    -0.3200 C.3   1 <1>   0.1400 
  7 N       -0.1690     2.5770     0.6970 N.4   1 <1>  -0.9590 
  8 C       -2.4560     2.4530     1.7300 C.3   1 <1>  -0.1600 
  9 C       -2.1510     2.8950    -0.8020 C.3   1 <1>  -0.1600 
 10 C       -4.8570    -0.9950    -0.9360 C.3   1 <1>   0.2000 
 11 C       -4.0830    -2.1250    -0.2660 C.3   1 <1>  -0.0800 
 12 C        0.0460     3.9660     1.2010 C.3   1 <1>   0.3430 
 13 C        0.7340     2.2600    -0.4600 C.3   1 <1>   0.3430 
 14 C       -3.0470     3.8720     1.9120 C.3   1 <1>  -0.1600 
 15 C       -3.4470     3.6950    -0.5900 C.3   1 <1>  -0.1600 
 16 O       -6.1400    -0.9220    -0.4210 O.3   1 <1>  -0.6800 
 17 C       -4.3130    -3.4920    -0.9280 C.3   1 <1>  -0.0170 
 18 C        1.5040     4.1570     1.6260 C.3   1 <1>  -0.1600 
 19 C        2.1960     2.4090    -0.0400 C.3   1 <1>  -0.1600 
 20 C       -3.2890     4.6360     0.6030 C.3   1 <1>  -0.1600 
 21 C       -3.4550    -4.5620    -0.2730 C.ar  1 <1>  -0.1440 
 22 C        2.4850     3.8130     0.5000 C.3   1 <1>  -0.1600 
 23 C       -2.3050    -5.0460    -0.8640 C.ar  1 <1>  -0.1500 
 24 C       -3.7830    -5.1020     0.9550 C.ar  1 <1>  -0.1500 
 25 C       -1.5550    -6.0120    -0.2130 C.ar  1 <1>   0.1600 
 26 C       -2.9640    -6.0650     1.5200 C.ar  1 <1>   0.1600 
 27 N       -1.8560    -6.5290     0.9670 N.ar  1 <1>  -0.6200 
 28 H       -4.5280     0.8220     0.1640 H     1 <1>   0.0800 
 29 H       -4.0360     0.8860    -1.5310 H     1 <1>   0.0800 
 30 H       -2.1720    -1.9390    -1.2500 H     1 <1>   0.0800 
 31 H       -2.0640    -2.0670     0.4980 H     1 <1>   0.0800 
 32 H        0.1430     1.9240     1.4310 H     1 <1>   0.4500 
 33 H       -3.3070     1.7970     1.7140 H     1 <1>   0.0800 
 34 H       -1.9050     2.1710     2.6100 H     1 <1>   0.0800 
 35 H       -1.4260     3.6080    -1.1460 H     1 <1>   0.0800 
 36 H       -2.2880     2.2070    -1.6160 H     1 <1>   0.0800 
 37 H       -4.9300    -1.1420    -2.0010 H     1 <1>   0.0800 
 38 H       -4.3570    -2.1830     0.7730 H     1 <1>   0.0800 
 39 H       -0.2050     4.6770     0.4310 H     1 <1>   0.0800 
 40 H       -0.5760     4.1530     2.0560 H     1 <1>   0.0800 
 41 H        0.5710     1.2490    -0.7980 H     1 <1>   0.0800 
 42 H        0.5330     2.9280    -1.2810 H     1 <1>   0.0800 
 43 H       -3.9930     3.7680     2.4190 H     1 <1>   0.0800 
 44 H       -2.4340     4.4680     2.5640 H     1 <1>   0.0800 
 45 H       -3.6600     4.2740    -1.4740 H     1 <1>   0.0800 
 46 H       -4.2890     3.0470    -0.4230 H     1 <1>   0.0800 
 47 H       -6.1310    -0.9640     0.5550 H     1 <1>   0.4000 
 48 H       -4.0850    -3.4370    -1.9790 H     1 <1>   0.0800 
 49 H       -5.3510    -3.7640    -0.8380 H     1 <1>   0.0800 
 50 H        1.6500     5.1810     1.9240 H     1 <1>   0.0800 
 51 H        1.7050     3.5420     2.4860 H     1 <1>   0.0800 
 52 H        2.4290     1.6680     0.7060 H     1 <1>   0.0800 
 53 H        2.8270     2.2180    -0.8910 H     1 <1>   0.0800 
 54 H       -2.4690     5.3080     0.4170 H     1 <1>   0.0800 
 55 H       -4.1740     5.2430     0.7050 H     1 <1>   0.0800 
 56 H        3.4970     3.8630     0.8680 H     1 <1>   0.0800 
 57 H        2.3890     4.5340    -0.2960 H     1 <1>   0.0800 
 58 H       -1.9810    -4.6850    -1.8220 H     1 <1>   0.1500 
 59 H       -4.6660    -4.7840     1.4770 H     1 <1>   0.1500 
 60 H       -0.6610    -6.3790    -0.6870 H     1 <1>   0.1500 
 61 H       -3.2340    -6.4740     2.4790 H     1 <1>   0.1500 
@<TRIPOS>BOND
  1   1   2  2   
  2   2   3  am  
  3   2   4  1   
  4   3   5  1   
  5   3   6  1   
  6   4   7  1   
  7   4   8  1   
  8   4   9  1   
  9   5  10  1   
 10   5  28  1   
 11   5  29  1   
 12   6  11  1   
 13   6  30  1   
 14   6  31  1   
 15   7  12  1   
 16   7  13  1   
 17   7  32  1   
 18   8  14  1   
 19   8  33  1   
 20   8  34  1   
 21   9  15  1   
 22   9  35  1   
 23   9  36  1   
 24  10  11  1   
 25  10  16  1   
 26  10  37  1   
 27  11  17  1   
 28  11  38  1   
 29  12  18  1   
 30  12  39  1   
 31  12  40  1   
 32  13  19  1   
 33  13  41  1   
 34  13  42  1   
 35  14  20  1   
 36  14  43  1   
 37  14  44  1   
 38  15  20  1   
 39  15  45  1   
 40  15  46  1   
 41  16  47  1   
 42  17  21  1   
 43  17  48  1   
 44  17  49  1   
 45  18  22  1   
 46  18  50  1   
 47  18  51  1   
 48  19  22  1   
 49  19  52  1   
 50  19  53  1   
 51  20  54  1   
 52  20  55  1   
 53  21  23  ar  
 54  21  24  ar  
 55  22  56  1   
 56  22  57  1   
 57  23  25  ar  
 58  23  58  1   
 59  24  26  ar  
 60  24  59  1   
 61  25  27  ar  
 62  25  60  1   
 63  26  27  ar  
 64  26  61  1   
@<TRIPOS>SUBSTRUCTURE
  1 ****   3 GROUP 4 **** **** 0

# MOE 2024.06 (io_trps.svl 2023.06)
