@<TRIPOS>MOLECULE
NONAME
41 42 1 0 0 
SMALL
USER_CHARGES


@<TRIPOS>ATOM
  1 F        0.1130    -0.5140     0.5300 F     1 <1>  -0.1900 
  2 C       -0.5320    -1.6380     0.3440 C.ar  1 <1>   0.1900 
  3 C        0.0730    -2.8840     0.5470 C.ar  1 <1>   0.0820 
  4 C       -1.8450    -1.5320    -0.0720 C.ar  1 <1>  -0.1500 
  5 O        1.3550    -3.1170     0.9540 O.3   1 <1>  -0.3630 
  6 C       -0.6930    -4.0150     0.3140 C.ar  1 <1>  -0.1500 
  7 C       -2.5780    -2.6820    -0.2950 C.ar  1 <1>  -0.1500 
  8 C        2.2380    -2.0870     1.3380 C.3   1 <1>   0.0400 
  9 C       -2.0230    -3.9480    -0.1060 C.ar  1 <1>   0.0530 
 10 C       -2.7720    -5.1570    -0.3530 C.2   1 <1>   0.0870 
 11 O       -2.1560    -6.1720    -0.9150 O.3   1 <1>  -0.0190 
 12 C       -4.0580    -5.5480    -0.1350 C.2   1 <1>  -0.2330 
 13 N       -2.9360    -7.2020    -1.1020 N.2   1 <1>  -0.4100 
 14 C       -4.0850    -6.8420    -0.6530 C.2   1 <1>   0.3720 
 15 C       -5.1720    -4.9030     0.5000 C.2   1 <1>   1.0330 
 16 N       -5.2060    -7.6550    -0.6790 N.pl3 1 <1>  -0.8520 
 17 O       -5.0830    -3.7440     0.9340 O.co2 1 <1>  -0.9000 
 18 O       -6.2580    -5.4980     0.6460 O.co2 1 <1>  -0.9000 
 19 C       -5.0460    -8.9480     0.0200 C.3   1 <1>   0.2090 
 20 C       -6.4030    -9.6370     0.3060 C.3   1 <1>   0.0000 
 21 C       -6.1420   -10.9610     1.0410 C.3   1 <1>  -0.2400 
 22 C       -7.2930    -8.7520     1.1960 C.3   1 <1>  -0.2400 
 23 C       -7.1470    -9.9440    -1.0050 C.3   1 <1>  -0.2400 
 24 H       -2.2920    -0.5650    -0.2150 H     1 <1>   0.1500 
 25 H       -0.2440    -4.9800     0.4670 H     1 <1>   0.1500 
 26 H       -3.6030    -2.6040    -0.6170 H     1 <1>   0.1500 
 27 H        3.1550    -2.5390     1.6700 H     1 <1>   0.0800 
 28 H        1.7940    -1.5270     2.1420 H     1 <1>   0.0800 
 29 H        2.4310    -1.4570     0.4880 H     1 <1>   0.0800 
 30 H       -5.9600    -7.1050    -0.2120 H     1 <1>   0.4000 
 31 H       -4.5280    -8.7790     0.9480 H     1 <1>   0.0800 
 32 H       -4.4340    -9.5910    -0.5900 H     1 <1>   0.0800 
 33 H       -5.6370   -10.7790     1.9730 H     1 <1>   0.0800 
 34 H       -5.5280   -11.6100     0.4420 H     1 <1>   0.0800 
 35 H       -7.0680   -11.4670     1.2500 H     1 <1>   0.0800 
 36 H       -6.7730    -8.4750     2.0960 H     1 <1>   0.0800 
 37 H       -8.1980    -9.2660     1.4650 H     1 <1>   0.0800 
 38 H       -7.5660    -7.8460     0.6830 H     1 <1>   0.0800 
 39 H       -6.5420   -10.5580    -1.6470 H     1 <1>   0.0800 
 40 H       -7.3710    -9.0310    -1.5300 H     1 <1>   0.0800 
 41 H       -8.0730   -10.4550    -0.8080 H     1 <1>   0.0800 
@<TRIPOS>BOND
  1   1   2  1   
  2   2   3  ar  
  3   2   4  ar  
  4   3   5  1   
  5   3   6  ar  
  6   4   7  ar  
  7   4  24  1   
  8   5   8  1   
  9   6   9  ar  
 10   6  25  1   
 11   7   9  ar  
 12   7  26  1   
 13   8  27  1   
 14   8  28  1   
 15   8  29  1   
 16   9  10  1   
 17  10  11  1   
 18  10  12  2   
 19  11  13  1   
 20  12  14  1   
 21  12  15  1   
 22  13  14  2   
 23  14  16  1   
 24  15  17  ar  
 25  15  18  ar  
 26  16  19  1   
 27  16  30  1   
 28  19  20  1   
 29  19  31  1   
 30  19  32  1   
 31  20  21  1   
 32  20  22  1   
 33  20  23  1   
 34  21  33  1   
 35  21  34  1   
 36  21  35  1   
 37  22  36  1   
 38  22  37  1   
 39  22  38  1   
 40  23  39  1   
 41  23  40  1   
 42  23  41  1   
@<TRIPOS>SUBSTRUCTURE
  1 ****  10 GROUP 4 **** **** 0

# MOE 2024.06 (io_trps.svl 2023.06)
