@<TRIPOS>MOLECULE
NONAME
51 54 1 0 0 
SMALL
USER_CHARGES


@<TRIPOS>ATOM
  1 O        0.1830     1.0440    -0.2140 O.2   1 <1>  -0.5700 
  2 C       -0.0510     2.2200    -0.3690 C.2   1 <1>   0.5690 
  3 N       -0.9320     2.9040     0.4260 N.am  1 <1>  -0.6600 
  4 C        0.6600     2.9540    -1.5060 C.3   1 <1>   0.1810 
  5 C       -1.2220     4.3570     0.1930 C.3   1 <1>   0.3640 
  6 C       -1.6180     2.2720     1.5910 C.3   1 <1>   0.0600 
  7 O        0.7700     4.3350    -1.2650 O.3   1 <1>  -0.5600 
  8 C       -2.7320     4.6290     0.1080 C.ar  1 <1>  -0.1430 
  9 C       -0.4720     4.9740    -1.0150 C.3   1 <1>   0.2610 
 10 C       -3.6210     3.9400    -0.7250 C.ar  1 <1>  -0.1430 
 11 C       -3.2270     5.6410     0.9220 C.ar  1 <1>  -0.1500 
 12 C       -0.3000     6.4840    -0.7940 C.2   1 <1>   0.5690 
 13 C       -4.9670     4.2750    -0.7100 C.ar  1 <1>  -0.1500 
 14 C       -3.2030     2.8130    -1.6640 C.3   1 <1>  -0.0960 
 15 C       -4.5700     5.9680     0.9260 C.ar  1 <1>  -0.1500 
 16 O       -1.0630     7.2080    -1.3900 O.2   1 <1>  -0.5700 
 17 N        0.6530     7.0150     0.0510 N.am  1 <1>  -0.6600 
 18 C       -5.4430     5.2810     0.1080 C.ar  1 <1>  -0.1500 
 19 C        0.8920     8.4910     0.0740 C.3   1 <1>   0.3200 
 20 C        1.6470     6.2320     0.8540 C.3   1 <1>   0.1400 
 21 C        2.3780     8.7800    -0.0570 C.2   1 <1>  -0.3320 
 22 C        3.0440     6.3900     0.2510 C.3   1 <1>   0.0960 
 23 N        3.3150     7.8170     0.0380 N.pl3 1 <1>   0.3140 
 24 C        3.0350     9.9400    -0.2720 C.2   1 <1>  -0.1500 
 25 N        4.5550     8.3170    -0.0940 N.2   1 <1>  -0.7070 
 26 C        4.3790     9.5860    -0.2840 C.2   1 <1>   0.1080 
 27 C        5.5330    10.5380    -0.4900 C.3   1 <1>  -0.0590 
 28 H        0.1260     2.8050    -2.4270 H     1 <1>   0.0800 
 29 H        1.6540     2.5610    -1.6150 H     1 <1>   0.0800 
 30 H       -0.8610     4.8660     1.0680 H     1 <1>   0.0800 
 31 H       -1.4220     2.8390     2.4830 H     1 <1>   0.0800 
 32 H       -1.2670     1.2650     1.7390 H     1 <1>   0.0800 
 33 H       -2.6800     2.2410     1.4200 H     1 <1>   0.0800 
 34 H       -1.0700     4.8550    -1.8990 H     1 <1>   0.0800 
 35 H       -2.5690     6.1980     1.5660 H     1 <1>   0.1500 
 36 H       -5.6640     3.7520    -1.3410 H     1 <1>   0.1500 
 37 H       -3.9890     2.5810    -2.3590 H     1 <1>   0.0800 
 38 H       -2.9870     1.9230    -1.1010 H     1 <1>   0.0800 
 39 H       -2.3380     3.0850    -2.2360 H     1 <1>   0.0800 
 40 H       -4.9340     6.7560     1.5610 H     1 <1>   0.1500 
 41 H       -6.4900     5.5300     0.1060 H     1 <1>   0.1500 
 42 H        0.3670     8.9820    -0.7280 H     1 <1>   0.0800 
 43 H        0.5290     8.8880     1.0050 H     1 <1>   0.0800 
 44 H        1.6550     6.6070     1.8630 H     1 <1>   0.0800 
 45 H        1.3930     5.1900     0.9020 H     1 <1>   0.0800 
 46 H        3.0990     5.8870    -0.6960 H     1 <1>   0.0800 
 47 H        3.7910     5.9870     0.9080 H     1 <1>   0.0800 
 48 H        2.6380    10.9300    -0.4050 H     1 <1>   0.1500 
 49 H        5.1730    11.5410    -0.6270 H     1 <1>   0.0800 
 50 H        6.0900    10.2400    -1.3580 H     1 <1>   0.0800 
 51 H        6.1790    10.5070     0.3670 H     1 <1>   0.0800 
@<TRIPOS>BOND
  1   1   2  2   
  2   2   3  am  
  3   2   4  1   
  4   3   5  1   
  5   3   6  1   
  6   4   7  1   
  7   4  28  1   
  8   4  29  1   
  9   5   8  1   
 10   5   9  1   
 11   5  30  1   
 12   6  31  1   
 13   6  32  1   
 14   6  33  1   
 15   7   9  1   
 16   8  10  ar  
 17   8  11  ar  
 18   9  12  1   
 19   9  34  1   
 20  10  13  ar  
 21  10  14  1   
 22  11  15  ar  
 23  11  35  1   
 24  12  16  2   
 25  12  17  am  
 26  13  18  ar  
 27  13  36  1   
 28  14  37  1   
 29  14  38  1   
 30  14  39  1   
 31  15  18  ar  
 32  15  40  1   
 33  17  19  1   
 34  17  20  1   
 35  18  41  1   
 36  19  21  1   
 37  19  42  1   
 38  19  43  1   
 39  20  22  1   
 40  20  44  1   
 41  20  45  1   
 42  21  23  1   
 43  21  24  2   
 44  22  23  1   
 45  22  46  1   
 46  22  47  1   
 47  23  25  1   
 48  24  26  1   
 49  24  48  1   
 50  25  26  2   
 51  26  27  1   
 52  27  49  1   
 53  27  50  1   
 54  27  51  1   
@<TRIPOS>SUBSTRUCTURE
  1 ****  12 GROUP 4 **** **** 0

# MOE 2024.06 (io_trps.svl 2023.06)
