@<TRIPOS>MOLECULE
NONAME
52 54 1 0 0 
SMALL
USER_CHARGES


@<TRIPOS>ATOM
  1 F       -2.1750    -0.2420    -2.1470 F     1 <1>  -0.1900 
  2 C       -2.6950    -1.2050    -1.4350 C.ar  1 <1>   0.1900 
  3 C       -2.4760    -2.5130    -1.8210 C.ar  1 <1>  -0.1500 
  4 C       -3.4440    -0.8800    -0.3210 C.ar  1 <1>  -0.1500 
  5 C       -3.0320    -3.5300    -1.0620 C.ar  1 <1>  -0.1500 
  6 C       -3.9940    -1.9060     0.4300 C.ar  1 <1>  -0.1500 
  7 C       -3.7910    -3.2320     0.0640 C.ar  1 <1>  -0.1430 
  8 C       -4.4000    -4.3520     0.8960 C.3   1 <1>   0.2640 
  9 O       -5.2120    -5.1630     0.0650 O.3   1 <1>  -0.3630 
 10 C       -6.4640    -5.4640     0.4900 C.ar  1 <1>   0.0830 
 11 C       -7.4190    -4.4950     0.8150 C.ar  1 <1>   0.0830 
 12 C       -6.7880    -6.8060     0.5920 C.ar  1 <1>  -0.1500 
 13 O       -7.1840    -3.1680     0.6940 O.3   1 <1>  -0.3620 
 14 C       -8.6610    -4.8880     1.2820 C.ar  1 <1>  -0.1500 
 15 C       -8.0440    -7.1990     1.0360 C.ar  1 <1>  -0.1430 
 16 C       -7.1140    -2.6650    -0.6240 C.3   1 <1>   0.0400 
 17 C       -8.9750    -6.2320     1.3920 C.ar  1 <1>  -0.1500 
 18 C       -8.3920    -8.6730     1.1270 C.3   1 <1>   0.4860 
 19 N       -8.6180    -9.1920    -0.2440 N.4   1 <1>  -0.9590 
 20 C       -8.6750   -10.6960    -0.2170 C.3   1 <1>   0.3430 
 21 C       -9.8220    -8.5370    -0.8670 C.3   1 <1>   0.3430 
 22 C      -10.1110   -11.1660    -0.1090 C.3   1 <1>  -0.1860 
 23 C      -10.4140    -9.4250    -1.9540 C.3   1 <1>  -0.1600 
 24 C      -10.1300   -12.6560     0.0010 C.2   1 <1>   0.9060 
 25 C      -10.9140   -10.7350    -1.3370 C.3   1 <1>   0.2000 
 26 O       -9.0500   -13.2480     0.0430 O.co2 1 <1>  -0.9000 
 27 O      -11.2280   -13.2080     0.0380 O.co2 1 <1>  -0.9000 
 28 O      -12.2030   -10.5440    -0.9050 O.3   1 <1>  -0.6800 
 29 H       -1.8880    -2.7270    -2.6950 H     1 <1>   0.1500 
 30 H       -3.5930     0.1500    -0.0520 H     1 <1>   0.1500 
 31 H       -2.8760    -4.5560    -1.3500 H     1 <1>   0.1500 
 32 H       -4.5850    -1.6680     1.2980 H     1 <1>   0.1500 
 33 H       -4.9860    -3.9570     1.7070 H     1 <1>   0.0800 
 34 H       -3.6240    -4.9750     1.3020 H     1 <1>   0.0800 
 35 H       -6.0390    -7.5300     0.3240 H     1 <1>   0.1500 
 36 H       -9.3790    -4.1320     1.5530 H     1 <1>   0.1500 
 37 H       -6.9150    -1.6100    -0.5720 H     1 <1>   0.0800 
 38 H       -8.0560    -2.8400    -1.1130 H     1 <1>   0.0800 
 39 H       -6.3200    -3.1590    -1.1550 H     1 <1>   0.0800 
 40 H       -9.9500    -6.5100     1.7570 H     1 <1>   0.1500 
 41 H       -9.2770    -8.8130     1.7270 H     1 <1>   0.0800 
 42 H       -7.5770    -9.2040     1.5930 H     1 <1>   0.0800 
 43 H       -7.7980    -8.9250    -0.7990 H     1 <1>   0.4500 
 44 H       -8.2580   -11.1010    -1.1260 H     1 <1>   0.0800 
 45 H       -8.1000   -11.0930     0.6050 H     1 <1>   0.0800 
 46 H      -10.5820    -8.3840    -0.1170 H     1 <1>   0.0800 
 47 H       -9.5510    -7.5760    -1.2730 H     1 <1>   0.0800 
 48 H      -10.5370   -10.7790     0.7970 H     1 <1>   0.0800 
 49 H       -9.6590    -9.6340    -2.6910 H     1 <1>   0.0800 
 50 H      -11.2240    -8.9230    -2.4520 H     1 <1>   0.0800 
 51 H      -10.9330   -11.5130    -2.0860 H     1 <1>   0.0800 
 52 H      -12.5100   -11.4110    -0.5380 H     1 <1>   0.4000 
@<TRIPOS>BOND
  1   1   2  1   
  2   2   3  ar  
  3   2   4  ar  
  4   3   5  ar  
  5   3  29  1   
  6   4   6  ar  
  7   4  30  1   
  8   5   7  ar  
  9   5  31  1   
 10   6   7  ar  
 11   6  32  1   
 12   7   8  1   
 13   8   9  1   
 14   8  33  1   
 15   8  34  1   
 16   9  10  1   
 17  10  11  ar  
 18  10  12  ar  
 19  11  13  1   
 20  11  14  ar  
 21  12  15  ar  
 22  12  35  1   
 23  13  16  1   
 24  14  17  ar  
 25  14  36  1   
 26  15  17  ar  
 27  15  18  1   
 28  16  37  1   
 29  16  38  1   
 30  16  39  1   
 31  17  40  1   
 32  18  19  1   
 33  18  41  1   
 34  18  42  1   
 35  19  20  1   
 36  19  21  1   
 37  19  43  1   
 38  20  22  1   
 39  20  44  1   
 40  20  45  1   
 41  21  23  1   
 42  21  46  1   
 43  21  47  1   
 44  22  24  1   
 45  22  25  1   
 46  22  48  1   
 47  23  25  1   
 48  23  49  1   
 49  23  50  1   
 50  24  26  ar  
 51  24  27  ar  
 52  25  28  1   
 53  25  51  1   
 54  28  52  1   
@<TRIPOS>SUBSTRUCTURE
  1 ****  12 GROUP 4 **** **** 0

# MOE 2024.06 (io_trps.svl 2023.06)
