@<TRIPOS>MOLECULE
NONAME
53 56 1 0 0 
SMALL
USER_CHARGES


@<TRIPOS>ATOM
  1 O        0.3010     0.1890    -0.1710 O.2   1 <1>  -0.5700 
  2 C        1.1660    -0.6660    -0.1940 C.2   1 <1>   0.5440 
  3 N        2.4740    -0.2960     0.0200 N.am  1 <1>  -0.6600 
  4 C        0.7970    -2.0460    -0.4380 C.ar  1 <1>   0.0860 
  5 C        2.8600     1.1110     0.2680 C.3   1 <1>   0.1400 
  6 C        3.5600    -1.2190     0.4190 C.3   1 <1>   0.1400 
  7 C       -0.2240    -2.6630     0.2570 C.ar  1 <1>  -0.1500 
  8 C        1.4250    -2.8410    -1.3870 C.ar  1 <1>  -0.1500 
  9 C        4.3330     1.0530     0.6560 C.3   1 <1>  -0.1600 
 10 C        4.5300    -0.3530     1.2140 C.3   1 <1>  -0.1600 
 11 C       -0.5670    -3.9850     0.0100 C.ar  1 <1>   0.4100 
 12 C        1.0260    -4.1500    -1.5650 C.ar  1 <1>   0.1600 
 13 N        0.0550    -4.7380    -0.8900 N.ar  1 <1>  -0.6200 
 14 N       -1.6070    -4.5580     0.7170 N.pl3 1 <1>  -0.8380 
 15 C       -2.9820    -3.9990     0.5210 C.3   1 <1>   0.2090 
 16 C       -1.6320    -6.0440     0.9400 C.3   1 <1>   0.2090 
 17 C       -3.7570    -4.7400    -0.5890 C.3   1 <1>   0.2090 
 18 C       -2.4220    -6.7880    -0.1560 C.3   1 <1>   0.2090 
 19 N       -3.7950    -6.2150    -0.3490 N.pl3 1 <1>  -0.8380 
 20 C       -4.8740    -6.7610     0.3080 C.ar  1 <1>   0.4100 
 21 N       -4.6690    -7.3360     1.4770 N.ar  1 <1>  -0.6200 
 22 C       -6.1410    -6.6960    -0.2390 C.ar  1 <1>  -0.1500 
 23 C       -5.7440    -7.8220     2.0660 C.ar  1 <1>   0.4700 
 24 C       -7.1830    -7.2370     0.4660 C.ar  1 <1>   0.1670 
 25 N       -6.9960    -7.8080     1.6400 N.ar  1 <1>  -0.6200 
 26 C       -8.6020    -7.2030    -0.0790 C.3   1 <1>  -0.0170 
 27 C       -9.0130    -8.5600    -0.6620 C.3   1 <1>  -0.2400 
 28 H        2.2680     1.5000     1.0800 H     1 <1>   0.0800 
 29 H        2.6990     1.7100    -0.6120 H     1 <1>   0.0800 
 30 H        4.0420    -1.5990    -0.4650 H     1 <1>   0.0800 
 31 H        3.1840    -2.0350     1.0130 H     1 <1>   0.0800 
 32 H       -0.7630    -2.1160     1.0060 H     1 <1>   0.1500 
 33 H        2.2190    -2.4310    -1.9830 H     1 <1>   0.1500 
 34 H        4.5880     1.8180     1.3680 H     1 <1>   0.0800 
 35 H        4.9320     1.1840    -0.2280 H     1 <1>   0.0800 
 36 H        5.5450    -0.6960     1.1190 H     1 <1>   0.0800 
 37 H        4.2470    -0.3760     2.2530 H     1 <1>   0.0800 
 38 H        1.5290    -4.7490    -2.3050 H     1 <1>   0.1500 
 39 H       -2.9230    -2.9550     0.2700 H     1 <1>   0.0800 
 40 H       -3.5280    -4.0860     1.4440 H     1 <1>   0.0800 
 41 H       -2.0900    -6.2460     1.8920 H     1 <1>   0.0800 
 42 H       -0.6270    -6.4240     0.9750 H     1 <1>   0.0800 
 43 H       -3.2780    -4.5510    -1.5340 H     1 <1>   0.0800 
 44 H       -4.7570    -4.3490    -0.6390 H     1 <1>   0.0800 
 45 H       -2.4940    -7.8300     0.1020 H     1 <1>   0.0800 
 46 H       -1.8790    -6.7180    -1.0830 H     1 <1>   0.0800 
 47 H       -6.2790    -6.2390    -1.1970 H     1 <1>   0.1500 
 48 H       -5.5820    -8.2920     3.0210 H     1 <1>   0.1500 
 49 H       -8.6810    -6.4490    -0.8420 H     1 <1>   0.0800 
 50 H       -9.2740    -6.9350     0.7170 H     1 <1>   0.0800 
 51 H       -8.3520    -8.8360    -1.4640 H     1 <1>   0.0800 
 52 H      -10.0200    -8.5140    -1.0380 H     1 <1>   0.0800 
 53 H       -8.9640    -9.3170     0.1010 H     1 <1>   0.0800 
@<TRIPOS>BOND
  1   1   2  2   
  2   2   3  am  
  3   2   4  1   
  4   3   5  1   
  5   3   6  1   
  6   4   7  ar  
  7   4   8  ar  
  8   5   9  1   
  9   5  28  1   
 10   5  29  1   
 11   6  10  1   
 12   6  30  1   
 13   6  31  1   
 14   7  11  ar  
 15   7  32  1   
 16   8  12  ar  
 17   8  33  1   
 18   9  10  1   
 19   9  34  1   
 20   9  35  1   
 21  10  36  1   
 22  10  37  1   
 23  11  13  ar  
 24  11  14  1   
 25  12  13  ar  
 26  12  38  1   
 27  14  15  1   
 28  14  16  1   
 29  15  17  1   
 30  15  39  1   
 31  15  40  1   
 32  16  18  1   
 33  16  41  1   
 34  16  42  1   
 35  17  19  1   
 36  17  43  1   
 37  17  44  1   
 38  18  19  1   
 39  18  45  1   
 40  18  46  1   
 41  19  20  1   
 42  20  21  ar  
 43  20  22  ar  
 44  21  23  ar  
 45  22  24  ar  
 46  22  47  1   
 47  23  25  ar  
 48  23  48  1   
 49  24  25  ar  
 50  24  26  1   
 51  26  27  1   
 52  26  49  1   
 53  26  50  1   
 54  27  51  1   
 55  27  52  1   
 56  27  53  1   
@<TRIPOS>SUBSTRUCTURE
  1 ****  14 GROUP 4 **** **** 0

# MOE 2024.06 (io_trps.svl 2023.06)
