@<TRIPOS>MOLECULE
NONAME
54 56 1 0 0 
SMALL
USER_CHARGES


@<TRIPOS>ATOM
  1 F       -0.4560     1.0640    -0.8100 F     1 <1>  -0.1900 
  2 C       -1.7470     1.0790    -0.5980 C.ar  1 <1>   0.1900 
  3 C       -2.3610     2.0700     0.1770 C.ar  1 <1>   0.0830 
  4 C       -2.4780     0.0630    -1.1840 C.ar  1 <1>  -0.1500 
  5 O       -1.7520     3.1190     0.8020 O.3   1 <1>  -0.3630 
  6 C       -3.7340     1.9980     0.3400 C.ar  1 <1>  -0.1500 
  7 C       -3.8480     0.0220    -1.0010 C.ar  1 <1>  -0.1500 
  8 C       -0.3570     3.3260     0.7740 C.3   1 <1>   0.0400 
  9 C       -4.5040     0.9840    -0.2310 C.ar  1 <1>   0.0530 
 10 C       -5.9310     0.9580    -0.0360 C.2   1 <1>   0.0870 
 11 O       -6.6170     2.0600    -0.2030 O.3   1 <1>  -0.0190 
 12 C       -6.8180    -0.0110     0.3240 C.2   1 <1>  -0.0860 
 13 N       -7.8970     1.9030     0.0020 N.2   1 <1>  -0.4100 
 14 C       -8.0470     0.6650     0.3150 C.2   1 <1>   0.3720 
 15 C       -6.6320    -1.3870     0.6740 C.2   1 <1>   0.7160 
 16 N       -9.2990     0.0850     0.5880 N.pl3 1 <1>  -0.8210 
 17 O       -5.6410    -2.0110     0.3490 O.2   1 <1>  -0.5700 
 18 N       -7.5970    -2.0400     1.3700 N.am  1 <1>  -0.7300 
 19 C       -9.9230    -0.5590    -0.6040 C.3   1 <1>   0.1290 
 20 C      -10.2610     0.9820     1.2910 C.3   1 <1>   0.1290 
 21 C       -7.7780    -3.5110     1.4000 C.3   1 <1>   0.3200 
 22 C       -8.9800    -3.9030     0.5550 C.2   1 <1>   0.2980 
 23 O       -8.8880    -3.7960    -0.7460 O.3   1 <1>  -0.0190 
 24 N      -10.1040    -4.3100     0.9920 N.2   1 <1>  -0.5650 
 25 N      -10.0580    -4.1580    -1.1740 N.2   1 <1>  -0.4100 
 26 C      -10.7630    -4.4650    -0.1540 C.2   1 <1>   0.3350 
 27 C      -12.2280    -4.9540    -0.1820 C.3   1 <1>   0.1810 
 28 C      -13.1250    -3.9510     0.5630 C.3   1 <1>  -0.2400 
 29 C      -12.3360    -6.3270     0.5050 C.3   1 <1>  -0.2400 
 30 C      -12.7530    -5.0950    -1.6230 C.3   1 <1>  -0.2400 
 31 H       -1.9800    -0.6850    -1.7740 H     1 <1>   0.1500 
 32 H       -4.2200     2.7540     0.9310 H     1 <1>   0.1500 
 33 H       -4.4170    -0.7660    -1.4620 H     1 <1>   0.1500 
 34 H       -0.1380     4.2030     1.3570 H     1 <1>   0.0800 
 35 H       -0.0460     3.4790    -0.2440 H     1 <1>   0.0800 
 36 H        0.1330     2.4710     1.2050 H     1 <1>   0.0800 
 37 H       -8.4670    -1.4960     1.4750 H     1 <1>   0.3700 
 38 H       -9.1810    -1.0940    -1.1720 H     1 <1>   0.0800 
 39 H      -10.3680     0.1880    -1.2400 H     1 <1>   0.0800 
 40 H      -10.6810    -1.2560    -0.2910 H     1 <1>   0.0800 
 41 H       -9.7730     1.4580     2.1240 H     1 <1>   0.0800 
 42 H      -11.0960     0.4110     1.6580 H     1 <1>   0.0800 
 43 H      -10.6180     1.7440     0.6190 H     1 <1>   0.0800 
 44 H       -7.9430    -3.8230     2.4150 H     1 <1>   0.0800 
 45 H       -6.9000    -4.0100     1.0290 H     1 <1>   0.0800 
 46 H      -12.8090    -3.8570     1.5870 H     1 <1>   0.0800 
 47 H      -14.1500    -4.2730     0.5510 H     1 <1>   0.0800 
 48 H      -13.0610    -2.9830     0.1000 H     1 <1>   0.0800 
 49 H      -12.0180    -6.2590     1.5300 H     1 <1>   0.0800 
 50 H      -11.7070    -7.0410     0.0040 H     1 <1>   0.0800 
 51 H      -13.3490    -6.6860     0.4850 H     1 <1>   0.0800 
 52 H      -12.7110    -4.1470    -2.1310 H     1 <1>   0.0800 
 53 H      -13.7710    -5.4400    -1.6280 H     1 <1>   0.0800 
 54 H      -12.1510    -5.7980    -2.1720 H     1 <1>   0.0800 
@<TRIPOS>BOND
  1   1   2  1   
  2   2   3  ar  
  3   2   4  ar  
  4   3   5  1   
  5   3   6  ar  
  6   4   7  ar  
  7   4  31  1   
  8   5   8  1   
  9   6   9  ar  
 10   6  32  1   
 11   7   9  ar  
 12   7  33  1   
 13   8  34  1   
 14   8  35  1   
 15   8  36  1   
 16   9  10  1   
 17  10  11  1   
 18  10  12  2   
 19  11  13  1   
 20  12  14  1   
 21  12  15  1   
 22  13  14  2   
 23  14  16  1   
 24  15  17  2   
 25  15  18  am  
 26  16  19  1   
 27  16  20  1   
 28  18  21  1   
 29  18  37  1   
 30  19  38  1   
 31  19  39  1   
 32  19  40  1   
 33  20  41  1   
 34  20  42  1   
 35  20  43  1   
 36  21  22  1   
 37  21  44  1   
 38  21  45  1   
 39  22  23  1   
 40  22  24  2   
 41  23  25  1   
 42  24  26  1   
 43  25  26  2   
 44  26  27  1   
 45  27  28  1   
 46  27  29  1   
 47  27  30  1   
 48  28  46  1   
 49  28  47  1   
 50  28  48  1   
 51  29  49  1   
 52  29  50  1   
 53  29  51  1   
 54  30  52  1   
 55  30  53  1   
 56  30  54  1   
@<TRIPOS>SUBSTRUCTURE
  1 ****  15 GROUP 4 **** **** 0

# MOE 2024.06 (io_trps.svl 2023.06)
