@<TRIPOS>MOLECULE
NONAME
59 62 1 0 0 
SMALL
USER_CHARGES


@<TRIPOS>ATOM
  1 O       -0.9360     0.6110     2.4010 O.2   1 <1>  -0.5700 
  2 C       -1.9070     1.1500     1.9020 C.2   1 <1>   0.5440 
  3 N       -3.1460     0.5570     2.0450 N.am  1 <1>  -0.6600 
  4 C       -1.7260     2.3730     1.1600 C.ar  1 <1>   0.0860 
  5 C       -3.3730    -0.5640     3.0000 C.3   1 <1>   0.1400 
  6 C       -4.2830     0.7800     1.1100 C.3   1 <1>   0.1400 
  7 C       -0.7320     2.4670     0.1910 C.ar  1 <1>   0.1600 
  8 C       -2.5110     3.5030     1.3660 C.ar  1 <1>  -0.1500 
  9 C       -3.6060    -1.8560     2.2150 C.3   1 <1>  -0.1600 
 10 C       -4.5200    -0.4970     0.3020 C.3   1 <1>  -0.1600 
 11 N       -0.4910     3.5160    -0.5760 N.ar  1 <1>  -0.6200 
 12 C       -2.2700     4.6050     0.5830 C.ar  1 <1>  -0.1500 
 13 C       -4.7590    -1.7150     1.2100 C.3   1 <1>   0.4240 
 14 C       -1.2660     4.5800    -0.3840 C.ar  1 <1>   0.4100 
 15 O       -5.9030    -1.4570     1.9910 O.3   1 <1>  -0.5600 
 16 C       -4.9100    -3.0090     0.3810 C.ar  1 <1>  -0.1430 
 17 N       -1.0410     5.6800    -1.1870 N.pl3 1 <1>  -0.8380 
 18 C       -7.1470    -1.7390     1.4290 C.3   1 <1>   0.1200 
 19 C       -6.0940    -3.7350     0.3840 C.ar  1 <1>  -0.1440 
 20 C       -3.8560    -3.4730    -0.3960 C.ar  1 <1>  -0.1500 
 21 C       -2.1630     6.3740    -1.8720 C.3   1 <1>   0.1290 
 22 C        0.3020     5.9040    -1.7920 C.3   1 <1>   0.1290 
 23 C       -7.2620    -3.2450     1.2160 C.3   1 <1>  -0.0170 
 24 C       -6.2140    -4.8930    -0.3670 C.ar  1 <1>  -0.1500 
 25 C       -3.9570    -4.6320    -1.1470 C.ar  1 <1>   0.0830 
 26 C       -5.1580    -5.3560    -1.1480 C.ar  1 <1>   0.0830 
 27 O       -2.8340    -4.9640    -1.8450 O.3   1 <1>  -0.3620 
 28 O       -5.2790    -6.4770    -1.9180 O.3   1 <1>  -0.3620 
 29 C       -2.4650    -6.3150    -2.0170 C.3   1 <1>   0.0400 
 30 C       -6.5120    -7.1380    -2.0940 C.3   1 <1>   0.0400 
 31 H       -4.2340    -0.3410     3.6080 H     1 <1>   0.0800 
 32 H       -2.5270    -0.6830     3.6570 H     1 <1>   0.0800 
 33 H       -4.0790     1.5900     0.4340 H     1 <1>   0.0800 
 34 H       -5.1640     1.0270     1.6780 H     1 <1>   0.0800 
 35 H       -0.1000     1.6070     0.0470 H     1 <1>   0.1500 
 36 H       -3.2770     3.5020     2.1210 H     1 <1>   0.1500 
 37 H       -3.8230    -2.6610     2.8920 H     1 <1>   0.0800 
 38 H       -2.6930    -2.1000     1.7050 H     1 <1>   0.0800 
 39 H       -3.6540    -0.6700    -0.3100 H     1 <1>   0.0800 
 40 H       -5.3520    -0.3650    -0.3640 H     1 <1>   0.0800 
 41 H       -2.8410     5.5040     0.7110 H     1 <1>   0.1500 
 42 H       -7.2450    -1.2080     0.4980 H     1 <1>   0.0800 
 43 H       -7.9030    -1.3970     2.1120 H     1 <1>   0.0800 
 44 H       -2.9250    -2.9390    -0.4310 H     1 <1>   0.1500 
 45 H       -3.1020     5.9090    -1.6280 H     1 <1>   0.0800 
 46 H       -2.0270     6.3240    -2.9390 H     1 <1>   0.0800 
 47 H       -2.1900     7.4050    -1.5670 H     1 <1>   0.0800 
 48 H        1.0690     5.5410    -1.1290 H     1 <1>   0.0800 
 49 H        0.4610     6.9540    -1.9590 H     1 <1>   0.0800 
 50 H        0.3720     5.3750    -2.7260 H     1 <1>   0.0800 
 51 H       -8.1910    -3.4620     0.7200 H     1 <1>   0.0800 
 52 H       -7.2620    -3.7430     2.1690 H     1 <1>   0.0800 
 53 H       -7.1450    -5.4240    -0.3310 H     1 <1>   0.1500 
 54 H       -1.4110    -6.3510    -2.2240 H     1 <1>   0.0800 
 55 H       -3.0130    -6.7200    -2.8490 H     1 <1>   0.0800 
 56 H       -2.6840    -6.8580    -1.1150 H     1 <1>   0.0800 
 57 H       -6.3650    -7.9390    -2.7960 H     1 <1>   0.0800 
 58 H       -7.2310    -6.4390    -2.4830 H     1 <1>   0.0800 
 59 H       -6.8330    -7.5380    -1.1480 H     1 <1>   0.0800 
@<TRIPOS>BOND
  1   1   2  2   
  2   2   3  am  
  3   2   4  1   
  4   3   5  1   
  5   3   6  1   
  6   4   7  ar  
  7   4   8  ar  
  8   5   9  1   
  9   5  31  1   
 10   5  32  1   
 11   6  10  1   
 12   6  33  1   
 13   6  34  1   
 14   7  11  ar  
 15   7  35  1   
 16   8  12  ar  
 17   8  36  1   
 18   9  13  1   
 19   9  37  1   
 20   9  38  1   
 21  10  13  1   
 22  10  39  1   
 23  10  40  1   
 24  11  14  ar  
 25  12  14  ar  
 26  12  41  1   
 27  13  15  1   
 28  13  16  1   
 29  14  17  1   
 30  15  18  1   
 31  16  19  ar  
 32  16  20  ar  
 33  17  21  1   
 34  17  22  1   
 35  18  23  1   
 36  18  42  1   
 37  18  43  1   
 38  19  23  1   
 39  19  24  ar  
 40  20  25  ar  
 41  20  44  1   
 42  21  45  1   
 43  21  46  1   
 44  21  47  1   
 45  22  48  1   
 46  22  49  1   
 47  22  50  1   
 48  23  51  1   
 49  23  52  1   
 50  24  26  ar  
 51  24  53  1   
 52  25  26  ar  
 53  25  27  1   
 54  26  28  1   
 55  27  29  1   
 56  28  30  1   
 57  29  54  1   
 58  29  55  1   
 59  29  56  1   
 60  30  57  1   
 61  30  58  1   
 62  30  59  1   
@<TRIPOS>SUBSTRUCTURE
  1 ****  10 GROUP 4 **** **** 0

# MOE 2024.06 (io_trps.svl 2023.06)
