@<TRIPOS>MOLECULE
NONAME
51 53 1 0 0 
SMALL
USER_CHARGES


@<TRIPOS>ATOM
  1 O       -1.3850     0.3160     2.2160 O.2   1 <1>  -0.5700 
  2 C       -2.1910     1.0800     1.7160 C.2   1 <1>   0.5440 
  3 N       -3.4840     0.6410     1.5220 N.am  1 <1>  -0.6600 
  4 C       -1.7790     2.4100     1.3540 C.ar  1 <1>   0.0860 
  5 C       -3.8860    -0.7480     1.8840 C.3   1 <1>   0.1400 
  6 C       -4.4510     1.3000     0.5970 C.3   1 <1>   0.1400 
  7 C       -1.2920     2.6960     0.0740 C.ar  1 <1>   0.3920 
  8 C       -1.8590     3.4550     2.2640 C.ar  1 <1>  -0.1500 
  9 C       -3.8880    -1.5970     0.5920 C.3   1 <1>   0.4230 
 10 C       -4.5440     0.4650    -0.6910 C.3   1 <1>  -0.1600 
 11 O       -1.2180     1.6760    -0.8100 O.3   1 <1>  -0.3630 
 12 N       -0.9060     3.8990    -0.3450 N.ar  1 <1>  -0.6200 
 13 C       -1.4590     4.7010     1.8450 C.ar  1 <1>  -0.1500 
 14 N       -4.1320    -3.0630     0.8100 N.4   1 <1>  -0.9590 
 15 C       -4.9140    -1.0210    -0.4110 C.3   1 <1>  -0.1060 
 16 C       -0.7080     1.8560    -2.1170 C.3   1 <1>   0.0400 
 17 C       -0.9960     4.8740     0.5500 C.ar  1 <1>   0.3930 
 18 C       -3.9950    -3.8390    -0.4470 C.3   1 <1>   0.3430 
 19 C       -3.3750    -3.6680     1.9380 C.3   1 <1>   0.2630 
 20 C       -6.3200    -1.1280     0.2110 C.2   1 <1>   0.9060 
 21 C       -4.8380    -1.8110    -1.7390 C.3   1 <1>  -0.1600 
 22 O       -0.6220     6.1180     0.1980 O.3   1 <1>  -0.3630 
 23 C       -4.9730    -3.3240    -1.5060 C.3   1 <1>  -0.1600 
 24 O       -6.5770    -2.0900     0.9540 O.co2 1 <1>  -0.9000 
 25 O       -7.1560    -0.2560    -0.0220 O.co2 1 <1>  -0.9000 
 26 C       -0.1180     6.3980    -1.0930 C.3   1 <1>   0.0400 
 27 H       -3.1940    -1.1470     2.6010 H     1 <1>   0.0800 
 28 H       -4.8630    -0.7290     2.3360 H     1 <1>   0.0800 
 29 H       -5.4180     1.3570     1.0710 H     1 <1>   0.0800 
 30 H       -4.1440     2.3030     0.3600 H     1 <1>   0.0800 
 31 H       -2.2220     3.2820     3.2620 H     1 <1>   0.1500 
 32 H       -2.9070    -1.4900     0.1610 H     1 <1>   0.0800 
 33 H       -5.2880     0.9070    -1.3310 H     1 <1>   0.0800 
 34 H       -3.6030     0.5260    -1.2070 H     1 <1>   0.0800 
 35 H       -1.4960     5.5490     2.5040 H     1 <1>   0.1500 
 36 H       -5.1630    -3.0560     1.0420 H     1 <1>   0.4500 
 37 H       -0.7360     0.9100    -2.6250 H     1 <1>   0.0800 
 38 H        0.3060     2.2100    -2.0480 H     1 <1>   0.0800 
 39 H       -1.3210     2.5740    -2.6340 H     1 <1>   0.0800 
 40 H       -2.9860    -3.7510    -0.8160 H     1 <1>   0.0800 
 41 H       -4.2000    -4.8800    -0.2560 H     1 <1>   0.0800 
 42 H       -2.3150    -3.5670     1.7730 H     1 <1>   0.0800 
 43 H       -3.6200    -4.7130     2.0300 H     1 <1>   0.0800 
 44 H       -3.6320    -3.1780     2.8630 H     1 <1>   0.0800 
 45 H       -5.6260    -1.4780    -2.3960 H     1 <1>   0.0800 
 46 H       -3.8980    -1.6150    -2.2260 H     1 <1>   0.0800 
 47 H       -4.8000    -3.8440    -2.4300 H     1 <1>   0.0800 
 48 H       -5.9780    -3.5550    -1.1950 H     1 <1>   0.0800 
 49 H        0.1190     7.4450    -1.1440 H     1 <1>   0.0800 
 50 H       -0.8700     6.1520    -1.8210 H     1 <1>   0.0800 
 51 H        0.7680     5.8100    -1.2550 H     1 <1>   0.0800 
@<TRIPOS>BOND
  1   1   2  2   
  2   2   3  am  
  3   2   4  1   
  4   3   5  1   
  5   3   6  1   
  6   4   7  ar  
  7   4   8  ar  
  8   5   9  1   
  9   5  27  1   
 10   5  28  1   
 11   6  10  1   
 12   6  29  1   
 13   6  30  1   
 14   7  11  1   
 15   7  12  ar  
 16   8  13  ar  
 17   8  31  1   
 18   9  14  1   
 19   9  15  1   
 20   9  32  1   
 21  10  15  1   
 22  10  33  1   
 23  10  34  1   
 24  11  16  1   
 25  12  17  ar  
 26  13  17  ar  
 27  13  35  1   
 28  14  18  1   
 29  14  19  1   
 30  14  36  1   
 31  15  20  1   
 32  15  21  1   
 33  16  37  1   
 34  16  38  1   
 35  16  39  1   
 36  17  22  1   
 37  18  23  1   
 38  18  40  1   
 39  18  41  1   
 40  19  42  1   
 41  19  43  1   
 42  19  44  1   
 43  20  24  ar  
 44  20  25  ar  
 45  21  23  1   
 46  21  45  1   
 47  21  46  1   
 48  22  26  1   
 49  23  47  1   
 50  23  48  1   
 51  26  49  1   
 52  26  50  1   
 53  26  51  1   
@<TRIPOS>SUBSTRUCTURE
  1 ****   3 GROUP 4 **** **** 0

# MOE 2024.06 (io_trps.svl 2023.06)
