@<TRIPOS>MOLECULE
NONAME
48 50 1 0 0 
SMALL
USER_CHARGES


@<TRIPOS>ATOM
  1 CL       0.3130     0.5710    -0.6630 Cl    1 <1>  -0.1770 
  2 C        1.7260    -0.4530    -0.5460 C.ar  1 <1>   0.1770 
  3 C        2.8690     0.0060     0.1010 C.ar  1 <1>   0.0860 
  4 C        1.6730    -1.7070    -1.1260 C.ar  1 <1>  -0.1500 
  5 C        2.9460     1.3220     0.6850 C.2   1 <1>   0.5440 
  6 C        3.9660    -0.8470     0.1490 C.ar  1 <1>  -0.1500 
  7 C        2.7850    -2.5270    -1.0730 C.ar  1 <1>  -0.1500 
  8 O        2.5860     1.4620     1.8380 O.2   1 <1>  -0.5700 
  9 N        3.4750     2.3960    -0.0170 N.am  1 <1>  -0.6600 
 10 C        3.9490    -2.1050    -0.4390 C.ar  1 <1>   0.1000 
 11 C        3.8420     3.6800     0.6560 C.3   1 <1>   0.2200 
 12 C        4.1530     2.2100    -1.3380 C.3   1 <1>   0.1400 
 13 N        5.0660    -2.9360    -0.4120 N.pl3 1 <1>  -0.8380 
 14 C        4.9700     3.4440     1.6870 C.3   1 <1>   0.1400 
 15 C        2.6160     4.3880     1.2440 C.3   1 <1>  -0.2400 
 16 C        5.6590     2.5000    -1.2540 C.3   1 <1>  -0.0990 
 17 C        4.9830    -4.2340     0.3080 C.3   1 <1>   0.2090 
 18 C        6.4400    -2.3780    -0.5910 C.3   1 <1>   0.2090 
 19 N        6.0710     2.5310     1.2260 N.am  1 <1>  -0.7300 
 20 C        6.3040     1.9720     0.0120 C.2   1 <1>   0.5690 
 21 C        5.7100    -4.1410     1.6520 C.3   1 <1>  -0.1600 
 22 C        7.1900    -2.3240     0.7460 C.3   1 <1>  -0.1600 
 23 O        7.0600     1.0380    -0.0780 O.2   1 <1>  -0.5700 
 24 C        7.1600    -3.6690     1.4810 C.3   1 <1>  -0.1600 
 25 H        0.7740    -2.0320    -1.6160 H     1 <1>   0.1500 
 26 H        4.8510    -0.5150     0.6570 H     1 <1>   0.1500 
 27 H        2.7680    -3.5000    -1.5300 H     1 <1>   0.1500 
 28 H        4.2230     4.3580    -0.0860 H     1 <1>   0.0800 
 29 H        3.6990     2.8690    -2.0590 H     1 <1>   0.0800 
 30 H        4.0190     1.2070    -1.7000 H     1 <1>   0.0800 
 31 H        4.5290     3.0150     2.5710 H     1 <1>   0.0800 
 32 H        5.3940     4.3910     1.9680 H     1 <1>   0.0800 
 33 H        2.2350     3.8720     2.1060 H     1 <1>   0.0800 
 34 H        1.8410     4.4540     0.5030 H     1 <1>   0.0800 
 35 H        2.8830     5.3840     1.5480 H     1 <1>   0.0800 
 36 H        5.8430     3.5550    -1.3210 H     1 <1>   0.0800 
 37 H        6.1410     2.0500    -2.1020 H     1 <1>   0.0800 
 38 H        5.4330    -4.9990    -0.3010 H     1 <1>   0.0800 
 39 H        3.9520    -4.4970     0.4740 H     1 <1>   0.0800 
 40 H        6.3860    -1.3920    -1.0210 H     1 <1>   0.0800 
 41 H        6.9770    -3.0070    -1.2790 H     1 <1>   0.0800 
 42 H        6.5890     2.0880     1.9890 H     1 <1>   0.3700 
 43 H        5.6950    -5.1040     2.1300 H     1 <1>   0.0800 
 44 H        5.1760    -3.4520     2.2830 H     1 <1>   0.0800 
 45 H        6.7460    -1.5650     1.3640 H     1 <1>   0.0800 
 46 H        8.2070    -2.0290     0.5630 H     1 <1>   0.0800 
 47 H        7.7120    -4.4000     0.9150 H     1 <1>   0.0800 
 48 H        7.6270    -3.5670     2.4450 H     1 <1>   0.0800 
@<TRIPOS>BOND
  1   1   2  1   
  2   2   3  ar  
  3   2   4  ar  
  4   3   5  1   
  5   3   6  ar  
  6   4   7  ar  
  7   4  25  1   
  8   5   8  2   
  9   5   9  am  
 10   6  10  ar  
 11   6  26  1   
 12   7  10  ar  
 13   7  27  1   
 14   9  11  1   
 15   9  12  1   
 16  10  13  1   
 17  11  14  1   
 18  11  15  1   
 19  11  28  1   
 20  12  16  1   
 21  12  29  1   
 22  12  30  1   
 23  13  17  1   
 24  13  18  1   
 25  14  19  1   
 26  14  31  1   
 27  14  32  1   
 28  15  33  1   
 29  15  34  1   
 30  15  35  1   
 31  16  20  1   
 32  16  36  1   
 33  16  37  1   
 34  17  21  1   
 35  17  38  1   
 36  17  39  1   
 37  18  22  1   
 38  18  40  1   
 39  18  41  1   
 40  19  20  am  
 41  19  42  1   
 42  20  23  2   
 43  21  24  1   
 44  21  43  1   
 45  21  44  1   
 46  22  24  1   
 47  22  45  1   
 48  22  46  1   
 49  24  47  1   
 50  24  48  1   
@<TRIPOS>SUBSTRUCTURE
  1 ****   6 GROUP 4 **** **** 0

# MOE 2024.06 (io_trps.svl 2023.06)
