@<TRIPOS>MOLECULE
Untitled Document
63 66 1 0 0 
SMALL
USER_CHARGES


@<TRIPOS>ATOM
  1 O       -0.9200    -1.3120    -0.1140 O.2   1 <1>  -0.5700 
  2 C       -0.8500    -2.5120     0.0050 C.2   1 <1>   0.5690 
  3 N       -1.5840    -3.2640     0.8600 N.am  1 <1>  -0.4690 
  4 C        0.0840    -3.4080    -0.7910 C.3   1 <1>  -0.0190 
  5 C       -1.2010    -4.6020     0.8130 C.2   1 <1>  -0.0290 
  6 C       -2.6070    -2.7070     1.7720 C.3   1 <1>   0.2840 
  7 C        0.1640    -4.6640     0.1240 C.3   1 <1>   0.1990 
  8 C        1.4170    -2.7470    -1.2100 C.3   1 <1>  -0.0990 
  9 C       -1.8880    -5.6790     1.2200 C.2   1 <1>  -0.2880 
 10 C       -4.0040    -2.8890     1.1930 C.ar  1 <1>  -0.1440 
 11 C        1.2680    -4.5210     1.2170 C.2   1 <1>   0.6590 
 12 C        0.1910    -6.0070    -0.6520 C.3   1 <1>  -0.1600 
 13 C        1.2390    -1.8160    -2.3950 C.2   1 <1>   0.5690 
 14 C       -1.4170    -7.1110     1.0080 C.3   1 <1>  -0.0220 
 15 C       -4.3570    -2.2630     0.0080 C.ar  1 <1>  -0.1500 
 16 C       -4.9440    -3.6740     1.8430 C.ar  1 <1>  -0.1500 
 17 O        0.9940    -4.3170     2.3710 O.2   1 <1>  -0.5700 
 18 O        2.5600    -4.5190     0.8880 O.3   1 <1>  -0.4300 
 19 C       -0.0450    -7.1920     0.3080 C.3   1 <1>  -0.1600 
 20 O        1.0200    -2.3220    -3.4660 O.2   1 <1>  -0.5700 
 21 N        1.3450    -0.4700    -2.3060 N.am  1 <1>  -0.7300 
 22 C       -5.6260    -2.4230    -0.5180 C.ar  1 <1>  -0.1500 
 23 C       -6.2120    -3.8310     1.3130 C.ar  1 <1>  -0.1500 
 24 C        3.2510    -5.5430     0.2150 C.3   1 <1>   0.1200 
 25 C        1.4310     0.4100    -1.1110 C.3   1 <1>   0.0600 
 26 C       -6.5770    -3.2090     0.1240 C.ar  1 <1>   0.0000 
 27 C        4.7280    -5.4110     0.5680 C.3   1 <1>  -0.2400 
 28 C       -7.9030    -3.3750    -0.4270 C.ar  1 <1>   0.0000 
 29 C       -8.7300    -2.2770    -0.6460 C.ar  1 <1>  -0.1500 
 30 C       -8.3910    -4.6370    -0.7530 C.ar  1 <1>  -0.1500 
 31 C      -10.0000    -2.4320    -1.1710 C.ar  1 <1>  -0.1500 
 32 C       -9.6610    -4.7990    -1.2780 C.ar  1 <1>  -0.1500 
 33 C      -10.4680    -3.6950    -1.4880 C.ar  1 <1>  -0.1500 
 34 H       -0.4530    -3.6770    -1.6830 H     1 <1>   0.0800 
 35 H       -2.5250    -3.1990     2.7250 H     1 <1>   0.0800 
 36 H       -2.4180    -1.6580     1.9240 H     1 <1>   0.0800 
 37 H        2.0990    -3.5080    -1.5370 H     1 <1>   0.0800 
 38 H        1.8700    -2.2380    -0.3830 H     1 <1>   0.0800 
 39 H       -2.8500    -5.6140     1.6970 H     1 <1>   0.1500 
 40 H       -0.6010    -6.0060    -1.3820 H     1 <1>   0.0800 
 41 H        1.1050    -6.1340    -1.1950 H     1 <1>   0.0800 
 42 H       -1.3730    -7.6240     1.9540 H     1 <1>   0.0800 
 43 H       -2.1480    -7.6100     0.3970 H     1 <1>   0.0800 
 44 H       -3.6400    -1.6470    -0.5100 H     1 <1>   0.1500 
 45 H       -4.6930    -4.1670     2.7660 H     1 <1>   0.1500 
 46 H        0.0190    -8.1200    -0.2330 H     1 <1>   0.0800 
 47 H        0.7210    -7.2070     1.0630 H     1 <1>   0.0800 
 48 H        1.1990     0.0180    -3.1930 H     1 <1>   0.3700 
 49 H       -5.8840    -1.9360    -1.4420 H     1 <1>   0.1500 
 50 H       -6.9350    -4.4380     1.8280 H     1 <1>   0.1500 
 51 H        2.8710    -6.4950     0.5410 H     1 <1>   0.0800 
 52 H        3.1130    -5.4230    -0.8450 H     1 <1>   0.0800 
 53 H        1.4460    -0.1610    -0.2000 H     1 <1>   0.0800 
 54 H        0.5730     1.0590    -1.0840 H     1 <1>   0.0800 
 55 H        2.3240     1.0080    -1.1630 H     1 <1>   0.0800 
 56 H        4.8640    -5.5140     1.6300 H     1 <1>   0.0800 
 57 H        5.1020    -4.4540     0.2510 H     1 <1>   0.0800 
 58 H        5.2920    -6.1800     0.0740 H     1 <1>   0.0800 
 59 H       -8.3710    -1.2940    -0.3970 H     1 <1>   0.1500 
 60 H       -7.7650    -5.4970    -0.5950 H     1 <1>   0.1500 
 61 H      -10.6250    -1.5710    -1.3330 H     1 <1>   0.1500 
 62 H      -10.0200    -5.7820    -1.5240 H     1 <1>   0.1500 
 63 H      -11.4560    -3.8180    -1.8970 H     1 <1>   0.1500 
@<TRIPOS>BOND
  1   1   2  2   
  2   2   3  am  
  3   2   4  1   
  4   3   5  1   
  5   3   6  1   
  6   4   7  1   
  7   4   8  1   
  8   4  34  1   
  9   5   7  1   
 10   5   9  2   
 11   6  10  1   
 12   6  35  1   
 13   6  36  1   
 14   7  11  1   
 15   7  12  1   
 16   8  13  1   
 17   8  37  1   
 18   8  38  1   
 19   9  14  1   
 20   9  39  1   
 21  10  15  ar  
 22  10  16  ar  
 23  11  17  2   
 24  11  18  1   
 25  12  19  1   
 26  12  40  1   
 27  12  41  1   
 28  13  20  2   
 29  13  21  am  
 30  14  19  1   
 31  14  42  1   
 32  14  43  1   
 33  15  22  ar  
 34  15  44  1   
 35  16  23  ar  
 36  16  45  1   
 37  18  24  1   
 38  19  46  1   
 39  19  47  1   
 40  21  25  1   
 41  21  48  1   
 42  22  26  ar  
 43  22  49  1   
 44  23  26  ar  
 45  23  50  1   
 46  24  27  1   
 47  24  51  1   
 48  24  52  1   
 49  25  53  1   
 50  25  54  1   
 51  25  55  1   
 52  26  28  1   
 53  27  56  1   
 54  27  57  1   
 55  27  58  1   
 56  28  29  ar  
 57  28  30  ar  
 58  29  31  ar  
 59  29  59  1   
 60  30  32  ar  
 61  30  60  1   
 62  31  33  ar  
 63  31  61  1   
 64  32  33  ar  
 65  32  62  1   
 66  33  63  1   
@<TRIPOS>SUBSTRUCTURE
  1 ****   3 GROUP 4 **** **** 0

# MOE 2024.06 (io_trps.svl 2023.06)
