@<TRIPOS>MOLECULE
NONAME
53 55 1 0 0 
SMALL
USER_CHARGES


@<TRIPOS>ATOM
  1 O        0.3380     0.2170    -0.9600 O.3   1 <1>  -0.5600 
  2 C        1.5480    -0.4950    -0.9100 C.3   1 <1>   0.2000 
  3 C        0.4800     1.5900    -1.1600 C.3   1 <1>   0.1200 
  4 C        2.5370     0.1060     0.1400 C.3   1 <1>   0.3340 
  5 C        1.1470    -1.9580    -0.6330 C.3   1 <1>   0.1200 
  6 C        1.2750     2.1990    -0.0020 C.3   1 <1>   0.1100 
  7 N        2.6140     1.5900     0.0900 N.3   1 <1>  -0.8100 
  8 C        3.9560    -0.4270    -0.0850 C.ar  1 <1>  -0.1440 
  9 O        2.2390    -2.7980    -0.4340 O.3   1 <1>  -0.6800 
 10 C        3.3240     2.1210     1.2780 C.3   1 <1>   0.2900 
 11 C        4.5790    -1.1930     0.8910 C.ar  1 <1>  -0.1500 
 12 C        4.6420    -0.1500    -1.2620 C.ar  1 <1>  -0.1500 
 13 C        3.6020     3.6150     1.1610 C.2   1 <1>   0.0070 
 14 C        5.8620    -1.6770     0.7000 C.ar  1 <1>   0.0830 
 15 C        5.9290    -0.6190    -1.4560 C.ar  1 <1>  -0.1500 
 16 N        3.0570     4.5060     1.9300 N.2   1 <1>  -0.5650 
 17 N        4.4540     4.1360     0.2420 N.pl3 1 <1>   0.0480 
 18 O        6.3890    -2.4510     1.6780 O.3   1 <1>  -0.3630 
 19 C        6.5550    -1.3680    -0.4750 C.ar  1 <1>   0.0830 
 20 C        3.5780     5.6670     1.4950 C.2   1 <1>   0.0770 
 21 C        4.4300     5.4620     0.4690 C.2   1 <1>  -0.3020 
 22 C        5.2310     3.4420    -0.8080 C.3   1 <1>   0.0960 
 23 C        6.5140    -3.8220     1.3700 C.3   1 <1>   0.0400 
 24 O        7.8280    -1.7680    -0.7150 O.3   1 <1>  -0.3630 
 25 C        6.5420     2.8820    -0.2480 C.3   1 <1>  -0.2400 
 26 C        8.8200    -1.3020     0.1740 C.3   1 <1>   0.0400 
 27 H        1.9850    -0.4360    -1.8900 H     1 <1>   0.0800 
 28 H        0.9770     1.7610    -2.0990 H     1 <1>   0.0800 
 29 H       -0.5050     2.0200    -1.2010 H     1 <1>   0.0800 
 30 H        2.1920    -0.1940     1.1150 H     1 <1>   0.0800 
 31 H        0.5860    -2.3420    -1.4660 H     1 <1>   0.0800 
 32 H        0.5400    -2.0090     0.2530 H     1 <1>   0.0800 
 33 H        0.7310     2.0510     0.9160 H     1 <1>   0.0800 
 34 H        1.3700     3.2590    -0.1650 H     1 <1>   0.0800 
 35 H        2.9390    -2.6370    -1.0990 H     1 <1>   0.4000 
 36 H        2.7360     1.9450     2.1630 H     1 <1>   0.0800 
 37 H        4.2650     1.6190     1.4080 H     1 <1>   0.0800 
 38 H        4.0690    -1.4330     1.8060 H     1 <1>   0.1500 
 39 H        4.1730     0.4450    -2.0270 H     1 <1>   0.1500 
 40 H        6.4590    -0.4000    -2.3660 H     1 <1>   0.1500 
 41 H        3.3080     6.6050     1.9510 H     1 <1>   0.1500 
 42 H        5.0060     6.1700    -0.0970 H     1 <1>   0.1500 
 43 H        4.6310     2.6490    -1.2150 H     1 <1>   0.0800 
 44 H        5.4390     4.1420    -1.5960 H     1 <1>   0.0800 
 45 H        6.8920    -4.3300     2.2380 H     1 <1>   0.0800 
 46 H        7.1960    -3.9390     0.5470 H     1 <1>   0.0800 
 47 H        5.5440    -4.2080     1.1090 H     1 <1>   0.0800 
 48 H        6.3450     2.1450     0.5100 H     1 <1>   0.0800 
 49 H        7.1380     3.6740     0.1700 H     1 <1>   0.0800 
 50 H        7.1010     2.4110    -1.0360 H     1 <1>   0.0800 
 51 H        9.7820    -1.5400    -0.2430 H     1 <1>   0.0800 
 52 H        8.7060    -1.7890     1.1250 H     1 <1>   0.0800 
 53 H        8.7180    -0.2370     0.2840 H     1 <1>   0.0800 
@<TRIPOS>BOND
  1   1   2  1   
  2   1   3  1   
  3   2   4  1   
  4   2   5  1   
  5   2  27  1   
  6   3   6  1   
  7   3  28  1   
  8   3  29  1   
  9   4   7  1   
 10   4   8  1   
 11   4  30  1   
 12   5   9  1   
 13   5  31  1   
 14   5  32  1   
 15   6   7  1   
 16   6  33  1   
 17   6  34  1   
 18   7  10  1   
 19   8  11  ar  
 20   8  12  ar  
 21   9  35  1   
 22  10  13  1   
 23  10  36  1   
 24  10  37  1   
 25  11  14  ar  
 26  11  38  1   
 27  12  15  ar  
 28  12  39  1   
 29  13  16  2   
 30  13  17  1   
 31  14  18  1   
 32  14  19  ar  
 33  15  19  ar  
 34  15  40  1   
 35  16  20  1   
 36  17  21  1   
 37  17  22  1   
 38  18  23  1   
 39  19  24  1   
 40  20  21  2   
 41  20  41  1   
 42  21  42  1   
 43  22  25  1   
 44  22  43  1   
 45  22  44  1   
 46  23  45  1   
 47  23  46  1   
 48  23  47  1   
 49  24  26  1   
 50  25  48  1   
 51  25  49  1   
 52  25  50  1   
 53  26  51  1   
 54  26  52  1   
 55  26  53  1   
@<TRIPOS>SUBSTRUCTURE
  1 ****   8 GROUP 4 **** **** 0

# MOE 2024.06 (io_trps.svl 2023.06)
