@<TRIPOS>MOLECULE
NONAME
47 49 1 0 0 
SMALL
USER_CHARGES


@<TRIPOS>ATOM
  1 O       -0.6520    -2.9090    -0.9250 O.3   1 <1>  -0.6800 
  2 C       -1.8610    -2.3360    -1.2890 C.3   1 <1>   0.1200 
  3 C       -2.5850    -1.8220    -0.0170 C.3   1 <1>   0.4230 
  4 N       -4.0040    -1.3610    -0.2760 N.4   1 <1>  -0.9590 
  5 C       -1.7830    -0.6670     0.6110 C.3   1 <1>  -0.1600 
  6 C       -4.6520    -0.9170     1.0010 C.3   1 <1>   0.3430 
  7 C       -4.8320    -2.4220    -0.9560 C.3   1 <1>   0.3430 
  8 C       -2.4340    -0.1140     1.8830 C.3   1 <1>  -0.1600 
  9 C       -3.8900     0.2590     1.6070 C.3   1 <1>  -0.1600 
 10 C       -6.2530    -1.9620    -1.3630 C.3   1 <1>   0.2090 
 11 N       -6.9750    -3.0170    -2.1420 N.pl3 1 <1>  -0.8690 
 12 C       -7.4710    -4.1690    -1.6000 C.ar  1 <1>   0.7710 
 13 N       -8.2640    -4.9640    -2.3850 N.ar  1 <1>  -0.1790 
 14 N       -7.1590    -4.4690    -0.3670 N.ar  1 <1>  -0.5670 
 15 C       -8.7920    -6.1170    -1.9540 C.ar  1 <1>   0.4610 
 16 C       -7.6880    -5.6290     0.1080 C.ar  1 <1>   0.1050 
 17 N       -9.5560    -6.8620    -2.7670 N.pl3 1 <1>  -0.9000 
 18 C       -8.4880    -6.4650    -0.6340 C.ar  1 <1>   0.0000 
 19 N       -7.5670    -6.2020     1.3340 N.pl3 1 <1>   0.3140 
 20 C       -8.7900    -7.5190     0.2400 C.2   1 <1>   0.1390 
 21 N       -8.2490    -7.3690     1.4000 N.2   1 <1>  -0.7070 
 22 C       -6.8240    -5.7100     2.5040 C.3   1 <1>   0.0160 
 23 H       -0.1150    -3.1720    -1.7040 H     1 <1>   0.4000 
 24 H       -2.4210    -3.1030    -1.7910 H     1 <1>   0.0800 
 25 H       -1.6530    -1.5260    -1.9670 H     1 <1>   0.0800 
 26 H       -2.6160    -2.6380     0.6860 H     1 <1>   0.0800 
 27 H       -3.9240    -0.5320    -0.8800 H     1 <1>   0.4500 
 28 H       -1.6610     0.1240    -0.1080 H     1 <1>   0.0800 
 29 H       -0.7960    -1.0170     0.8640 H     1 <1>   0.0800 
 30 H       -4.6660    -1.7330     1.7070 H     1 <1>   0.0800 
 31 H       -5.6690    -0.6090     0.8210 H     1 <1>   0.0800 
 32 H       -4.9180    -3.2750    -0.3020 H     1 <1>   0.0800 
 33 H       -4.3320    -2.7410    -1.8540 H     1 <1>   0.0800 
 34 H       -1.8900     0.7510     2.2260 H     1 <1>   0.0800 
 35 H       -2.3900    -0.8580     2.6620 H     1 <1>   0.0800 
 36 H       -4.3620     0.5460     2.5320 H     1 <1>   0.0800 
 37 H       -3.9390     1.1070     0.9460 H     1 <1>   0.0800 
 38 H       -6.1810    -1.0740    -1.9690 H     1 <1>   0.0800 
 39 H       -6.8300    -1.7300    -0.4840 H     1 <1>   0.0800 
 40 H       -7.2680    -2.7020    -3.0740 H     1 <1>   0.4000 
 41 H       -8.4510    -4.6620    -3.3300 H     1 <1>   0.4570 
 42 H       -9.9710    -7.7520    -2.4560 H     1 <1>   0.4000 
 43 H       -9.8150    -6.6630    -3.7410 H     1 <1>   0.4000 
 44 H       -9.4060    -8.3660    -0.0170 H     1 <1>   0.1500 
 45 H       -6.4490    -4.7240     2.3120 H     1 <1>   0.0800 
 46 H       -6.0090    -6.3810     2.7070 H     1 <1>   0.0800 
 47 H       -7.4840    -5.6900     3.3510 H     1 <1>   0.0800 
@<TRIPOS>BOND
  1   1   2  1   
  2   1  23  1   
  3   2   3  1   
  4   2  24  1   
  5   2  25  1   
  6   3   4  1   
  7   3   5  1   
  8   3  26  1   
  9   4   6  1   
 10   4   7  1   
 11   4  27  1   
 12   5   8  1   
 13   5  28  1   
 14   5  29  1   
 15   6   9  1   
 16   6  30  1   
 17   6  31  1   
 18   7  10  1   
 19   7  32  1   
 20   7  33  1   
 21   8   9  1   
 22   8  34  1   
 23   8  35  1   
 24   9  36  1   
 25   9  37  1   
 26  10  11  1   
 27  10  38  1   
 28  10  39  1   
 29  11  12  1   
 30  11  40  1   
 31  12  13  ar  
 32  12  14  ar  
 33  13  15  ar  
 34  13  41  1   
 35  14  16  ar  
 36  15  17  1   
 37  15  18  ar  
 38  16  18  ar  
 39  16  19  1   
 40  17  42  1   
 41  17  43  1   
 42  18  20  1   
 43  19  21  1   
 44  19  22  1   
 45  20  21  2   
 46  20  44  1   
 47  22  45  1   
 48  22  46  1   
 49  22  47  1   
@<TRIPOS>SUBSTRUCTURE
  1 ****  14 GROUP 4 **** **** 0

# MOE 2024.06 (io_trps.svl 2023.06)
