@<TRIPOS>MOLECULE
NONAME
54 57 1 0 0 
SMALL
USER_CHARGES


@<TRIPOS>ATOM
  1 S        0.1840     0.0820    -0.5600 S.3   1 <1>  -0.0800 
  2 C       -0.5430     1.5900    -0.0290 C.2   1 <1>  -0.1400 
  3 C       -1.1360    -0.8580     0.1090 C.2   1 <1>  -0.1400 
  4 C       -1.7040     1.3430     0.6070 C.2   1 <1>  -0.1500 
  5 C        0.2110     2.8740    -0.3570 C.3   1 <1>   0.1000 
  6 C       -2.0410    -0.0440     0.6890 C.2   1 <1>  -0.1500 
  7 C       -1.0230    -2.3570    -0.0780 C.3   1 <1>   0.5230 
  8 C        1.4890     2.9790     0.4910 C.3   1 <1>  -0.1600 
  9 C       -0.6740     4.1150    -0.1470 C.3   1 <1>  -0.1600 
 10 N       -2.3630    -2.9790     0.0590 N.4   1 <1>  -0.9590 
 11 C        2.2590     4.2770     0.2020 C.3   1 <1>  -0.1600 
 12 C        0.0910     5.4120    -0.4500 C.3   1 <1>  -0.1600 
 13 C       -3.3500    -2.5620    -0.9740 C.3   1 <1>   0.3430 
 14 C       -2.3710    -4.4690     0.0660 C.3   1 <1>   0.3430 
 15 C        1.3660     5.5100     0.3970 C.3   1 <1>  -0.1600 
 16 C       -4.4580    -3.6060    -0.8400 C.3   1 <1>   0.2000 
 17 C       -3.6620    -4.9020    -0.6500 C.3   1 <1>  -0.0800 
 18 O       -5.1650    -3.3160     0.3240 O.3   1 <1>  -0.6800 
 19 C       -4.4000    -6.0520     0.0660 C.3   1 <1>   0.0200 
 20 C       -3.5340    -7.2960     0.1150 C.2   1 <1>  -0.0400 
 21 O       -2.4240    -7.2890     0.8020 O.3   1 <1>  -0.0190 
 22 C       -3.6630    -8.5090    -0.4450 C.2   1 <1>  -0.1500 
 23 N       -1.7930    -8.4210     0.7200 N.2   1 <1>  -0.4100 
 24 C       -2.5190    -9.1810    -0.0190 C.2   1 <1>   0.1080 
 25 C       -2.1700   -10.6100    -0.3730 C.3   1 <1>  -0.0590 
 26 H       -2.3520     2.0900     1.0340 H     1 <1>   0.1500 
 27 H        0.4910     2.8370    -1.3960 H     1 <1>   0.0800 
 28 H       -2.9490    -0.3380     1.1870 H     1 <1>   0.1500 
 29 H       -0.3450    -2.7550     0.6600 H     1 <1>   0.0800 
 30 H       -0.6220    -2.5650    -1.0570 H     1 <1>   0.0800 
 31 H        1.2240     2.9490     1.5340 H     1 <1>   0.0800 
 32 H        2.1300     2.1390     0.2900 H     1 <1>   0.0800 
 33 H       -1.5370     4.0520    -0.7860 H     1 <1>   0.0800 
 34 H       -1.0140     4.1430     0.8730 H     1 <1>   0.0800 
 35 H       -2.7690    -2.6740     0.9550 H     1 <1>   0.4500 
 36 H        3.1120     4.3430     0.8550 H     1 <1>   0.0800 
 37 H        2.6210     4.2570    -0.8120 H     1 <1>   0.0800 
 38 H        0.3520     5.4390    -1.4940 H     1 <1>   0.0800 
 39 H       -0.5410     6.2600    -0.2470 H     1 <1>   0.0800 
 40 H       -3.7240    -1.5660    -0.8030 H     1 <1>   0.0800 
 41 H       -2.9090    -2.6200    -1.9550 H     1 <1>   0.0800 
 42 H       -1.5150    -4.8680    -0.4540 H     1 <1>   0.0800 
 43 H       -2.3610    -4.8320     1.0810 H     1 <1>   0.0800 
 44 H        1.9120     6.3970     0.1250 H     1 <1>   0.0800 
 45 H        1.0980     5.5940     1.4360 H     1 <1>   0.0800 
 46 H       -5.1340    -3.6140    -1.6790 H     1 <1>   0.0800 
 47 H       -3.3760    -5.2570    -1.6250 H     1 <1>   0.0800 
 48 H       -6.0410    -3.7570     0.3320 H     1 <1>   0.4000 
 49 H       -5.3100    -6.2830    -0.4620 H     1 <1>   0.0800 
 50 H       -4.6590    -5.7750     1.0730 H     1 <1>   0.0800 
 51 H       -4.4370    -8.9080    -1.0740 H     1 <1>   0.1500 
 52 H       -2.9410   -11.2710    -0.0220 H     1 <1>   0.0800 
 53 H       -1.2400   -10.8870     0.0890 H     1 <1>   0.0800 
 54 H       -2.0730   -10.7110    -1.4380 H     1 <1>   0.0800 
@<TRIPOS>BOND
  1   1   2  1   
  2   1   3  1   
  3   2   4  2   
  4   2   5  1   
  5   3   6  2   
  6   3   7  1   
  7   4   6  1   
  8   4  26  1   
  9   5   8  1   
 10   5   9  1   
 11   5  27  1   
 12   6  28  1   
 13   7  10  1   
 14   7  29  1   
 15   7  30  1   
 16   8  11  1   
 17   8  31  1   
 18   8  32  1   
 19   9  12  1   
 20   9  33  1   
 21   9  34  1   
 22  10  13  1   
 23  10  14  1   
 24  10  35  1   
 25  11  15  1   
 26  11  36  1   
 27  11  37  1   
 28  12  15  1   
 29  12  38  1   
 30  12  39  1   
 31  13  16  1   
 32  13  40  1   
 33  13  41  1   
 34  14  17  1   
 35  14  42  1   
 36  14  43  1   
 37  15  44  1   
 38  15  45  1   
 39  16  17  1   
 40  16  18  1   
 41  16  46  1   
 42  17  19  1   
 43  17  47  1   
 44  18  48  1   
 45  19  20  1   
 46  19  49  1   
 47  19  50  1   
 48  20  21  1   
 49  20  22  2   
 50  21  23  1   
 51  22  24  1   
 52  22  51  1   
 53  23  24  2   
 54  24  25  1   
 55  25  52  1   
 56  25  53  1   
 57  25  54  1   
@<TRIPOS>SUBSTRUCTURE
  1 ****   7 GROUP 4 **** **** 0

# MOE 2024.06 (io_trps.svl 2023.06)
