@<TRIPOS>MOLECULE
NONAME
52 54 1 0 0 
SMALL
USER_CHARGES


@<TRIPOS>ATOM
  1 O       -0.3920     0.6180    -0.9100 O.co2 1 <1>  -0.9000 
  2 C       -0.9040     1.2450     0.0190 C.2   1 <1>   0.9060 
  3 O       -1.5270     0.7280     0.9470 O.co2 1 <1>  -0.9000 
  4 C       -0.7690     2.7340     0.0190 C.3   1 <1>  -0.1860 
  5 C       -2.1450     3.3800     0.1670 C.3   1 <1>   0.2000 
  6 C       -0.1020     3.1630    -1.2730 C.3   1 <1>   0.3430 
  7 O       -2.4160     3.3960     1.5120 O.3   1 <1>  -0.6800 
  8 C       -2.1930     4.8200    -0.3560 C.3   1 <1>  -0.1600 
  9 N        0.0710     4.6610    -1.3450 N.4   1 <1>  -0.9590 
 10 C       -0.7930     5.4210    -0.3710 C.3   1 <1>   0.3430 
 11 C        1.5190     5.0230    -1.2930 C.3   1 <1>   0.4230 
 12 C        2.1400     4.7880     0.0930 C.3   1 <1>  -0.1600 
 13 C        1.7120     6.4650    -1.7740 C.3   1 <1>  -0.1600 
 14 C        3.6130     5.1830     0.0770 C.3   1 <1>   0.2090 
 15 C        3.1950     6.8230    -1.7610 C.3   1 <1>   0.2090 
 16 N        3.7060     6.5810    -0.3980 N.pl3 1 <1>  -0.8380 
 17 C        4.8630     7.2720    -0.0530 C.ar  1 <1>   0.1000 
 18 C        4.7810     8.3700     0.7910 C.ar  1 <1>  -0.1500 
 19 C        6.1080     6.8900    -0.5380 C.ar  1 <1>  -0.1500 
 20 C        5.9150     9.0780     1.1490 C.ar  1 <1>  -0.1430 
 21 C        7.2510     7.5880    -0.1880 C.ar  1 <1>  -0.1430 
 22 C        7.1480     8.6820     0.6560 C.ar  1 <1>  -0.1500 
 23 C        5.8230    10.2790     2.0730 C.3   1 <1>  -0.0970 
 24 C        8.6120     7.1720    -0.7160 C.3   1 <1>  -0.0970 
 25 H       -0.1330     2.9890     0.8440 H     1 <1>   0.0800 
 26 H       -2.9090     2.7850    -0.3110 H     1 <1>   0.0800 
 27 H       -0.7160     2.8230    -2.0920 H     1 <1>   0.0800 
 28 H        0.8490     2.6610    -1.3610 H     1 <1>   0.0800 
 29 H       -2.3510     2.4540     1.8200 H     1 <1>   0.4000 
 30 H       -2.5900     4.8270    -1.3540 H     1 <1>   0.0800 
 31 H       -2.8480     5.4130     0.2590 H     1 <1>   0.0800 
 32 H       -0.2550     4.9200    -2.2820 H     1 <1>   0.4500 
 33 H       -0.3850     5.3480     0.6240 H     1 <1>   0.0800 
 34 H       -0.8400     6.4610    -0.6460 H     1 <1>   0.0800 
 35 H        2.0460     4.3880    -1.9860 H     1 <1>   0.0800 
 36 H        1.6540     5.3800     0.8460 H     1 <1>   0.0800 
 37 H        2.0750     3.7520     0.3680 H     1 <1>   0.0800 
 38 H        1.3400     6.5790    -2.7750 H     1 <1>   0.0800 
 39 H        1.2040     7.1590    -1.1290 H     1 <1>   0.0800 
 40 H        4.1760     4.5380    -0.5770 H     1 <1>   0.0800 
 41 H        4.0280     5.1110     1.0690 H     1 <1>   0.0800 
 42 H        3.3310     7.8620    -2.0170 H     1 <1>   0.0800 
 43 H        3.7450     6.2230    -2.4670 H     1 <1>   0.0800 
 44 H        3.8160     8.6590     1.1610 H     1 <1>   0.1500 
 45 H        6.1730     6.0430    -1.1920 H     1 <1>   0.1500 
 46 H        8.0320     9.2280     0.9310 H     1 <1>   0.1500 
 47 H        6.4440    10.1240     2.9370 H     1 <1>   0.0800 
 48 H        4.8120    10.4350     2.4010 H     1 <1>   0.0800 
 49 H        6.1570    11.1620     1.5570 H     1 <1>   0.0800 
 50 H        9.2670     6.9440     0.1040 H     1 <1>   0.0800 
 51 H        9.0390     7.9740    -1.2910 H     1 <1>   0.0800 
 52 H        8.5320     6.3040    -1.3440 H     1 <1>   0.0800 
@<TRIPOS>BOND
  1   1   2  ar  
  2   2   3  ar  
  3   2   4  1   
  4   4   5  1   
  5   4   6  1   
  6   4  25  1   
  7   5   7  1   
  8   5   8  1   
  9   5  26  1   
 10   6   9  1   
 11   6  27  1   
 12   6  28  1   
 13   7  29  1   
 14   8  10  1   
 15   8  30  1   
 16   8  31  1   
 17   9  10  1   
 18   9  11  1   
 19   9  32  1   
 20  10  33  1   
 21  10  34  1   
 22  11  12  1   
 23  11  13  1   
 24  11  35  1   
 25  12  14  1   
 26  12  36  1   
 27  12  37  1   
 28  13  15  1   
 29  13  38  1   
 30  13  39  1   
 31  14  16  1   
 32  14  40  1   
 33  14  41  1   
 34  15  16  1   
 35  15  42  1   
 36  15  43  1   
 37  16  17  1   
 38  17  18  ar  
 39  17  19  ar  
 40  18  20  ar  
 41  18  44  1   
 42  19  21  ar  
 43  19  45  1   
 44  20  22  ar  
 45  20  23  1   
 46  21  22  ar  
 47  21  24  1   
 48  22  46  1   
 49  23  47  1   
 50  23  48  1   
 51  23  49  1   
 52  24  50  1   
 53  24  51  1   
 54  24  52  1   
@<TRIPOS>SUBSTRUCTURE
  1 ****  12 GROUP 4 **** **** 0

# MOE 2024.06 (io_trps.svl 2023.06)
