@<TRIPOS>MOLECULE
Untitled Document
57 61 1 0 0 
SMALL
USER_CHARGES


@<TRIPOS>ATOM
  1 S        0.9020    -1.2310     1.6990 S.3   1 <1>  -0.3320 
  2 C        0.5600    -2.3460     0.3120 C.ar  1 <1>   0.1020 
  3 C       -0.7000    -0.9520     2.5770 C.3   1 <1>  -0.0100 
  4 C        1.5940    -2.5970    -0.5920 C.ar  1 <1>   0.1000 
  5 C       -0.6850    -2.9340     0.1590 C.ar  1 <1>  -0.1500 
  6 N        2.8540    -2.0010    -0.4310 N.pl3 1 <1>  -0.6000 
  7 C        1.3370    -3.4400    -1.6680 C.ar  1 <1>  -0.1500 
  8 C       -0.9160    -3.7780    -0.9150 C.ar  1 <1>  -0.1500 
  9 C        4.1040    -2.5890    -0.4000 C.ar  1 <1>   0.4100 
 10 C        0.0940    -4.0280    -1.8290 C.ar  1 <1>  -0.1500 
 11 N        4.1700    -3.8780    -0.5610 N.ar  1 <1>  -0.6200 
 12 C        5.2530    -1.7990    -0.1520 C.ar  1 <1>   0.3100 
 13 C        5.3730    -4.4460    -0.4690 C.ar  1 <1>   0.7200 
 14 N        5.1980    -0.4550     0.0310 N.ar  1 <1>  -0.6200 
 15 C        6.4500    -2.4970    -0.0890 C.ar  1 <1>   0.3100 
 16 N        6.5010    -3.8460    -0.2320 N.ar  1 <1>  -0.6200 
 17 N        5.3800    -5.8170    -0.5500 N.pl3 1 <1>  -0.8380 
 18 C        6.3300     0.1430     0.2530 C.ar  1 <1>   0.4700 
 19 C        7.6030    -1.7040     0.1560 C.ar  1 <1>   0.4100 
 20 C        4.2860    -6.5030    -1.3080 C.3   1 <1>   0.2090 
 21 C        5.7810    -6.5380     0.6900 C.3   1 <1>   0.2090 
 22 N        7.5430    -0.4110     0.3250 N.ar  1 <1>  -0.6200 
 23 N        8.8420    -2.2930     0.2310 N.pl3 1 <1>  -0.8690 
 24 C        3.0470    -6.7070    -0.4040 C.3   1 <1>   0.3430 
 25 C        4.5500    -6.7240     1.6060 C.3   1 <1>   0.3430 
 26 C       10.1360    -1.5960     0.2980 C.3   1 <1>   0.3040 
 27 N        3.3930    -7.3880     0.8990 N.4   1 <1>  -0.9060 
 28 C       11.1770    -2.4800    -0.3890 C.3   1 <1>  -0.1950 
 29 C       11.7490    -3.6840     0.2910 C.3   1 <1>  -0.2000 
 30 C       12.6060    -2.4720     0.0540 C.3   1 <1>  -0.2000 
 31 H       -0.5200    -0.2360     3.3590 H     1 <1>   0.0800 
 32 H       -1.0240    -1.8910     2.9880 H     1 <1>   0.0800 
 33 H       -1.4070    -0.5670     1.8640 H     1 <1>   0.0800 
 34 H       -1.4800    -2.7490     0.8530 H     1 <1>   0.1500 
 35 H        2.8350    -1.0560    -0.0290 H     1 <1>   0.4000 
 36 H        2.1170    -3.6200    -2.3850 H     1 <1>   0.1500 
 37 H       -1.8840    -4.2330    -1.0440 H     1 <1>   0.1500 
 38 H       -0.0940    -4.6710    -2.6730 H     1 <1>   0.1500 
 39 H        6.3030     1.2110     0.3980 H     1 <1>   0.1500 
 40 H        4.6410    -7.4520    -1.6710 H     1 <1>   0.0800 
 41 H        4.0110    -5.9130    -2.1670 H     1 <1>   0.0800 
 42 H        6.5380    -5.9800     1.2170 H     1 <1>   0.0800 
 43 H        6.2050    -7.4930     0.4310 H     1 <1>   0.0800 
 44 H        8.9010    -3.2940     0.0180 H     1 <1>   0.4000 
 45 H        2.3080    -7.2810    -0.9370 H     1 <1>   0.0800 
 46 H        2.6210    -5.7370    -0.2000 H     1 <1>   0.0800 
 47 H        4.2450    -5.7480     1.9490 H     1 <1>   0.0800 
 48 H        4.8350    -7.3020     2.4710 H     1 <1>   0.0800 
 49 H       10.3970    -1.4390     1.3310 H     1 <1>   0.0800 
 50 H       10.0780    -0.6400    -0.1950 H     1 <1>   0.0800 
 51 H        3.6290    -8.3690     0.7130 H     1 <1>   0.4500 
 52 H        2.5680    -7.3770     1.5110 H     1 <1>   0.4500 
 53 H       11.0050    -2.5410    -1.4500 H     1 <1>   0.1000 
 54 H       11.9300    -4.5700    -0.2940 H     1 <1>   0.1000 
 55 H       11.4420    -3.9100     1.2980 H     1 <1>   0.1000 
 56 H       12.8960    -1.8780     0.9030 H     1 <1>   0.1000 
 57 H       13.3790    -2.5260    -0.6940 H     1 <1>   0.1000 
@<TRIPOS>BOND
  1   1   2  1   
  2   1   3  1   
  3   2   4  ar  
  4   2   5  ar  
  5   3  31  1   
  6   3  32  1   
  7   3  33  1   
  8   4   6  1   
  9   4   7  ar  
 10   5   8  ar  
 11   5  34  1   
 12   6   9  1   
 13   6  35  1   
 14   7  10  ar  
 15   7  36  1   
 16   8  10  ar  
 17   8  37  1   
 18   9  11  ar  
 19   9  12  ar  
 20  10  38  1   
 21  11  13  ar  
 22  12  14  ar  
 23  12  15  ar  
 24  13  16  ar  
 25  13  17  1   
 26  14  18  ar  
 27  15  16  ar  
 28  15  19  ar  
 29  17  20  1   
 30  17  21  1   
 31  18  22  ar  
 32  18  39  1   
 33  19  22  ar  
 34  19  23  1   
 35  20  24  1   
 36  20  40  1   
 37  20  41  1   
 38  21  25  1   
 39  21  42  1   
 40  21  43  1   
 41  23  26  1   
 42  23  44  1   
 43  24  27  1   
 44  24  45  1   
 45  24  46  1   
 46  25  27  1   
 47  25  47  1   
 48  25  48  1   
 49  26  28  1   
 50  26  49  1   
 51  26  50  1   
 52  27  51  1   
 53  27  52  1   
 54  28  29  1   
 55  28  30  1   
 56  28  53  1   
 57  29  30  1   
 58  29  54  1   
 59  29  55  1   
 60  30  56  1   
 61  30  57  1   
@<TRIPOS>SUBSTRUCTURE
  1 ****   9 GROUP 4 **** **** 0

# MOE 2024.06 (io_trps.svl 2023.06)
