@<TRIPOS>MOLECULE
NONAME
44 47 1 0 0 
SMALL
USER_CHARGES


@<TRIPOS>ATOM
  1 O        0.8280     1.6880     1.0310 O.2   1 <1>  -0.5700 
  2 C        0.4830     2.7650     0.6160 C.2   1 <1>   0.5690 
  3 N       -0.4860     3.4680     1.2410 N.am  1 <1>  -0.7300 
  4 C        1.1130     3.3440    -0.6500 C.3   1 <1>   0.1810 
  5 C       -0.9920     4.7830     0.7720 C.3   1 <1>   0.3640 
  6 O        0.9880     4.7450    -0.7110 O.3   1 <1>  -0.5600 
  7 C       -2.5080     4.6720     0.6380 C.ar  1 <1>  -0.1440 
  8 C       -0.3360     5.2470    -0.5620 C.3   1 <1>   0.2610 
  9 C       -3.0890     3.6030    -0.0340 C.ar  1 <1>   0.1600 
 10 C       -3.3370     5.6370     1.1770 C.ar  1 <1>  -0.1500 
 11 C       -0.3270     6.7800    -0.6610 C.2   1 <1>   0.5690 
 12 N       -4.3890     3.4290    -0.2100 N.ar  1 <1>  -0.6200 
 13 C       -4.6940     5.4700     1.0070 C.ar  1 <1>  -0.1500 
 14 O       -1.2370     7.4280    -0.1980 O.2   1 <1>  -0.5700 
 15 N        0.7160     7.3910    -1.2700 N.am  1 <1>  -0.7300 
 16 C       -5.1610     4.3660     0.3150 C.ar  1 <1>   0.1600 
 17 C        0.9820     8.8400    -1.3110 C.3   1 <1>   0.3210 
 18 C        2.4670     9.0670    -1.0680 C.2   1 <1>   0.1080 
 19 N        3.4140     8.3550    -1.6210 N.2   1 <1>  -0.7070 
 20 C        2.9930    10.0410    -0.2270 C.2   1 <1>  -0.1810 
 21 N        4.5670     8.8710    -1.1360 N.pl3 1 <1>   0.3000 
 22 C        4.3110     9.8900    -0.2950 C.2   1 <1>  -0.3320 
 23 C        2.5970    11.1550     0.7030 C.3   1 <1>   0.0210 
 24 C        5.0900    10.8520     0.5550 C.3   1 <1>   0.0200 
 25 C        3.9650    11.7550     1.1190 C.3   1 <1>  -0.1600 
 26 H       -0.9090     3.0720     2.0820 H     1 <1>   0.3700 
 27 H        0.6440     2.9180    -1.5180 H     1 <1>   0.0800 
 28 H        2.1610     3.1070    -0.6670 H     1 <1>   0.0800 
 29 H       -0.7610     5.5110     1.5330 H     1 <1>   0.0800 
 30 H       -0.9120     4.8740    -1.3890 H     1 <1>   0.0800 
 31 H       -2.4520     2.8420    -0.4520 H     1 <1>   0.1500 
 32 H       -2.9480     6.4940     1.7010 H     1 <1>   0.1500 
 33 H       -5.3870     6.1900     1.4020 H     1 <1>   0.1500 
 34 H        1.5530     6.8420    -1.5080 H     1 <1>   0.3700 
 35 H       -6.2230     4.2470     0.1870 H     1 <1>   0.1500 
 36 H        0.7200     9.2220    -2.2810 H     1 <1>   0.0800 
 37 H        0.4010     9.3480    -0.5630 H     1 <1>   0.0800 
 38 H        5.4910     8.5070    -1.3940 H     1 <1>   0.2700 
 39 H        1.9860    11.8810     0.1970 H     1 <1>   0.0800 
 40 H        2.0730    10.7560     1.5530 H     1 <1>   0.0800 
 41 H        5.6020    10.3290     1.3430 H     1 <1>   0.0800 
 42 H        5.7890    11.4180    -0.0350 H     1 <1>   0.0800 
 43 H        4.0380    11.8270     2.1900 H     1 <1>   0.0800 
 44 H        4.0600    12.7410     0.7000 H     1 <1>   0.0800 
@<TRIPOS>BOND
  1   1   2  2   
  2   2   3  am  
  3   2   4  1   
  4   3   5  1   
  5   3  26  1   
  6   4   6  1   
  7   4  27  1   
  8   4  28  1   
  9   5   7  1   
 10   5   8  1   
 11   5  29  1   
 12   6   8  1   
 13   7   9  ar  
 14   7  10  ar  
 15   8  11  1   
 16   8  30  1   
 17   9  12  ar  
 18   9  31  1   
 19  10  13  ar  
 20  10  32  1   
 21  11  14  2   
 22  11  15  am  
 23  12  16  ar  
 24  13  16  ar  
 25  13  33  1   
 26  15  17  1   
 27  15  34  1   
 28  16  35  1   
 29  17  18  1   
 30  17  36  1   
 31  17  37  1   
 32  18  19  2   
 33  18  20  1   
 34  19  21  1   
 35  20  22  2   
 36  20  23  1   
 37  21  22  1   
 38  21  38  1   
 39  22  24  1   
 40  23  25  1   
 41  23  39  1   
 42  23  40  1   
 43  24  25  1   
 44  24  41  1   
 45  24  42  1   
 46  25  43  1   
 47  25  44  1   
@<TRIPOS>SUBSTRUCTURE
  1 ****  11 GROUP 4 **** **** 0

# MOE 2024.06 (io_trps.svl 2023.06)
