@<TRIPOS>MOLECULE
NONAME
50 54 1 0 0 
SMALL
USER_CHARGES


@<TRIPOS>ATOM
  1 O       -0.8930     4.8950     2.0330 O.2   1 <1>  -0.5700 
  2 C       -0.6820     4.1730     1.0730 C.2   1 <1>   0.6160 
  3 N       -1.7680     3.6150     0.4270 N.am  1 <1>  -0.6600 
  4 C        0.6740     4.0190     0.6240 C.2   1 <1>   0.0290 
  5 C       -3.1440     3.6410     1.0170 C.3   1 <1>   0.1400 
  6 C       -1.7200     2.9900    -0.9220 C.3   1 <1>   0.1400 
  7 C        1.2290     2.7000     0.4920 C.2   1 <1>   0.6160 
  8 C        1.4690     5.1070     0.3410 C.2   1 <1>  -0.1500 
  9 C       -4.0930     4.4650     0.1270 C.3   1 <1>   0.1440 
 10 C       -2.6440     3.7570    -1.8760 C.3   1 <1>  -0.1600 
 11 O        0.6210     1.6640     0.7160 O.2   1 <1>  -0.5700 
 12 N        2.5280     2.5670     0.0670 N.am  1 <1>  -0.5390 
 13 C        2.7930     4.9060    -0.0920 C.2   1 <1>  -0.1380 
 14 C       -5.5120     4.4380     0.6670 C.ar  1 <1>   0.1670 
 15 C       -4.0730     3.9070    -1.3150 C.3   1 <1>  -0.1600 
 16 C       -3.7480     5.9790     0.1700 C.3   1 <1>  -0.1600 
 17 C        3.2910     3.6610    -0.2190 C.2   1 <1>  -0.0290 
 18 C        3.8180     5.9530    -0.4470 C.3   1 <1>  -0.0220 
 19 N       -6.1750     3.3600     1.0180 N.ar  1 <1>  -0.6200 
 20 C       -6.0450     5.6910     0.7420 C.ar  1 <1>  -0.1440 
 21 C       -5.0780     6.7460     0.2680 C.3   1 <1>  -0.0170 
 22 C        4.7220     3.6440    -0.6820 C.3   1 <1>  -0.0220 
 23 C        5.0050     5.1290    -0.9920 C.3   1 <1>  -0.1600 
 24 C       -7.4070     3.5990     1.4440 C.ar  1 <1>   0.7200 
 25 C       -7.3300     5.8160     1.2130 C.ar  1 <1>   0.1600 
 26 N       -8.0280     4.7630     1.5760 N.ar  1 <1>  -0.6200 
 27 N       -8.1080     2.5280     1.8160 N.pl3 1 <1>  -0.9000 
 28 H       -3.1310     4.0460     2.0140 H     1 <1>   0.0800 
 29 H       -3.5080     2.6300     1.0870 H     1 <1>   0.0800 
 30 H       -2.0400     1.9640    -0.8410 H     1 <1>   0.0800 
 31 H       -0.7200     2.9950    -1.3180 H     1 <1>   0.0800 
 32 H        1.0960     6.1110     0.4500 H     1 <1>   0.1500 
 33 H       -2.6840     3.2380    -2.8170 H     1 <1>   0.0800 
 34 H       -2.2170     4.7260    -2.0640 H     1 <1>   0.0800 
 35 H        2.8730     1.6090     0.0020 H     1 <1>   0.3700 
 36 H       -4.6580     4.5370    -1.9610 H     1 <1>   0.0800 
 37 H       -4.5380     2.9350    -1.3080 H     1 <1>   0.0800 
 38 H       -3.1700     6.3010    -0.6770 H     1 <1>   0.0800 
 39 H       -3.1760     6.1870     1.0580 H     1 <1>   0.0800 
 40 H        4.1020     6.4980     0.4360 H     1 <1>   0.0800 
 41 H        3.4390     6.6330    -1.1900 H     1 <1>   0.0800 
 42 H       -5.3810     7.1070    -0.6990 H     1 <1>   0.0800 
 43 H       -5.0090     7.5660     0.9620 H     1 <1>   0.0800 
 44 H        4.8410     3.0320    -1.5590 H     1 <1>   0.0800 
 45 H        5.3580     3.2850     0.1080 H     1 <1>   0.0800 
 46 H        5.9330     5.4480    -0.5510 H     1 <1>   0.0800 
 47 H        5.0650     5.2610    -2.0580 H     1 <1>   0.0800 
 48 H       -7.7890     6.7860     1.2930 H     1 <1>   0.1500 
 49 H       -8.9010     2.7240     2.4200 H     1 <1>   0.4000 
 50 H       -7.5540     1.7050     2.0320 H     1 <1>   0.4000 
@<TRIPOS>BOND
  1   1   2  2   
  2   2   3  am  
  3   2   4  1   
  4   3   5  1   
  5   3   6  1   
  6   4   7  1   
  7   4   8  2   
  8   5   9  1   
  9   5  28  1   
 10   5  29  1   
 11   6  10  1   
 12   6  30  1   
 13   6  31  1   
 14   7  11  2   
 15   7  12  am  
 16   8  13  1   
 17   8  32  1   
 18   9  14  1   
 19   9  15  1   
 20   9  16  1   
 21  10  15  1   
 22  10  33  1   
 23  10  34  1   
 24  12  17  1   
 25  12  35  1   
 26  13  17  2   
 27  13  18  1   
 28  14  19  ar  
 29  14  20  ar  
 30  15  36  1   
 31  15  37  1   
 32  16  21  1   
 33  16  38  1   
 34  16  39  1   
 35  17  22  1   
 36  18  23  1   
 37  18  40  1   
 38  18  41  1   
 39  19  24  ar  
 40  20  21  1   
 41  20  25  ar  
 42  21  42  1   
 43  21  43  1   
 44  22  23  1   
 45  22  44  1   
 46  22  45  1   
 47  23  46  1   
 48  23  47  1   
 49  24  26  ar  
 50  24  27  1   
 51  25  26  ar  
 52  25  48  1   
 53  27  49  1   
 54  27  50  1   
@<TRIPOS>SUBSTRUCTURE
  1 ****   3 GROUP 4 **** **** 0

# MOE 2024.06 (io_trps.svl 2023.06)
