@<TRIPOS>MOLECULE
NONAME
47 49 1 0 0 
SMALL
USER_CHARGES


@<TRIPOS>ATOM
  1 F        0.2720     1.2570     1.1060 F     1 <1>  -0.3400 
  2 C        0.3260     1.8450    -0.0800 C.3   1 <1>   0.7800 
  3 F        1.1550     1.0910    -0.7880 F     1 <1>  -0.3400 
  4 C        0.9370     3.2210     0.0830 C.2   1 <1>  -0.3320 
  5 N        2.1650     3.3840     0.5990 N.pl3 1 <1>   0.3000 
  6 C        0.4730     4.4520    -0.2090 C.2   1 <1>  -0.1500 
  7 N        2.5190     4.6820     0.6520 N.2   1 <1>  -0.7070 
  8 C        1.4830     5.3510     0.1610 C.2   1 <1>   0.2030 
  9 C        1.3560     6.7960    -0.0210 C.2   1 <1>   0.7160 
 10 O        0.5970     7.2240    -0.8740 O.2   1 <1>  -0.5700 
 11 N        2.0950     7.7270     0.6990 N.am  1 <1>  -0.6600 
 12 C        2.9250     7.3850     1.8910 C.3   1 <1>   0.1400 
 13 C        2.2040     9.1420     0.2580 C.3   1 <1>   0.1400 
 14 C        4.3890     7.0900     1.5070 C.3   1 <1>   0.3430 
 15 C        3.3160     9.2830    -0.7880 C.3   1 <1>  -0.1600 
 16 N        5.0180     8.1680     0.6670 N.4   1 <1>  -0.9590 
 17 C        4.4400     8.2430    -0.7080 C.3   1 <1>   0.3430 
 18 C        6.5030     8.0680     0.6190 C.3   1 <1>   0.5230 
 19 C        7.0650     9.4580     0.3670 C.2   1 <1>   0.0060 
 20 N        6.3880    10.5420     0.5480 N.2   1 <1>  -0.3380 
 21 N        8.3040     9.7290    -0.0570 N.pl3 1 <1>   0.0330 
 22 N        7.1850    11.5580     0.2310 N.2   1 <1>  -0.3380 
 23 C        8.3190    11.0600    -0.1230 C.2   1 <1>   0.0060 
 24 C        9.5220    11.8770    -0.5620 C.3   1 <1>   0.0200 
 25 C       10.7030    11.7030     0.3980 C.3   1 <1>  -0.2400 
 26 H       -0.6490     1.8180    -0.5330 H     1 <1>   0.0800 
 27 H        2.7720     2.6130     0.9160 H     1 <1>   0.2700 
 28 H       -0.4700     4.7420    -0.6430 H     1 <1>   0.1500 
 29 H        2.5080     6.5300     2.3950 H     1 <1>   0.0800 
 30 H        2.8960     8.1980     2.5960 H     1 <1>   0.0800 
 31 H        2.4170     9.7700     1.1060 H     1 <1>   0.0800 
 32 H        1.2660     9.4770    -0.1570 H     1 <1>   0.0800 
 33 H        4.4210     6.1520     0.9750 H     1 <1>   0.0800 
 34 H        4.9510     6.9650     2.4170 H     1 <1>   0.0800 
 35 H        3.7310    10.2740    -0.7360 H     1 <1>   0.0800 
 36 H        2.8630     9.1950    -1.7600 H     1 <1>   0.0800 
 37 H        4.8520     9.0960     1.0910 H     1 <1>   0.4500 
 38 H        5.2030     8.5230    -1.4170 H     1 <1>   0.0800 
 39 H        4.0550     7.2770    -0.9940 H     1 <1>   0.0800 
 40 H        6.8080     7.3860    -0.1570 H     1 <1>   0.0800 
 41 H        6.8780     7.7120     1.5640 H     1 <1>   0.0800 
 42 H        9.0830     9.1040    -0.2820 H     1 <1>   0.2700 
 43 H        9.2430    12.9170    -0.5910 H     1 <1>   0.0800 
 44 H        9.8100    11.5890    -1.5570 H     1 <1>   0.0800 
 45 H       10.4120    11.9890     1.3940 H     1 <1>   0.0800 
 46 H       11.5200    12.3310     0.0890 H     1 <1>   0.0800 
 47 H       11.0430    10.6830     0.4120 H     1 <1>   0.0800 
@<TRIPOS>BOND
  1   1   2  1   
  2   2   3  1   
  3   2   4  1   
  4   2  26  1   
  5   4   5  1   
  6   4   6  2   
  7   5   7  1   
  8   5  27  1   
  9   6   8  1   
 10   6  28  1   
 11   7   8  2   
 12   8   9  1   
 13   9  10  2   
 14   9  11  am  
 15  11  12  1   
 16  11  13  1   
 17  12  14  1   
 18  12  29  1   
 19  12  30  1   
 20  13  15  1   
 21  13  31  1   
 22  13  32  1   
 23  14  16  1   
 24  14  33  1   
 25  14  34  1   
 26  15  17  1   
 27  15  35  1   
 28  15  36  1   
 29  16  17  1   
 30  16  18  1   
 31  16  37  1   
 32  17  38  1   
 33  17  39  1   
 34  18  19  1   
 35  18  40  1   
 36  18  41  1   
 37  19  20  2   
 38  19  21  1   
 39  20  22  1   
 40  21  23  1   
 41  21  42  1   
 42  22  23  2   
 43  23  24  1   
 44  24  25  1   
 45  24  43  1   
 46  24  44  1   
 47  25  45  1   
 48  25  46  1   
 49  25  47  1   
@<TRIPOS>SUBSTRUCTURE
  1 ****  14 GROUP 4 **** **** 0

# MOE 2024.06 (io_trps.svl 2023.06)
