@<TRIPOS>MOLECULE
NONAME
44 45 1 0 0 
SMALL
USER_CHARGES


@<TRIPOS>ATOM
  1 S       -0.1100     0.2460    -0.5880 S.3   1 <1>  -0.4600 
  2 C        1.4010     1.2460    -0.5390 C.3   1 <1>   0.5110 
  3 C        0.7100    -1.3510    -0.5850 C.3   1 <1>   0.0700 
  4 N        2.4410     0.3020    -0.0350 N.am  1 <1>  -0.6600 
  5 C        1.2120     2.5370     0.2910 C.2   1 <1>   0.6590 
  6 C        1.9630    -1.1030     0.2520 C.3   1 <1>   0.2810 
  7 C        3.7100     0.5780    -0.4100 C.2   1 <1>   0.6900 
  8 O        1.8580     2.7700     1.2880 O.2   1 <1>  -0.5700 
  9 O        0.3270     3.4150    -0.1750 O.3   1 <1>  -0.4300 
 10 C        2.9840    -2.2470     0.1030 C.2   1 <1>   0.6590 
 11 O        4.1950    -0.0070    -1.3550 O.2   1 <1>  -0.5700 
 12 N        4.3570     1.5710     0.2580 N.am  1 <1>  -0.5470 
 13 C        0.0620     4.6360     0.4850 C.3   1 <1>   0.0400 
 14 O        2.8230    -3.1580    -0.6730 O.2   1 <1>  -0.5700 
 15 O        4.0300    -2.2100     0.9250 O.3   1 <1>  -0.4300 
 16 C        5.5960     2.1690    -0.0160 C.ar  1 <1>   0.1170 
 17 C        5.0490    -3.1850     0.8680 C.3   1 <1>   0.0400 
 18 C        6.7910     1.4440     0.0390 C.ar  1 <1>  -0.1430 
 19 C        5.6400     3.5320    -0.3240 C.ar  1 <1>  -0.1430 
 20 C        7.9940     2.0740    -0.2340 C.ar  1 <1>  -0.1500 
 21 C        6.8220    -0.0350     0.4050 C.3   1 <1>  -0.0970 
 22 C        6.8530     4.1450    -0.5890 C.ar  1 <1>  -0.1500 
 23 C        4.3690     4.3720    -0.3800 C.3   1 <1>  -0.0970 
 24 C        8.0280     3.4190    -0.5480 C.ar  1 <1>  -0.1500 
 25 H        1.6180     1.5130    -1.5580 H     1 <1>   0.0800 
 26 H        0.9540    -1.5980    -1.6040 H     1 <1>   0.0800 
 27 H        0.0550    -2.0890    -0.1580 H     1 <1>   0.0800 
 28 H        1.6590    -1.1170     1.2830 H     1 <1>   0.0800 
 29 H        3.7810     2.0440     0.9580 H     1 <1>   0.3700 
 30 H       -0.6920     5.1670    -0.0680 H     1 <1>   0.0800 
 31 H        0.9690     5.2150     0.5270 H     1 <1>   0.0800 
 32 H       -0.2900     4.4250     1.4810 H     1 <1>   0.0800 
 33 H        5.7860    -2.9530     1.6160 H     1 <1>   0.0800 
 34 H        5.4950    -3.1600    -0.1120 H     1 <1>   0.0800 
 35 H        4.6190    -4.1530     1.0550 H     1 <1>   0.0800 
 36 H        8.9150     1.5200    -0.2040 H     1 <1>   0.1500 
 37 H        6.1240    -0.2410     1.1950 H     1 <1>   0.0800 
 38 H        7.8000    -0.3280     0.7380 H     1 <1>   0.0800 
 39 H        6.5610    -0.6260    -0.4550 H     1 <1>   0.0800 
 40 H        6.8940     5.1920    -0.8300 H     1 <1>   0.1500 
 41 H        3.6700     3.9340    -1.0690 H     1 <1>   0.0800 
 42 H        4.5820     5.3730    -0.7090 H     1 <1>   0.0800 
 43 H        3.9220     4.4240     0.5960 H     1 <1>   0.0800 
 44 H        8.9670     3.9000    -0.7580 H     1 <1>   0.1500 
@<TRIPOS>BOND
  1   1   2  1   
  2   1   3  1   
  3   2   4  1   
  4   2   5  1   
  5   2  25  1   
  6   3   6  1   
  7   3  26  1   
  8   3  27  1   
  9   4   6  1   
 10   4   7  am  
 11   5   8  2   
 12   5   9  1   
 13   6  10  1   
 14   6  28  1   
 15   7  11  2   
 16   7  12  am  
 17   9  13  1   
 18  10  14  2   
 19  10  15  1   
 20  12  16  1   
 21  12  29  1   
 22  13  30  1   
 23  13  31  1   
 24  13  32  1   
 25  15  17  1   
 26  16  18  ar  
 27  16  19  ar  
 28  17  33  1   
 29  17  34  1   
 30  17  35  1   
 31  18  20  ar  
 32  18  21  1   
 33  19  22  ar  
 34  19  23  1   
 35  20  24  ar  
 36  20  36  1   
 37  21  37  1   
 38  21  38  1   
 39  21  39  1   
 40  22  24  ar  
 41  22  40  1   
 42  23  41  1   
 43  23  42  1   
 44  23  43  1   
 45  24  44  1   
@<TRIPOS>SUBSTRUCTURE
  1 ****   7 GROUP 4 **** **** 0

# MOE 2024.06 (io_trps.svl 2023.06)
