@<TRIPOS>MOLECULE
NONAME
49 52 1 0 0 
SMALL
USER_CHARGES


@<TRIPOS>ATOM
  1 N        0.9850     0.7360    -0.1510 N.ar  1 <1>  -0.1790 
  2 C        1.8160    -0.3430    -0.2090 C.ar  1 <1>   0.7710 
  3 C       -0.3240     0.6520     0.1020 C.ar  1 <1>   0.4610 
  4 N        1.4060    -1.5600     0.0100 N.ar  1 <1>  -0.5670 
  5 N        3.1330    -0.1810    -0.4840 N.pl3 1 <1>  -0.8690 
  6 N       -1.0790     1.7610     0.1550 N.pl3 1 <1>  -0.9000 
  7 C       -0.8080    -0.6440     0.3080 C.ar  1 <1>   0.0000 
  8 C        0.0770    -1.6960     0.2600 C.ar  1 <1>   0.1050 
  9 C        3.8940     0.7920    -1.3220 C.3   1 <1>   0.2890 
 10 C       -2.0430    -1.2490     0.5860 C.2   1 <1>   0.1390 
 11 N       -0.6430    -2.8190     0.5020 N.pl3 1 <1>   0.3140 
 12 C        4.6140     1.8160    -0.4380 C.3   1 <1>  -0.1600 
 13 C        3.0390     1.4830    -2.4010 C.3   1 <1>  -0.1600 
 14 N       -1.9530    -2.5310     0.7020 N.2   1 <1>  -0.7070 
 15 C       -0.1540    -4.2050     0.5590 C.3   1 <1>   0.0160 
 16 C        3.6720     2.8250     0.2310 C.3   1 <1>   0.2090 
 17 C        2.6370     2.9230    -2.0540 C.3   1 <1>   0.2090 
 18 N        2.4260     3.0410    -0.5780 N.pl3 1 <1>  -0.8380 
 19 C        1.4560     3.9140    -0.0580 C.ar  1 <1>   0.1000 
 20 C        1.0250     3.7680     1.2600 C.ar  1 <1>  -0.1500 
 21 C        0.8610     4.9160    -0.8240 C.ar  1 <1>  -0.1500 
 22 C        0.0160     4.5550     1.7860 C.ar  1 <1>  -0.1430 
 23 C       -0.1460     5.7070    -0.3060 C.ar  1 <1>  -0.1500 
 24 C       -0.5730     5.5250     0.9960 C.ar  1 <1>  -0.1500 
 25 C       -0.4420     4.3750     3.2240 C.3   1 <1>  -0.0970 
 26 H        1.4370     1.6440    -0.2960 H     1 <1>   0.4570 
 27 H        3.6630    -1.0450    -0.3330 H     1 <1>   0.4000 
 28 H       -2.0890     1.7530     0.3350 H     1 <1>   0.4000 
 29 H       -0.7110     2.7260     0.0850 H     1 <1>   0.4000 
 30 H        4.6500     0.2220    -1.8390 H     1 <1>   0.0800 
 31 H       -2.9700    -0.7100     0.6930 H     1 <1>   0.1500 
 32 H        5.3030     2.3670    -1.0530 H     1 <1>   0.0800 
 33 H        5.2040     1.3150     0.3090 H     1 <1>   0.0800 
 34 H        2.1750     0.8950    -2.6490 H     1 <1>   0.0800 
 35 H        3.6240     1.5390    -3.3020 H     1 <1>   0.0800 
 36 H        0.8980    -4.2310     0.3450 H     1 <1>   0.0800 
 37 H       -0.6860    -4.7930    -0.1660 H     1 <1>   0.0800 
 38 H       -0.3360    -4.5990     1.5410 H     1 <1>   0.0800 
 39 H        4.1790     3.7650     0.3750 H     1 <1>   0.0800 
 40 H        3.4090     2.4420     1.2020 H     1 <1>   0.0800 
 41 H        1.7430     3.1750    -2.5980 H     1 <1>   0.0800 
 42 H        3.4160     3.6070    -2.3490 H     1 <1>   0.0800 
 43 H        1.4730     3.0270     1.8930 H     1 <1>   0.1500 
 44 H        1.1810     5.1030    -1.8310 H     1 <1>   0.1500 
 45 H       -0.5940     6.4760    -0.9130 H     1 <1>   0.1500 
 46 H       -1.3560     6.1500     1.3920 H     1 <1>   0.1500 
 47 H       -0.1610     3.4080     3.6000 H     1 <1>   0.0800 
 48 H       -1.5110     4.4680     3.2900 H     1 <1>   0.0800 
 49 H        0.0080     5.1290     3.8440 H     1 <1>   0.0800 
@<TRIPOS>BOND
  1   1   2  ar  
  2   1   3  ar  
  3   1  26  1   
  4   2   4  ar  
  5   2   5  1   
  6   3   6  1   
  7   3   7  ar  
  8   4   8  ar  
  9   5   9  1   
 10   5  27  1   
 11   6  28  1   
 12   6  29  1   
 13   7   8  ar  
 14   7  10  1   
 15   8  11  1   
 16   9  12  1   
 17   9  13  1   
 18   9  30  1   
 19  10  14  2   
 20  10  31  1   
 21  11  14  1   
 22  11  15  1   
 23  12  16  1   
 24  12  32  1   
 25  12  33  1   
 26  13  17  1   
 27  13  34  1   
 28  13  35  1   
 29  15  36  1   
 30  15  37  1   
 31  15  38  1   
 32  16  18  1   
 33  16  39  1   
 34  16  40  1   
 35  17  18  1   
 36  17  41  1   
 37  17  42  1   
 38  18  19  1   
 39  19  20  ar  
 40  19  21  ar  
 41  20  22  ar  
 42  20  43  1   
 43  21  23  ar  
 44  21  44  1   
 45  22  24  ar  
 46  22  25  1   
 47  23  24  ar  
 48  23  45  1   
 49  24  46  1   
 50  25  47  1   
 51  25  48  1   
 52  25  49  1   
@<TRIPOS>SUBSTRUCTURE
  1 ****   1 GROUP 4 **** **** 0

# MOE 2024.06 (io_trps.svl 2023.06)
