@<TRIPOS>MOLECULE
NONAME
56 58 1 0 0 
SMALL
USER_CHARGES


@<TRIPOS>ATOM
  1 O       -0.3620    -1.3330     0.3120 O.2   1 <1>  -0.5700 
  2 C       -1.0790    -0.5760     0.9220 C.2   1 <1>   0.5690 
  3 N       -2.4300    -0.5560     0.6780 N.am  1 <1>  -0.6600 
  4 C       -0.4050     0.3420     1.9280 C.3   1 <1>   0.0820 
  5 C       -3.0200    -1.6960    -0.1130 C.3   1 <1>   0.3210 
  6 C       -3.3640     0.5450     1.1010 C.3   1 <1>   0.1400 
  7 C       -0.0070     1.6550     1.2770 C.2   1 <1>   0.0460 
  8 C       -4.5110    -1.9220     0.1280 C.2   1 <1>   0.0460 
  9 C       -3.8530     1.4270    -0.0720 C.3   1 <1>   0.3430 
 10 N       -0.8180     2.7290     1.3040 N.2   1 <1>  -0.5650 
 11 C        1.1160     1.9610     0.6110 C.2   1 <1>  -0.0400 
 12 N       -5.4420    -1.2000    -0.5360 N.2   1 <1>  -0.5650 
 13 C       -5.1000    -2.8130     0.9610 C.2   1 <1>  -0.3320 
 14 N       -2.7380     2.1140    -0.8050 N.4   1 <1>  -0.9590 
 15 C       -0.1430     3.6410     0.6680 C.2   1 <1>   0.4250 
 16 O        1.0200     3.2000     0.2310 O.3   1 <1>  -0.2800 
 17 C        2.3590     1.1710     0.2560 C.3   1 <1>  -0.0600 
 18 C       -6.5660    -1.6740    -0.1060 C.2   1 <1>   0.0360 
 19 N       -6.4280    -2.6560     0.8070 N.pl3 1 <1>   0.0330 
 20 C       -4.5030    -3.8360     1.9140 C.3   1 <1>  -0.0600 
 21 C       -3.1820     3.4210    -1.3710 C.3   1 <1>   0.2630 
 22 C       -2.1400     1.2510    -1.8680 C.3   1 <1>   0.2630 
 23 C       -0.5800     4.9880     0.3700 C.ar  1 <1>   0.0530 
 24 C        0.0350     5.7560    -0.6210 C.ar  1 <1>  -0.1500 
 25 C       -1.6590     5.5590     1.0470 C.ar  1 <1>  -0.1500 
 26 C       -0.4170     7.0240    -0.9330 C.ar  1 <1>  -0.1500 
 27 C       -2.1150     6.8270     0.7390 C.ar  1 <1>  -0.1500 
 28 C       -1.4960     7.5620    -0.2550 C.ar  1 <1>  -0.1500 
 29 H        0.4810    -0.1480     2.2880 H     1 <1>   0.0800 
 30 H       -1.0360     0.5150     2.7780 H     1 <1>   0.0800 
 31 H       -2.4970    -2.6030     0.1360 H     1 <1>   0.0800 
 32 H       -2.8660    -1.5200    -1.1620 H     1 <1>   0.0800 
 33 H       -2.8990     1.1810     1.8280 H     1 <1>   0.0800 
 34 H       -4.2210     0.1140     1.5900 H     1 <1>   0.0800 
 35 H       -4.5140     2.1700     0.3390 H     1 <1>   0.0800 
 36 H       -4.4290     0.8360    -0.7620 H     1 <1>   0.0800 
 37 H       -1.9970     2.3030    -0.0990 H     1 <1>   0.4500 
 38 H        2.2780     0.1560     0.6030 H     1 <1>   0.0800 
 39 H        3.2220     1.6260     0.7090 H     1 <1>   0.0800 
 40 H        2.4930     1.1590    -0.8100 H     1 <1>   0.0800 
 41 H       -7.5350    -1.3360    -0.4340 H     1 <1>   0.1500 
 42 H       -7.1780    -3.1750     1.2740 H     1 <1>   0.2700 
 43 H       -3.4300    -3.7710     1.9210 H     1 <1>   0.0800 
 44 H       -4.7820    -4.8300     1.6130 H     1 <1>   0.0800 
 45 H       -4.8580    -3.6640     2.9150 H     1 <1>   0.0800 
 46 H       -3.9610     3.2690    -2.1010 H     1 <1>   0.0800 
 47 H       -2.3540     3.9220    -1.8460 H     1 <1>   0.0800 
 48 H       -3.5580     4.0590    -0.5880 H     1 <1>   0.0800 
 49 H       -2.8930     0.9570    -2.5800 H     1 <1>   0.0800 
 50 H       -1.7080     0.3640    -1.4360 H     1 <1>   0.0800 
 51 H       -1.3600     1.7850    -2.3850 H     1 <1>   0.0800 
 52 H        0.8810     5.3570    -1.1540 H     1 <1>   0.1500 
 53 H       -2.1420     5.0040     1.8330 H     1 <1>   0.1500 
 54 H        0.0740     7.6000    -1.7000 H     1 <1>   0.1500 
 55 H       -2.9470     7.2500     1.2770 H     1 <1>   0.1500 
 56 H       -1.8460     8.5520    -0.4950 H     1 <1>   0.1500 
@<TRIPOS>BOND
  1   1   2  2   
  2   2   3  am  
  3   2   4  1   
  4   3   5  1   
  5   3   6  1   
  6   4   7  1   
  7   4  29  1   
  8   4  30  1   
  9   5   8  1   
 10   5  31  1   
 11   5  32  1   
 12   6   9  1   
 13   6  33  1   
 14   6  34  1   
 15   7  10  1   
 16   7  11  2   
 17   8  12  1   
 18   8  13  2   
 19   9  14  1   
 20   9  35  1   
 21   9  36  1   
 22  10  15  2   
 23  11  16  1   
 24  11  17  1   
 25  12  18  2   
 26  13  19  1   
 27  13  20  1   
 28  14  21  1   
 29  14  22  1   
 30  14  37  1   
 31  15  16  1   
 32  15  23  1   
 33  17  38  1   
 34  17  39  1   
 35  17  40  1   
 36  18  19  1   
 37  18  41  1   
 38  19  42  1   
 39  20  43  1   
 40  20  44  1   
 41  20  45  1   
 42  21  46  1   
 43  21  47  1   
 44  21  48  1   
 45  22  49  1   
 46  22  50  1   
 47  22  51  1   
 48  23  24  ar  
 49  23  25  ar  
 50  24  26  ar  
 51  24  52  1   
 52  25  27  ar  
 53  25  53  1   
 54  26  28  ar  
 55  26  54  1   
 56  27  28  ar  
 57  27  55  1   
 58  28  56  1   
@<TRIPOS>SUBSTRUCTURE
  1 ****  14 GROUP 4 **** **** 0

# MOE 2024.06 (io_trps.svl 2023.06)
