@<TRIPOS>MOLECULE
NONAME
43 46 1 0 0 
SMALL
USER_CHARGES


@<TRIPOS>ATOM
  1 CL      -0.5160    -0.2980     0.8420 Cl    1 <1>  -0.1770 
  2 C        1.0820    -1.0130     0.9290 C.ar  1 <1>   0.1770 
  3 C        1.2590    -2.3390     0.5340 C.ar  1 <1>   0.1170 
  4 C        2.1250    -0.2360     1.3950 C.ar  1 <1>  -0.1500 
  5 N        0.1500    -3.0730     0.0740 N.am  1 <1>  -0.5470 
  6 C        2.5430    -2.8690     0.6370 C.ar  1 <1>  -0.1500 
  7 C        3.3930    -0.7840     1.4810 C.ar  1 <1>  -0.1500 
  8 C        0.0290    -4.2520    -0.6030 C.2   1 <1>   0.6900 
  9 C        3.5970    -2.1010     1.1020 C.ar  1 <1>  -0.1500 
 10 O        1.0110    -4.8270    -1.0340 O.2   1 <1>  -0.5700 
 11 N       -1.2270    -4.7700    -0.8110 N.am  1 <1>  -0.6600 
 12 C       -1.4420    -5.9270    -1.7260 C.3   1 <1>   0.1400 
 13 C       -2.4530    -4.3630    -0.0670 C.3   1 <1>   0.1400 
 14 C       -1.9380    -7.1270    -0.9170 C.3   1 <1>  -0.1600 
 15 C       -2.9520    -5.5480     0.7610 C.3   1 <1>  -0.1600 
 16 C       -3.1970    -6.7850    -0.1140 C.3   1 <1>   0.4600 
 17 O       -4.2040    -6.4830    -1.0630 O.3   1 <1>  -0.5600 
 18 C       -3.6550    -7.9780     0.7170 C.2   1 <1>  -0.1400 
 19 C       -5.5500    -6.5850    -0.6600 C.3   1 <1>   0.1200 
 20 S       -2.6190    -8.7700     1.8950 S.3   1 <1>  -0.0800 
 21 C       -4.8580    -8.5660     0.6730 C.2   1 <1>  -0.1810 
 22 C       -5.9140    -8.0300    -0.2660 C.3   1 <1>   0.0210 
 23 C       -3.8910    -9.9200     2.2860 C.2   1 <1>  -0.1100 
 24 C       -5.0000    -9.6790     1.5600 C.2   1 <1>  -0.1500 
 25 H        1.9460     0.7830     1.6870 H     1 <1>   0.1500 
 26 H       -0.7340    -2.5820     0.1510 H     1 <1>   0.3700 
 27 H        2.7280    -3.8900     0.3550 H     1 <1>   0.1500 
 28 H        4.2170    -0.1910     1.8410 H     1 <1>   0.1500 
 29 H        4.5820    -2.5320     1.1690 H     1 <1>   0.1500 
 30 H       -0.5330    -6.1870    -2.2390 H     1 <1>   0.0800 
 31 H       -2.1740    -5.6570    -2.4680 H     1 <1>   0.0800 
 32 H       -3.2090    -4.0640    -0.7740 H     1 <1>   0.0800 
 33 H       -2.2590    -3.5330     0.5880 H     1 <1>   0.0800 
 34 H       -1.1520    -7.4330    -0.2510 H     1 <1>   0.0800 
 35 H       -2.1480    -7.9510    -1.5730 H     1 <1>   0.0800 
 36 H       -3.8500    -5.2830     1.2860 H     1 <1>   0.0800 
 37 H       -2.2100    -5.7830     1.5020 H     1 <1>   0.0800 
 38 H       -6.1630    -6.2590    -1.4820 H     1 <1>   0.0800 
 39 H       -5.7080    -5.9210     0.1710 H     1 <1>   0.0800 
 40 H       -5.9670    -8.6470    -1.1450 H     1 <1>   0.0800 
 41 H       -6.8750    -8.0370     0.2150 H     1 <1>   0.0800 
 42 H       -3.6700   -10.6660     3.0290 H     1 <1>   0.1500 
 43 H       -5.9160   -10.2400     1.6100 H     1 <1>   0.1500 
@<TRIPOS>BOND
  1   1   2  1   
  2   2   3  ar  
  3   2   4  ar  
  4   3   5  1   
  5   3   6  ar  
  6   4   7  ar  
  7   4  25  1   
  8   5   8  am  
  9   5  26  1   
 10   6   9  ar  
 11   6  27  1   
 12   7   9  ar  
 13   7  28  1   
 14   8  10  2   
 15   8  11  am  
 16   9  29  1   
 17  11  12  1   
 18  11  13  1   
 19  12  14  1   
 20  12  30  1   
 21  12  31  1   
 22  13  15  1   
 23  13  32  1   
 24  13  33  1   
 25  14  16  1   
 26  14  34  1   
 27  14  35  1   
 28  15  16  1   
 29  15  36  1   
 30  15  37  1   
 31  16  17  1   
 32  16  18  1   
 33  17  19  1   
 34  18  20  1   
 35  18  21  2   
 36  19  22  1   
 37  19  38  1   
 38  19  39  1   
 39  20  23  1   
 40  21  22  1   
 41  21  24  1   
 42  22  40  1   
 43  22  41  1   
 44  23  24  2   
 45  23  42  1   
 46  24  43  1   
@<TRIPOS>SUBSTRUCTURE
  1 ****  11 GROUP 4 **** **** 0

# MOE 2024.06 (io_trps.svl 2023.06)
