@<TRIPOS>MOLECULE
NONAME
47 50 1 0 0 
SMALL
USER_CHARGES


@<TRIPOS>ATOM
  1 O        0.6490    -0.5730    -1.5460 O.2   1 <1>  -0.5700 
  2 C        1.2260    -0.8310    -0.5030 C.2   1 <1>   0.7160 
  3 N        1.9750     0.1160     0.1490 N.am  1 <1>  -0.4940 
  4 C        1.1750    -2.1550     0.0900 C.2   1 <1>   0.2030 
  5 C        2.3090     1.4480    -0.1960 C.2   1 <1>  -0.0880 
  6 N        1.8440    -2.5250     1.1700 N.2   1 <1>  -0.7070 
  7 C        0.4160    -3.2210    -0.3990 C.2   1 <1>  -0.1500 
  8 N        3.5510     1.9880    -0.0440 N.pl3 1 <1>   0.3140 
  9 C        1.5290     2.4270    -0.7180 C.2   1 <1>  -0.1810 
 10 N        1.5020    -3.8130     1.3540 N.pl3 1 <1>   0.3000 
 11 C        0.6410    -4.2770     0.4200 C.2   1 <1>  -0.1520 
 12 N        3.5790     3.2810    -0.4560 N.2   1 <1>  -0.7070 
 13 C        4.7510     1.2600     0.4710 C.3   1 <1>   0.1760 
 14 C        2.3710     3.5240    -0.8560 C.2   1 <1>   0.1390 
 15 C        0.0570     2.3990    -1.0830 C.3   1 <1>  -0.0590 
 16 C        0.1400    -5.6270     0.4120 C.2   1 <1>  -0.1520 
 17 C        5.9540     2.1440     0.8050 C.3   1 <1>  -0.1600 
 18 C        5.3050     0.2560    -0.5440 C.3   1 <1>  -0.1600 
 19 N       -0.1830    -6.3430    -0.7140 N.pl3 1 <1>   0.0480 
 20 C       -0.0950    -6.4310     1.4950 C.2   1 <1>  -0.1500 
 21 C        7.1340     1.1740     0.8220 C.3   1 <1>  -0.1600 
 22 C        6.7940     0.0910    -0.2080 C.3   1 <1>  -0.1600 
 23 C       -0.6090    -7.5720    -0.3230 C.2   1 <1>  -0.3020 
 24 C       -0.0510    -5.9110    -2.1170 C.3   1 <1>   0.0160 
 25 C       -0.5680    -7.6570     1.0310 C.2   1 <1>  -0.1500 
 26 H        2.4200    -0.2870     0.9780 H     1 <1>   0.3700 
 27 H       -0.2210    -3.1660    -1.2630 H     1 <1>   0.1500 
 28 H        1.8680    -4.3870     2.1230 H     1 <1>   0.2700 
 29 H        4.4650     0.7330     1.3620 H     1 <1>   0.0800 
 30 H        2.0640     4.4780    -1.2510 H     1 <1>   0.1500 
 31 H       -0.4610     1.6710    -0.4860 H     1 <1>   0.0800 
 32 H       -0.0530     2.1370    -2.1200 H     1 <1>   0.0800 
 33 H       -0.3880     3.3630    -0.9130 H     1 <1>   0.0800 
 34 H        5.8320     2.6520     1.7450 H     1 <1>   0.0800 
 35 H        6.1120     2.8660     0.0210 H     1 <1>   0.0800 
 36 H        5.2120     0.6630    -1.5370 H     1 <1>   0.0800 
 37 H        4.7830    -0.6840    -0.4940 H     1 <1>   0.0800 
 38 H        0.0420    -6.1890     2.5330 H     1 <1>   0.1500 
 39 H        7.2150     0.7270     1.7990 H     1 <1>   0.0800 
 40 H        8.0600     1.6730     0.5890 H     1 <1>   0.0800 
 41 H        7.3860     0.2200    -1.0980 H     1 <1>   0.0800 
 42 H        6.9910    -0.8860     0.1990 H     1 <1>   0.0800 
 43 H       -0.9210    -8.3260    -1.0240 H     1 <1>   0.1500 
 44 H        0.8840    -5.3990    -2.2460 H     1 <1>   0.0800 
 45 H       -0.8640    -5.2530    -2.3620 H     1 <1>   0.0800 
 46 H       -0.0780    -6.7700    -2.7620 H     1 <1>   0.0800 
 47 H       -0.8420    -8.4960     1.6480 H     1 <1>   0.1500 
@<TRIPOS>BOND
  1   1   2  2   
  2   2   3  am  
  3   2   4  1   
  4   3   5  1   
  5   3  26  1   
  6   4   6  2   
  7   4   7  1   
  8   5   8  1   
  9   5   9  2   
 10   6  10  1   
 11   7  11  2   
 12   7  27  1   
 13   8  12  1   
 14   8  13  1   
 15   9  14  1   
 16   9  15  1   
 17  10  11  1   
 18  10  28  1   
 19  11  16  1   
 20  12  14  2   
 21  13  17  1   
 22  13  18  1   
 23  13  29  1   
 24  14  30  1   
 25  15  31  1   
 26  15  32  1   
 27  15  33  1   
 28  16  19  1   
 29  16  20  2   
 30  17  21  1   
 31  17  34  1   
 32  17  35  1   
 33  18  22  1   
 34  18  36  1   
 35  18  37  1   
 36  19  23  1   
 37  19  24  1   
 38  20  25  1   
 39  20  38  1   
 40  21  22  1   
 41  21  39  1   
 42  21  40  1   
 43  22  41  1   
 44  22  42  1   
 45  23  25  2   
 46  23  43  1   
 47  24  44  1   
 48  24  45  1   
 49  24  46  1   
 50  25  47  1   
@<TRIPOS>SUBSTRUCTURE
  1 ****   4 GROUP 4 **** **** 0

# MOE 2024.06 (io_trps.svl 2023.06)
