@<TRIPOS>MOLECULE
NONAME
44 45 1 0 0 
SMALL
USER_CHARGES


@<TRIPOS>ATOM
  1 S        0.5680    -0.1010    -0.3870 S.o2  1 <1>   1.3330 
  2 O       -0.6460    -0.0290    -1.1680 O.2   1 <1>  -0.6500 
  3 O        0.9640    -1.3640     0.1940 O.2   1 <1>  -0.6500 
  4 N        0.4280     1.0260     0.8750 N.am  1 <1>  -0.8490 
  5 C        1.9360     0.5100    -1.3720 C.3   1 <1>  -0.0550 
  6 C       -0.4020     0.5150     1.9670 C.3   1 <1>   0.1160 
  7 C       -0.0710     2.3360     0.4360 C.3   1 <1>   0.1160 
  8 C        3.2360     0.7190    -0.5750 C.3   1 <1>  -0.0800 
  9 C        4.2850     1.4670    -1.3940 C.3   1 <1>   0.2200 
 10 C        3.9360    -0.5770    -0.1650 C.3   1 <1>   0.1200 
 11 N        4.5880     2.7530    -0.7310 N.am  1 <1>  -0.7300 
 12 C        5.4930     0.5330    -1.3760 C.3   1 <1>   0.1200 
 13 O        5.2970    -0.3170    -0.2930 O.3   1 <1>  -0.5600 
 14 C        3.7850     3.8560    -0.7750 C.2   1 <1>   0.5440 
 15 O        2.8160     3.8170    -1.5120 O.2   1 <1>  -0.5700 
 16 C        4.0590     5.0420     0.0120 C.ar  1 <1>   0.0860 
 17 C        4.7210     5.0170     1.2520 C.ar  1 <1>   0.3930 
 18 C        3.6520     6.2870    -0.4560 C.ar  1 <1>  -0.1500 
 19 O        5.1110     3.8240     1.7520 O.3   1 <1>  -0.3630 
 20 N        4.9930     6.0920     1.9920 N.ar  1 <1>  -0.6200 
 21 C        3.9250     7.4010     0.3030 C.ar  1 <1>  -0.1500 
 22 C        5.7460     3.7000     3.0120 C.3   1 <1>   0.0400 
 23 C        4.5920     7.2510     1.5040 C.ar  1 <1>   0.1600 
 24 H        2.1180    -0.1670    -2.1830 H     1 <1>   0.0800 
 25 H        1.6480     1.4500    -1.8020 H     1 <1>   0.0800 
 26 H       -0.4450     1.2310     2.7690 H     1 <1>   0.0800 
 27 H        0.0200    -0.3980     2.3530 H     1 <1>   0.0800 
 28 H       -1.4010     0.3130     1.6150 H     1 <1>   0.0800 
 29 H       -0.1030     3.0160     1.2700 H     1 <1>   0.0800 
 30 H       -1.0600     2.2430     0.0200 H     1 <1>   0.0800 
 31 H        0.5830     2.7560    -0.3090 H     1 <1>   0.0800 
 32 H        3.0130     1.2690     0.3230 H     1 <1>   0.0800 
 33 H        3.9700     1.6530    -2.4070 H     1 <1>   0.0800 
 34 H        3.6900    -1.3930    -0.8220 H     1 <1>   0.0800 
 35 H        3.7230    -0.8530     0.8540 H     1 <1>   0.0800 
 36 H        5.2300     2.6760     0.0660 H     1 <1>   0.3700 
 37 H        6.4260     1.0550    -1.2610 H     1 <1>   0.0800 
 38 H        5.5160    -0.0730    -2.2660 H     1 <1>   0.0800 
 39 H        3.1330     6.3710    -1.3970 H     1 <1>   0.1500 
 40 H        3.6260     8.3790    -0.0300 H     1 <1>   0.1500 
 41 H        5.9480     2.6600     3.1900 H     1 <1>   0.0800 
 42 H        5.0880     4.0840     3.7720 H     1 <1>   0.0800 
 43 H        6.6650     4.2590     2.9960 H     1 <1>   0.0800 
 44 H        4.8040     8.1280     2.0920 H     1 <1>   0.1500 
@<TRIPOS>BOND
  1   1   2  2   
  2   1   3  2   
  3   1   4  am  
  4   1   5  1   
  5   4   6  1   
  6   4   7  1   
  7   5   8  1   
  8   5  24  1   
  9   5  25  1   
 10   6  26  1   
 11   6  27  1   
 12   6  28  1   
 13   7  29  1   
 14   7  30  1   
 15   7  31  1   
 16   8   9  1   
 17   8  10  1   
 18   8  32  1   
 19   9  11  1   
 20   9  12  1   
 21   9  33  1   
 22  10  13  1   
 23  10  34  1   
 24  10  35  1   
 25  11  14  am  
 26  11  36  1   
 27  12  13  1   
 28  12  37  1   
 29  12  38  1   
 30  14  15  2   
 31  14  16  1   
 32  16  17  ar  
 33  16  18  ar  
 34  17  19  1   
 35  17  20  ar  
 36  18  21  ar  
 37  18  39  1   
 38  19  22  1   
 39  20  23  ar  
 40  21  23  ar  
 41  21  40  1   
 42  22  41  1   
 43  22  42  1   
 44  22  43  1   
 45  23  44  1   
@<TRIPOS>SUBSTRUCTURE
  1 ****  11 GROUP 4 **** **** 0

# MOE 2024.06 (io_trps.svl 2023.06)
