@<TRIPOS>MOLECULE
NONAME
46 48 1 0 0 
SMALL
USER_CHARGES


@<TRIPOS>ATOM
  1 CL      -0.5390    -1.9440    -1.2880 Cl    1 <1>  -0.1770 
  2 C       -0.0450    -2.8170     0.1440 C.ar  1 <1>   0.1770 
  3 C        1.0250    -3.7010     0.1020 C.ar  1 <1>  -0.1440 
  4 C       -0.7610    -2.6050     1.3080 C.ar  1 <1>  -0.1500 
  5 C        1.3760    -4.3680     1.2680 C.ar  1 <1>  -0.1500 
  6 C        1.8120    -3.9660    -1.1740 C.3   1 <1>   0.2140 
  7 C       -0.4060    -3.2840     2.4610 C.ar  1 <1>  -0.1500 
  8 C        0.6620    -4.1640     2.4380 C.ar  1 <1>  -0.1500 
  9 S        1.4100    -5.6440    -1.7400 S.3   1 <1>  -0.4600 
 10 C       -0.3210    -5.4990    -2.3240 C.3   1 <1>   0.1310 
 11 C       -1.1030    -6.7930    -2.1220 C.2   1 <1>   0.5690 
 12 O       -1.4440    -7.4090    -3.1050 O.2   1 <1>  -0.5700 
 13 N       -1.4510    -7.2140    -0.8650 N.am  1 <1>  -0.6600 
 14 C       -1.0640    -6.5700     0.4140 C.3   1 <1>   0.1400 
 15 C       -2.1890    -8.4730    -0.6200 C.3   1 <1>   0.1400 
 16 C       -1.7360    -7.4110     1.4990 C.3   1 <1>   0.2000 
 17 C       -1.9750    -8.7800     0.8630 C.3   1 <1>  -0.0800 
 18 O       -0.9270    -7.5390     2.6170 O.3   1 <1>  -0.6800 
 19 C       -3.1380    -9.5450     1.5120 C.3   1 <1>  -0.0170 
 20 C       -3.3420   -10.8980     0.8480 C.ar  1 <1>  -0.1430 
 21 C       -4.3060   -11.1060    -0.1180 C.ar  1 <1>  -0.1500 
 22 C       -2.5670   -11.9900     1.1790 C.ar  1 <1>  -0.1500 
 23 C       -4.4410   -12.3590    -0.6920 C.ar  1 <1>   0.1600 
 24 C       -2.7840   -13.2020     0.5450 C.ar  1 <1>   0.1600 
 25 N       -3.7020   -13.4130    -0.3830 N.ar  1 <1>  -0.6200 
 26 H       -1.5850    -1.9140     1.3110 H     1 <1>   0.1500 
 27 H        2.2040    -5.0570     1.2650 H     1 <1>   0.1500 
 28 H        2.8710    -3.9440    -0.9860 H     1 <1>   0.0800 
 29 H        1.5760    -3.2880    -1.9740 H     1 <1>   0.0800 
 30 H       -0.9570    -3.1290     3.3730 H     1 <1>   0.1500 
 31 H        0.9380    -4.6940     3.3350 H     1 <1>   0.1500 
 32 H       -0.7910    -4.7040    -1.7820 H     1 <1>   0.0800 
 33 H       -0.2800    -5.2480    -3.3680 H     1 <1>   0.0800 
 34 H        0.0050    -6.6100     0.5180 H     1 <1>   0.0800 
 35 H       -1.4080    -5.5520     0.4490 H     1 <1>   0.0800 
 36 H       -3.2310    -8.3110    -0.8360 H     1 <1>   0.0800 
 37 H       -1.8160    -9.2680    -1.2460 H     1 <1>   0.0800 
 38 H       -2.6610    -6.9480     1.7980 H     1 <1>   0.0800 
 39 H       -1.0760    -9.3680     0.9360 H     1 <1>   0.0800 
 40 H       -0.0800    -7.9570     2.3720 H     1 <1>   0.4000 
 41 H       -4.0430    -8.9670     1.4440 H     1 <1>   0.0800 
 42 H       -2.9280    -9.6920     2.5580 H     1 <1>   0.0800 
 43 H       -4.9530   -10.3080    -0.4330 H     1 <1>   0.1500 
 44 H       -1.7960   -11.9100     1.9240 H     1 <1>   0.1500 
 45 H       -5.1970   -12.5030    -1.4450 H     1 <1>   0.1500 
 46 H       -2.1690   -14.0430     0.8170 H     1 <1>   0.1500 
@<TRIPOS>BOND
  1   1   2  1   
  2   2   3  ar  
  3   2   4  ar  
  4   3   5  ar  
  5   3   6  1   
  6   4   7  ar  
  7   4  26  1   
  8   5   8  ar  
  9   5  27  1   
 10   6   9  1   
 11   6  28  1   
 12   6  29  1   
 13   7   8  ar  
 14   7  30  1   
 15   8  31  1   
 16   9  10  1   
 17  10  11  1   
 18  10  32  1   
 19  10  33  1   
 20  11  12  2   
 21  11  13  am  
 22  13  14  1   
 23  13  15  1   
 24  14  16  1   
 25  14  34  1   
 26  14  35  1   
 27  15  17  1   
 28  15  36  1   
 29  15  37  1   
 30  16  17  1   
 31  16  18  1   
 32  16  38  1   
 33  17  19  1   
 34  17  39  1   
 35  18  40  1   
 36  19  20  1   
 37  19  41  1   
 38  19  42  1   
 39  20  21  ar  
 40  20  22  ar  
 41  21  23  ar  
 42  21  43  1   
 43  22  24  ar  
 44  22  44  1   
 45  23  25  ar  
 46  23  45  1   
 47  24  25  ar  
 48  24  46  1   
@<TRIPOS>SUBSTRUCTURE
  1 ****  14 GROUP 4 **** **** 0

# MOE 2024.06 (io_trps.svl 2023.06)
