@<TRIPOS>MOLECULE
NONAME
32 32 1 0 0 
SMALL
USER_CHARGES


@<TRIPOS>ATOM
  1 O       -0.2920    -0.5120     0.3260 O.3   1 <1>  -0.3630 
  2 C       -0.1990    -1.8280     0.0140 C.ar  1 <1>   0.0830 
  3 C        0.3290     0.3830    -0.5720 C.3   1 <1>   0.2000 
  4 C       -1.0470    -2.3990    -0.9360 C.ar  1 <1>   0.0830 
  5 C        0.7320    -2.6140     0.6710 C.ar  1 <1>  -0.1500 
  6 C        1.7730     0.6000    -0.1220 C.3   1 <1>  -0.2400 
  7 C       -0.4650     1.6870    -0.5460 C.3   1 <1>  -0.2400 
  8 O       -2.0010    -1.6560    -1.5490 O.3   1 <1>  -0.3630 
  9 C       -0.9250    -3.7420    -1.2540 C.ar  1 <1>  -0.1500 
 10 C        0.8400    -3.9600     0.3610 C.ar  1 <1>  -0.1500 
 11 C       -3.2780    -1.6770    -0.9550 C.3   1 <1>   0.1200 
 12 C        0.0180    -4.5220    -0.6030 C.ar  1 <1>  -0.1500 
 13 C       -3.2290    -0.9020     0.3710 C.3   1 <1>   0.3430 
 14 N       -4.5610    -0.8420     1.0400 N.4   1 <1>  -0.8530 
 15 H        0.3040    -0.0390    -1.5640 H     1 <1>   0.0800 
 16 H        1.3710    -2.1740     1.4150 H     1 <1>   0.1500 
 17 H        1.8030     0.9700     0.8870 H     1 <1>   0.0800 
 18 H        2.2530     1.3170    -0.7640 H     1 <1>   0.0800 
 19 H        2.3250    -0.3210    -0.1840 H     1 <1>   0.0800 
 20 H       -0.4900     2.0940     0.4500 H     1 <1>   0.0800 
 21 H       -1.4640     1.5190    -0.8990 H     1 <1>   0.0800 
 22 H        0.0010     2.4070    -1.1950 H     1 <1>   0.0800 
 23 H       -1.5590    -4.1760    -2.0060 H     1 <1>   0.1500 
 24 H        1.5690    -4.5710     0.8670 H     1 <1>   0.1500 
 25 H       -3.5610    -2.7050    -0.8050 H     1 <1>   0.0800 
 26 H       -3.9530    -1.2090    -1.6490 H     1 <1>   0.0800 
 27 H        0.1140    -5.5660    -0.8480 H     1 <1>   0.1500 
 28 H       -2.8740     0.0970     0.1740 H     1 <1>   0.0800 
 29 H       -2.5210    -1.3840     1.0270 H     1 <1>   0.0800 
 30 H       -5.2550    -0.3670     0.4520 H     1 <1>   0.4500 
 31 H       -4.4860    -0.3200     1.9220 H     1 <1>   0.4500 
 32 H       -4.9050    -1.7830     1.2640 H     1 <1>   0.4500 
@<TRIPOS>BOND
  1   1   2  1   
  2   1   3  1   
  3   2   4  ar  
  4   2   5  ar  
  5   3   6  1   
  6   3   7  1   
  7   3  15  1   
  8   4   8  1   
  9   4   9  ar  
 10   5  10  ar  
 11   5  16  1   
 12   6  17  1   
 13   6  18  1   
 14   6  19  1   
 15   7  20  1   
 16   7  21  1   
 17   7  22  1   
 18   8  11  1   
 19   9  12  ar  
 20   9  23  1   
 21  10  12  ar  
 22  10  24  1   
 23  11  13  1   
 24  11  25  1   
 25  11  26  1   
 26  12  27  1   
 27  13  14  1   
 28  13  28  1   
 29  13  29  1   
 30  14  30  1   
 31  14  31  1   
 32  14  32  1   
@<TRIPOS>SUBSTRUCTURE
  1 ****   2 GROUP 4 **** **** 0

# MOE 2024.06 (io_trps.svl 2023.06)
