@<TRIPOS>MOLECULE
NONAME
41 42 1 0 0 
SMALL
USER_CHARGES


@<TRIPOS>ATOM
  1 O        1.7440    -0.9050    -2.7090 O.2   1 <1>  -0.5700 
  2 C        1.8760    -1.1350    -1.5320 C.2   1 <1>   0.5690 
  3 N        2.2350    -0.1960    -0.6130 N.am  1 <1>  -0.4930 
  4 C        1.6170    -2.5440    -1.0450 C.3   1 <1>  -0.0990 
  5 C        2.5100     1.1810    -0.8050 C.2   1 <1>   0.0630 
  6 C        0.1160    -2.8550    -1.0300 C.3   1 <1>  -0.0160 
  7 C        2.8730     2.0680     0.1480 C.2   1 <1>  -0.3320 
  8 C        2.4700     1.9240    -1.9850 C.2   1 <1>   0.1390 
  9 C       -0.1250    -4.2500    -0.4640 C.ar  1 <1>  -0.1440 
 10 N        3.0320     3.2650    -0.4780 N.pl3 1 <1>   0.3140 
 11 C        3.0830     1.8540     1.6410 C.3   1 <1>  -0.0600 
 12 N        2.7790     3.1710    -1.7950 N.2   1 <1>  -0.7070 
 13 C       -0.4200    -4.4810     0.8780 C.ar  1 <1>  -0.1430 
 14 C       -0.0370    -5.3250    -1.3370 C.ar  1 <1>  -0.1500 
 15 C        3.4270     4.5580     0.1230 C.3   1 <1>   0.0960 
 16 C       -0.6210    -5.7810     1.3170 C.ar  1 <1>  -0.1500 
 17 C       -0.5360    -3.3490     1.8900 C.3   1 <1>  -0.0970 
 18 C       -0.2370    -6.6180    -0.8900 C.ar  1 <1>  -0.1500 
 19 C        4.9520     4.7110     0.1590 C.3   1 <1>  -0.2400 
 20 C       -0.5300    -6.8470     0.4400 C.ar  1 <1>  -0.1500 
 21 H        2.3300    -0.5090     0.3490 H     1 <1>   0.3700 
 22 H        2.0260    -2.6770    -0.0610 H     1 <1>   0.0800 
 23 H        2.1170    -3.2300    -1.7040 H     1 <1>   0.0800 
 24 H       -0.2660    -2.8040    -2.0350 H     1 <1>   0.0800 
 25 H       -0.4110    -2.1130    -0.4590 H     1 <1>   0.0800 
 26 H        2.2120     1.5170    -2.9480 H     1 <1>   0.1500 
 27 H        2.9100     0.8280     1.9080 H     1 <1>   0.0800 
 28 H        2.4040     2.4700     2.2030 H     1 <1>   0.0800 
 29 H        4.0920     2.1080     1.9130 H     1 <1>   0.0800 
 30 H        0.1900    -5.1590    -2.3760 H     1 <1>   0.1500 
 31 H        3.0180     4.6200     1.1140 H     1 <1>   0.0800 
 32 H        2.9970     5.3440    -0.4710 H     1 <1>   0.0800 
 33 H       -0.8510    -5.9770     2.3490 H     1 <1>   0.1500 
 34 H        0.3470    -2.7390     1.8700 H     1 <1>   0.0800 
 35 H       -0.6540    -3.7350     2.8870 H     1 <1>   0.0800 
 36 H       -1.3930    -2.7420     1.6610 H     1 <1>   0.0800 
 37 H       -0.1660    -7.4430    -1.5770 H     1 <1>   0.1500 
 38 H        5.3970     3.9350     0.7560 H     1 <1>   0.0800 
 39 H        5.2140     5.6640     0.5820 H     1 <1>   0.0800 
 40 H        5.3480     4.6610    -0.8400 H     1 <1>   0.0800 
 41 H       -0.6870    -7.8510     0.7930 H     1 <1>   0.1500 
@<TRIPOS>BOND
  1   1   2  2   
  2   2   3  am  
  3   2   4  1   
  4   3   5  1   
  5   3  21  1   
  6   4   6  1   
  7   4  22  1   
  8   4  23  1   
  9   5   7  2   
 10   5   8  1   
 11   6   9  1   
 12   6  24  1   
 13   6  25  1   
 14   7  10  1   
 15   7  11  1   
 16   8  12  2   
 17   8  26  1   
 18   9  13  ar  
 19   9  14  ar  
 20  10  12  1   
 21  10  15  1   
 22  11  27  1   
 23  11  28  1   
 24  11  29  1   
 25  13  16  ar  
 26  13  17  1   
 27  14  18  ar  
 28  14  30  1   
 29  15  19  1   
 30  15  31  1   
 31  15  32  1   
 32  16  20  ar  
 33  16  33  1   
 34  17  34  1   
 35  17  35  1   
 36  17  36  1   
 37  18  20  ar  
 38  18  37  1   
 39  19  38  1   
 40  19  39  1   
 41  19  40  1   
 42  20  41  1   
@<TRIPOS>SUBSTRUCTURE
  1 ****   3 GROUP 4 **** **** 0

# MOE 2024.06 (io_trps.svl 2023.06)
