@<TRIPOS>MOLECULE
NONAME
51 53 1 0 0 
SMALL
USER_CHARGES


@<TRIPOS>ATOM
  1 F        1.2650     0.2520    -0.4570 F     1 <1>  -0.1900 
  2 C        2.0990     1.2200    -0.1880 C.ar  1 <1>   0.1900 
  3 C        3.3860     0.9040     0.2020 C.ar  1 <1>  -0.1500 
  4 C        1.6630     2.5260    -0.3060 C.ar  1 <1>  -0.1500 
  5 C        4.2630     1.9370     0.4840 C.ar  1 <1>  -0.1500 
  6 C        2.5510     3.5500    -0.0200 C.ar  1 <1>  -0.1500 
  7 C        3.8520     3.2610     0.3750 C.ar  1 <1>  -0.1430 
  8 C        4.8250     4.3910     0.6910 C.3   1 <1>   0.2540 
  9 N        6.0730     4.2590    -0.0860 N.3   1 <1>  -0.8100 
 10 C        7.1210     5.1970     0.4170 C.3   1 <1>   0.1710 
 11 C        5.8340     4.4060    -1.5280 C.3   1 <1>   0.0300 
 12 C        6.8080     6.7060     0.3160 C.2   1 <1>   0.5690 
 13 O        6.0290     7.1610     1.1240 O.2   1 <1>  -0.5700 
 14 N        7.3780     7.5110    -0.6430 N.am  1 <1>  -0.6600 
 15 C        6.9720     8.9600    -0.7340 C.3   1 <1>   0.3210 
 16 C        8.3130     7.0380    -1.7020 C.3   1 <1>   0.1400 
 17 C        8.1460     9.9320    -0.8370 C.2   1 <1>   0.3350 
 18 C        9.7470     7.0110    -1.1730 C.3   1 <1>  -0.2400 
 19 N        8.5560    10.4570    -1.9250 N.2   1 <1>  -0.4100 
 20 N        8.8430    10.3170     0.2260 N.2   1 <1>  -0.5650 
 21 O        9.5630    11.2200    -1.6270 O.3   1 <1>  -0.0190 
 22 C        9.6860    11.0940    -0.3270 C.2   1 <1>   0.3170 
 23 C       10.7870    11.8560     0.3970 C.3   1 <1>   0.1610 
 24 C       10.8910    13.3670     0.0550 C.3   1 <1>   0.0000 
 25 C       12.2090    11.6980    -0.2050 C.3   1 <1>   0.0000 
 26 C       12.4300    13.1960     0.1320 C.3   1 <1>   0.0000 
 27 H        3.6910    -0.1230     0.2810 H     1 <1>   0.1500 
 28 H        0.6540     2.7320    -0.6130 H     1 <1>   0.1500 
 29 H        5.2740     1.7190     0.7850 H     1 <1>   0.1500 
 30 H        2.2270     4.5730    -0.1060 H     1 <1>   0.1500 
 31 H        5.0530     4.3580     1.7430 H     1 <1>   0.0800 
 32 H        4.3620     5.3410     0.4840 H     1 <1>   0.0800 
 33 H        8.0410     4.9790    -0.0880 H     1 <1>   0.0800 
 34 H        7.2920     4.9810     1.4560 H     1 <1>   0.0800 
 35 H        5.1180     3.6740    -1.8620 H     1 <1>   0.0800 
 36 H        6.7480     4.2400    -2.0690 H     1 <1>   0.0800 
 37 H        5.4560     5.3890    -1.7530 H     1 <1>   0.0800 
 38 H        6.3890     9.2480     0.1220 H     1 <1>   0.0800 
 39 H        6.3500     9.0850    -1.6020 H     1 <1>   0.0800 
 40 H        8.2550     7.6880    -2.5590 H     1 <1>   0.0800 
 41 H        8.0300     6.0540    -2.0280 H     1 <1>   0.0800 
 42 H       10.0800     8.0000    -0.9210 H     1 <1>   0.0800 
 43 H       10.4020     6.6240    -1.9340 H     1 <1>   0.0800 
 44 H        9.8280     6.3840    -0.3050 H     1 <1>   0.0800 
 45 H       10.7860    11.6890     1.4610 H     1 <1>   0.0000 
 46 H       10.4870    14.0130     0.8140 H     1 <1>   0.0000 
 47 H       10.5550    13.6100    -0.9390 H     1 <1>   0.0000 
 48 H       12.2110    11.5120    -1.2650 H     1 <1>   0.0000 
 49 H       12.8440    11.0300     0.3500 H     1 <1>   0.0000 
 50 H       12.8160    13.3460     1.1260 H     1 <1>   0.0000 
 51 H       12.9670    13.7380    -0.6260 H     1 <1>   0.0000 
@<TRIPOS>BOND
  1   1   2  1   
  2   2   3  ar  
  3   2   4  ar  
  4   3   5  ar  
  5   3  27  1   
  6   4   6  ar  
  7   4  28  1   
  8   5   7  ar  
  9   5  29  1   
 10   6   7  ar  
 11   6  30  1   
 12   7   8  1   
 13   8   9  1   
 14   8  31  1   
 15   8  32  1   
 16   9  10  1   
 17   9  11  1   
 18  10  12  1   
 19  10  33  1   
 20  10  34  1   
 21  11  35  1   
 22  11  36  1   
 23  11  37  1   
 24  12  13  2   
 25  12  14  am  
 26  14  15  1   
 27  14  16  1   
 28  15  17  1   
 29  15  38  1   
 30  15  39  1   
 31  16  18  1   
 32  16  40  1   
 33  16  41  1   
 34  17  19  2   
 35  17  20  1   
 36  18  42  1   
 37  18  43  1   
 38  18  44  1   
 39  19  21  1   
 40  20  22  2   
 41  21  22  1   
 42  22  23  1   
 43  23  24  1   
 44  23  25  1   
 45  23  45  1   
 46  24  26  1   
 47  24  46  1   
 48  24  47  1   
 49  25  26  1   
 50  25  48  1   
 51  25  49  1   
 52  26  50  1   
 53  26  51  1   
@<TRIPOS>SUBSTRUCTURE
  1 ****  12 GROUP 4 **** **** 0

# MOE 2024.06 (io_trps.svl 2023.06)
