@<TRIPOS>MOLECULE
NONAME
48 49 1 0 0 
SMALL
USER_CHARGES


@<TRIPOS>ATOM
  1 O        0.2480    -0.2010     0.0950 O.2   1 <1>  -0.5700 
  2 C        1.3020    -0.7930     0.0770 C.2   1 <1>   0.5690 
  3 N        2.4940    -0.1280     0.0900 N.am  1 <1>  -0.6600 
  4 C        1.2990    -2.3140     0.0350 C.3   1 <1>  -0.0990 
  5 C        2.5840     1.3530     0.1320 C.3   1 <1>   0.1400 
  6 C        3.8430    -0.7330     0.0280 C.3   1 <1>   0.1400 
  7 C       -0.1140    -2.9350     0.0070 C.3   1 <1>  -0.0990 
  8 C        4.0410     1.6740    -0.1940 C.3   1 <1>   0.2000 
  9 C        4.8150     0.4270     0.2270 C.3   1 <1>  -0.1600 
 10 C       -0.1240    -4.4610    -0.0370 C.2   1 <1>   0.4230 
 11 O        4.4590     2.7840     0.5410 O.3   1 <1>  -0.5600 
 12 O        0.9400    -5.0280    -0.0780 O.2   1 <1>  -0.5700 
 13 C       -1.3880    -5.1740    -0.0290 C.ar  1 <1>   0.0860 
 14 C        5.6520     3.3600     0.1100 C.3   1 <1>   0.0400 
 15 C       -2.6330    -4.5340    -0.0070 C.ar  1 <1>  -0.1500 
 16 C       -1.4050    -6.5710    -0.0430 C.ar  1 <1>  -0.1500 
 17 C       -3.8250    -5.2390     0.0010 C.ar  1 <1>  -0.1440 
 18 C       -2.5830    -7.2900    -0.0350 C.ar  1 <1>  -0.1500 
 19 C       -3.8080    -6.6300    -0.0130 C.ar  1 <1>   0.0820 
 20 C       -5.1510    -4.4900     0.0240 C.3   1 <1>  -0.0970 
 21 O       -4.9960    -7.2800    -0.0050 O.3   1 <1>  -0.3620 
 22 C       -5.0870    -8.6850    -0.0180 C.3   1 <1>   0.1200 
 23 C       -6.5660    -9.0600    -0.0030 C.3   1 <1>  -0.2400 
 24 H        1.8220    -2.6780     0.9000 H     1 <1>   0.0800 
 25 H        1.8360    -2.6300    -0.8400 H     1 <1>   0.0800 
 26 H        2.3370     1.6910     1.1230 H     1 <1>   0.0800 
 27 H        1.9160     1.7940    -0.5870 H     1 <1>   0.0800 
 28 H        3.9850    -1.1790    -0.9420 H     1 <1>   0.0800 
 29 H        3.9660    -1.4790     0.7940 H     1 <1>   0.0800 
 30 H       -0.6350    -2.5640    -0.8570 H     1 <1>   0.0800 
 31 H       -0.6450    -2.6140     0.8860 H     1 <1>   0.0800 
 32 H        4.1390     1.8740    -1.2470 H     1 <1>   0.0800 
 33 H        5.7090     0.2890    -0.3530 H     1 <1>   0.0800 
 34 H        5.0660     0.4890     1.2710 H     1 <1>   0.0800 
 35 H        5.8570     4.2100     0.7370 H     1 <1>   0.0800 
 36 H        5.5430     3.6830    -0.9110 H     1 <1>   0.0800 
 37 H        6.4510     2.6450     0.2000 H     1 <1>   0.0800 
 38 H       -2.6810    -3.4610     0.0030 H     1 <1>   0.1500 
 39 H       -0.4670    -7.1010    -0.0600 H     1 <1>   0.1500 
 40 H       -2.5290    -8.3620    -0.0470 H     1 <1>   0.1500 
 41 H       -5.0020    -3.4260     0.0330 H     1 <1>   0.0800 
 42 H       -5.7080    -4.7660     0.9020 H     1 <1>   0.0800 
 43 H       -5.7290    -4.7490    -0.8440 H     1 <1>   0.0800 
 44 H       -4.5890    -9.0670     0.8560 H     1 <1>   0.0800 
 45 H       -4.6110    -9.0490    -0.9120 H     1 <1>   0.0800 
 46 H       -7.0350    -8.6770     0.8850 H     1 <1>   0.0800 
 47 H       -6.6710   -10.1300    -0.0130 H     1 <1>   0.0800 
 48 H       -7.0570    -8.6580    -0.8710 H     1 <1>   0.0800 
@<TRIPOS>BOND
  1   1   2  2   
  2   2   3  am  
  3   2   4  1   
  4   3   5  1   
  5   3   6  1   
  6   4   7  1   
  7   4  24  1   
  8   4  25  1   
  9   5   8  1   
 10   5  26  1   
 11   5  27  1   
 12   6   9  1   
 13   6  28  1   
 14   6  29  1   
 15   7  10  1   
 16   7  30  1   
 17   7  31  1   
 18   8   9  1   
 19   8  11  1   
 20   8  32  1   
 21   9  33  1   
 22   9  34  1   
 23  10  12  2   
 24  10  13  1   
 25  11  14  1   
 26  13  15  ar  
 27  13  16  ar  
 28  14  35  1   
 29  14  36  1   
 30  14  37  1   
 31  15  17  ar  
 32  15  38  1   
 33  16  18  ar  
 34  16  39  1   
 35  17  19  ar  
 36  17  20  1   
 37  18  19  ar  
 38  18  40  1   
 39  19  21  1   
 40  20  41  1   
 41  20  42  1   
 42  20  43  1   
 43  21  22  1   
 44  22  23  1   
 45  22  44  1   
 46  22  45  1   
 47  23  46  1   
 48  23  47  1   
 49  23  48  1   
@<TRIPOS>SUBSTRUCTURE
  1 ****   7 GROUP 4 **** **** 0

# MOE 2024.06 (io_trps.svl 2023.06)
