@<TRIPOS>MOLECULE
NONAME
59 62 1 0 0 
SMALL
USER_CHARGES


@<TRIPOS>ATOM
  1 CL       0.4730     1.8010     2.7170 Cl    1 <1>  -0.1770 
  2 C        1.5900     0.5970     2.1290 C.ar  1 <1>   0.1770 
  3 C        1.4420    -0.7140     2.5380 C.ar  1 <1>  -0.1500 
  4 C        2.6010     0.9700     1.2660 C.ar  1 <1>  -0.1500 
  5 C        2.3180    -1.6840     2.0710 C.ar  1 <1>  -0.1440 
  6 C        3.4830     0.0110     0.8010 C.ar  1 <1>  -0.1500 
  7 C        3.3470    -1.3190     1.2020 C.ar  1 <1>   0.0830 
  8 C        2.1420    -3.1230     2.5320 C.3   1 <1>   0.4870 
  9 O        4.1860    -2.2980     0.7720 O.3   1 <1>  -0.3630 
 10 N        2.0830    -4.0490     1.3640 N.4   1 <1>  -0.9590 
 11 C        5.4030    -1.9970     0.1200 C.3   1 <1>   0.1200 
 12 C        0.7280    -4.1850     0.7510 C.3   1 <1>   0.4230 
 13 C        2.6880    -5.3650     1.7370 C.3   1 <1>   0.2630 
 14 C        6.1540    -3.3110    -0.0820 C.3   1 <1>  -0.1600 
 15 C        0.7410    -5.1410    -0.4420 C.3   1 <1>  -0.1600 
 16 C        0.2030    -2.8810     0.1540 C.3   1 <1>  -0.1600 
 17 C        7.5130    -3.0910    -0.7580 C.3   1 <1>   0.0960 
 18 C       -0.4740    -4.7500    -1.2890 C.3   1 <1>  -0.0800 
 19 C       -0.8150    -3.3010    -0.9120 C.3   1 <1>  -0.0800 
 20 N        8.1870    -4.3890    -0.9420 N.pl3 1 <1>   0.0480 
 21 C       -1.7310    -5.5820    -0.9930 C.3   1 <1>  -0.1600 
 22 C       -2.2680    -3.3120    -0.4120 C.3   1 <1>  -0.1600 
 23 C        9.0180    -5.0200    -0.0830 C.2   1 <1>   0.0360 
 24 C        8.0650    -5.2330    -1.9820 C.2   1 <1>  -0.3020 
 25 C       -2.8670    -4.5730    -1.0140 C.3   1 <1>   0.2000 
 26 N        9.4190    -6.1790    -0.4950 N.2   1 <1>  -0.5650 
 27 C        8.8220    -6.3140    -1.6930 C.2   1 <1>   0.0770 
 28 O       -3.9190    -5.0190    -0.2460 O.3   1 <1>  -0.6800 
 29 H        0.6400    -0.9500     3.2160 H     1 <1>   0.1500 
 30 H        2.6910     2.0000     0.9660 H     1 <1>   0.1500 
 31 H        4.2600     0.3230     0.1290 H     1 <1>   0.1500 
 32 H        1.2500    -3.2200     3.1290 H     1 <1>   0.0800 
 33 H        2.9880    -3.3750     3.1500 H     1 <1>   0.0800 
 34 H        2.7010    -3.5950     0.6690 H     1 <1>   0.4500 
 35 H        5.1810    -1.5320    -0.8260 H     1 <1>   0.0800 
 36 H        5.9660    -1.3230     0.7440 H     1 <1>   0.0800 
 37 H        0.0190    -4.5480     1.4780 H     1 <1>   0.0800 
 38 H        2.0750    -5.8660     2.4690 H     1 <1>   0.0800 
 39 H        3.6730    -5.2190     2.1500 H     1 <1>   0.0800 
 40 H        2.7770    -5.9980     0.8700 H     1 <1>   0.0800 
 41 H        6.3130    -3.7750     0.8770 H     1 <1>   0.0800 
 42 H        5.5600    -3.9640    -0.6980 H     1 <1>   0.0800 
 43 H        1.6270    -4.9770    -1.0310 H     1 <1>   0.0800 
 44 H        0.6960    -6.1730    -0.1420 H     1 <1>   0.0800 
 45 H       -0.2460    -2.2430     0.8930 H     1 <1>   0.0800 
 46 H        1.0020    -2.3540    -0.3380 H     1 <1>   0.0800 
 47 H        8.1390    -2.4590    -0.1530 H     1 <1>   0.0800 
 48 H        7.3860    -2.6310    -1.7220 H     1 <1>   0.0800 
 49 H       -0.2430    -4.8140    -2.3410 H     1 <1>   0.0800 
 50 H       -0.7410    -2.6650    -1.7800 H     1 <1>   0.0800 
 51 H       -1.6660    -6.0350    -0.0200 H     1 <1>   0.0800 
 52 H       -1.8800    -6.3460    -1.7360 H     1 <1>   0.0800 
 53 H       -2.8020    -2.4370    -0.7400 H     1 <1>   0.0800 
 54 H       -2.3000    -3.3710     0.6610 H     1 <1>   0.0800 
 55 H        9.3080    -4.5860     0.8580 H     1 <1>   0.1500 
 56 H        7.4660    -5.0310    -2.8500 H     1 <1>   0.1500 
 57 H       -3.2150    -4.3980    -2.0190 H     1 <1>   0.0800 
 58 H        8.9720    -7.1970    -2.2930 H     1 <1>   0.1500 
 59 H       -3.6390    -5.1650     0.6750 H     1 <1>   0.4000 
@<TRIPOS>BOND
  1   1   2  1   
  2   2   3  ar  
  3   2   4  ar  
  4   3   5  ar  
  5   3  29  1   
  6   4   6  ar  
  7   4  30  1   
  8   5   7  ar  
  9   5   8  1   
 10   6   7  ar  
 11   6  31  1   
 12   7   9  1   
 13   8  10  1   
 14   8  32  1   
 15   8  33  1   
 16   9  11  1   
 17  10  12  1   
 18  10  13  1   
 19  10  34  1   
 20  11  14  1   
 21  11  35  1   
 22  11  36  1   
 23  12  15  1   
 24  12  16  1   
 25  12  37  1   
 26  13  38  1   
 27  13  39  1   
 28  13  40  1   
 29  14  17  1   
 30  14  41  1   
 31  14  42  1   
 32  15  18  1   
 33  15  43  1   
 34  15  44  1   
 35  16  19  1   
 36  16  45  1   
 37  16  46  1   
 38  17  20  1   
 39  17  47  1   
 40  17  48  1   
 41  18  19  1   
 42  18  21  1   
 43  18  49  1   
 44  19  22  1   
 45  19  50  1   
 46  20  23  1   
 47  20  24  1   
 48  21  25  1   
 49  21  51  1   
 50  21  52  1   
 51  22  25  1   
 52  22  53  1   
 53  22  54  1   
 54  23  26  2   
 55  23  55  1   
 56  24  27  2   
 57  24  56  1   
 58  25  28  1   
 59  25  57  1   
 60  26  27  1   
 61  27  58  1   
 62  28  59  1   
@<TRIPOS>SUBSTRUCTURE
  1 ****  10 GROUP 4 **** **** 0

# MOE 2024.06 (io_trps.svl 2023.06)
