@<TRIPOS>MOLECULE
NONAME
55 57 1 0 0 
SMALL
USER_CHARGES


@<TRIPOS>ATOM
  1 S       -0.4290     0.6050    -0.9740 S.o2  1 <1>   1.3330 
  2 O       -1.1250     1.0670    -2.1500 O.2   1 <1>  -0.6500 
  3 O        0.7570     1.2790    -0.5030 O.2   1 <1>  -0.6500 
  4 N       -1.5480     0.5630     0.3530 N.am  1 <1>  -0.6930 
  5 C       -0.0400    -1.1210    -1.1670 C.3   1 <1>  -0.1350 
  6 C       -2.7860    -0.0600     0.2730 C.ar  1 <1>   0.1990 
  7 C       -1.0860     1.1340     1.6420 C.3   1 <1>   0.1160 
  8 C       -3.7210     0.2960    -0.6930 C.ar  1 <1>  -0.1500 
  9 C       -3.1250    -1.0750     1.1630 C.ar  1 <1>  -0.1500 
 10 C       -4.9430    -0.3420    -0.7700 C.ar  1 <1>  -0.1500 
 11 C       -4.3500    -1.7090     1.0860 C.ar  1 <1>  -0.1500 
 12 C       -5.2950    -1.3560     0.1230 C.ar  1 <1>   0.0860 
 13 C       -6.5770    -2.0290     0.0580 C.2   1 <1>   0.5440 
 14 O       -6.6130    -3.2450     0.1290 O.2   1 <1>  -0.5700 
 15 N       -7.7660    -1.3400    -0.0670 N.am  1 <1>  -0.6600 
 16 C       -7.9000     0.1050     0.2820 C.3   1 <1>   0.1400 
 17 C       -9.0260    -2.0800    -0.3680 C.3   1 <1>   0.1400 
 18 C       -9.2720     0.3620     0.9020 C.3   1 <1>  -0.1600 
 19 C      -10.0710    -1.1470    -0.9860 C.3   1 <1>  -0.1600 
 20 C      -10.4040     0.0800    -0.1010 C.3   1 <1>   0.2800 
 21 O      -10.4270     1.2020    -0.9460 O.3   1 <1>  -0.5600 
 22 C      -11.7340    -0.0720     0.6700 C.3   1 <1>  -0.1600 
 23 C      -11.6180     1.6800    -1.5100 C.3   1 <1>   0.1200 
 24 C      -13.0000     0.0440    -0.2020 C.3   1 <1>   0.2800 
 25 C      -12.6960     0.6010    -1.5930 C.3   1 <1>  -0.1600 
 26 O      -13.8330     0.9470     0.4160 O.3   1 <1>  -0.6800 
 27 C      -13.7950    -1.2590    -0.2810 C.3   1 <1>  -0.2400 
 28 H        0.6740    -1.2490    -1.9560 H     1 <1>   0.0800 
 29 H       -0.9250    -1.6740    -1.4100 H     1 <1>   0.0800 
 30 H        0.3760    -1.5100    -0.2590 H     1 <1>   0.0800 
 31 H       -0.7680     2.1520     1.4900 H     1 <1>   0.0800 
 32 H       -0.2550     0.5630     2.0180 H     1 <1>   0.0800 
 33 H       -1.8820     1.1270     2.3660 H     1 <1>   0.0800 
 34 H       -3.4860     1.0820    -1.3880 H     1 <1>   0.1500 
 35 H       -2.4180    -1.3740     1.9150 H     1 <1>   0.1500 
 36 H       -5.6420    -0.0570    -1.5380 H     1 <1>   0.1500 
 37 H       -4.5930    -2.4990     1.7770 H     1 <1>   0.1500 
 38 H       -7.7900     0.7010    -0.6090 H     1 <1>   0.0800 
 39 H       -7.1330     0.3880     0.9820 H     1 <1>   0.0800 
 40 H       -9.4040    -2.5080     0.5450 H     1 <1>   0.0800 
 41 H       -8.8130    -2.8850    -1.0510 H     1 <1>   0.0800 
 42 H       -9.3350     1.3820     1.2380 H     1 <1>   0.0800 
 43 H       -9.3710    -0.2680     1.7680 H     1 <1>   0.0800 
 44 H      -10.9520    -1.7260    -1.1810 H     1 <1>   0.0800 
 45 H       -9.6860    -0.8160    -1.9350 H     1 <1>   0.0800 
 46 H      -11.7550     0.6770     1.4420 H     1 <1>   0.0800 
 47 H      -11.7260    -1.0220     1.1720 H     1 <1>   0.0800 
 48 H      -11.3830     2.0550    -2.4910 H     1 <1>   0.0800 
 49 H      -11.9550     2.5030    -0.9050 H     1 <1>   0.0800 
 50 H      -12.3520    -0.1770    -2.2490 H     1 <1>   0.0800 
 51 H      -13.5920     1.0040    -2.0320 H     1 <1>   0.0800 
 52 H      -13.3600     1.7890     0.5440 H     1 <1>   0.4000 
 53 H      -13.2150    -2.0310    -0.7520 H     1 <1>   0.0800 
 54 H      -14.6910    -1.1120    -0.8570 H     1 <1>   0.0800 
 55 H      -14.0660    -1.5910     0.7050 H     1 <1>   0.0800 
@<TRIPOS>BOND
  1   1   2  2   
  2   1   3  2   
  3   1   4  am  
  4   1   5  1   
  5   4   6  1   
  6   4   7  1   
  7   5  28  1   
  8   5  29  1   
  9   5  30  1   
 10   6   8  ar  
 11   6   9  ar  
 12   7  31  1   
 13   7  32  1   
 14   7  33  1   
 15   8  10  ar  
 16   8  34  1   
 17   9  11  ar  
 18   9  35  1   
 19  10  12  ar  
 20  10  36  1   
 21  11  12  ar  
 22  11  37  1   
 23  12  13  1   
 24  13  14  2   
 25  13  15  am  
 26  15  16  1   
 27  15  17  1   
 28  16  18  1   
 29  16  38  1   
 30  16  39  1   
 31  17  19  1   
 32  17  40  1   
 33  17  41  1   
 34  18  20  1   
 35  18  42  1   
 36  18  43  1   
 37  19  20  1   
 38  19  44  1   
 39  19  45  1   
 40  20  21  1   
 41  20  22  1   
 42  21  23  1   
 43  22  24  1   
 44  22  46  1   
 45  22  47  1   
 46  23  25  1   
 47  23  48  1   
 48  23  49  1   
 49  24  25  1   
 50  24  26  1   
 51  24  27  1   
 52  25  50  1   
 53  25  51  1   
 54  26  52  1   
 55  27  53  1   
 56  27  54  1   
 57  27  55  1   
@<TRIPOS>SUBSTRUCTURE
  1 ****  16 GROUP 4 **** **** 0

# MOE 2024.06 (io_trps.svl 2023.06)
