@<TRIPOS>MOLECULE
NONAME
53 56 1 0 0 
SMALL
USER_CHARGES


@<TRIPOS>ATOM
  1 O       -2.9960     2.0000    -1.8260 O.2   1 <1>  -0.5700 
  2 C       -2.1740     2.4600    -1.0660 C.2   1 <1>   0.6900 
  3 N       -2.3060     2.5070     0.2900 N.am  1 <1>  -0.4200 
  4 N       -0.9930     2.9700    -1.4670 N.am  1 <1>  -0.7300 
  5 C       -1.1630     3.0030     0.8390 C.2   1 <1>   0.5690 
  6 C       -3.3540     1.7830     1.0510 C.3   1 <1>   0.2010 
  7 C       -0.1710     3.3130    -0.2990 C.3   1 <1>   0.3610 
  8 O       -0.9630     3.1840     2.0170 O.2   1 <1>  -0.5700 
  9 C       -3.2230     0.2670     0.8940 C.2   1 <1>   0.5690 
 10 C        1.0610     2.4060    -0.2800 C.3   1 <1>  -0.2400 
 11 C        0.2100     4.7920    -0.3850 C.3   1 <1>  -0.2400 
 12 O       -2.2430    -0.2620     1.3650 O.2   1 <1>  -0.5700 
 13 N       -4.1840    -0.4700     0.2510 N.am  1 <1>  -0.6600 
 14 C       -5.3620     0.0520    -0.4900 C.3   1 <1>   0.1400 
 15 C       -4.0270    -1.9260     0.0170 C.3   1 <1>   0.1400 
 16 C       -5.9000    -1.1420    -1.2790 C.3   1 <1>   0.2000 
 17 C       -5.3640    -2.3830    -0.5700 C.3   1 <1>  -0.0800 
 18 O       -7.2870    -1.1650    -1.2850 O.3   1 <1>  -0.6800 
 19 C       -5.2490    -3.5980    -1.5050 C.3   1 <1>  -0.0160 
 20 C       -4.7520    -4.8230    -0.7590 C.ar  1 <1>   0.1670 
 21 N       -3.4680    -4.9890    -0.6690 N.ar  1 <1>  -0.6200 
 22 C       -5.6910    -5.7050    -0.2000 C.ar  1 <1>  -0.1500 
 23 C       -3.0160    -6.0750     0.0090 C.ar  1 <1>   0.3100 
 24 C       -5.2660    -6.8030     0.4830 C.ar  1 <1>  -0.1500 
 25 C       -3.8830    -7.0160     0.6060 C.ar  1 <1>   0.0000 
 26 C       -1.6310    -6.2750     0.1260 C.ar  1 <1>  -0.1500 
 27 C       -3.3320    -8.1160     1.2940 C.ar  1 <1>  -0.1500 
 28 C       -1.1150    -7.3500     0.7990 C.ar  1 <1>  -0.1500 
 29 C       -1.9760    -8.2810     1.3890 C.ar  1 <1>  -0.1500 
 30 H       -0.5950     2.7470    -2.3770 H     1 <1>   0.3700 
 31 H       -3.2580     2.0200     2.0950 H     1 <1>   0.0800 
 32 H       -4.3170     2.1180     0.7200 H     1 <1>   0.0800 
 33 H        1.6410     2.6060     0.6030 H     1 <1>   0.0800 
 34 H        1.6790     2.5830    -1.1420 H     1 <1>   0.0800 
 35 H        0.7640     1.3720    -0.2570 H     1 <1>   0.0800 
 36 H        0.7610     5.0750     0.4940 H     1 <1>   0.0800 
 37 H       -0.6740     5.4030    -0.4390 H     1 <1>   0.0800 
 38 H        0.8220     4.9770    -1.2490 H     1 <1>   0.0800 
 39 H       -6.0940     0.4090     0.2120 H     1 <1>   0.0800 
 40 H       -5.0740     0.8400    -1.1620 H     1 <1>   0.0800 
 41 H       -3.2250    -2.0840    -0.6840 H     1 <1>   0.0800 
 42 H       -3.7980    -2.4440     0.9340 H     1 <1>   0.0800 
 43 H       -5.5540    -1.0890    -2.2980 H     1 <1>   0.0800 
 44 H       -6.0050    -2.6290     0.2590 H     1 <1>   0.0800 
 45 H       -7.6290    -1.2500    -0.3750 H     1 <1>   0.4000 
 46 H       -4.5710    -3.3770    -2.3110 H     1 <1>   0.0800 
 47 H       -6.2100    -3.8070    -1.9410 H     1 <1>   0.0800 
 48 H       -6.7390    -5.5000    -0.3170 H     1 <1>   0.1500 
 49 H       -5.9540    -7.5010     0.9250 H     1 <1>   0.1500 
 50 H       -0.9870    -5.5470    -0.3330 H     1 <1>   0.1500 
 51 H       -3.9990    -8.8270     1.7450 H     1 <1>   0.1500 
 52 H       -0.0500    -7.4900     0.8820 H     1 <1>   0.1500 
 53 H       -1.5570    -9.1210     1.9150 H     1 <1>   0.1500 
@<TRIPOS>BOND
  1   1   2  2   
  2   2   3  am  
  3   2   4  am  
  4   3   5  am  
  5   3   6  1   
  6   4   7  1   
  7   4  30  1   
  8   5   7  1   
  9   5   8  2   
 10   6   9  1   
 11   6  31  1   
 12   6  32  1   
 13   7  10  1   
 14   7  11  1   
 15   9  12  2   
 16   9  13  am  
 17  10  33  1   
 18  10  34  1   
 19  10  35  1   
 20  11  36  1   
 21  11  37  1   
 22  11  38  1   
 23  13  14  1   
 24  13  15  1   
 25  14  16  1   
 26  14  39  1   
 27  14  40  1   
 28  15  17  1   
 29  15  41  1   
 30  15  42  1   
 31  16  17  1   
 32  16  18  1   
 33  16  43  1   
 34  17  19  1   
 35  17  44  1   
 36  18  45  1   
 37  19  20  1   
 38  19  46  1   
 39  19  47  1   
 40  20  21  ar  
 41  20  22  ar  
 42  21  23  ar  
 43  22  24  ar  
 44  22  48  1   
 45  23  25  ar  
 46  23  26  ar  
 47  24  25  ar  
 48  24  49  1   
 49  25  27  ar  
 50  26  28  ar  
 51  26  50  1   
 52  27  29  ar  
 53  27  51  1   
 54  28  29  ar  
 55  28  52  1   
 56  29  53  1   
@<TRIPOS>SUBSTRUCTURE
  1 ****  15 GROUP 4 **** **** 0

# MOE 2024.06 (io_trps.svl 2023.06)
