@<TRIPOS>MOLECULE
NONAME
49 52 1 0 0 
SMALL
USER_CHARGES


@<TRIPOS>ATOM
  1 O       -8.3930    -0.2340    -0.8640 O.co2 1 <1>  -0.9000 
  2 C       -9.5730    -0.4500    -1.2280 C.2   1 <1>   0.9060 
  3 O      -10.1410     0.2090    -2.1200 O.co2 1 <1>  -0.9000 
  4 C      -10.4230    -1.3450    -0.2960 C.3   1 <1>   0.1140 
  5 N      -11.3550    -0.6840     0.6490 N.am  1 <1>  -0.6600 
  6 C      -11.3040    -2.3680    -1.0120 C.3   1 <1>  -0.1600 
  7 C      -11.4300     0.6370     1.0320 C.2   1 <1>   0.5690 
  8 C      -12.4230    -1.6150     0.9860 C.3   1 <1>   0.1400 
  9 C      -12.1740    -2.8700     0.1440 C.3   1 <1>  -0.1600 
 10 O      -12.1270     0.9650     1.9650 O.2   1 <1>  -0.5700 
 11 C      -10.6770     1.7910     0.3440 C.3   1 <1>   0.4040 
 12 N       -9.1980     1.8530     0.6270 N.4   1 <1>  -0.9060 
 13 C       -8.4820     3.0570     0.2190 C.3   1 <1>   0.5030 
 14 C       -8.8000     3.4470    -1.2360 C.3   1 <1>  -0.1600 
 15 C       -8.8420     4.2200     1.1650 C.3   1 <1>  -0.1600 
 16 C       -6.9780     2.7530     0.3440 C.3   1 <1>  -0.1600 
 17 C       -7.9800     4.6920    -1.5960 C.3   1 <1>   0.2800 
 18 C       -8.0270     5.4740     0.7900 C.3   1 <1>  -0.0800 
 19 C       -6.1480     3.9930    -0.0370 C.3   1 <1>  -0.0800 
 20 O       -8.2770     5.0510    -2.8840 O.3   1 <1>  -0.6800 
 21 C       -8.3470     5.8600    -0.6670 C.3   1 <1>  -0.1600 
 22 C       -6.4790     4.3870    -1.4900 C.3   1 <1>  -0.1600 
 23 C       -6.5220     5.1550     0.9050 C.3   1 <1>  -0.1600 
 24 H       -9.7000    -1.9020     0.3010 H     1 <1>   0.0800 
 25 H      -11.9150    -1.8630    -1.7640 H     1 <1>   0.0800 
 26 H      -10.7120    -3.1650    -1.4630 H     1 <1>   0.0800 
 27 H      -12.4160    -1.8550     2.0510 H     1 <1>   0.0800 
 28 H      -13.3870    -1.1770     0.7160 H     1 <1>   0.0800 
 29 H      -11.6170    -3.5980     0.7350 H     1 <1>   0.0800 
 30 H      -13.1090    -3.3030    -0.2140 H     1 <1>   0.0800 
 31 H      -11.1360     2.7020     0.6840 H     1 <1>   0.0800 
 32 H      -10.8450     1.7280    -0.7160 H     1 <1>   0.0800 
 33 H       -8.7670     1.0870     0.0540 H     1 <1>   0.4500 
 34 H       -9.0010     1.6080     1.5960 H     1 <1>   0.4500 
 35 H       -9.8420     3.6780    -1.3580 H     1 <1>   0.0800 
 36 H       -8.5420     2.6370    -1.8980 H     1 <1>   0.0800 
 37 H       -9.8900     4.4530     1.0920 H     1 <1>   0.0800 
 38 H       -8.6260     3.9510     2.1830 H     1 <1>   0.0800 
 39 H       -6.7370     2.4620     1.3510 H     1 <1>   0.0800 
 40 H       -6.7170     1.9380    -0.3110 H     1 <1>   0.0800 
 41 H       -8.2800     6.2890     1.4470 H     1 <1>   0.0800 
 42 H       -5.0970     3.7720     0.0500 H     1 <1>   0.0800 
 43 H       -7.6950     5.7780    -3.1700 H     1 <1>   0.4000 
 44 H       -7.7850     6.7370    -0.9370 H     1 <1>   0.0800 
 45 H       -9.3940     6.0890    -0.7640 H     1 <1>   0.0800 
 46 H       -6.2240     3.5770    -2.1530 H     1 <1>   0.0800 
 47 H       -5.9020     5.2500    -1.7680 H     1 <1>   0.0800 
 48 H       -6.2790     4.8960     1.9210 H     1 <1>   0.0800 
 49 H       -5.9450     6.0280     0.6510 H     1 <1>   0.0800 
@<TRIPOS>BOND
  1   1   2  ar  
  2   2   3  ar  
  3   2   4  1   
  4   4   5  1   
  5   4   6  1   
  6   4  24  1   
  7   5   7  am  
  8   5   8  1   
  9   6   9  1   
 10   6  25  1   
 11   6  26  1   
 12   7  10  2   
 13   7  11  1   
 14   8   9  1   
 15   8  27  1   
 16   8  28  1   
 17   9  29  1   
 18   9  30  1   
 19  11  12  1   
 20  11  31  1   
 21  11  32  1   
 22  12  13  1   
 23  12  33  1   
 24  12  34  1   
 25  13  14  1   
 26  13  15  1   
 27  13  16  1   
 28  14  17  1   
 29  14  35  1   
 30  14  36  1   
 31  15  18  1   
 32  15  37  1   
 33  15  38  1   
 34  16  19  1   
 35  16  39  1   
 36  16  40  1   
 37  17  20  1   
 38  17  21  1   
 39  17  22  1   
 40  18  21  1   
 41  18  23  1   
 42  18  41  1   
 43  19  22  1   
 44  19  23  1   
 45  19  42  1   
 46  20  43  1   
 47  21  44  1   
 48  21  45  1   
 49  22  46  1   
 50  22  47  1   
 51  23  48  1   
 52  23  49  1   
@<TRIPOS>SUBSTRUCTURE
  1 ****  12 GROUP 4 **** **** 0

# MOE 2024.06 (io_trps.svl 2023.06)
