@<TRIPOS>MOLECULE
NONAME
51 53 1 0 0 
SMALL
USER_CHARGES


@<TRIPOS>ATOM
  1 CL      -0.5370     0.5380     1.6350 Cl    1 <1>  -0.1770 
  2 C       -0.5130     2.1730     1.0160 C.ar  1 <1>   0.1770 
  3 C        0.5080     3.0400     1.3700 C.ar  1 <1>  -0.1440 
  4 C       -1.5330     2.5680     0.1740 C.ar  1 <1>  -0.1500 
  5 C        0.4830     4.3260     0.8570 C.ar  1 <1>  -0.1500 
  6 C        1.6300     2.5970     2.2980 C.3   1 <1>  -0.0960 
  7 C       -1.5680     3.8560    -0.3460 C.ar  1 <1>  -0.0090 
  8 C       -0.5450     4.7360     0.0060 C.ar  1 <1>   0.0830 
  9 S       -2.9140     4.3600    -1.4510 S.o2  1 <1>   1.4470 
 10 O       -0.5950     5.9900    -0.5070 O.3   1 <1>  -0.3630 
 11 O       -3.8860     3.2870    -1.5110 O.2   1 <1>  -0.6500 
 12 O       -2.3770     4.8510    -2.7030 O.2   1 <1>  -0.6500 
 13 N       -3.6500     5.6600    -0.6410 N.am  1 <1>  -0.8490 
 14 C        0.3920     6.9610    -0.2520 C.3   1 <1>   0.1200 
 15 C       -4.7420     5.3450     0.3030 C.3   1 <1>   0.1960 
 16 C       -3.7950     6.8750    -1.4460 C.3   1 <1>   0.1960 
 17 C       -0.0120     8.2390    -0.9810 C.3   1 <1>  -0.2400 
 18 C       -6.1140     5.9350    -0.1200 C.3   1 <1>   0.0000 
 19 C       -4.5750     7.9420    -0.6770 C.3   1 <1>  -0.1600 
 20 C       -7.2310     5.5800     0.8850 C.3   1 <1>   0.2000 
 21 C       -5.9910     7.4730    -0.2880 C.3   1 <1>  -0.1600 
 22 C       -6.6400     5.2390    -1.3920 C.3   1 <1>  -0.1600 
 23 O       -6.8100     5.6090     2.2040 O.3   1 <1>  -0.6800 
 24 C       -7.7340     4.1820     0.5250 C.3   1 <1>  -0.1600 
 25 C       -7.2780     3.9310    -0.9170 C.3   1 <1>  -0.1600 
 26 H       -2.3040     1.8610    -0.0780 H     1 <1>   0.1500 
 27 H        1.2720     5.0010     1.1290 H     1 <1>   0.1500 
 28 H        2.3380     3.3900     2.4590 H     1 <1>   0.0800 
 29 H        2.1510     1.7580     1.8700 H     1 <1>   0.0800 
 30 H        1.2260     2.3030     3.2500 H     1 <1>   0.0800 
 31 H        0.4410     7.1310     0.8090 H     1 <1>   0.0800 
 32 H        1.3350     6.5940    -0.6210 H     1 <1>   0.0800 
 33 H       -4.8220     4.2840     0.4570 H     1 <1>   0.0800 
 34 H       -4.4700     5.7780     1.2500 H     1 <1>   0.0800 
 35 H       -2.8160     7.2480    -1.6990 H     1 <1>   0.0800 
 36 H       -4.3070     6.6470    -2.3660 H     1 <1>   0.0800 
 37 H       -0.9530     8.5960    -0.6040 H     1 <1>   0.0800 
 38 H       -0.0960     8.0490    -2.0370 H     1 <1>   0.0800 
 39 H        0.7310     8.9990    -0.8250 H     1 <1>   0.0800 
 40 H       -4.0180     8.1840     0.2120 H     1 <1>   0.0800 
 41 H       -4.6400     8.8370    -1.2690 H     1 <1>   0.0800 
 42 H       -8.0400     6.2850     0.7850 H     1 <1>   0.0800 
 43 H       -6.6980     7.8190    -1.0210 H     1 <1>   0.0800 
 44 H       -6.2460     7.9540     0.6420 H     1 <1>   0.0800 
 45 H       -7.4080     5.8400    -1.8490 H     1 <1>   0.0800 
 46 H       -5.8800     5.0520    -2.1280 H     1 <1>   0.0800 
 47 H       -6.2920     4.8080     2.4080 H     1 <1>   0.4000 
 48 H       -7.3190     3.4280     1.1710 H     1 <1>   0.0800 
 49 H       -8.8070     4.1540     0.5900 H     1 <1>   0.0800 
 50 H       -6.5410     3.1450    -0.9320 H     1 <1>   0.0800 
 51 H       -8.0980     3.6440    -1.5520 H     1 <1>   0.0800 
@<TRIPOS>BOND
  1   1   2  1   
  2   2   3  ar  
  3   2   4  ar  
  4   3   5  ar  
  5   3   6  1   
  6   4   7  ar  
  7   4  26  1   
  8   5   8  ar  
  9   5  27  1   
 10   6  28  1   
 11   6  29  1   
 12   6  30  1   
 13   7   8  ar  
 14   7   9  1   
 15   8  10  1   
 16   9  11  2   
 17   9  12  2   
 18   9  13  am  
 19  10  14  1   
 20  13  15  1   
 21  13  16  1   
 22  14  17  1   
 23  14  31  1   
 24  14  32  1   
 25  15  18  1   
 26  15  33  1   
 27  15  34  1   
 28  16  19  1   
 29  16  35  1   
 30  16  36  1   
 31  17  37  1   
 32  17  38  1   
 33  17  39  1   
 34  18  20  1   
 35  18  21  1   
 36  18  22  1   
 37  19  21  1   
 38  19  40  1   
 39  19  41  1   
 40  20  23  1   
 41  20  24  1   
 42  20  42  1   
 43  21  43  1   
 44  21  44  1   
 45  22  25  1   
 46  22  45  1   
 47  22  46  1   
 48  23  47  1   
 49  24  25  1   
 50  24  48  1   
 51  24  49  1   
 52  25  50  1   
 53  25  51  1   
@<TRIPOS>SUBSTRUCTURE
  1 ****  13 GROUP 4 **** **** 0

# MOE 2024.06 (io_trps.svl 2023.06)
