@<TRIPOS>MOLECULE
NONAME
45 45 1 0 0 
SMALL
USER_CHARGES


@<TRIPOS>ATOM
  1 F        0.1970     0.6690    -0.0690 F     1 <1>  -0.3400 
  2 C        0.5440     1.8040    -0.6550 C.3   1 <1>   0.1800 
  3 C        1.3740     2.5990     0.3570 C.3   1 <1>  -0.1600 
  4 C        1.8360     3.9450    -0.2190 C.3   1 <1>  -0.1600 
  5 C        2.6650     4.7260     0.8110 C.3   1 <1>  -0.1600 
  6 C        3.1260     6.0680     0.2380 C.3   1 <1>   0.3430 
  7 N        3.8470     6.8610     1.2830 N.4   1 <1>  -0.9590 
  8 C        3.8180     8.3480     1.0120 C.3   1 <1>   0.3430 
  9 C        5.2030     6.2920     1.5850 C.3   1 <1>   0.2630 
 10 C        4.8330     8.9460    -0.0120 C.3   1 <1>   0.0000 
 11 C        4.4720    10.4210    -0.2510 C.3   1 <1>   0.3430 
 12 C        6.2690     9.0660     0.5350 C.3   1 <1>  -0.1600 
 13 C        4.8400     8.2070    -1.3710 C.3   1 <1>  -0.2400 
 14 N        5.7350    11.0720    -0.6920 N.4   1 <1>  -0.9590 
 15 C        6.8590    10.3660    -0.0190 C.3   1 <1>   0.3430 
 16 C        5.7550    12.5520    -0.4600 C.3   1 <1>   0.2630 
 17 H       -0.3700     2.3050    -0.9230 H     1 <1>   0.0800 
 18 H        1.1050     1.5400    -1.5330 H     1 <1>   0.0800 
 19 H        2.2330     2.0110     0.6330 H     1 <1>   0.0800 
 20 H        0.7740     2.7680     1.2350 H     1 <1>   0.0800 
 21 H        0.9700     4.5210    -0.5040 H     1 <1>   0.0800 
 22 H        2.4250     3.7660    -1.1040 H     1 <1>   0.0800 
 23 H        3.5160     4.1270     1.0860 H     1 <1>   0.0800 
 24 H        2.0600     4.8920     1.6850 H     1 <1>   0.0800 
 25 H        2.2570     6.6120    -0.0950 H     1 <1>   0.0800 
 26 H        3.7630     5.8960    -0.6140 H     1 <1>   0.0800 
 27 H        3.2870     6.7200     2.1400 H     1 <1>   0.4500 
 28 H        3.9660     8.8600     1.9500 H     1 <1>   0.0800 
 29 H        2.8240     8.6020     0.6810 H     1 <1>   0.0800 
 30 H        5.8250     6.3110     0.7060 H     1 <1>   0.0800 
 31 H        5.1170     5.2700     1.9180 H     1 <1>   0.0800 
 32 H        5.6830     6.8600     2.3660 H     1 <1>   0.0800 
 33 H        4.1450    10.8710     0.6730 H     1 <1>   0.0800 
 34 H        3.6950    10.5300    -0.9920 H     1 <1>   0.0800 
 35 H        6.8920     8.2330     0.2600 H     1 <1>   0.0800 
 36 H        6.2660     9.1410     1.6090 H     1 <1>   0.0800 
 37 H        3.8470     8.1460    -1.7810 H     1 <1>   0.0800 
 38 H        5.2310     7.2110    -1.2700 H     1 <1>   0.0800 
 39 H        5.4600     8.7130    -2.0920 H     1 <1>   0.0800 
 40 H        5.8380    10.9080    -1.7060 H     1 <1>   0.4500 
 41 H        7.6480    10.1600    -0.7250 H     1 <1>   0.0800 
 42 H        7.2590    10.9620     0.7870 H     1 <1>   0.0800 
 43 H        5.6610    12.7710     0.5910 H     1 <1>   0.0800 
 44 H        4.9410    13.0260    -0.9850 H     1 <1>   0.0800 
 45 H        6.6820    12.9740    -0.8160 H     1 <1>   0.0800 
@<TRIPOS>BOND
  1   1   2  1   
  2   2   3  1   
  3   2  17  1   
  4   2  18  1   
  5   3   4  1   
  6   3  19  1   
  7   3  20  1   
  8   4   5  1   
  9   4  21  1   
 10   4  22  1   
 11   5   6  1   
 12   5  23  1   
 13   5  24  1   
 14   6   7  1   
 15   6  25  1   
 16   6  26  1   
 17   7   8  1   
 18   7   9  1   
 19   7  27  1   
 20   8  10  1   
 21   8  28  1   
 22   8  29  1   
 23   9  30  1   
 24   9  31  1   
 25   9  32  1   
 26  10  11  1   
 27  10  12  1   
 28  10  13  1   
 29  11  14  1   
 30  11  33  1   
 31  11  34  1   
 32  12  15  1   
 33  12  35  1   
 34  12  36  1   
 35  13  37  1   
 36  13  38  1   
 37  13  39  1   
 38  14  15  1   
 39  14  16  1   
 40  14  40  1   
 41  15  41  1   
 42  15  42  1   
 43  16  43  1   
 44  16  44  1   
 45  16  45  1   
@<TRIPOS>SUBSTRUCTURE
  1 ****   7 GROUP 4 **** **** 0

# MOE 2024.06 (io_trps.svl 2023.06)
