@<TRIPOS>MOLECULE
NONAME
47 49 1 0 0 
SMALL
USER_CHARGES


@<TRIPOS>ATOM
  1 CL       0.6670     4.7880     1.4490 Cl    1 <1>  -0.1770 
  2 C        0.9020     3.8200     0.0150 C.ar  1 <1>   0.1770 
  3 C        1.7520     2.7190     0.0230 C.ar  1 <1>  -0.1440 
  4 C        0.2150     4.1960    -1.1240 C.ar  1 <1>  -0.1500 
  5 C        1.8900     1.9940    -1.1560 C.ar  1 <1>  -0.1500 
  6 C        2.5360     2.3210     1.2740 C.3   1 <1>   0.3640 
  7 C        0.3670     3.4660    -2.2880 C.ar  1 <1>  -0.1500 
  8 C        1.2040     2.3640    -2.3010 C.ar  1 <1>  -0.1500 
  9 N        2.4300     0.8530     1.4570 N.am  1 <1>  -0.7300 
 10 C        4.0100     2.7690     1.1310 C.3   1 <1>   0.2610 
 11 C        3.4820     0.0600     1.7560 C.2   1 <1>   0.5690 
 12 O        4.8610     2.0760     2.0300 O.3   1 <1>  -0.5600 
 13 C        4.0940     4.2880     1.3400 C.2   1 <1>   0.5690 
 14 O        3.3310    -1.1260     1.9050 O.2   1 <1>  -0.5700 
 15 C        4.8810     0.6750     1.8660 C.3   1 <1>   0.1810 
 16 O        3.8520     4.7160     2.4480 O.2   1 <1>  -0.5700 
 17 N        4.4110     5.1480     0.3150 N.am  1 <1>  -0.6600 
 18 C        4.4090     6.6280     0.5430 C.3   1 <1>   0.3200 
 19 C        4.7270     4.7480    -1.0850 C.3   1 <1>   0.1400 
 20 C        5.8160     7.1990     0.4520 C.2   1 <1>   0.0060 
 21 C        6.1690     4.2480    -1.1790 C.3   1 <1>  -0.2400 
 22 N        6.2200     7.9490    -0.5260 N.2   1 <1>  -0.5650 
 23 N        6.7700     6.9660     1.3890 N.pl3 1 <1>   0.0480 
 24 C        7.5010     8.2190    -0.2160 C.2   1 <1>   0.0770 
 25 C        7.8530     7.6290     0.9460 C.2   1 <1>  -0.3020 
 26 C        6.6820     6.1600     2.6210 C.3   1 <1>   0.0160 
 27 H       -0.4330     5.0540    -1.0960 H     1 <1>   0.1500 
 28 H        2.5330     1.1290    -1.1940 H     1 <1>   0.1500 
 29 H        2.1180     2.7880     2.1490 H     1 <1>   0.0800 
 30 H       -0.1650     3.7510    -3.1800 H     1 <1>   0.1500 
 31 H        1.3200     1.7910    -3.2060 H     1 <1>   0.1500 
 32 H        1.4970     0.4370     1.4230 H     1 <1>   0.3700 
 33 H        4.3460     2.5200     0.1450 H     1 <1>   0.0800 
 34 H        5.4430     0.4450     0.9800 H     1 <1>   0.0800 
 35 H        5.3880     0.2540     2.7160 H     1 <1>   0.0800 
 36 H        3.7930     7.0980    -0.2030 H     1 <1>   0.0800 
 37 H        3.9900     6.8750     1.5020 H     1 <1>   0.0800 
 38 H        4.0420     3.9870    -1.4150 H     1 <1>   0.0800 
 39 H        4.6060     5.5950    -1.7410 H     1 <1>   0.0800 
 40 H        6.3460     3.4270    -0.5090 H     1 <1>   0.0800 
 41 H        6.8530     5.0440    -0.9480 H     1 <1>   0.0800 
 42 H        6.3700     3.9210    -2.1830 H     1 <1>   0.0800 
 43 H        8.1120     8.8350    -0.8550 H     1 <1>   0.1500 
 44 H        8.7920     7.6450     1.4660 H     1 <1>   0.1500 
 45 H        7.5330     6.3570     3.2450 H     1 <1>   0.0800 
 46 H        6.6610     5.1170     2.3620 H     1 <1>   0.0800 
 47 H        5.7830     6.4120     3.1540 H     1 <1>   0.0800 
@<TRIPOS>BOND
  1   1   2  1   
  2   2   3  ar  
  3   2   4  ar  
  4   3   5  ar  
  5   3   6  1   
  6   4   7  ar  
  7   4  27  1   
  8   5   8  ar  
  9   5  28  1   
 10   6   9  1   
 11   6  10  1   
 12   6  29  1   
 13   7   8  ar  
 14   7  30  1   
 15   8  31  1   
 16   9  11  am  
 17   9  32  1   
 18  10  12  1   
 19  10  13  1   
 20  10  33  1   
 21  11  14  2   
 22  11  15  1   
 23  12  15  1   
 24  13  16  2   
 25  13  17  am  
 26  15  34  1   
 27  15  35  1   
 28  17  18  1   
 29  17  19  1   
 30  18  20  1   
 31  18  36  1   
 32  18  37  1   
 33  19  21  1   
 34  19  38  1   
 35  19  39  1   
 36  20  22  2   
 37  20  23  1   
 38  21  40  1   
 39  21  41  1   
 40  21  42  1   
 41  22  24  1   
 42  23  25  1   
 43  23  26  1   
 44  24  25  2   
 45  24  43  1   
 46  25  44  1   
 47  26  45  1   
 48  26  46  1   
 49  26  47  1   
@<TRIPOS>SUBSTRUCTURE
  1 ****  13 GROUP 4 **** **** 0

# MOE 2024.06 (io_trps.svl 2023.06)
