@<TRIPOS>MOLECULE
NONAME
57 60 1 0 0 
SMALL
USER_CHARGES


@<TRIPOS>ATOM
  1 N       -3.0870    -4.6230     1.2150 N.2   1 <1>  -0.7070 
  2 N       -2.4420    -3.4340     1.2600 N.pl3 1 <1>   0.3140 
  3 C       -2.1930    -5.4690     0.7930 C.2   1 <1>   0.1390 
  4 C       -1.1710    -3.5560     0.8330 C.2   1 <1>  -0.3020 
  5 C       -3.1130    -2.2030     1.7280 C.3   1 <1>   0.2390 
  6 C       -0.9760    -4.8560     0.5270 C.2   1 <1>  -0.1500 
  7 C       -3.4230    -1.1760     0.6270 C.ar  1 <1>  -0.1440 
  8 C       -3.7940    -1.4530    -0.6980 C.ar  1 <1>  -0.1430 
  9 C       -3.3400     0.1510     1.0310 C.ar  1 <1>  -0.1500 
 10 C       -4.0630    -0.3990    -1.5620 C.ar  1 <1>  -0.1500 
 11 C       -3.9320    -2.8440    -1.3140 C.3   1 <1>   0.4860 
 12 C       -3.6110     1.1880     0.1610 C.ar  1 <1>  -0.1500 
 13 C       -3.9740     0.9130    -1.1400 C.ar  1 <1>  -0.1500 
 14 N       -4.9920    -3.6400    -0.6450 N.4   1 <1>  -0.9590 
 15 C       -5.2130    -4.9290    -1.3680 C.3   1 <1>   0.3430 
 16 C       -6.2640    -2.9010    -0.4200 C.3   1 <1>   0.3430 
 17 C       -6.1460    -5.8650    -0.5800 C.3   1 <1>   0.1000 
 18 C       -7.2180    -3.7760     0.3970 C.3   1 <1>  -0.1600 
 19 C       -6.3840    -7.1290    -1.4000 C.2   1 <1>   0.0060 
 20 C       -7.4670    -5.1410    -0.2670 C.3   1 <1>  -0.1600 
 21 N       -6.1590    -7.1230    -2.6780 N.2   1 <1>  -0.5650 
 22 N       -6.8270    -8.3380    -0.9310 N.pl3 1 <1>   0.0480 
 23 C       -6.4630    -8.3670    -3.0760 C.2   1 <1>   0.0770 
 24 C       -6.8680    -9.1150    -2.0320 C.2   1 <1>  -0.3020 
 25 C       -7.2370    -8.8880     0.4000 C.3   1 <1>   0.1760 
 26 C       -8.7550    -8.7750     0.5820 C.3   1 <1>  -0.2400 
 27 C       -6.4870    -8.2880     1.5950 C.3   1 <1>  -0.2400 
 28 H       -2.3760    -6.5250     0.6650 H     1 <1>   0.1500 
 29 H       -0.4830    -2.7300     0.7780 H     1 <1>   0.1500 
 30 H       -2.4740    -1.7600     2.4700 H     1 <1>   0.0800 
 31 H       -4.0270    -2.4850     2.2170 H     1 <1>   0.0800 
 32 H       -0.0850    -5.3400     0.1640 H     1 <1>   0.1500 
 33 H       -3.0610     0.4020     2.0410 H     1 <1>   0.1500 
 34 H       -4.3450    -0.5810    -2.5860 H     1 <1>   0.1500 
 35 H       -2.9890    -3.3630    -1.2420 H     1 <1>   0.0800 
 36 H       -4.1700    -2.7420    -2.3590 H     1 <1>   0.0800 
 37 H       -3.5380     2.2100     0.4950 H     1 <1>   0.1500 
 38 H       -4.1840     1.7210    -1.8220 H     1 <1>   0.1500 
 39 H       -4.5840    -3.9130     0.2700 H     1 <1>   0.4500 
 40 H       -4.2740    -5.4340    -1.5230 H     1 <1>   0.0800 
 41 H       -5.6510    -4.7370    -2.3340 H     1 <1>   0.0800 
 42 H       -6.7170    -2.6570    -1.3670 H     1 <1>   0.0800 
 43 H       -6.0740    -1.9820     0.1120 H     1 <1>   0.0800 
 44 H       -5.6310    -6.1180     0.3250 H     1 <1>   0.0800 
 45 H       -8.1550    -3.2590     0.5090 H     1 <1>   0.0800 
 46 H       -6.8090    -3.9170     1.3830 H     1 <1>   0.0800 
 47 H       -8.0740    -5.7440     0.3820 H     1 <1>   0.0800 
 48 H       -8.0140    -4.9990    -1.1840 H     1 <1>   0.0800 
 49 H       -6.3760    -8.6660    -4.1080 H     1 <1>   0.1500 
 50 H       -7.1800   -10.1430    -2.0220 H     1 <1>   0.1500 
 51 H       -6.9930    -9.9370     0.3790 H     1 <1>   0.0800 
 52 H       -9.0700    -7.7500     0.6110 H     1 <1>   0.0800 
 53 H       -9.0500    -9.2470     1.5020 H     1 <1>   0.0800 
 54 H       -9.2620    -9.2730    -0.2250 H     1 <1>   0.0800 
 55 H       -6.8290    -7.2940     1.8150 H     1 <1>   0.0800 
 56 H       -5.4270    -8.2880     1.4130 H     1 <1>   0.0800 
 57 H       -6.6720    -8.8900     2.4670 H     1 <1>   0.0800 
@<TRIPOS>BOND
  1   1   2  1   
  2   1   3  2   
  3   2   4  1   
  4   2   5  1   
  5   3   6  1   
  6   3  28  1   
  7   4   6  2   
  8   4  29  1   
  9   5   7  1   
 10   5  30  1   
 11   5  31  1   
 12   6  32  1   
 13   7   8  ar  
 14   7   9  ar  
 15   8  10  ar  
 16   8  11  1   
 17   9  12  ar  
 18   9  33  1   
 19  10  13  ar  
 20  10  34  1   
 21  11  14  1   
 22  11  35  1   
 23  11  36  1   
 24  12  13  ar  
 25  12  37  1   
 26  13  38  1   
 27  14  15  1   
 28  14  16  1   
 29  14  39  1   
 30  15  17  1   
 31  15  40  1   
 32  15  41  1   
 33  16  18  1   
 34  16  42  1   
 35  16  43  1   
 36  17  19  1   
 37  17  20  1   
 38  17  44  1   
 39  18  20  1   
 40  18  45  1   
 41  18  46  1   
 42  19  21  2   
 43  19  22  1   
 44  20  47  1   
 45  20  48  1   
 46  21  23  1   
 47  22  24  1   
 48  22  25  1   
 49  23  24  2   
 50  23  49  1   
 51  24  50  1   
 52  25  26  1   
 53  25  27  1   
 54  25  51  1   
 55  26  52  1   
 56  26  53  1   
 57  26  54  1   
 58  27  55  1   
 59  27  56  1   
 60  27  57  1   
@<TRIPOS>SUBSTRUCTURE
  1 ****  14 GROUP 4 **** **** 0

# MOE 2024.06 (io_trps.svl 2023.06)
