@<TRIPOS>MOLECULE
NONAME
37 38 1 0 0 
SMALL
USER_CHARGES


@<TRIPOS>ATOM
  1 O       -0.5480     0.3540    -0.5590 O.2   1 <1>  -0.5700 
  2 C       -1.5640     0.6450     0.0150 C.2   1 <1>   0.4230 
  3 C       -2.8200     0.0080    -0.2680 C.ar  1 <1>   0.0860 
  4 C       -1.4470     1.6780     1.1180 C.3   1 <1>  -0.1790 
  5 C       -4.0580     0.6350    -0.3830 C.ar  1 <1>   0.1660 
  6 C       -2.8500    -1.3640    -0.4520 C.ar  1 <1>   0.1600 
  7 N       -5.1650    -0.0320    -0.5800 N.ar  1 <1>  -0.6200 
  8 C       -4.2260     2.1440    -0.3170 C.3   1 <1>  -0.0960 
  9 N       -3.9450    -2.0480    -0.6590 N.ar  1 <1>  -0.6200 
 10 C       -5.0830    -1.3580    -0.7040 C.ar  1 <1>   0.7200 
 11 N       -6.2510    -2.0570    -0.8990 N.pl3 1 <1>  -0.8380 
 12 C       -6.3130    -3.5470    -0.9260 C.3   1 <1>   0.2090 
 13 C       -7.5650    -1.3990    -1.1430 C.3   1 <1>   0.2090 
 14 C       -7.3190    -4.0370     0.1190 C.3   1 <1>  -0.1600 
 15 C       -8.5700    -1.8650    -0.0870 C.3   1 <1>  -0.1600 
 16 C       -8.7090    -3.3980    -0.0680 C.3   1 <1>  -0.0800 
 17 C       -9.6890    -3.8260     1.0350 C.3   1 <1>   0.1200 
 18 O       -9.8830    -5.1960     0.9850 O.3   1 <1>  -0.6800 
 19 H       -2.2730     1.6070     1.8010 H     1 <1>   0.0800 
 20 H       -1.4100     2.6640     0.6930 H     1 <1>   0.0800 
 21 H       -0.5380     1.5100     1.6660 H     1 <1>   0.0800 
 22 H       -1.9200    -1.9070    -0.4160 H     1 <1>   0.1500 
 23 H       -3.3850     2.6450    -0.7600 H     1 <1>   0.0800 
 24 H       -4.3410     2.4580     0.7040 H     1 <1>   0.0800 
 25 H       -5.1060     2.4380    -0.8610 H     1 <1>   0.0800 
 26 H       -5.3550    -3.9920    -0.7220 H     1 <1>   0.0800 
 27 H       -6.6200    -3.8650    -1.9080 H     1 <1>   0.0800 
 28 H       -7.9120    -1.6720    -2.1250 H     1 <1>   0.0800 
 29 H       -7.4880    -0.3270    -1.1110 H     1 <1>   0.0800 
 30 H       -6.9360    -3.8010     1.0960 H     1 <1>   0.0800 
 31 H       -7.3940    -5.1080     0.0500 H     1 <1>   0.0800 
 32 H       -9.5240    -1.4140    -0.2930 H     1 <1>   0.0800 
 33 H       -8.2380    -1.5120     0.8740 H     1 <1>   0.0800 
 34 H       -9.1100    -3.7040    -1.0190 H     1 <1>   0.0800 
 35 H      -10.6460    -3.3480     0.9080 H     1 <1>   0.0800 
 36 H       -9.3000    -3.5810     2.0090 H     1 <1>   0.0800 
 37 H      -10.2330    -5.4610     0.1140 H     1 <1>   0.4000 
@<TRIPOS>BOND
  1   1   2  2   
  2   2   3  1   
  3   2   4  1   
  4   3   5  ar  
  5   3   6  ar  
  6   4  19  1   
  7   4  20  1   
  8   4  21  1   
  9   5   7  ar  
 10   5   8  1   
 11   6   9  ar  
 12   6  22  1   
 13   7  10  ar  
 14   8  23  1   
 15   8  24  1   
 16   8  25  1   
 17   9  10  ar  
 18  10  11  1   
 19  11  12  1   
 20  11  13  1   
 21  12  14  1   
 22  12  26  1   
 23  12  27  1   
 24  13  15  1   
 25  13  28  1   
 26  13  29  1   
 27  14  16  1   
 28  14  30  1   
 29  14  31  1   
 30  15  16  1   
 31  15  32  1   
 32  15  33  1   
 33  16  17  1   
 34  16  34  1   
 35  17  18  1   
 36  17  35  1   
 37  17  36  1   
 38  18  37  1   
@<TRIPOS>SUBSTRUCTURE
  1 ****  10 GROUP 4 **** **** 0

# MOE 2024.06 (io_trps.svl 2023.06)
