@<TRIPOS>MOLECULE
NONAME
48 49 1 0 0 
SMALL
USER_CHARGES


@<TRIPOS>ATOM
  1 O        0.4580    -0.8860    -1.0270 O.2   1 <1>  -0.5700 
  2 C       -0.3610    -0.0390    -0.7580 C.2   1 <1>   0.5690 
  3 N       -1.5490    -0.3700    -0.1510 N.am  1 <1>  -0.6600 
  4 C       -0.0220     1.3930    -1.1550 C.3   1 <1>  -0.0990 
  5 C       -1.7970    -1.7750     0.2790 C.3   1 <1>   0.3200 
  6 C       -2.6740     0.5820     0.1040 C.3   1 <1>   0.1400 
  7 C        0.9180     2.1530    -0.1880 C.3   1 <1>   0.1440 
  8 C       -2.9090    -2.3730    -0.5600 C.2   1 <1>  -0.3320 
  9 C       -3.5620     0.7480    -1.1350 C.3   1 <1>   0.1200 
 10 C        1.0660     3.5980    -0.7230 C.ar  1 <1>  -0.1440 
 11 C        2.2760     1.4270    -0.0960 C.3   1 <1>  -0.2400 
 12 C        0.3570     2.1970     1.2470 C.3   1 <1>  -0.2400 
 13 N       -4.1530    -2.6730    -0.1340 N.pl3 1 <1>   0.0480 
 14 C       -2.8620    -2.7000    -1.8700 C.2   1 <1>   0.0770 
 15 O       -4.5190     1.7150    -0.8610 O.3   1 <1>  -0.6800 
 16 C        2.2570     4.0920    -1.2540 C.ar  1 <1>  -0.1500 
 17 C       -0.0300     4.4570    -0.6990 C.ar  1 <1>  -0.1500 
 18 C       -4.7800    -3.1590    -1.2290 C.2   1 <1>   0.0360 
 19 C       -4.7320    -2.5170     1.2130 C.3   1 <1>   0.0160 
 20 N       -4.0430    -3.1880    -2.2910 N.2   1 <1>  -0.5650 
 21 C        2.3480     5.3890    -1.7300 C.ar  1 <1>  -0.1500 
 22 C        0.0570     5.7550    -1.1730 C.ar  1 <1>  -0.1500 
 23 C        1.2490     6.2240    -1.6900 C.ar  1 <1>  -0.1500 
 24 H       -0.9200     1.9540    -1.3040 H     1 <1>   0.0800 
 25 H        0.4570     1.3500    -2.1170 H     1 <1>   0.0800 
 26 H       -2.0520    -1.7890     1.3230 H     1 <1>   0.0800 
 27 H       -0.9110    -2.3750     0.1590 H     1 <1>   0.0800 
 28 H       -2.2850     1.5410     0.3850 H     1 <1>   0.0800 
 29 H       -3.2730     0.2220     0.9210 H     1 <1>   0.0800 
 30 H       -4.0730    -0.1660    -1.3780 H     1 <1>   0.0800 
 31 H       -2.9850     1.0760    -1.9820 H     1 <1>   0.0800 
 32 H        2.6900     1.2680    -1.0760 H     1 <1>   0.0800 
 33 H        2.1690     0.4650     0.3720 H     1 <1>   0.0800 
 34 H        2.9720     1.9990     0.4910 H     1 <1>   0.0800 
 35 H       -0.6130     2.6510     1.2850 H     1 <1>   0.0800 
 36 H        1.0140     2.7730     1.8740 H     1 <1>   0.0800 
 37 H        0.2810     1.2070     1.6600 H     1 <1>   0.0800 
 38 H       -2.0230    -2.5990    -2.5400 H     1 <1>   0.1500 
 39 H       -5.1140     1.8310    -1.6290 H     1 <1>   0.4000 
 40 H        3.1400     3.4850    -1.3140 H     1 <1>   0.1500 
 41 H       -0.9770     4.1280    -0.3120 H     1 <1>   0.1500 
 42 H       -5.8040    -3.4880    -1.2020 H     1 <1>   0.1500 
 43 H       -4.8220    -1.4710     1.4430 H     1 <1>   0.0800 
 44 H       -4.0940    -2.9950     1.9340 H     1 <1>   0.0800 
 45 H       -5.7040    -2.9730     1.2430 H     1 <1>   0.0800 
 46 H        3.2790     5.7470    -2.1330 H     1 <1>   0.1500 
 47 H       -0.8050     6.3980    -1.1410 H     1 <1>   0.1500 
 48 H        1.3200     7.2320    -2.0590 H     1 <1>   0.1500 
@<TRIPOS>BOND
  1   1   2  2   
  2   2   3  am  
  3   2   4  1   
  4   3   5  1   
  5   3   6  1   
  6   4   7  1   
  7   4  24  1   
  8   4  25  1   
  9   5   8  1   
 10   5  26  1   
 11   5  27  1   
 12   6   9  1   
 13   6  28  1   
 14   6  29  1   
 15   7  10  1   
 16   7  11  1   
 17   7  12  1   
 18   8  13  1   
 19   8  14  2   
 20   9  15  1   
 21   9  30  1   
 22   9  31  1   
 23  10  16  ar  
 24  10  17  ar  
 25  11  32  1   
 26  11  33  1   
 27  11  34  1   
 28  12  35  1   
 29  12  36  1   
 30  12  37  1   
 31  13  18  1   
 32  13  19  1   
 33  14  20  1   
 34  14  38  1   
 35  15  39  1   
 36  16  21  ar  
 37  16  40  1   
 38  17  22  ar  
 39  17  41  1   
 40  18  20  2   
 41  18  42  1   
 42  19  43  1   
 43  19  44  1   
 44  19  45  1   
 45  21  23  ar  
 46  21  46  1   
 47  22  23  ar  
 48  22  47  1   
 49  23  48  1   
@<TRIPOS>SUBSTRUCTURE
  1 ****   2 GROUP 4 **** **** 0

# MOE 2024.06 (io_trps.svl 2023.06)
