@<TRIPOS>MOLECULE
NONAME
56 59 1 0 0 
SMALL
USER_CHARGES


@<TRIPOS>ATOM
  1 S        0.3020    -0.3680     1.2060 S.o2  1 <1>   1.4470 
  2 O        0.5410    -1.7900     1.0920 O.2   1 <1>  -0.6500 
  3 O        0.1700     0.2260     2.5200 O.2   1 <1>  -0.6500 
  4 N       -1.0970     0.0430     0.3320 N.am  1 <1>  -0.8490 
  5 C        1.5920     0.5420     0.3120 C.ar  1 <1>  -0.0090 
  6 C       -1.1920    -0.4650    -1.0440 C.3   1 <1>   0.1960 
  7 C       -2.3590    -0.0830     1.0670 C.3   1 <1>   0.1960 
  8 C        1.5860     1.9290     0.2890 C.ar  1 <1>  -0.1500 
  9 C        2.5990    -0.1190    -0.3820 C.ar  1 <1>  -0.1500 
 10 C       -1.7150    -1.9050    -1.1170 C.3   1 <1>  -0.1600 
 11 C       -2.8620    -1.5290     1.0860 C.3   1 <1>  -0.1600 
 12 C        2.5430     2.6620    -0.4010 C.ar  1 <1>   0.1170 
 13 C        3.5660     0.5890    -1.0740 C.ar  1 <1>  -0.1500 
 14 C       -3.0280    -2.0840    -0.3400 C.3   1 <1>   0.4240 
 15 N        2.4710     4.0620    -0.3670 N.am  1 <1>  -0.5470 
 16 C        3.5370     1.9700    -1.0820 C.ar  1 <1>  -0.1500 
 17 O       -3.9290    -1.2270    -1.0090 O.3   1 <1>  -0.5600 
 18 C       -3.5200    -3.5610    -0.3680 C.ar  1 <1>  -0.1430 
 19 C        2.9590     4.9990    -1.2320 C.2   1 <1>   0.5690 
 20 C       -5.2900    -1.4650    -0.8540 C.3   1 <1>   0.1200 
 21 C       -2.7670    -4.6060     0.1840 C.ar  1 <1>   0.0820 
 22 C       -4.7450    -3.8780    -0.9540 C.ar  1 <1>  -0.1430 
 23 O        3.5480     4.7400    -2.2500 O.2   1 <1>  -0.5700 
 24 C        2.7240     6.4480    -0.8850 C.3   1 <1>  -0.1790 
 25 C       -5.6180    -2.7850    -1.5350 C.3   1 <1>  -0.0170 
 26 O       -1.5870    -4.3100     0.7840 O.3   1 <1>  -0.3620 
 27 C       -3.2290    -5.9180     0.1220 C.ar  1 <1>  -0.1500 
 28 C       -5.1950    -5.1870    -1.0130 C.ar  1 <1>  -0.1500 
 29 C       -0.7010    -5.2830     1.2860 C.3   1 <1>   0.0400 
 30 C       -4.4370    -6.2080    -0.4780 C.ar  1 <1>  -0.1500 
 31 H       -0.2330    -0.4030    -1.5300 H     1 <1>   0.0800 
 32 H       -1.8680     0.1710    -1.5910 H     1 <1>   0.0800 
 33 H       -3.0960     0.5410     0.5910 H     1 <1>   0.0800 
 34 H       -2.2420     0.2770     2.0760 H     1 <1>   0.0800 
 35 H        0.8060     2.4450     0.8200 H     1 <1>   0.1500 
 36 H        2.6270    -1.1960    -0.3810 H     1 <1>   0.1500 
 37 H       -0.9570    -2.5650    -0.7510 H     1 <1>   0.0800 
 38 H       -1.8840    -2.1750    -2.1420 H     1 <1>   0.0800 
 39 H       -3.7950    -1.5860     1.6100 H     1 <1>   0.0800 
 40 H       -2.1610    -2.1180     1.6430 H     1 <1>   0.0800 
 41 H        4.3410     0.0650    -1.6080 H     1 <1>   0.1500 
 42 H        1.9340     4.4400     0.4110 H     1 <1>   0.3700 
 43 H        4.2970     2.5080    -1.6200 H     1 <1>   0.1500 
 44 H       -5.8240    -0.6560    -1.3200 H     1 <1>   0.0800 
 45 H       -5.5320    -1.4960     0.1940 H     1 <1>   0.0800 
 46 H        3.1700     6.6720     0.0660 H     1 <1>   0.0800 
 47 H        1.6700     6.6480    -0.8490 H     1 <1>   0.0800 
 48 H        3.1710     7.0760    -1.6340 H     1 <1>   0.0800 
 49 H       -5.4410    -2.6990    -2.5920 H     1 <1>   0.0800 
 50 H       -6.6560    -3.0130    -1.3800 H     1 <1>   0.0800 
 51 H       -2.6630    -6.7300     0.5370 H     1 <1>   0.1500 
 52 H       -6.1390    -5.4170    -1.4760 H     1 <1>   0.1500 
 53 H        0.1700    -4.7740     1.6590 H     1 <1>   0.0800 
 54 H       -0.4220    -5.9470     0.4860 H     1 <1>   0.0800 
 55 H       -1.1840    -5.8160     2.0850 H     1 <1>   0.0800 
 56 H       -4.7890    -7.2240    -0.5260 H     1 <1>   0.1500 
@<TRIPOS>BOND
  1   1   2  2   
  2   1   3  2   
  3   1   4  am  
  4   1   5  1   
  5   4   6  1   
  6   4   7  1   
  7   5   8  ar  
  8   5   9  ar  
  9   6  10  1   
 10   6  31  1   
 11   6  32  1   
 12   7  11  1   
 13   7  33  1   
 14   7  34  1   
 15   8  12  ar  
 16   8  35  1   
 17   9  13  ar  
 18   9  36  1   
 19  10  14  1   
 20  10  37  1   
 21  10  38  1   
 22  11  14  1   
 23  11  39  1   
 24  11  40  1   
 25  12  15  1   
 26  12  16  ar  
 27  13  16  ar  
 28  13  41  1   
 29  14  17  1   
 30  14  18  1   
 31  15  19  am  
 32  15  42  1   
 33  16  43  1   
 34  17  20  1   
 35  18  21  ar  
 36  18  22  ar  
 37  19  23  2   
 38  19  24  1   
 39  20  25  1   
 40  20  44  1   
 41  20  45  1   
 42  21  26  1   
 43  21  27  ar  
 44  22  25  1   
 45  22  28  ar  
 46  24  46  1   
 47  24  47  1   
 48  24  48  1   
 49  25  49  1   
 50  25  50  1   
 51  26  29  1   
 52  27  30  ar  
 53  27  51  1   
 54  28  30  ar  
 55  28  52  1   
 56  29  53  1   
 57  29  54  1   
 58  29  55  1   
 59  30  56  1   
@<TRIPOS>SUBSTRUCTURE
  1 ****   6 GROUP 4 **** **** 0

# MOE 2024.06 (io_trps.svl 2023.06)
