@<TRIPOS>MOLECULE
NONAME
43 46 1 0 0 
SMALL
USER_CHARGES


@<TRIPOS>ATOM
  1 S        0.4190    -0.6590    -1.1410 S.3   1 <1>  -0.0800 
  2 C        0.8490    -1.6520     0.2270 C.2   1 <1>  -0.1400 
  3 C        0.8800     0.7580    -0.2240 C.2   1 <1>   0.2280 
  4 C        1.2910    -0.8540     1.2110 C.2   1 <1>   0.0770 
  5 C        0.6970    -3.1520     0.1090 C.3   1 <1>   0.5230 
  6 N        1.2980     0.5050     0.9510 N.2   1 <1>  -0.5650 
  7 N       -0.6960    -3.5490     0.4500 N.4   1 <1>  -0.9590 
  8 C       -1.7690    -2.9990    -0.4220 C.3   1 <1>   0.3430 
  9 C       -0.9300    -5.0200     0.5090 C.3   1 <1>   0.3430 
 10 C       -2.9850    -3.8510    -0.0630 C.3   1 <1>   0.2000 
 11 C       -2.3940    -5.2540     0.0920 C.3   1 <1>  -0.0800 
 12 O       -3.4330    -3.4380     1.1860 O.3   1 <1>  -0.6800 
 13 C       -2.5060    -6.0680    -1.2170 C.3   1 <1>  -0.0170 
 14 C       -1.6090    -7.3020    -1.1920 C.ar  1 <1>  -0.1430 
 15 C       -1.8660    -8.4150    -0.3560 C.ar  1 <1>   0.0000 
 16 C       -0.4980    -7.3530    -1.9850 C.ar  1 <1>  -0.1500 
 17 C       -0.9070    -9.4580    -0.3370 C.ar  1 <1>   0.3100 
 18 C       -3.0160    -8.5630     0.4540 C.ar  1 <1>  -0.1500 
 19 C        0.3690    -8.4500    -1.9150 C.ar  1 <1>   0.1600 
 20 N        0.2020    -9.4530    -1.1160 N.ar  1 <1>  -0.6200 
 21 C       -1.1060   -10.5520     0.5190 C.ar  1 <1>  -0.1500 
 22 C       -3.1840    -9.6470     1.2730 C.ar  1 <1>  -0.1500 
 23 C       -2.2150   -10.6520     1.3130 C.ar  1 <1>  -0.1500 
 24 H        0.7790     1.7170    -0.7050 H     1 <1>   0.1500 
 25 H        1.6410    -1.1660     2.1820 H     1 <1>   0.1500 
 26 H        1.3800    -3.6260     0.7950 H     1 <1>   0.0800 
 27 H        0.9470    -3.4670    -0.8900 H     1 <1>   0.0800 
 28 H       -0.9230    -3.1740     1.3850 H     1 <1>   0.4500 
 29 H       -1.9540    -1.9540    -0.2270 H     1 <1>   0.0800 
 30 H       -1.5160    -3.1370    -1.4590 H     1 <1>   0.0800 
 31 H       -0.2640    -5.5350    -0.1630 H     1 <1>   0.0800 
 32 H       -0.7620    -5.3880     1.5090 H     1 <1>   0.0800 
 33 H       -3.7910    -3.7700    -0.7740 H     1 <1>   0.0800 
 34 H       -2.8990    -5.7920     0.8740 H     1 <1>   0.0800 
 35 H       -4.3200    -3.8050     1.3920 H     1 <1>   0.4000 
 36 H       -2.2260    -5.4520    -2.0550 H     1 <1>   0.0800 
 37 H       -3.5270    -6.3680    -1.3820 H     1 <1>   0.0800 
 38 H       -0.2490    -6.5680    -2.6760 H     1 <1>   0.1500 
 39 H       -3.7900    -7.8210     0.4250 H     1 <1>   0.1500 
 40 H        1.2330    -8.4580    -2.5590 H     1 <1>   0.1500 
 41 H       -0.3540   -11.3200     0.5250 H     1 <1>   0.1500 
 42 H       -4.0620    -9.7480     1.8890 H     1 <1>   0.1500 
 43 H       -2.3550   -11.4980     1.9640 H     1 <1>   0.1500 
@<TRIPOS>BOND
  1   1   2  1   
  2   1   3  1   
  3   2   4  2   
  4   2   5  1   
  5   3   6  2   
  6   3  24  1   
  7   4   6  1   
  8   4  25  1   
  9   5   7  1   
 10   5  26  1   
 11   5  27  1   
 12   7   8  1   
 13   7   9  1   
 14   7  28  1   
 15   8  10  1   
 16   8  29  1   
 17   8  30  1   
 18   9  11  1   
 19   9  31  1   
 20   9  32  1   
 21  10  11  1   
 22  10  12  1   
 23  10  33  1   
 24  11  13  1   
 25  11  34  1   
 26  12  35  1   
 27  13  14  1   
 28  13  36  1   
 29  13  37  1   
 30  14  15  ar  
 31  14  16  ar  
 32  15  17  ar  
 33  15  18  ar  
 34  16  19  ar  
 35  16  38  1   
 36  17  20  ar  
 37  17  21  ar  
 38  18  22  ar  
 39  18  39  1   
 40  19  20  ar  
 41  19  40  1   
 42  21  23  ar  
 43  21  41  1   
 44  22  23  ar  
 45  22  42  1   
 46  23  43  1   
@<TRIPOS>SUBSTRUCTURE
  1 ****   9 GROUP 4 **** **** 0

# MOE 2024.06 (io_trps.svl 2023.06)
