@<TRIPOS>MOLECULE
NONAME
52 54 1 0 0 
SMALL
USER_CHARGES


@<TRIPOS>ATOM
  1 O       -0.7940    -2.4070    -1.4930 O.2   1 <1>  -0.5700 
  2 C        0.0000    -1.5230    -1.7100 C.2   1 <1>   0.5690 
  3 N       -0.3580    -0.5550    -2.5880 N.am  1 <1>  -0.8000 
  4 C        1.3960    -1.5270    -0.9810 C.3   1 <1>   0.5640 
  5 N        1.6060    -2.7050    -0.0240 N.4   1 <1>  -0.9590 
  6 C        1.5590    -0.2130    -0.1870 C.3   1 <1>  -0.1600 
  7 C        2.5220    -1.5430    -2.0400 C.3   1 <1>  -0.1600 
  8 C        1.5670    -4.0380    -0.7130 C.3   1 <1>   0.3430 
  9 C        0.6200    -2.7230     1.1090 C.3   1 <1>   0.3430 
 10 C        2.9520    -0.0620     0.4270 C.3   1 <1>   0.1100 
 11 C        3.9130    -1.3910    -1.4220 C.3   1 <1>   0.1100 
 12 C        1.9990    -5.1400     0.2550 C.3   1 <1>  -0.1600 
 13 C        1.0230    -3.7840     2.1350 C.3   1 <1>  -0.1600 
 14 N        3.9520    -0.1520    -0.6430 N.3   1 <1>  -0.8100 
 15 C        1.1090    -5.1760     1.5010 C.3   1 <1>  -0.1600 
 16 C        5.3440     0.1560    -0.1930 C.3   1 <1>   0.2900 
 17 C        5.5300     1.5280     0.4510 C.2   1 <1>   0.2980 
 18 O        5.2330     1.6670     1.7200 O.3   1 <1>  -0.0190 
 19 N        5.9790     2.5730    -0.1220 N.2   1 <1>  -0.5650 
 20 N        5.5080     2.9080     1.9750 N.2   1 <1>  -0.4100 
 21 C        5.9570     3.4250     0.8980 C.2   1 <1>   0.3350 
 22 C        6.4070     4.8760     0.7490 C.3   1 <1>   0.3010 
 23 O        7.8050     4.9810     0.8010 O.3   1 <1>  -0.5600 
 24 C        8.2870     6.2750     0.6380 C.3   1 <1>   0.0400 
 25 H       -1.2810    -0.6040    -3.0310 H     1 <1>   0.3700 
 26 H        0.2090     0.2500    -2.8650 H     1 <1>   0.3700 
 27 H        2.5380    -2.5880     0.3790 H     1 <1>   0.4500 
 28 H        0.8030    -0.1080     0.5670 H     1 <1>   0.0800 
 29 H        1.4220     0.6210    -0.8530 H     1 <1>   0.0800 
 30 H        2.3860    -0.7140    -2.7120 H     1 <1>   0.0800 
 31 H        2.4760    -2.4240    -2.6520 H     1 <1>   0.0800 
 32 H        2.2280    -4.0500    -1.5620 H     1 <1>   0.0800 
 33 H        0.5660    -4.2400    -1.0630 H     1 <1>   0.0800 
 34 H       -0.3660    -2.9440     0.7320 H     1 <1>   0.0800 
 35 H        0.5860    -1.7680     1.6030 H     1 <1>   0.0800 
 36 H        3.1390    -0.8060     1.1830 H     1 <1>   0.0800 
 37 H        3.0020     0.9080     0.8930 H     1 <1>   0.0800 
 38 H        4.6400    -1.3350    -2.2170 H     1 <1>   0.0800 
 39 H        4.1630    -2.2340    -0.7990 H     1 <1>   0.0800 
 40 H        3.0260    -4.9890     0.5370 H     1 <1>   0.0800 
 41 H        1.9390    -6.0900    -0.2480 H     1 <1>   0.0800 
 42 H        0.2930    -3.8000     2.9250 H     1 <1>   0.0800 
 43 H        1.9680    -3.5180     2.5750 H     1 <1>   0.0800 
 44 H        1.4990    -5.8840     2.2140 H     1 <1>   0.0800 
 45 H        0.1190    -5.5030     1.2230 H     1 <1>   0.0800 
 46 H        5.9970     0.1220    -1.0480 H     1 <1>   0.0800 
 47 H        5.6770    -0.5950     0.5020 H     1 <1>   0.0800 
 48 H        5.9940     5.4630     1.5490 H     1 <1>   0.0800 
 49 H        6.0680     5.2590    -0.1970 H     1 <1>   0.0800 
 50 H        9.3610     6.2400     0.6970 H     1 <1>   0.0800 
 51 H        7.9010     6.9010     1.4240 H     1 <1>   0.0800 
 52 H        7.9900     6.6460    -0.3280 H     1 <1>   0.0800 
@<TRIPOS>BOND
  1   1   2  2   
  2   2   3  am  
  3   2   4  1   
  4   3  25  1   
  5   3  26  1   
  6   4   5  1   
  7   4   6  1   
  8   4   7  1   
  9   5   8  1   
 10   5   9  1   
 11   5  27  1   
 12   6  10  1   
 13   6  28  1   
 14   6  29  1   
 15   7  11  1   
 16   7  30  1   
 17   7  31  1   
 18   8  12  1   
 19   8  32  1   
 20   8  33  1   
 21   9  13  1   
 22   9  34  1   
 23   9  35  1   
 24  10  14  1   
 25  10  36  1   
 26  10  37  1   
 27  11  14  1   
 28  11  38  1   
 29  11  39  1   
 30  12  15  1   
 31  12  40  1   
 32  12  41  1   
 33  13  15  1   
 34  13  42  1   
 35  13  43  1   
 36  14  16  1   
 37  15  44  1   
 38  15  45  1   
 39  16  17  1   
 40  16  46  1   
 41  16  47  1   
 42  17  18  1   
 43  17  19  2   
 44  18  20  1   
 45  19  21  1   
 46  20  21  2   
 47  21  22  1   
 48  22  23  1   
 49  22  48  1   
 50  22  49  1   
 51  23  24  1   
 52  24  50  1   
 53  24  51  1   
 54  24  52  1   
@<TRIPOS>SUBSTRUCTURE
  1 ****  10 GROUP 4 **** **** 0

# MOE 2024.06 (io_trps.svl 2023.06)
