@<TRIPOS>MOLECULE
NONAME
46 47 1 0 0 
SMALL
USER_CHARGES


@<TRIPOS>ATOM
  1 O        1.4490     0.5840     2.6730 O.2   1 <1>  -0.5700 
  2 C        1.0360    -0.2390     1.8890 C.2   1 <1>   0.5690 
  3 N        1.2780    -0.2020     0.5540 N.am  1 <1>  -0.4930 
  4 C        0.1910    -1.4010     2.4160 C.3   1 <1>   0.1710 
  5 C        1.9630     0.7190    -0.2280 C.2   1 <1>   0.3520 
  6 N       -0.6880    -2.0430     1.3900 N.3   1 <1>  -0.8100 
  7 N        1.9540     0.5960    -1.5160 N.2   1 <1>  -0.7070 
  8 C        2.7030     1.8200     0.1940 C.2   1 <1>  -0.1500 
  9 C       -1.1560    -3.3560     1.8540 C.3   1 <1>   0.1100 
 10 C       -1.8130    -1.1540     1.0400 C.3   1 <1>   0.0300 
 11 N        2.6970     1.6280    -1.9620 N.pl3 1 <1>   0.3140 
 12 C        3.1600     2.3810    -0.9450 C.2   1 <1>  -0.3020 
 13 C       -1.5880    -4.2190     0.6670 C.3   1 <1>  -0.1600 
 14 C        2.9290     1.8380    -3.3950 C.3   1 <1>   0.0160 
 15 C       -1.9960    -5.6200     1.1410 C.3   1 <1>   0.0960 
 16 N       -2.3830    -6.4720     0.0000 N.pl3 1 <1>   0.3140 
 17 N       -1.4910    -7.2970    -0.5760 N.2   1 <1>  -0.7070 
 18 C       -3.5960    -6.5660    -0.5940 C.2   1 <1>  -0.3320 
 19 C       -2.1470    -7.8900    -1.5220 C.2   1 <1>   0.1080 
 20 C       -3.4710    -7.4760    -1.5830 C.2   1 <1>  -0.1500 
 21 C       -4.8360    -5.7840    -0.1950 C.3   1 <1>  -0.0600 
 22 C       -1.5060    -8.9110    -2.4310 C.3   1 <1>  -0.0590 
 23 H        0.8160    -0.9360     0.0150 H     1 <1>   0.3700 
 24 H       -0.4050    -1.0490     3.2400 H     1 <1>   0.0800 
 25 H        0.8830    -2.1290     2.8000 H     1 <1>   0.0800 
 26 H        2.8530     2.1230     1.2140 H     1 <1>   0.1500 
 27 H       -1.9660    -3.2350     2.5550 H     1 <1>   0.0800 
 28 H       -0.3500    -3.8650     2.3560 H     1 <1>   0.0800 
 29 H       -1.4490    -0.1910     0.7230 H     1 <1>   0.0800 
 30 H       -2.4620    -1.0140     1.8870 H     1 <1>   0.0800 
 31 H       -2.3810    -1.5700     0.2270 H     1 <1>   0.0800 
 32 H        3.7730     3.2530    -1.0820 H     1 <1>   0.1500 
 33 H       -0.7630    -4.3090    -0.0190 H     1 <1>   0.0800 
 34 H       -2.4190    -3.7670     0.1590 H     1 <1>   0.0800 
 35 H        1.9810     1.9570    -3.8860 H     1 <1>   0.0800 
 36 H        3.4350     0.9800    -3.7940 H     1 <1>   0.0800 
 37 H        3.5280     2.7170    -3.5400 H     1 <1>   0.0800 
 38 H       -2.8220    -5.5640     1.8230 H     1 <1>   0.0800 
 39 H       -1.1700    -6.0940     1.6400 H     1 <1>   0.0800 
 40 H       -4.2110    -7.8240    -2.2800 H     1 <1>   0.1500 
 41 H       -4.6610    -4.7290    -0.2970 H     1 <1>   0.0800 
 42 H       -5.1020    -6.0030     0.8240 H     1 <1>   0.0800 
 43 H       -5.6610    -6.0550    -0.8290 H     1 <1>   0.0800 
 44 H       -0.6880    -8.4560    -2.9570 H     1 <1>   0.0800 
 45 H       -2.2200    -9.2850    -3.1400 H     1 <1>   0.0800 
 46 H       -1.1300    -9.7270    -1.8420 H     1 <1>   0.0800 
@<TRIPOS>BOND
  1   1   2  2   
  2   2   3  am  
  3   2   4  1   
  4   3   5  1   
  5   3  23  1   
  6   4   6  1   
  7   4  24  1   
  8   4  25  1   
  9   5   7  2   
 10   5   8  1   
 11   6   9  1   
 12   6  10  1   
 13   7  11  1   
 14   8  12  2   
 15   8  26  1   
 16   9  13  1   
 17   9  27  1   
 18   9  28  1   
 19  10  29  1   
 20  10  30  1   
 21  10  31  1   
 22  11  12  1   
 23  11  14  1   
 24  12  32  1   
 25  13  15  1   
 26  13  33  1   
 27  13  34  1   
 28  14  35  1   
 29  14  36  1   
 30  14  37  1   
 31  15  16  1   
 32  15  38  1   
 33  15  39  1   
 34  16  17  1   
 35  16  18  1   
 36  17  19  2   
 37  18  20  2   
 38  18  21  1   
 39  19  20  1   
 40  19  22  1   
 41  20  40  1   
 42  21  41  1   
 43  21  42  1   
 44  21  43  1   
 45  22  44  1   
 46  22  45  1   
 47  22  46  1   
@<TRIPOS>SUBSTRUCTURE
  1 ****   6 GROUP 4 **** **** 0

# MOE 2024.06 (io_trps.svl 2023.06)
