@<TRIPOS>MOLECULE
NONAME
47 48 1 0 0 
SMALL
USER_CHARGES


@<TRIPOS>ATOM
  1 O       -0.6570     1.5380    -1.7260 O.3   1 <1>  -0.6800 
  2 C       -0.2990     2.7040    -1.0590 C.3   1 <1>   0.2000 
  3 C       -1.4010     3.1120    -0.0400 C.3   1 <1>   0.0000 
  4 C        1.0820     2.4980    -0.4120 C.3   1 <1>   0.2090 
  5 C       -0.8800     4.3550     0.7310 C.3   1 <1>  -0.1600 
  6 C       -1.6590     1.9290     0.9400 C.3   1 <1>   0.1200 
  7 C       -2.7440     3.4470    -0.7540 C.3   1 <1>  -0.1600 
  8 N        1.4820     3.7140     0.3750 N.pl3 1 <1>  -0.8380 
  9 C        0.4800     4.1240     1.4020 C.3   1 <1>   0.2090 
 10 O       -2.6020     2.2580     1.9060 O.3   1 <1>  -0.6800 
 11 C       -2.6880     4.4750    -1.9020 C.3   1 <1>  -0.1600 
 12 C        2.6470     4.3810     0.1540 C.ar  1 <1>   0.1000 
 13 C       -4.0880     4.7310    -2.4650 C.3   1 <1>  -0.2400 
 14 C        3.8320     3.7010    -0.1540 C.ar  1 <1>  -0.1500 
 15 C        2.7240     5.7790     0.2180 C.ar  1 <1>  -0.1500 
 16 C        5.0040     4.3770    -0.3790 C.ar  1 <1>   0.2180 
 17 C        3.9050     6.4370    -0.0090 C.ar  1 <1>   0.2180 
 18 N        5.0240     5.7290    -0.3030 N.ar  1 <1>  -0.1790 
 19 C        6.2970     3.6530    -0.7100 C.3   1 <1>  -0.0970 
 20 C        4.0060     7.9520     0.0520 C.3   1 <1>  -0.0970 
 21 H       -1.5170     1.6640    -2.1740 H     1 <1>   0.4000 
 22 H       -0.1840     3.4710    -1.8020 H     1 <1>   0.0800 
 23 H        1.7930     2.3160    -1.1970 H     1 <1>   0.0800 
 24 H        1.0660     1.6430     0.2390 H     1 <1>   0.0800 
 25 H       -1.5940     4.6590     1.4760 H     1 <1>   0.0800 
 26 H       -0.7630     5.1840     0.0580 H     1 <1>   0.0800 
 27 H       -0.7630     1.6240     1.4500 H     1 <1>   0.0800 
 28 H       -2.0400     1.0760     0.4050 H     1 <1>   0.0800 
 29 H       -3.1670     2.5360    -1.1410 H     1 <1>   0.0800 
 30 H       -3.4410     3.8120    -0.0180 H     1 <1>   0.0800 
 31 H        0.4050     3.3520     2.1480 H     1 <1>   0.0800 
 32 H        0.7980     5.0200     1.9040 H     1 <1>   0.0800 
 33 H       -2.2970     3.0060     2.4520 H     1 <1>   0.4000 
 34 H       -2.2860     5.4090    -1.5540 H     1 <1>   0.0800 
 35 H       -2.0650     4.1160    -2.7020 H     1 <1>   0.0800 
 36 H       -4.7370     5.1220    -1.7000 H     1 <1>   0.0800 
 37 H       -4.5150     3.8200    -2.8480 H     1 <1>   0.0800 
 38 H       -4.0380     5.4470    -3.2670 H     1 <1>   0.0800 
 39 H        3.8070     2.6270    -0.1970 H     1 <1>   0.1500 
 40 H        1.8280     6.3300     0.4360 H     1 <1>   0.1500 
 41 H        5.9020     6.2270    -0.4720 H     1 <1>   0.4570 
 42 H        6.1380     2.5890    -0.7410 H     1 <1>   0.0800 
 43 H        7.0440     3.8560     0.0370 H     1 <1>   0.0800 
 44 H        6.6670     3.9620    -1.6720 H     1 <1>   0.0800 
 45 H        3.0510     8.3840     0.2970 H     1 <1>   0.0800 
 46 H        4.3170     8.3460    -0.8990 H     1 <1>   0.0800 
 47 H        4.7120     8.2520     0.8060 H     1 <1>   0.0800 
@<TRIPOS>BOND
  1   1   2  1   
  2   1  21  1   
  3   2   3  1   
  4   2   4  1   
  5   2  22  1   
  6   3   5  1   
  7   3   6  1   
  8   3   7  1   
  9   4   8  1   
 10   4  23  1   
 11   4  24  1   
 12   5   9  1   
 13   5  25  1   
 14   5  26  1   
 15   6  10  1   
 16   6  27  1   
 17   6  28  1   
 18   7  11  1   
 19   7  29  1   
 20   7  30  1   
 21   8   9  1   
 22   8  12  1   
 23   9  31  1   
 24   9  32  1   
 25  10  33  1   
 26  11  13  1   
 27  11  34  1   
 28  11  35  1   
 29  12  14  ar  
 30  12  15  ar  
 31  13  36  1   
 32  13  37  1   
 33  13  38  1   
 34  14  16  ar  
 35  14  39  1   
 36  15  17  ar  
 37  15  40  1   
 38  16  18  ar  
 39  16  19  1   
 40  17  18  ar  
 41  17  20  1   
 42  18  41  1   
 43  19  42  1   
 44  19  43  1   
 45  19  44  1   
 46  20  45  1   
 47  20  46  1   
 48  20  47  1   
@<TRIPOS>SUBSTRUCTURE
  1 ****   8 GROUP 4 **** **** 0

# MOE 2024.06 (io_trps.svl 2023.06)
