@<TRIPOS>MOLECULE
NONAME
50 53 1 0 0 
SMALL
USER_CHARGES


@<TRIPOS>ATOM
  1 O       -0.5530     0.0200     0.3180 O.2   1 <1>  -0.5700 
  2 C       -1.4890     0.6790     0.7330 C.2   1 <1>   0.7150 
  3 N       -2.6690     0.0350     1.0240 N.am  1 <1>  -0.6600 
  4 C       -1.3620     2.1000     0.8910 C.2   1 <1>  -0.2370 
  5 C       -2.7490    -1.4550     1.1500 C.3   1 <1>   0.1400 
  6 C       -4.0090     0.6710     0.8380 C.3   1 <1>   0.1400 
  7 N       -0.6160     2.9100     0.0910 N.pl3 1 <1>   0.3140 
  8 C       -1.9110     2.9240     1.8270 C.2   1 <1>  -0.1500 
  9 C       -3.6120    -2.0600     0.0280 C.3   1 <1>   0.3440 
 10 C       -4.8140    -0.0540    -0.2590 C.3   1 <1>   0.2950 
 11 N       -0.6900     4.1970     0.4820 N.2   1 <1>  -0.7070 
 12 C        0.2120     2.4830    -1.0730 C.3   1 <1>   0.0960 
 13 C       -1.4630     4.1930     1.5200 C.2   1 <1>   0.1080 
 14 O       -4.8660    -1.4270    -0.0060 O.3   1 <1>  -0.5600 
 15 C       -3.7960    -3.5590     0.2420 C.ar  1 <1>  -0.1440 
 16 C       -6.2560     0.4570    -0.3250 C.3   1 <1>  -0.1950 
 17 C        0.4920     3.6130    -2.0770 C.3   1 <1>  -0.2400 
 18 C       -1.8000     5.4580     2.2730 C.3   1 <1>  -0.0590 
 19 C       -2.8710    -4.4430    -0.2980 C.ar  1 <1>  -0.1500 
 20 C       -4.8590    -4.0650     0.9780 C.ar  1 <1>  -0.1500 
 21 C       -7.0750     0.3060    -1.5670 C.3   1 <1>  -0.2000 
 22 C       -6.6120     1.6670    -1.1320 C.3   1 <1>  -0.2000 
 23 C       -3.0060    -5.8070    -0.1050 C.ar  1 <1>  -0.1500 
 24 C       -4.9960    -5.4290     1.1710 C.ar  1 <1>  -0.1500 
 25 C       -4.0690    -6.3010     0.6290 C.ar  1 <1>  -0.1500 
 26 H       -1.7680    -1.8960     1.1190 H     1 <1>   0.0800 
 27 H       -3.1860    -1.7070     2.1000 H     1 <1>   0.0800 
 28 H       -4.5520     0.6290     1.7660 H     1 <1>   0.0800 
 29 H       -3.9080     1.7040     0.5580 H     1 <1>   0.0800 
 30 H       -2.5550     2.6580     2.6460 H     1 <1>   0.1500 
 31 H       -3.1330    -1.8960    -0.9220 H     1 <1>   0.0800 
 32 H       -4.3390     0.0920    -1.2140 H     1 <1>   0.0800 
 33 H        1.1400     2.0960    -0.6920 H     1 <1>   0.0800 
 34 H       -0.3010     1.6890    -1.5810 H     1 <1>   0.0800 
 35 H       -6.7700     0.3280     0.6130 H     1 <1>   0.1000 
 36 H        1.0610     4.3960    -1.6060 H     1 <1>   0.0800 
 37 H       -0.4330     4.0220    -2.4440 H     1 <1>   0.0800 
 38 H        1.0570     3.2330    -2.9080 H     1 <1>   0.0800 
 39 H       -2.4530     5.2430     3.0990 H     1 <1>   0.0800 
 40 H       -2.2820     6.1520     1.6100 H     1 <1>   0.0800 
 41 H       -0.8950     5.9030     2.6450 H     1 <1>   0.0800 
 42 H       -2.0380    -4.0750    -0.8710 H     1 <1>   0.1500 
 43 H       -5.5890    -3.3960     1.4010 H     1 <1>   0.1500 
 44 H       -6.6230    -0.1530    -2.4300 H     1 <1>   0.1000 
 45 H       -8.1150     0.0470    -1.4640 H     1 <1>   0.1000 
 46 H       -7.3410     2.3560    -0.7420 H     1 <1>   0.1000 
 47 H       -5.8560     2.1590    -1.7210 H     1 <1>   0.1000 
 48 H       -2.2850    -6.4840    -0.5280 H     1 <1>   0.1500 
 49 H       -5.8260    -5.8100     1.7410 H     1 <1>   0.1500 
 50 H       -4.1760    -7.3620     0.7790 H     1 <1>   0.1500 
@<TRIPOS>BOND
  1   1   2  2   
  2   2   3  am  
  3   2   4  1   
  4   3   5  1   
  5   3   6  1   
  6   4   7  1   
  7   4   8  2   
  8   5   9  1   
  9   5  26  1   
 10   5  27  1   
 11   6  10  1   
 12   6  28  1   
 13   6  29  1   
 14   7  11  1   
 15   7  12  1   
 16   8  13  1   
 17   8  30  1   
 18   9  14  1   
 19   9  15  1   
 20   9  31  1   
 21  10  14  1   
 22  10  16  1   
 23  10  32  1   
 24  11  13  2   
 25  12  17  1   
 26  12  33  1   
 27  12  34  1   
 28  13  18  1   
 29  15  19  ar  
 30  15  20  ar  
 31  16  21  1   
 32  16  22  1   
 33  16  35  1   
 34  17  36  1   
 35  17  37  1   
 36  17  38  1   
 37  18  39  1   
 38  18  40  1   
 39  18  41  1   
 40  19  23  ar  
 41  19  42  1   
 42  20  24  ar  
 43  20  43  1   
 44  21  22  1   
 45  21  44  1   
 46  21  45  1   
 47  22  46  1   
 48  22  47  1   
 49  23  25  ar  
 50  23  48  1   
 51  24  25  ar  
 52  24  49  1   
 53  25  50  1   
@<TRIPOS>SUBSTRUCTURE
  1 ****   3 GROUP 4 **** **** 0

# MOE 2024.06 (io_trps.svl 2023.06)
