@<TRIPOS>MOLECULE
NONAME
36 37 1 0 0 
SMALL
USER_CHARGES


@<TRIPOS>ATOM
  1 N       -1.2170     0.0270    -0.2570 N.ar  1 <1>  -0.6200 
  2 C       -1.9810     0.8490     0.4420 C.ar  1 <1>   0.4100 
  3 C       -0.1390     0.5730    -0.7870 C.ar  1 <1>   0.4700 
  4 N       -3.1260     0.3280     1.0160 N.pl3 1 <1>  -0.8380 
  5 C       -1.6450     2.1750     0.5820 C.ar  1 <1>  -0.1500 
  6 N        0.2700     1.8220    -0.7220 N.ar  1 <1>  -0.6200 
  7 C       -3.2180    -1.1160     1.4070 C.3   1 <1>   0.3890 
  8 C       -4.4250     1.0550     0.9660 C.3   1 <1>   0.1290 
  9 C       -0.5000     2.6340    -0.0210 C.ar  1 <1>   0.4100 
 10 C       -3.8760    -1.9340     0.3060 C.2   1 <1>   0.0060 
 11 N       -0.1140     3.9560     0.1010 N.pl3 1 <1>  -0.8380 
 12 N       -4.8470    -2.7810     0.4590 N.2   1 <1>  -0.5650 
 13 N       -3.4620    -1.8120    -0.9690 N.pl3 1 <1>   0.0330 
 14 C        0.6250     4.6160    -1.0070 C.3   1 <1>   0.2090 
 15 C        0.1590     4.4880     1.4640 C.3   1 <1>   0.1290 
 16 C       -5.0720    -3.2350    -0.7910 C.2   1 <1>   0.0770 
 17 C       -4.2350    -2.6530    -1.6780 C.2   1 <1>  -0.3020 
 18 C        0.0460     6.0080    -1.2450 C.3   1 <1>  -0.2400 
 19 H        0.4940    -0.0920    -1.3520 H     1 <1>   0.1500 
 20 H       -2.2570     2.8430     1.1490 H     1 <1>   0.1500 
 21 H       -3.7930    -1.2070     2.3110 H     1 <1>   0.0800 
 22 H       -2.2340    -1.5070     1.6000 H     1 <1>   0.0800 
 23 H       -4.3380     1.9470     0.3710 H     1 <1>   0.0800 
 24 H       -4.7280     1.3240     1.9630 H     1 <1>   0.0800 
 25 H       -5.1840     0.4290     0.5280 H     1 <1>   0.0800 
 26 H       -2.7120    -1.1710    -1.2630 H     1 <1>   0.2700 
 27 H        0.5230     4.0400    -1.9110 H     1 <1>   0.0800 
 28 H        1.6720     4.6760    -0.7640 H     1 <1>   0.0800 
 29 H       -0.0950     3.7570     2.2130 H     1 <1>   0.0800 
 30 H       -0.4270     5.3750     1.6310 H     1 <1>   0.0800 
 31 H        1.2030     4.7290     1.5640 H     1 <1>   0.0800 
 32 H       -5.8370    -3.9670    -0.9880 H     1 <1>   0.1500 
 33 H       -4.1490    -2.7850    -2.7410 H     1 <1>   0.1500 
 34 H       -1.0060     5.9350    -1.4530 H     1 <1>   0.0800 
 35 H        0.5330     6.4590    -2.0890 H     1 <1>   0.0800 
 36 H        0.2010     6.6360    -0.3870 H     1 <1>   0.0800 
@<TRIPOS>BOND
  1   1   2  ar  
  2   1   3  ar  
  3   2   4  1   
  4   2   5  ar  
  5   3   6  ar  
  6   3  19  1   
  7   4   7  1   
  8   4   8  1   
  9   5   9  ar  
 10   5  20  1   
 11   6   9  ar  
 12   7  10  1   
 13   7  21  1   
 14   7  22  1   
 15   8  23  1   
 16   8  24  1   
 17   8  25  1   
 18   9  11  1   
 19  10  12  2   
 20  10  13  1   
 21  11  14  1   
 22  11  15  1   
 23  12  16  1   
 24  13  17  1   
 25  13  26  1   
 26  14  18  1   
 27  14  27  1   
 28  14  28  1   
 29  15  29  1   
 30  15  30  1   
 31  15  31  1   
 32  16  17  2   
 33  16  32  1   
 34  17  33  1   
 35  18  34  1   
 36  18  35  1   
 37  18  36  1   
@<TRIPOS>SUBSTRUCTURE
  1 ****   2 GROUP 4 **** **** 0

# MOE 2024.06 (io_trps.svl 2023.06)
