@<TRIPOS>MOLECULE
NONAME
43 44 1 0 0 
SMALL
USER_CHARGES


@<TRIPOS>ATOM
  1 O        0.0350     0.4530    -0.9200 O.3   1 <1>  -0.5600 
  2 C        0.1970     1.5760    -1.7210 C.3   1 <1>   0.1200 
  3 C       -1.3300     0.2600    -0.6850 C.3   1 <1>   0.1200 
  4 C       -0.7920     2.5630    -1.1110 C.3   1 <1>   0.4230 
  5 C       -1.9880     1.6320    -0.9090 C.3   1 <1>  -0.0800 
  6 N       -0.2500     3.0020     0.2040 N.4   1 <1>  -0.9060 
  7 C       -3.0120     2.0230     0.1750 C.3   1 <1>  -0.0170 
  8 C        0.8200     4.0100     0.1230 C.3   1 <1>   0.4230 
  9 C       -4.1800     1.0510     0.1760 C.ar  1 <1>  -0.1440 
 10 C        1.8970     3.6170     1.1440 C.3   1 <1>  -0.1600 
 11 C        0.2270     5.4040     0.3950 C.3   1 <1>  -0.1600 
 12 C       -5.2010     1.1440    -0.7490 C.ar  1 <1>  -0.1500 
 13 C       -4.2840     0.0260     1.0960 C.ar  1 <1>  -0.1500 
 14 C        3.1660     4.4780     1.0520 C.3   1 <1>  -0.2400 
 15 C       -0.9130     5.8200    -0.5500 C.3   1 <1>  -0.2400 
 16 C       -6.2410     0.2290    -0.7160 C.ar  1 <1>   0.1600 
 17 C       -5.3670    -0.8360     1.0420 C.ar  1 <1>   0.1600 
 18 N       -6.3440    -0.7600     0.1550 N.ar  1 <1>  -0.6200 
 19 H        1.2220     1.9020    -1.6890 H     1 <1>   0.0800 
 20 H       -0.0730     1.3160    -2.7320 H     1 <1>   0.0800 
 21 H       -1.7010    -0.4770    -1.3790 H     1 <1>   0.0800 
 22 H       -1.4480    -0.1040     0.3220 H     1 <1>   0.0800 
 23 H       -1.0130     3.3980    -1.7560 H     1 <1>   0.0800 
 24 H       -2.5140     1.5750    -1.8470 H     1 <1>   0.0800 
 25 H       -0.9900     3.3550     0.8140 H     1 <1>   0.4500 
 26 H        0.1350     2.1450     0.6280 H     1 <1>   0.4500 
 27 H       -3.3900     3.0130    -0.0160 H     1 <1>   0.0800 
 28 H       -2.5630     2.0210     1.1520 H     1 <1>   0.0800 
 29 H        1.2620     3.9960    -0.8620 H     1 <1>   0.0800 
 30 H        1.5050     3.6880     2.1440 H     1 <1>   0.0800 
 31 H        2.1920     2.5960     0.9690 H     1 <1>   0.0800 
 32 H       -0.1110     5.4660     1.4160 H     1 <1>   0.0800 
 33 H        1.0130     6.1310     0.2850 H     1 <1>   0.0800 
 34 H       -5.2080     1.9150    -1.4970 H     1 <1>   0.1500 
 35 H       -3.5410    -0.1190     1.8590 H     1 <1>   0.1500 
 36 H        2.9720     5.4980     1.3340 H     1 <1>   0.0800 
 37 H        3.5710     4.4640     0.0540 H     1 <1>   0.0800 
 38 H        3.9170     4.0920     1.7210 H     1 <1>   0.0800 
 39 H       -1.7930     5.2190    -0.4050 H     1 <1>   0.0800 
 40 H       -0.6000     5.7560    -1.5780 H     1 <1>   0.0800 
 41 H       -1.1830     6.8440    -0.3530 H     1 <1>   0.0800 
 42 H       -7.0300     0.3150    -1.4440 H     1 <1>   0.1500 
 43 H       -5.4340    -1.6310     1.7660 H     1 <1>   0.1500 
@<TRIPOS>BOND
  1   1   2  1   
  2   1   3  1   
  3   2   4  1   
  4   2  19  1   
  5   2  20  1   
  6   3   5  1   
  7   3  21  1   
  8   3  22  1   
  9   4   5  1   
 10   4   6  1   
 11   4  23  1   
 12   5   7  1   
 13   5  24  1   
 14   6   8  1   
 15   6  25  1   
 16   6  26  1   
 17   7   9  1   
 18   7  27  1   
 19   7  28  1   
 20   8  10  1   
 21   8  11  1   
 22   8  29  1   
 23   9  12  ar  
 24   9  13  ar  
 25  10  14  1   
 26  10  30  1   
 27  10  31  1   
 28  11  15  1   
 29  11  32  1   
 30  11  33  1   
 31  12  16  ar  
 32  12  34  1   
 33  13  17  ar  
 34  13  35  1   
 35  14  36  1   
 36  14  37  1   
 37  14  38  1   
 38  15  39  1   
 39  15  40  1   
 40  15  41  1   
 41  16  18  ar  
 42  16  42  1   
 43  17  18  ar  
 44  17  43  1   
@<TRIPOS>SUBSTRUCTURE
  1 ****   5 GROUP 4 **** **** 0

# MOE 2024.06 (io_trps.svl 2023.06)
