@<TRIPOS>MOLECULE
NONAME
56 59 1 0 0 
SMALL
USER_CHARGES


@<TRIPOS>ATOM
  1 O       -0.3470    -0.5720     0.3040 O.3   1 <1>  -0.3630 
  2 C        0.9100    -1.0930     0.1500 C.ar  1 <1>   0.0830 
  3 C       -0.5730     0.7870     0.6060 C.3   1 <1>   0.0400 
  4 C        1.0280    -2.4930    -0.0660 C.ar  1 <1>   0.3100 
  5 C        2.0270    -0.2940     0.2020 C.ar  1 <1>  -0.1500 
  6 N       -0.1190    -3.2250    -0.0900 N.ar  1 <1>  -0.6200 
  7 C        2.3180    -3.0700    -0.2420 C.ar  1 <1>   0.0000 
  8 C        3.2900    -0.8500     0.0430 C.ar  1 <1>  -0.1500 
  9 C       -0.0380    -4.5040    -0.2890 C.ar  1 <1>   0.4100 
 10 C        3.4480    -2.2010    -0.1720 C.ar  1 <1>   0.0830 
 11 C        2.3620    -4.4750    -0.4780 C.ar  1 <1>  -0.1440 
 12 N       -1.2030    -5.2430    -0.2920 N.pl3 1 <1>  -0.8380 
 13 C        1.1850    -5.1550    -0.4970 C.ar  1 <1>  -0.1500 
 14 O        4.6910    -2.7320    -0.3190 O.3   1 <1>  -0.3630 
 15 C        3.6390    -5.2740    -0.7210 C.3   1 <1>  -0.0970 
 16 C       -2.4850    -4.5390    -0.6160 C.3   1 <1>   0.2090 
 17 C       -1.3840    -6.2590     0.7900 C.3   1 <1>   0.2090 
 18 C        5.8750    -1.9640    -0.2740 C.3   1 <1>   0.0400 
 19 C       -3.6130    -5.5310    -0.9570 C.3   1 <1>   0.2090 
 20 C       -2.5080    -7.2590     0.4560 C.3   1 <1>   0.2090 
 21 N       -3.7900    -6.5650     0.1120 N.pl3 1 <1>  -0.8380 
 22 C       -4.9930    -7.2190     0.2560 C.ar  1 <1>   0.4100 
 23 N       -4.9880    -8.5370     0.2370 N.ar  1 <1>  -0.6200 
 24 C       -6.1740    -6.5180     0.4180 C.ar  1 <1>  -0.1500 
 25 C       -6.1670    -9.1130     0.3640 C.ar  1 <1>   0.4700 
 26 C       -7.3400    -7.2250     0.5430 C.ar  1 <1>   0.1670 
 27 N       -7.3500    -8.5430     0.5140 N.ar  1 <1>  -0.6200 
 28 C       -8.6730    -6.5170     0.7250 C.3   1 <1>  -0.0170 
 29 C       -9.4840    -6.4990    -0.5760 C.3   1 <1>  -0.2400 
 30 H       -1.6340     0.9300     0.7100 H     1 <1>   0.0800 
 31 H       -0.2010     1.3910    -0.2020 H     1 <1>   0.0800 
 32 H       -0.0810     1.0250     1.5310 H     1 <1>   0.0800 
 33 H        1.9660     0.7650     0.3620 H     1 <1>   0.1500 
 34 H        4.1250    -0.1780     0.0970 H     1 <1>   0.1500 
 35 H        1.1440    -6.2100    -0.6800 H     1 <1>   0.1500 
 36 H        4.1550    -4.8900    -1.5830 H     1 <1>   0.0800 
 37 H        3.4240    -6.3120    -0.8990 H     1 <1>   0.0800 
 38 H        4.2830    -5.2100     0.1370 H     1 <1>   0.0800 
 39 H       -2.3270    -3.8790    -1.4510 H     1 <1>   0.0800 
 40 H       -2.7810    -3.9390     0.2270 H     1 <1>   0.0800 
 41 H       -1.6300    -5.7520     1.7070 H     1 <1>   0.0800 
 42 H       -0.4670    -6.7980     0.9460 H     1 <1>   0.0800 
 43 H        6.7080    -2.6270    -0.4200 H     1 <1>   0.0800 
 44 H        5.9490    -1.4930     0.6910 H     1 <1>   0.0800 
 45 H        5.8480    -1.2330    -1.0620 H     1 <1>   0.0800 
 46 H       -3.3690    -6.0240    -1.8810 H     1 <1>   0.0800 
 47 H       -4.5280    -4.9860    -1.1050 H     1 <1>   0.0800 
 48 H       -2.6650    -7.9050     1.3020 H     1 <1>   0.0800 
 49 H       -2.2030    -7.8690    -0.3760 H     1 <1>   0.0800 
 50 H       -6.1570    -5.4490     0.4510 H     1 <1>   0.1500 
 51 H       -6.1670   -10.1890     0.3420 H     1 <1>   0.1500 
 52 H       -8.5060    -5.5070     1.0560 H     1 <1>   0.0800 
 53 H       -9.2330    -7.0240     1.4910 H     1 <1>   0.0800 
 54 H       -8.9380    -5.9880    -1.3490 H     1 <1>   0.0800 
 55 H      -10.4230    -5.9980    -0.4220 H     1 <1>   0.0800 
 56 H       -9.6780    -7.5060    -0.9010 H     1 <1>   0.0800 
@<TRIPOS>BOND
  1   1   2  1   
  2   1   3  1   
  3   2   4  ar  
  4   2   5  ar  
  5   3  30  1   
  6   3  31  1   
  7   3  32  1   
  8   4   6  ar  
  9   4   7  ar  
 10   5   8  ar  
 11   5  33  1   
 12   6   9  ar  
 13   7  10  ar  
 14   7  11  ar  
 15   8  10  ar  
 16   8  34  1   
 17   9  12  1   
 18   9  13  ar  
 19  10  14  1   
 20  11  13  ar  
 21  11  15  1   
 22  12  16  1   
 23  12  17  1   
 24  13  35  1   
 25  14  18  1   
 26  15  36  1   
 27  15  37  1   
 28  15  38  1   
 29  16  19  1   
 30  16  39  1   
 31  16  40  1   
 32  17  20  1   
 33  17  41  1   
 34  17  42  1   
 35  18  43  1   
 36  18  44  1   
 37  18  45  1   
 38  19  21  1   
 39  19  46  1   
 40  19  47  1   
 41  20  21  1   
 42  20  48  1   
 43  20  49  1   
 44  21  22  1   
 45  22  23  ar  
 46  22  24  ar  
 47  23  25  ar  
 48  24  26  ar  
 49  24  50  1   
 50  25  27  ar  
 51  25  51  1   
 52  26  27  ar  
 53  26  28  1   
 54  28  29  1   
 55  28  52  1   
 56  28  53  1   
 57  29  54  1   
 58  29  55  1   
 59  29  56  1   
@<TRIPOS>SUBSTRUCTURE
  1 ****  12 GROUP 4 **** **** 0

# MOE 2024.06 (io_trps.svl 2023.06)
