@<TRIPOS>MOLECULE
NONAME
48 51 1 0 0 
SMALL
USER_CHARGES


@<TRIPOS>ATOM
  1 S       -0.4050    -4.6440     1.8710 S.3   1 <1>  -0.0800 
  2 C        0.2490    -3.0480     2.1520 C.2   1 <1>   0.2280 
  3 C       -1.8080    -3.9060     1.1550 C.2   1 <1>  -0.1100 
  4 N       -0.4950    -2.0930     1.7560 N.2   1 <1>  -0.5650 
  5 C       -1.6700    -2.5690     1.1880 C.2   1 <1>   0.0460 
  6 C       -2.6530    -1.5240     0.6760 C.3   1 <1>   0.3210 
  7 N       -3.7650    -2.1450    -0.0840 N.am  1 <1>  -0.7300 
  8 C       -5.0790    -2.0860     0.2530 C.2   1 <1>   0.5690 
  9 O       -5.4600    -1.4390     1.2000 O.2   1 <1>  -0.5700 
 10 C       -6.1140    -2.8680    -0.5580 C.3   1 <1>   0.2610 
 11 O       -5.5550    -3.3280    -1.7930 O.3   1 <1>  -0.5600 
 12 C       -6.6900    -3.9830     0.3560 C.3   1 <1>   0.3640 
 13 C       -5.3080    -4.7130    -1.9410 C.3   1 <1>   0.1810 
 14 N       -5.7050    -5.0960     0.4700 N.am  1 <1>  -0.5090 
 15 C       -8.0680    -4.4640    -0.1240 C.ar  1 <1>  -0.1430 
 16 C       -4.9500    -5.4060    -0.6260 C.2   1 <1>   0.5690 
 17 C       -5.4310    -5.6090     1.8290 C.3   1 <1>   0.0490 
 18 C       -8.3110    -5.7510    -0.5960 C.ar  1 <1>  -0.1500 
 19 C       -9.1310    -3.5700    -0.0700 C.ar  1 <1>  -0.1500 
 20 O       -4.0150    -6.1720    -0.6020 O.2   1 <1>  -0.5700 
 21 C       -5.4360    -7.0870     2.0550 C.3   1 <1>  -0.2000 
 22 C       -6.5460    -6.2440     2.5970 C.3   1 <1>  -0.2000 
 23 C       -9.5740    -6.1210    -1.0180 C.ar  1 <1>  -0.1500 
 24 C      -10.3970    -3.9380    -0.4920 C.ar  1 <1>  -0.1500 
 25 C      -10.6250    -5.2220    -0.9740 C.ar  1 <1>   0.0830 
 26 O      -11.8300    -5.6660    -1.4090 O.3   1 <1>  -0.3620 
 27 C      -12.9690    -4.8340    -1.3940 C.3   1 <1>   0.0400 
 28 H        1.2120    -2.9910     2.6280 H     1 <1>   0.1500 
 29 H       -2.5820    -4.5570     0.7920 H     1 <1>   0.1500 
 30 H       -2.1320    -0.8370     0.0330 H     1 <1>   0.0800 
 31 H       -3.0380    -0.9680     1.5140 H     1 <1>   0.0800 
 32 H       -3.4980    -2.6610    -0.9250 H     1 <1>   0.3700 
 33 H       -6.8960    -2.1780    -0.8120 H     1 <1>   0.0800 
 34 H       -6.8360    -3.5640     1.3370 H     1 <1>   0.0800 
 35 H       -6.1920    -5.1650    -2.3530 H     1 <1>   0.0800 
 36 H       -4.5050    -4.8310    -2.6450 H     1 <1>   0.0800 
 37 H       -4.7070    -5.0140     2.3630 H     1 <1>   0.1000 
 38 H       -7.5300    -6.4900    -0.6380 H     1 <1>   0.1500 
 39 H       -8.9850    -2.5720     0.3060 H     1 <1>   0.1500 
 40 H       -5.6240    -7.7320     1.2140 H     1 <1>   0.1000 
 41 H       -4.7210    -7.5020     2.7430 H     1 <1>   0.1000 
 42 H       -6.5940    -6.0990     3.6620 H     1 <1>   0.1000 
 43 H       -7.5200    -6.3370     2.1490 H     1 <1>   0.1000 
 44 H       -9.7560    -7.1160    -1.3840 H     1 <1>   0.1500 
 45 H      -11.1900    -3.2170    -0.4370 H     1 <1>   0.1500 
 46 H      -13.7990    -5.3970    -1.7790 H     1 <1>   0.0800 
 47 H      -12.7850    -3.9790    -2.0200 H     1 <1>   0.0800 
 48 H      -13.1700    -4.5350    -0.3800 H     1 <1>   0.0800 
@<TRIPOS>BOND
  1   1   2  1   
  2   1   3  1   
  3   2   4  2   
  4   2  28  1   
  5   3   5  2   
  6   3  29  1   
  7   4   5  1   
  8   5   6  1   
  9   6   7  1   
 10   6  30  1   
 11   6  31  1   
 12   7   8  am  
 13   7  32  1   
 14   8   9  2   
 15   8  10  1   
 16  10  11  1   
 17  10  12  1   
 18  10  33  1   
 19  11  13  1   
 20  12  14  1   
 21  12  15  1   
 22  12  34  1   
 23  13  16  1   
 24  13  35  1   
 25  13  36  1   
 26  14  16  am  
 27  14  17  1   
 28  15  18  ar  
 29  15  19  ar  
 30  16  20  2   
 31  17  21  1   
 32  17  22  1   
 33  17  37  1   
 34  18  23  ar  
 35  18  38  1   
 36  19  24  ar  
 37  19  39  1   
 38  21  22  1   
 39  21  40  1   
 40  21  41  1   
 41  22  42  1   
 42  22  43  1   
 43  23  25  ar  
 44  23  44  1   
 45  24  25  ar  
 46  24  45  1   
 47  25  26  1   
 48  26  27  1   
 49  27  46  1   
 50  27  47  1   
 51  27  48  1   
@<TRIPOS>SUBSTRUCTURE
  1 ****  12 GROUP 4 **** **** 0

# MOE 2024.06 (io_trps.svl 2023.06)
