@<TRIPOS>MOLECULE
NONAME
38 40 1 0 0 
SMALL
USER_CHARGES


@<TRIPOS>ATOM
  1 S        0.0920    -2.6840    -1.1950 S.3   1 <1>  -0.4600 
  2 C       -0.7960    -1.1090    -1.4280 C.3   1 <1>   0.2510 
  3 C       -1.2500    -3.6560    -0.4450 C.3   1 <1>   0.2510 
  4 C       -2.1750    -1.4100    -0.8920 C.2   1 <1>   0.1080 
  5 C       -2.4010    -2.6790    -0.4030 C.2   1 <1>  -0.1810 
  6 N       -3.2160    -0.6440    -0.8120 N.2   1 <1>  -0.7070 
  7 C       -3.6910    -2.6900     0.0020 C.2   1 <1>  -0.0880 
  8 N       -4.1690    -1.4330    -0.2540 N.pl3 1 <1>   0.3140 
  9 N       -4.3560    -3.7980     0.5810 N.am  1 <1>  -0.4940 
 10 C       -5.4810    -0.8590     0.0710 C.3   1 <1>   0.0160 
 11 C       -5.6670    -4.1930     0.6110 C.2   1 <1>   0.5690 
 12 O       -6.5770    -3.5390     0.1590 O.2   1 <1>  -0.5700 
 13 C       -5.9840    -5.5650     1.2080 C.3   1 <1>   0.2610 
 14 O       -4.8660    -6.0170     1.9620 O.3   1 <1>  -0.2170 
 15 C       -6.1340    -6.6400     0.1320 C.3   1 <1>  -0.0990 
 16 N       -4.1920    -6.9520     1.3210 N.2   1 <1>  -0.5130 
 17 C       -4.8270    -7.3530     0.3120 C.2   1 <1>   0.3280 
 18 C       -4.4100    -8.4280    -0.6960 C.3   1 <1>  -0.0190 
 19 C       -5.3100    -9.6680    -0.5870 C.3   1 <1>  -0.2400 
 20 C       -2.9400    -8.8450    -0.5280 C.3   1 <1>  -0.2400 
 21 H       -0.8130    -0.8770    -2.4770 H     1 <1>   0.0800 
 22 H       -0.2980    -0.3470    -0.8580 H     1 <1>   0.0800 
 23 H       -0.9340    -3.9620     0.5370 H     1 <1>   0.0800 
 24 H       -1.4500    -4.5000    -1.0800 H     1 <1>   0.0800 
 25 H       -3.7360    -4.5080     0.9920 H     1 <1>   0.3700 
 26 H       -5.4020     0.2120     0.0920 H     1 <1>   0.0800 
 27 H       -5.7980    -1.2160     1.0320 H     1 <1>   0.0800 
 28 H       -6.1870    -1.1520    -0.6820 H     1 <1>   0.0800 
 29 H       -6.8380    -5.5100     1.8560 H     1 <1>   0.0800 
 30 H       -6.2400    -6.2180    -0.8520 H     1 <1>   0.0800 
 31 H       -6.9620    -7.2880     0.3520 H     1 <1>   0.0800 
 32 H       -4.5210    -8.0120    -1.6820 H     1 <1>   0.0800 
 33 H       -5.2450   -10.0910     0.4010 H     1 <1>   0.0800 
 34 H       -5.0070   -10.4150    -1.3000 H     1 <1>   0.0800 
 35 H       -6.3360    -9.4140    -0.7850 H     1 <1>   0.0800 
 36 H       -2.7810    -9.2770     0.4450 H     1 <1>   0.0800 
 37 H       -2.2980    -7.9880    -0.6270 H     1 <1>   0.0800 
 38 H       -2.6640    -9.5670    -1.2760 H     1 <1>   0.0800 
@<TRIPOS>BOND
  1   1   2  1   
  2   1   3  1   
  3   2   4  1   
  4   2  21  1   
  5   2  22  1   
  6   3   5  1   
  7   3  23  1   
  8   3  24  1   
  9   4   5  1   
 10   4   6  2   
 11   5   7  2   
 12   6   8  1   
 13   7   8  1   
 14   7   9  1   
 15   8  10  1   
 16   9  11  am  
 17   9  25  1   
 18  10  26  1   
 19  10  27  1   
 20  10  28  1   
 21  11  12  2   
 22  11  13  1   
 23  13  14  1   
 24  13  15  1   
 25  13  29  1   
 26  14  16  1   
 27  15  17  1   
 28  15  30  1   
 29  15  31  1   
 30  16  17  2   
 31  17  18  1   
 32  18  19  1   
 33  18  20  1   
 34  18  32  1   
 35  19  33  1   
 36  19  34  1   
 37  19  35  1   
 38  20  36  1   
 39  20  37  1   
 40  20  38  1   
@<TRIPOS>SUBSTRUCTURE
  1 ****   9 GROUP 4 **** **** 0

# MOE 2024.06 (io_trps.svl 2023.06)
