@<TRIPOS>MOLECULE
NONAME
47 50 1 0 0 
SMALL
USER_CHARGES


@<TRIPOS>ATOM
  1 S       -0.6390     1.0190     2.5560 S.3   1 <1>  -0.0800 
  2 C       -1.1200     1.6950     1.0060 C.2   1 <1>  -0.1400 
  3 C       -2.2400     0.3290     2.7870 C.2   1 <1>  -0.1100 
  4 C       -2.3990     1.4040     0.7390 C.2   1 <1>  -0.1810 
  5 C       -0.1700     2.4980     0.1250 C.3   1 <1>   0.4600 
  6 C       -3.0450     0.6190     1.7460 C.2   1 <1>  -0.1500 
  7 C       -3.0260     1.9040    -0.5430 C.3   1 <1>   0.0210 
  8 O       -0.8120     2.7570    -1.1090 O.3   1 <1>  -0.5600 
  9 C        1.0890     1.6910    -0.2050 C.3   1 <1>  -0.1600 
 10 C        0.2120     3.8320     0.7810 C.3   1 <1>  -0.1600 
 11 C       -2.1840     3.0730    -1.0920 C.3   1 <1>   0.1200 
 12 C        2.0690     2.5010    -1.0560 C.3   1 <1>   0.1400 
 13 C        1.2000     4.6220    -0.0780 C.3   1 <1>   0.1400 
 14 N        2.3960     3.7780    -0.3600 N.am  1 <1>  -0.6600 
 15 C        3.7000     4.1490    -0.1250 C.2   1 <1>   0.5690 
 16 O        4.6240     3.4280    -0.4270 O.2   1 <1>  -0.5700 
 17 C        4.0590     5.4750     0.5400 C.3   1 <1>   0.0820 
 18 C        3.6320     6.7120    -0.2490 C.2   1 <1>  -0.1810 
 19 C        3.8280     6.9360    -1.6130 C.2   1 <1>   0.1080 
 20 C        2.9920     7.8210     0.1910 C.2   1 <1>  -0.3320 
 21 N        3.3470     8.0750    -1.9960 N.2   1 <1>  -0.7070 
 22 C        4.5130     6.0000    -2.5840 C.3   1 <1>  -0.0590 
 23 N        2.8360     8.6230    -0.8830 N.pl3 1 <1>   0.3000 
 24 C        2.5040     8.2080     1.5780 C.3   1 <1>  -0.0600 
 25 H       -2.4110    -0.2300     3.6890 H     1 <1>   0.1500 
 26 H       -4.0720     0.3130     1.6440 H     1 <1>   0.1500 
 27 H       -4.0290     2.2440    -0.3570 H     1 <1>   0.0800 
 28 H       -3.0620     1.1090    -1.2650 H     1 <1>   0.0800 
 29 H        0.8080     0.7930    -0.7240 H     1 <1>   0.0800 
 30 H        1.5860     1.4020     0.7020 H     1 <1>   0.0800 
 31 H        0.6690     3.6360     1.7340 H     1 <1>   0.0800 
 32 H       -0.6680     4.4180     0.9670 H     1 <1>   0.0800 
 33 H       -2.3240     3.9510    -0.4870 H     1 <1>   0.0800 
 34 H       -2.4800     3.3010    -2.1010 H     1 <1>   0.0800 
 35 H        1.6280     2.7250    -2.0120 H     1 <1>   0.0800 
 36 H        2.9580     1.9190    -1.2290 H     1 <1>   0.0800 
 37 H        1.4660     5.5230     0.4400 H     1 <1>   0.0800 
 38 H        0.7400     4.8990    -1.0120 H     1 <1>   0.0800 
 39 H        5.1240     5.5140     0.6690 H     1 <1>   0.0800 
 40 H        3.6190     5.4840     1.5170 H     1 <1>   0.0800 
 41 H        5.3920     5.5750    -2.1360 H     1 <1>   0.0800 
 42 H        4.8010     6.5380    -3.4680 H     1 <1>   0.0800 
 43 H        3.8390     5.2100    -2.8620 H     1 <1>   0.0800 
 44 H        2.3910     9.5480    -0.8900 H     1 <1>   0.2700 
 45 H        2.7520     7.4520     2.3000 H     1 <1>   0.0800 
 46 H        1.4360     8.3370     1.5720 H     1 <1>   0.0800 
 47 H        2.9640     9.1310     1.8850 H     1 <1>   0.0800 
@<TRIPOS>BOND
  1   1   2  1   
  2   1   3  1   
  3   2   4  2   
  4   2   5  1   
  5   3   6  2   
  6   3  25  1   
  7   4   6  1   
  8   4   7  1   
  9   5   8  1   
 10   5   9  1   
 11   5  10  1   
 12   6  26  1   
 13   7  11  1   
 14   7  27  1   
 15   7  28  1   
 16   8  11  1   
 17   9  12  1   
 18   9  29  1   
 19   9  30  1   
 20  10  13  1   
 21  10  31  1   
 22  10  32  1   
 23  11  33  1   
 24  11  34  1   
 25  12  14  1   
 26  12  35  1   
 27  12  36  1   
 28  13  14  1   
 29  13  37  1   
 30  13  38  1   
 31  14  15  am  
 32  15  16  2   
 33  15  17  1   
 34  17  18  1   
 35  17  39  1   
 36  17  40  1   
 37  18  19  1   
 38  18  20  2   
 39  19  21  2   
 40  19  22  1   
 41  20  23  1   
 42  20  24  1   
 43  21  23  1   
 44  22  41  1   
 45  22  42  1   
 46  22  43  1   
 47  23  44  1   
 48  24  45  1   
 49  24  46  1   
 50  24  47  1   
@<TRIPOS>SUBSTRUCTURE
  1 ****  13 GROUP 4 **** **** 0

# MOE 2024.06 (io_trps.svl 2023.06)
