@<TRIPOS>MOLECULE
NONAME
55 59 1 0 0 
SMALL
USER_CHARGES


@<TRIPOS>ATOM
  1 O       -0.6960     0.2090    -0.5090 O.2   1 <1>  -0.5700 
  2 C       -1.0220     1.3800    -0.5720 C.2   1 <1>   0.7800 
  3 O       -0.2500     2.3340    -1.0870 O.3   1 <1>  -0.2330 
  4 N       -2.2150     1.8900    -0.1360 N.am  1 <1>  -0.4770 
  5 C       -0.9330     3.4890    -0.9690 C.ar  1 <1>   0.0830 
  6 C       -2.1550     3.2490    -0.3770 C.ar  1 <1>   0.1170 
  7 C       -3.2280     1.1560     0.6550 C.3   1 <1>   0.1400 
  8 C       -0.5380     4.7580    -1.3510 C.ar  1 <1>  -0.1500 
  9 C       -3.0340     4.2970    -0.1440 C.ar  1 <1>  -0.1500 
 10 C       -3.6350    -0.1450    -0.0600 C.3   1 <1>   0.3430 
 11 C       -1.4160     5.8060    -1.1200 C.ar  1 <1>  -0.1500 
 12 C       -2.6530     5.5760    -0.5210 C.ar  1 <1>  -0.1500 
 13 N       -4.5990    -0.9700     0.7350 N.4   1 <1>  -0.9590 
 14 C       -5.9190    -0.3000     0.9420 C.3   1 <1>   0.3430 
 15 C       -4.8890    -2.2530     0.0390 C.3   1 <1>   0.3430 
 16 C       -6.9900    -1.3860     0.8420 C.3   1 <1>  -0.0800 
 17 C       -6.2330    -2.7030     0.5960 C.3   1 <1>  -0.0800 
 18 C       -8.0070    -1.0320    -0.2630 C.3   1 <1>   0.4240 
 19 C       -6.9640    -3.6960    -0.3320 C.3   1 <1>  -0.1600 
 20 O       -7.2920    -0.9070    -1.4440 O.3   1 <1>  -0.6800 
 21 C       -8.6870     0.3170     0.0460 C.ar  1 <1>  -0.1430 
 22 C       -9.0230    -2.1780    -0.4750 C.3   1 <1>  -0.1600 
 23 C       -8.4840    -3.5920    -0.1590 C.3   1 <1>  -0.1600 
 24 C       -9.4900     0.4290     1.1780 C.ar  1 <1>  -0.1500 
 25 C       -8.5150     1.4520    -0.7460 C.ar  1 <1>  -0.1500 
 26 C      -10.0980     1.6270     1.5090 C.ar  1 <1>  -0.1500 
 27 C       -9.1240     2.6500    -0.4160 C.ar  1 <1>  -0.1500 
 28 C       -9.9150     2.7400     0.7120 C.ar  1 <1>  -0.1500 
 29 H       -2.8020     0.9270     1.6160 H     1 <1>   0.0800 
 30 H       -4.0870     1.7880     0.7900 H     1 <1>   0.0800 
 31 H        0.4210     4.9160    -1.8110 H     1 <1>   0.1500 
 32 H       -3.9890     4.1270     0.3180 H     1 <1>   0.1500 
 33 H       -2.7490    -0.7310    -0.2450 H     1 <1>   0.0800 
 34 H       -4.0770     0.1030    -1.0120 H     1 <1>   0.0800 
 35 H       -1.1390     6.8070    -1.4050 H     1 <1>   0.1500 
 36 H       -3.3180     6.4060    -0.3510 H     1 <1>   0.1500 
 37 H       -4.1930    -1.2020     1.6510 H     1 <1>   0.4500 
 38 H       -5.9590     0.1900     1.9010 H     1 <1>   0.0800 
 39 H       -6.0850     0.4340     0.1690 H     1 <1>   0.0800 
 40 H       -4.9930    -2.0750    -1.0200 H     1 <1>   0.0800 
 41 H       -4.1170    -2.9880     0.2060 H     1 <1>   0.0800 
 42 H       -7.5140    -1.4530     1.7770 H     1 <1>   0.0800 
 43 H       -6.0640    -3.1820     1.5450 H     1 <1>   0.0800 
 44 H       -6.7260    -3.4960    -1.3640 H     1 <1>   0.0800 
 45 H       -6.6410    -4.7010    -0.1180 H     1 <1>   0.0800 
 46 H       -7.9330    -0.7430    -2.1640 H     1 <1>   0.4000 
 47 H       -9.8830    -2.0220     0.1510 H     1 <1>   0.0800 
 48 H       -9.3850    -2.1470    -1.4880 H     1 <1>   0.0800 
 49 H       -8.7300    -3.8440     0.8590 H     1 <1>   0.0800 
 50 H       -8.9750    -4.3120    -0.7920 H     1 <1>   0.0800 
 51 H       -9.6600    -0.4170     1.8210 H     1 <1>   0.1500 
 52 H       -7.9070     1.4360    -1.6330 H     1 <1>   0.1500 
 53 H      -10.7190     1.6940     2.3870 H     1 <1>   0.1500 
 54 H       -8.9860     3.5160    -1.0410 H     1 <1>   0.1500 
 55 H      -10.3910     3.6720     0.9670 H     1 <1>   0.1500 
@<TRIPOS>BOND
  1   1   2  2   
  2   2   3  1   
  3   2   4  am  
  4   3   5  1   
  5   4   6  1   
  6   4   7  1   
  7   5   6  ar  
  8   5   8  ar  
  9   6   9  ar  
 10   7  10  1   
 11   7  29  1   
 12   7  30  1   
 13   8  11  ar  
 14   8  31  1   
 15   9  12  ar  
 16   9  32  1   
 17  10  13  1   
 18  10  33  1   
 19  10  34  1   
 20  11  12  ar  
 21  11  35  1   
 22  12  36  1   
 23  13  14  1   
 24  13  15  1   
 25  13  37  1   
 26  14  16  1   
 27  14  38  1   
 28  14  39  1   
 29  15  17  1   
 30  15  40  1   
 31  15  41  1   
 32  16  17  1   
 33  16  18  1   
 34  16  42  1   
 35  17  19  1   
 36  17  43  1   
 37  18  20  1   
 38  18  21  1   
 39  18  22  1   
 40  19  23  1   
 41  19  44  1   
 42  19  45  1   
 43  20  46  1   
 44  21  24  ar  
 45  21  25  ar  
 46  22  23  1   
 47  22  47  1   
 48  22  48  1   
 49  23  49  1   
 50  23  50  1   
 51  24  26  ar  
 52  24  51  1   
 53  25  27  ar  
 54  25  52  1   
 55  26  28  ar  
 56  26  53  1   
 57  27  28  ar  
 58  27  54  1   
 59  28  55  1   
@<TRIPOS>SUBSTRUCTURE
  1 ****  14 GROUP 4 **** **** 0

# MOE 2024.06 (io_trps.svl 2023.06)
