@<TRIPOS>MOLECULE
NONAME
48 50 1 0 0 
SMALL
USER_CHARGES


@<TRIPOS>ATOM
  1 S        0.7530     0.0970    -0.6440 S.o2  1 <1>   1.3330 
  2 O        0.4480    -0.0560    -2.0460 O.2   1 <1>  -0.6500 
  3 O        2.1110     0.3840    -0.2380 O.2   1 <1>  -0.6500 
  4 N        0.1680    -1.2360     0.2210 N.am  1 <1>  -0.8490 
  5 C       -0.2330     1.4600    -0.0270 C.3   1 <1>  -0.0550 
  6 C       -0.9800    -1.8900    -0.4200 C.3   1 <1>   0.1160 
  7 C        1.2120    -2.2300     0.4960 C.3   1 <1>   0.1160 
  8 C        0.1010     2.7900    -0.7400 C.3   1 <1>  -0.0800 
  9 C       -0.6660     4.0150    -0.2450 C.3   1 <1>   0.2000 
 10 C        1.5800     3.1910    -0.6220 C.3   1 <1>   0.3430 
 11 O       -0.6850     4.0200     1.1480 O.3   1 <1>  -0.6800 
 12 C        0.2210     5.1680    -0.7230 C.3   1 <1>   0.3430 
 13 N        1.6300     4.6830    -0.5690 N.4   1 <1>  -0.9590 
 14 C        2.2120     5.1370     0.7250 C.3   1 <1>   0.4860 
 15 C        2.3320     6.6470     0.6990 C.ar  1 <1>  -0.1430 
 16 C        3.3200     7.2610    -0.0660 C.ar  1 <1>  -0.1500 
 17 C        1.4420     7.4210     1.4420 C.ar  1 <1>  -0.1500 
 18 C        3.3860     8.6410    -0.0840 C.ar  1 <1>  -0.1430 
 19 C        1.5200     8.8040     1.4150 C.ar  1 <1>  -0.1500 
 20 C        2.5000     9.3910     0.6400 C.ar  1 <1>   0.0820 
 21 C        4.3230     9.5700    -0.8000 C.3   1 <1>  -0.0170 
 22 O        2.7010    10.7110     0.5110 O.3   1 <1>  -0.3630 
 23 C        3.8100    10.9490    -0.3440 C.3   1 <1>   0.1200 
 24 H       -1.2720     1.2340    -0.1710 H     1 <1>   0.0800 
 25 H       -0.0590     1.5530     1.0280 H     1 <1>   0.0800 
 26 H       -1.3610    -2.6730     0.2140 H     1 <1>   0.0800 
 27 H       -0.6910    -2.3170    -1.3670 H     1 <1>   0.0800 
 28 H       -1.7690    -1.1780    -0.5890 H     1 <1>   0.0800 
 29 H        0.8070    -3.0490     1.0670 H     1 <1>   0.0800 
 30 H        2.0070    -1.7840     1.0690 H     1 <1>   0.0800 
 31 H        1.6210    -2.6100    -0.4260 H     1 <1>   0.0800 
 32 H       -0.1100     2.6660    -1.7900 H     1 <1>   0.0800 
 33 H       -1.6750     4.0870    -0.6150 H     1 <1>   0.0800 
 34 H        2.1440     2.8100    -1.4590 H     1 <1>   0.0800 
 35 H        1.9950     2.7770     0.2840 H     1 <1>   0.0800 
 36 H       -1.4830     3.5680     1.4960 H     1 <1>   0.4000 
 37 H        0.0270     6.0700    -0.1650 H     1 <1>   0.0800 
 38 H        0.0200     5.3540    -1.7650 H     1 <1>   0.0800 
 39 H        2.2140     5.0720    -1.3190 H     1 <1>   0.4500 
 40 H        1.5810     4.8320     1.5450 H     1 <1>   0.0800 
 41 H        3.1890     4.7040     0.8670 H     1 <1>   0.0800 
 42 H        4.0310     6.6890    -0.6370 H     1 <1>   0.1500 
 43 H        0.6820     6.9560     2.0480 H     1 <1>   0.1500 
 44 H        0.8450     9.4230     1.9790 H     1 <1>   0.1500 
 45 H        4.2440     9.4660    -1.8670 H     1 <1>   0.0800 
 46 H        5.3410     9.4190    -0.4890 H     1 <1>   0.0800 
 47 H        3.4720    11.5420    -1.1750 H     1 <1>   0.0800 
 48 H        4.5560    11.4830     0.2170 H     1 <1>   0.0800 
@<TRIPOS>BOND
  1   1   2  2   
  2   1   3  2   
  3   1   4  am  
  4   1   5  1   
  5   4   6  1   
  6   4   7  1   
  7   5   8  1   
  8   5  24  1   
  9   5  25  1   
 10   6  26  1   
 11   6  27  1   
 12   6  28  1   
 13   7  29  1   
 14   7  30  1   
 15   7  31  1   
 16   8   9  1   
 17   8  10  1   
 18   8  32  1   
 19   9  11  1   
 20   9  12  1   
 21   9  33  1   
 22  10  13  1   
 23  10  34  1   
 24  10  35  1   
 25  11  36  1   
 26  12  13  1   
 27  12  37  1   
 28  12  38  1   
 29  13  14  1   
 30  13  39  1   
 31  14  15  1   
 32  14  40  1   
 33  14  41  1   
 34  15  16  ar  
 35  15  17  ar  
 36  16  18  ar  
 37  16  42  1   
 38  17  19  ar  
 39  17  43  1   
 40  18  20  ar  
 41  18  21  1   
 42  19  20  ar  
 43  19  44  1   
 44  20  22  1   
 45  21  23  1   
 46  21  45  1   
 47  21  46  1   
 48  22  23  1   
 49  23  47  1   
 50  23  48  1   
@<TRIPOS>SUBSTRUCTURE
  1 ****  13 GROUP 4 **** **** 0

# MOE 2024.06 (io_trps.svl 2023.06)
