@<TRIPOS>MOLECULE
NONAME
43 45 1 0 0 
SMALL
USER_CHARGES


@<TRIPOS>ATOM
  1 O       -2.2940     1.0840    -2.4160 O.2   1 <1>  -0.5700 
  2 C       -2.5410     1.0290    -1.2360 C.2   1 <1>   0.5690 
  3 N       -2.9530    -0.1240    -0.6560 N.am  1 <1>  -0.7300 
  4 C       -2.3920     2.2700    -0.3540 C.3   1 <1>  -0.0190 
  5 C       -3.1670    -1.3880    -1.3780 C.3   1 <1>   0.2840 
  6 C       -2.4220     3.5910    -1.1530 C.3   1 <1>  -0.1600 
  7 C       -1.1100     2.1850     0.5090 C.3   1 <1>  -0.1600 
  8 C       -4.1940    -2.1980    -0.6080 C.ar  1 <1>  -0.1440 
  9 C       -2.4230     4.8320    -0.2360 C.3   1 <1>   0.2000 
 10 C       -0.6300     3.5480     1.0490 C.3   1 <1>  -0.1600 
 11 C       -3.8050    -3.2650     0.1760 C.ar  1 <1>  -0.1500 
 12 C       -5.5510    -1.8500    -0.6930 C.ar  1 <1>  -0.1500 
 13 O       -1.7110     5.8630    -0.8760 O.3   1 <1>  -0.5600 
 14 C       -1.7790     4.5550     1.1480 C.3   1 <1>   0.2000 
 15 C       -4.7670    -3.9880     0.8770 C.ar  1 <1>   0.2270 
 16 C       -6.5100    -2.5600    -0.0040 C.ar  1 <1>  -0.1500 
 17 C       -2.3990     6.5170    -1.8970 C.3   1 <1>   0.0400 
 18 O       -1.2740     5.7320     1.6590 O.3   1 <1>  -0.6800 
 19 N       -4.6120    -5.0610     1.7020 N.2   1 <1>  -0.5650 
 20 C       -6.1000    -3.6360     0.7840 C.ar  1 <1>  -0.1520 
 21 C       -5.8100    -5.3410     2.0840 C.2   1 <1>   0.0360 
 22 N       -6.7610    -4.5230     1.5700 N.pl3 1 <1>   0.0330 
 23 H       -3.1590    -0.1720     0.3420 H     1 <1>   0.3700 
 24 H       -3.2410     2.2820     0.3060 H     1 <1>   0.0800 
 25 H       -3.5170    -1.1900    -2.3770 H     1 <1>   0.0800 
 26 H       -2.2350    -1.9230    -1.4420 H     1 <1>   0.0800 
 27 H       -3.2960     3.6100    -1.7790 H     1 <1>   0.0800 
 28 H       -1.5540     3.6160    -1.7910 H     1 <1>   0.0800 
 29 H       -1.2940     1.5190     1.3340 H     1 <1>   0.0800 
 30 H       -0.3130     1.7570    -0.0760 H     1 <1>   0.0800 
 31 H       -3.4330     5.1660    -0.0660 H     1 <1>   0.0800 
 32 H        0.1110     3.9460     0.3770 H     1 <1>   0.0800 
 33 H       -0.1730     3.4150     2.0150 H     1 <1>   0.0800 
 34 H       -2.7790    -3.5670     0.2710 H     1 <1>   0.1500 
 35 H       -5.8400    -1.0140    -1.3070 H     1 <1>   0.1500 
 36 H       -2.5180     4.1870     1.8390 H     1 <1>   0.0800 
 37 H       -7.5520    -2.2970    -0.0690 H     1 <1>   0.1500 
 38 H       -1.7630     7.2940    -2.2830 H     1 <1>   0.0800 
 39 H       -3.2990     6.9520    -1.4990 H     1 <1>   0.0800 
 40 H       -2.6290     5.8180    -2.6820 H     1 <1>   0.0800 
 41 H       -1.0000     6.2650     0.8770 H     1 <1>   0.4000 
 42 H       -6.0590    -6.1480     2.7520 H     1 <1>   0.1500 
 43 H       -7.7700    -4.5620     1.7340 H     1 <1>   0.2700 
@<TRIPOS>BOND
  1   1   2  2   
  2   2   3  am  
  3   2   4  1   
  4   3   5  1   
  5   3  23  1   
  6   4   6  1   
  7   4   7  1   
  8   4  24  1   
  9   5   8  1   
 10   5  25  1   
 11   5  26  1   
 12   6   9  1   
 13   6  27  1   
 14   6  28  1   
 15   7  10  1   
 16   7  29  1   
 17   7  30  1   
 18   8  11  ar  
 19   8  12  ar  
 20   9  13  1   
 21   9  14  1   
 22   9  31  1   
 23  10  14  1   
 24  10  32  1   
 25  10  33  1   
 26  11  15  ar  
 27  11  34  1   
 28  12  16  ar  
 29  12  35  1   
 30  13  17  1   
 31  14  18  1   
 32  14  36  1   
 33  15  19  1   
 34  15  20  ar  
 35  16  20  ar  
 36  16  37  1   
 37  17  38  1   
 38  17  39  1   
 39  17  40  1   
 40  18  41  1   
 41  19  21  2   
 42  20  22  1   
 43  21  22  1   
 44  21  42  1   
 45  22  43  1   
@<TRIPOS>SUBSTRUCTURE
  1 ****   3 GROUP 4 **** **** 0

# MOE 2024.06 (io_trps.svl 2023.06)
