@<TRIPOS>MOLECULE
NONAME
50 52 1 0 0 
SMALL
USER_CHARGES


@<TRIPOS>ATOM
  1 O        1.4060     0.8850    -2.9710 O.2   1 <1>  -0.5700 
  2 C        2.0020     0.5620    -1.9680 C.2   1 <1>   0.7150 
  3 N        1.8190    -0.7040    -1.5150 N.am  1 <1>  -0.7300 
  4 C        2.8400     1.4730    -1.2470 C.2   1 <1>  -0.2370 
  5 C        2.1030    -1.0990    -0.1100 C.3   1 <1>   0.1400 
  6 N        3.9300     1.0970    -0.5370 N.pl3 1 <1>   0.3140 
  7 C        2.7530     2.8160    -1.0750 C.2   1 <1>  -0.1500 
  8 C        3.6120    -1.3180     0.1100 C.3   1 <1>   0.2000 
  9 N        4.5120     2.1220     0.0860 N.2   1 <1>  -0.7070 
 10 C        4.5310    -0.2540    -0.5170 C.3   1 <1>   0.0960 
 11 C        3.8010     3.1960    -0.2350 C.2   1 <1>   0.2030 
 12 O        3.9450    -2.5400    -0.4570 O.3   1 <1>  -0.6800 
 13 C        3.9940     4.5860     0.1890 C.2   1 <1>   0.7160 
 14 O        3.0310     5.3370     0.1390 O.2   1 <1>  -0.5700 
 15 N        5.1970     5.1260     0.6370 N.am  1 <1>  -0.6600 
 16 C        5.2770     6.5510     1.0790 C.3   1 <1>   0.1400 
 17 C        6.4670     4.3620     0.7500 C.3   1 <1>   0.1400 
 18 C        5.3730     7.5300    -0.1080 C.3   1 <1>  -0.0800 
 19 C        6.5930     3.7800     2.1560 C.3   1 <1>  -0.2400 
 20 C        6.6110     7.2810    -0.9930 C.3   1 <1>  -0.1600 
 21 C        5.3740     8.9780     0.4160 C.3   1 <1>  -0.1600 
 22 C        6.7100     8.3040    -2.1320 C.3   1 <1>  -0.1600 
 23 C        5.4700     9.9970    -0.7270 C.3   1 <1>  -0.1600 
 24 C        6.7080     9.7400    -1.5940 C.3   1 <1>  -0.1600 
 25 H        1.0940    -1.2270    -2.0130 H     1 <1>   0.3700 
 26 H        1.5610    -1.9940     0.1420 H     1 <1>   0.0800 
 27 H        1.7610    -0.3160     0.5470 H     1 <1>   0.0800 
 28 H        2.0160     3.4830    -1.4890 H     1 <1>   0.1500 
 29 H        3.8140    -1.3930     1.1650 H     1 <1>   0.0800 
 30 H        5.4530    -0.2090     0.0320 H     1 <1>   0.0800 
 31 H        4.7530    -0.5140    -1.5350 H     1 <1>   0.0800 
 32 H        3.6190    -2.5780    -1.3790 H     1 <1>   0.4000 
 33 H        6.1260     6.6840     1.7260 H     1 <1>   0.0800 
 34 H        4.3970     6.7830     1.6550 H     1 <1>   0.0800 
 35 H        7.3000     5.0160     0.5570 H     1 <1>   0.0800 
 36 H        6.5030     3.5800     0.0130 H     1 <1>   0.0800 
 37 H        4.4910     7.4030    -0.7130 H     1 <1>   0.0800 
 38 H        6.6070     4.5640     2.8910 H     1 <1>   0.0800 
 39 H        7.5060     3.2190     2.2330 H     1 <1>   0.0800 
 40 H        5.7700     3.1170     2.3580 H     1 <1>   0.0800 
 41 H        6.5570     6.2960    -1.4230 H     1 <1>   0.0800 
 42 H        7.5010     7.3350    -0.3900 H     1 <1>   0.0800 
 43 H        6.2080     9.1190     1.0830 H     1 <1>   0.0800 
 44 H        4.4710     9.1590     0.9730 H     1 <1>   0.0800 
 45 H        5.8750     8.1730    -2.7990 H     1 <1>   0.0800 
 46 H        7.6110     8.1310    -2.6950 H     1 <1>   0.0800 
 47 H        5.5150    10.9930    -0.3200 H     1 <1>   0.0800 
 48 H        4.5860     9.9290    -1.3380 H     1 <1>   0.0800 
 49 H        6.7220    10.4330    -2.4170 H     1 <1>   0.0800 
 50 H        7.5960     9.9030    -1.0070 H     1 <1>   0.0800 
@<TRIPOS>BOND
  1   1   2  2   
  2   2   3  am  
  3   2   4  1   
  4   3   5  1   
  5   3  25  1   
  6   4   6  1   
  7   4   7  2   
  8   5   8  1   
  9   5  26  1   
 10   5  27  1   
 11   6   9  1   
 12   6  10  1   
 13   7  11  1   
 14   7  28  1   
 15   8  10  1   
 16   8  12  1   
 17   8  29  1   
 18   9  11  2   
 19  10  30  1   
 20  10  31  1   
 21  11  13  1   
 22  12  32  1   
 23  13  14  2   
 24  13  15  am  
 25  15  16  1   
 26  15  17  1   
 27  16  18  1   
 28  16  33  1   
 29  16  34  1   
 30  17  19  1   
 31  17  35  1   
 32  17  36  1   
 33  18  20  1   
 34  18  21  1   
 35  18  37  1   
 36  19  38  1   
 37  19  39  1   
 38  19  40  1   
 39  20  22  1   
 40  20  41  1   
 41  20  42  1   
 42  21  23  1   
 43  21  43  1   
 44  21  44  1   
 45  22  24  1   
 46  22  45  1   
 47  22  46  1   
 48  23  24  1   
 49  23  47  1   
 50  23  48  1   
 51  24  49  1   
 52  24  50  1   
@<TRIPOS>SUBSTRUCTURE
  1 ****  11 GROUP 4 **** **** 0

# MOE 2024.06 (io_trps.svl 2023.06)
