@<TRIPOS>MOLECULE
NONAME
50 52 1 0 0 
SMALL
USER_CHARGES


@<TRIPOS>ATOM
  1 O       -0.5360     0.2140    -0.3420 O.2   1 <1>  -0.5700 
  2 C       -1.6060     0.7610    -0.2150 C.2   1 <1>   0.5690 
  3 N       -2.7710     0.0460    -0.2130 N.am  1 <1>  -0.6600 
  4 C       -1.6640     2.2770    -0.0580 C.3   1 <1>  -0.0990 
  5 C       -4.1410     0.5890    -0.0450 C.3   1 <1>   0.1400 
  6 C       -2.8040    -1.4280    -0.3560 C.3   1 <1>   0.1400 
  7 C       -0.2840     2.9650    -0.0040 C.3   1 <1>  -0.1600 
  8 C       -5.0630    -0.6300    -0.1160 C.3   1 <1>   0.2000 
  9 C       -4.1790    -1.8430     0.1720 C.3   1 <1>  -0.0800 
 10 C       -0.3560     4.4780     0.2790 C.3   1 <1>  -0.0800 
 11 O       -6.0800    -0.5550     0.8230 O.3   1 <1>  -0.6800 
 12 C       -4.7320    -3.1370    -0.4500 C.3   1 <1>  -0.0170 
 13 C       -1.0660     5.2520    -0.8490 C.3   1 <1>  -0.1600 
 14 C        1.0660     5.0280     0.4880 C.3   1 <1>  -0.1600 
 15 C       -3.8590    -4.3380    -0.1260 C.ar  1 <1>   0.1670 
 16 C       -1.0680     6.7640    -0.5870 C.3   1 <1>  -0.1600 
 17 C        1.0600     6.5390     0.7560 C.3   1 <1>  -0.1600 
 18 N       -2.8030    -4.5270    -0.9000 N.ar  1 <1>  -0.6200 
 19 C       -4.1880    -5.1720     0.9420 C.ar  1 <1>   0.1600 
 20 C        0.3540     7.2960    -0.3750 C.3   1 <1>  -0.1600 
 21 C       -2.1030    -5.5880    -0.5370 C.ar  1 <1>   0.1600 
 22 N       -3.4900    -6.2350     1.3070 N.ar  1 <1>  -0.6200 
 23 C       -2.4350    -6.4140     0.5310 C.ar  1 <1>   0.1600 
 24 H       -2.2240     2.6630    -0.8880 H     1 <1>   0.0800 
 25 H       -2.1960     2.5000     0.8470 H     1 <1>   0.0800 
 26 H       -4.2190     1.0760     0.9110 H     1 <1>   0.0800 
 27 H       -4.3680     1.2810    -0.8370 H     1 <1>   0.0800 
 28 H       -2.6970    -1.6820    -1.3970 H     1 <1>   0.0800 
 29 H       -2.0070    -1.8910     0.2030 H     1 <1>   0.0800 
 30 H        0.2340     2.7930    -0.9330 H     1 <1>   0.0800 
 31 H        0.2940     2.4950     0.7740 H     1 <1>   0.0800 
 32 H       -5.5080    -0.6920    -1.0950 H     1 <1>   0.0800 
 33 H       -4.0810    -1.9710     1.2360 H     1 <1>   0.0800 
 34 H       -0.9060     4.6270     1.1940 H     1 <1>   0.0800 
 35 H       -5.7080    -0.5160     1.7260 H     1 <1>   0.4000 
 36 H       -4.7990    -3.0320    -1.5190 H     1 <1>   0.0800 
 37 H       -5.7280    -3.3080    -0.0800 H     1 <1>   0.0800 
 38 H       -0.5690     5.0570    -1.7840 H     1 <1>   0.0800 
 39 H       -2.0860     4.9250    -0.9410 H     1 <1>   0.0800 
 40 H        1.5320     4.5270     1.3190 H     1 <1>   0.0800 
 41 H        1.6590     4.8300    -0.3890 H     1 <1>   0.0800 
 42 H       -1.5210     7.2740    -1.4200 H     1 <1>   0.0800 
 43 H       -1.6580     6.9730     0.2880 H     1 <1>   0.0800 
 44 H        0.5540     6.7340     1.6860 H     1 <1>   0.0800 
 45 H        2.0720     6.8920     0.8490 H     1 <1>   0.0800 
 46 H       -5.0670    -4.9500     1.5210 H     1 <1>   0.1500 
 47 H        0.3170     8.3450    -0.1400 H     1 <1>   0.0800 
 48 H        0.9170     7.1810    -1.2860 H     1 <1>   0.0800 
 49 H       -1.2220    -5.8160    -1.1110 H     1 <1>   0.1500 
 50 H       -1.8010    -7.2550     0.7490 H     1 <1>   0.1500 
@<TRIPOS>BOND
  1   1   2  2   
  2   2   3  am  
  3   2   4  1   
  4   3   5  1   
  5   3   6  1   
  6   4   7  1   
  7   4  24  1   
  8   4  25  1   
  9   5   8  1   
 10   5  26  1   
 11   5  27  1   
 12   6   9  1   
 13   6  28  1   
 14   6  29  1   
 15   7  10  1   
 16   7  30  1   
 17   7  31  1   
 18   8   9  1   
 19   8  11  1   
 20   8  32  1   
 21   9  12  1   
 22   9  33  1   
 23  10  13  1   
 24  10  14  1   
 25  10  34  1   
 26  11  35  1   
 27  12  15  1   
 28  12  36  1   
 29  12  37  1   
 30  13  16  1   
 31  13  38  1   
 32  13  39  1   
 33  14  17  1   
 34  14  40  1   
 35  14  41  1   
 36  15  18  ar  
 37  15  19  ar  
 38  16  20  1   
 39  16  42  1   
 40  16  43  1   
 41  17  20  1   
 42  17  44  1   
 43  17  45  1   
 44  18  21  ar  
 45  19  22  ar  
 46  19  46  1   
 47  20  47  1   
 48  20  48  1   
 49  21  23  ar  
 50  21  49  1   
 51  22  23  ar  
 52  23  50  1   
@<TRIPOS>SUBSTRUCTURE
  1 ****   3 GROUP 4 **** **** 0

# MOE 2024.06 (io_trps.svl 2023.06)
