@<TRIPOS>MOLECULE
NONAME
46 47 1 0 0 
SMALL
USER_CHARGES


@<TRIPOS>ATOM
  1 O       -0.4540     0.2200    -0.2450 O.2   1 <1>  -0.5700 
  2 C       -1.5610     0.7250    -0.2560 C.2   1 <1>   0.5440 
  3 N       -1.6660     2.1000    -0.1520 N.am  1 <1>  -0.6600 
  4 C       -2.7190    -0.1320    -0.3620 C.ar  1 <1>   0.0860 
  5 C       -0.4740     2.9800    -0.3100 C.3   1 <1>   0.0600 
  6 C       -2.8890     2.8000     0.3280 C.3   1 <1>   0.0600 
  7 C       -2.8020    -1.3010     0.3900 C.ar  1 <1>   0.1600 
  8 C       -3.7900     0.1440    -1.2070 C.ar  1 <1>  -0.1500 
  9 N       -3.8120    -2.1540     0.3960 N.ar  1 <1>  -0.6200 
 10 C       -4.8470    -0.7330    -1.2190 C.ar  1 <1>  -0.1500 
 11 C       -4.8290    -1.8640    -0.4070 C.ar  1 <1>   0.4100 
 12 N       -5.8910    -2.7270    -0.4240 N.pl3 1 <1>  -0.8690 
 13 C       -5.8840    -4.0250     0.2790 C.3   1 <1>   0.2090 
 14 C       -7.2020    -4.7450     0.0130 C.3   1 <1>  -0.1600 
 15 C       -7.2410    -6.0840     0.7420 C.3   1 <1>   0.1200 
 16 O       -8.4480    -6.6960     0.4300 O.3   1 <1>  -0.5600 
 17 C       -8.6360    -7.9580     0.9910 C.3   1 <1>   0.2000 
 18 C       -8.0590    -9.0210     0.0590 C.3   1 <1>  -0.1600 
 19 C      -10.1310    -8.2490     0.9730 C.3   1 <1>  -0.1600 
 20 C       -9.1060    -9.2050    -1.0430 C.3   1 <1>  -0.1600 
 21 C      -10.4420    -8.7500    -0.4420 C.3   1 <1>  -0.1600 
 22 H        0.3090     2.4630    -0.8380 H     1 <1>   0.0800 
 23 H       -0.1060     3.2670     0.6590 H     1 <1>   0.0800 
 24 H       -0.7390     3.8600    -0.8680 H     1 <1>   0.0800 
 25 H       -3.5970     2.1010     0.7380 H     1 <1>   0.0800 
 26 H       -3.3480     3.3310    -0.4880 H     1 <1>   0.0800 
 27 H       -2.6270     3.5030     1.1000 H     1 <1>   0.0800 
 28 H       -1.9680    -1.5350     1.0300 H     1 <1>   0.1500 
 29 H       -3.7780     1.0200    -1.8320 H     1 <1>   0.1500 
 30 H       -5.6970    -0.5590    -1.8510 H     1 <1>   0.1500 
 31 H       -6.5610    -2.6540    -1.1890 H     1 <1>   0.4000 
 32 H       -5.7580    -3.8520     1.3360 H     1 <1>   0.0800 
 33 H       -5.0550    -4.6160    -0.0730 H     1 <1>   0.0800 
 34 H       -7.3050    -4.9220    -1.0430 H     1 <1>   0.0800 
 35 H       -8.0170    -4.1360     0.3590 H     1 <1>   0.0800 
 36 H       -7.1930    -5.9400     1.8090 H     1 <1>   0.0800 
 37 H       -6.4320    -6.7170     0.4190 H     1 <1>   0.0800 
 38 H       -8.2270    -7.9840     1.9880 H     1 <1>   0.0800 
 39 H       -7.9660    -9.9420     0.6070 H     1 <1>   0.0800 
 40 H       -7.0940    -8.7560    -0.3350 H     1 <1>   0.0800 
 41 H      -10.7090    -7.3820     1.2400 H     1 <1>   0.0800 
 42 H      -10.3370    -9.0360     1.6770 H     1 <1>   0.0800 
 43 H       -9.1460   -10.2260    -1.3800 H     1 <1>   0.0800 
 44 H       -8.8610    -8.5690    -1.8770 H     1 <1>   0.0800 
 45 H      -10.8430    -7.9430    -1.0310 H     1 <1>   0.0800 
 46 H      -11.1580    -9.5540    -0.4160 H     1 <1>   0.0800 
@<TRIPOS>BOND
  1   1   2  2   
  2   2   3  am  
  3   2   4  1   
  4   3   5  1   
  5   3   6  1   
  6   4   7  ar  
  7   4   8  ar  
  8   5  22  1   
  9   5  23  1   
 10   5  24  1   
 11   6  25  1   
 12   6  26  1   
 13   6  27  1   
 14   7   9  ar  
 15   7  28  1   
 16   8  10  ar  
 17   8  29  1   
 18   9  11  ar  
 19  10  11  ar  
 20  10  30  1   
 21  11  12  1   
 22  12  13  1   
 23  12  31  1   
 24  13  14  1   
 25  13  32  1   
 26  13  33  1   
 27  14  15  1   
 28  14  34  1   
 29  14  35  1   
 30  15  16  1   
 31  15  36  1   
 32  15  37  1   
 33  16  17  1   
 34  17  18  1   
 35  17  19  1   
 36  17  38  1   
 37  18  20  1   
 38  18  39  1   
 39  18  40  1   
 40  19  21  1   
 41  19  41  1   
 42  19  42  1   
 43  20  21  1   
 44  20  43  1   
 45  20  44  1   
 46  21  45  1   
 47  21  46  1   
@<TRIPOS>SUBSTRUCTURE
  1 ****  12 GROUP 4 **** **** 0

# MOE 2024.06 (io_trps.svl 2023.06)
