@<TRIPOS>MOLECULE
NONAME
45 48 1 0 0 
SMALL
USER_CHARGES


@<TRIPOS>ATOM
  1 F       -1.5820    -0.8270     1.8510 F     1 <1>  -0.3400 
  2 C       -1.2460    -1.7130     0.9250 C.3   1 <1>   1.2400 
  3 F        0.0700    -1.6710     0.7790 F     1 <1>  -0.3400 
  4 O       -1.6510    -3.0140     1.3310 O.3   1 <1>  -0.3620 
  5 O       -1.8860    -1.3990    -0.3030 O.3   1 <1>  -0.3620 
  6 C       -2.4900    -3.4300     0.3770 C.ar  1 <1>   0.0830 
  7 C       -2.6290    -2.4730    -0.5910 C.ar  1 <1>   0.0830 
  8 C       -3.1590    -4.6350     0.3060 C.ar  1 <1>  -0.1500 
  9 C       -3.4460    -2.6750    -1.6850 C.ar  1 <1>  -0.1500 
 10 C       -3.9970    -4.8580    -0.7850 C.ar  1 <1>  -0.1440 
 11 C       -4.1300    -3.8810    -1.7740 C.ar  1 <1>  -0.1500 
 12 C       -4.7640    -6.1640    -0.8980 C.3   1 <1>   0.4870 
 13 N       -5.8590    -6.1700     0.1120 N.4   1 <1>  -0.9590 
 14 C       -6.3860    -7.5730     0.2890 C.3   1 <1>   0.3430 
 15 C       -6.8960    -5.1400    -0.2370 C.3   1 <1>   0.3430 
 16 C       -7.5640    -7.7150     1.2760 C.3   1 <1>   0.1400 
 17 C       -7.6540    -4.7030     1.0190 C.3   1 <1>  -0.1600 
 18 N       -8.7370    -6.9420     0.7880 N.am  1 <1>  -0.6600 
 19 C       -8.8810    -5.5670     1.3350 C.3   1 <1>   0.1400 
 20 C       -9.5000    -7.3480    -0.2780 C.2   1 <1>   0.6300 
 21 O      -10.0370    -6.5450    -0.9990 O.2   1 <1>  -0.5700 
 22 C       -9.6230    -8.8280    -0.6270 C.3   1 <1>  -0.1000 
 23 C      -10.9830    -9.4470    -0.7780 C.3   1 <1>  -0.2000 
 24 C      -10.1090    -9.8450     0.3680 C.3   1 <1>  -0.2000 
 25 H       -3.0100    -5.3620     1.0850 H     1 <1>   0.1500 
 26 H       -3.5390    -1.9130    -2.4400 H     1 <1>   0.1500 
 27 H       -4.7660    -4.0460    -2.6290 H     1 <1>   0.1500 
 28 H       -4.0860    -6.9820    -0.7160 H     1 <1>   0.0800 
 29 H       -5.1700    -6.2730    -1.8900 H     1 <1>   0.0800 
 30 H       -5.4340    -5.8600     0.9930 H     1 <1>   0.4500 
 31 H       -5.5850    -8.2080     0.6310 H     1 <1>   0.0800 
 32 H       -6.7110    -7.9540    -0.6660 H     1 <1>   0.0800 
 33 H       -7.5830    -5.5170    -0.9780 H     1 <1>   0.0800 
 34 H       -6.4120    -4.2680    -0.6460 H     1 <1>   0.0800 
 35 H       -7.2750    -7.3750     2.2550 H     1 <1>   0.0800 
 36 H       -7.8280    -8.7540     1.3640 H     1 <1>   0.0800 
 37 H       -8.0100    -3.7000     0.8640 H     1 <1>   0.0800 
 38 H       -6.9960    -4.6650     1.8670 H     1 <1>   0.0800 
 39 H       -9.7570    -5.1030     0.9110 H     1 <1>   0.0800 
 40 H       -9.0370    -5.6160     2.4000 H     1 <1>   0.0800 
 41 H       -8.8950    -9.1250    -1.3580 H     1 <1>   0.1000 
 42 H      -11.1460   -10.1460    -1.5800 H     1 <1>   0.1000 
 43 H      -11.8480    -8.8340    -0.5870 H     1 <1>   0.1000 
 44 H      -10.4030    -9.5270     1.3540 H     1 <1>   0.1000 
 45 H       -9.6880   -10.8360     0.3620 H     1 <1>   0.1000 
@<TRIPOS>BOND
  1   1   2  1   
  2   2   3  1   
  3   2   4  1   
  4   2   5  1   
  5   4   6  1   
  6   5   7  1   
  7   6   7  ar  
  8   6   8  ar  
  9   7   9  ar  
 10   8  10  ar  
 11   8  25  1   
 12   9  11  ar  
 13   9  26  1   
 14  10  11  ar  
 15  10  12  1   
 16  11  27  1   
 17  12  13  1   
 18  12  28  1   
 19  12  29  1   
 20  13  14  1   
 21  13  15  1   
 22  13  30  1   
 23  14  16  1   
 24  14  31  1   
 25  14  32  1   
 26  15  17  1   
 27  15  33  1   
 28  15  34  1   
 29  16  18  1   
 30  16  35  1   
 31  16  36  1   
 32  17  19  1   
 33  17  37  1   
 34  17  38  1   
 35  18  19  1   
 36  18  20  am  
 37  19  39  1   
 38  19  40  1   
 39  20  21  2   
 40  20  22  1   
 41  22  23  1   
 42  22  24  1   
 43  22  41  1   
 44  23  24  1   
 45  23  42  1   
 46  23  43  1   
 47  24  44  1   
 48  24  45  1   
@<TRIPOS>SUBSTRUCTURE
  1 ****  13 GROUP 4 **** **** 0

# MOE 2024.06 (io_trps.svl 2023.06)
