@<TRIPOS>MOLECULE
NONAME
61 63 1 0 0 
SMALL
USER_CHARGES


@<TRIPOS>ATOM
  1 O       -1.1500     0.1050    -0.2360 O.2   1 <1>  -0.5700 
  2 C       -1.5740     1.2370    -0.2820 C.2   1 <1>   0.5690 
  3 N       -2.8400     1.4850    -0.7680 N.am  1 <1>  -0.6600 
  4 C       -0.6460     2.3910     0.2110 C.3   1 <1>   0.4840 
  5 C       -3.6330     0.3610    -1.3710 C.3   1 <1>   0.1400 
  6 C       -3.5040     2.8260    -0.8140 C.3   1 <1>   0.1400 
  7 N        0.5300     2.1250     1.1300 N.4   1 <1>  -0.9590 
  8 C       -0.0130     3.1780    -0.9360 C.3   1 <1>  -0.1600 
  9 C       -4.5020    -0.3550    -0.3250 C.3   1 <1>   0.1400 
 10 C       -4.9470     2.8280    -0.2850 C.3   1 <1>  -0.1600 
 11 C        1.3190     3.3840     1.1070 C.3   1 <1>   0.3430 
 12 C        1.3620     0.9460     0.7510 C.3   1 <1>   0.4810 
 13 C        1.1700     3.9260    -0.3130 C.3   1 <1>  -0.1600 
 14 N       -5.6430     0.4980     0.1360 N.am  1 <1>  -0.6600 
 15 C       -5.2620     1.7800     0.7890 C.3   1 <1>   0.1400 
 16 C        2.4010     0.7430     1.8330 C.2   1 <1>  -0.2880 
 17 C       -6.9740     0.1540     0.0130 C.2   1 <1>   0.5690 
 18 C        2.3340    -0.1840     2.7950 C.2   1 <1>  -0.3000 
 19 O       -7.8510     0.9270     0.3260 O.2   1 <1>  -0.5700 
 20 C       -7.4260    -1.1850    -0.5690 C.3   1 <1>   0.1810 
 21 O       -6.9120    -2.2850     0.1670 O.3   1 <1>  -0.3630 
 22 C       -7.2200    -3.5620    -0.1740 C.ar  1 <1>   0.0820 
 23 C       -6.6780    -4.5660     0.6100 C.ar  1 <1>  -0.1500 
 24 C       -8.0380    -3.9000    -1.2500 C.ar  1 <1>  -0.1500 
 25 C       -6.9360    -5.8980     0.3360 C.ar  1 <1>   0.0820 
 26 C       -8.3000    -5.2310    -1.5280 C.ar  1 <1>  -0.1500 
 27 O       -6.3620    -6.8140     1.1570 O.3   1 <1>  -0.3630 
 28 C       -7.7530    -6.2300    -0.7410 C.ar  1 <1>  -0.1500 
 29 C       -6.5770    -8.1970     0.9790 C.3   1 <1>   0.0400 
 30 H       -1.2890     3.0740     0.7370 H     1 <1>   0.0800 
 31 H       -4.2560     0.7280    -2.1680 H     1 <1>   0.0800 
 32 H       -2.9590    -0.3600    -1.8020 H     1 <1>   0.0800 
 33 H       -2.9460     3.5340    -0.2300 H     1 <1>   0.0800 
 34 H       -3.5070     3.1810    -1.8320 H     1 <1>   0.0800 
 35 H        0.1950     1.9210     2.0790 H     1 <1>   0.4500 
 36 H        0.3330     2.4960    -1.6950 H     1 <1>   0.0800 
 37 H       -0.7220     3.8520    -1.3850 H     1 <1>   0.0800 
 38 H       -3.8950    -0.6340     0.5190 H     1 <1>   0.0800 
 39 H       -4.8650    -1.2630    -0.7670 H     1 <1>   0.0800 
 40 H       -5.6370     2.7110    -1.1030 H     1 <1>   0.0800 
 41 H       -5.1410     3.8010     0.1290 H     1 <1>   0.0800 
 42 H        0.8930     4.0890     1.8030 H     1 <1>   0.0800 
 43 H        2.3530     3.2250     1.3650 H     1 <1>   0.0800 
 44 H        0.7560     0.0570     0.7120 H     1 <1>   0.0800 
 45 H        1.8270     1.0860    -0.2110 H     1 <1>   0.0800 
 46 H        0.9960     4.9880    -0.2820 H     1 <1>   0.0800 
 47 H        2.0710     3.7480    -0.8760 H     1 <1>   0.0800 
 48 H       -6.0820     2.1310     1.3940 H     1 <1>   0.0800 
 49 H       -4.4230     1.6280     1.4450 H     1 <1>   0.0800 
 50 H        3.2360     1.4190     1.7560 H     1 <1>   0.1500 
 51 H        3.0900    -0.3190     3.5530 H     1 <1>   0.1500 
 52 H        1.5310    -0.8930     2.9140 H     1 <1>   0.1500 
 53 H       -7.0910    -1.2660    -1.5860 H     1 <1>   0.0800 
 54 H       -8.4990    -1.2360    -0.5350 H     1 <1>   0.0800 
 55 H       -6.0500    -4.3100     1.4420 H     1 <1>   0.1500 
 56 H       -8.4810    -3.1520    -1.8790 H     1 <1>   0.1500 
 57 H       -8.9330    -5.4920    -2.3580 H     1 <1>   0.1500 
 58 H       -7.9730    -7.2530    -0.9790 H     1 <1>   0.1500 
 59 H       -6.0340    -8.7200     1.7450 H     1 <1>   0.0800 
 60 H       -6.2120    -8.4860     0.0100 H     1 <1>   0.0800 
 61 H       -7.6290    -8.4010     1.0740 H     1 <1>   0.0800 
@<TRIPOS>BOND
  1   1   2  2   
  2   2   3  am  
  3   2   4  1   
  4   3   5  1   
  5   3   6  1   
  6   4   7  1   
  7   4   8  1   
  8   4  30  1   
  9   5   9  1   
 10   5  31  1   
 11   5  32  1   
 12   6  10  1   
 13   6  33  1   
 14   6  34  1   
 15   7  11  1   
 16   7  12  1   
 17   7  35  1   
 18   8  13  1   
 19   8  36  1   
 20   8  37  1   
 21   9  14  1   
 22   9  38  1   
 23   9  39  1   
 24  10  15  1   
 25  10  40  1   
 26  10  41  1   
 27  11  13  1   
 28  11  42  1   
 29  11  43  1   
 30  12  16  1   
 31  12  44  1   
 32  12  45  1   
 33  13  46  1   
 34  13  47  1   
 35  14  15  1   
 36  14  17  am  
 37  15  48  1   
 38  15  49  1   
 39  16  18  2   
 40  16  50  1   
 41  17  19  2   
 42  17  20  1   
 43  18  51  1   
 44  18  52  1   
 45  20  21  1   
 46  20  53  1   
 47  20  54  1   
 48  21  22  1   
 49  22  23  ar  
 50  22  24  ar  
 51  23  25  ar  
 52  23  55  1   
 53  24  26  ar  
 54  24  56  1   
 55  25  27  1   
 56  25  28  ar  
 57  26  28  ar  
 58  26  57  1   
 59  27  29  1   
 60  28  58  1   
 61  29  59  1   
 62  29  60  1   
 63  29  61  1   
@<TRIPOS>SUBSTRUCTURE
  1 ****   9 GROUP 4 **** **** 0

# MOE 2024.06 (io_trps.svl 2023.06)
