@<TRIPOS>MOLECULE
NONAME
64 67 1 0 0 
SMALL
USER_CHARGES


@<TRIPOS>ATOM
  1 O        0.3000     0.3720     0.7360 O.3   1 <1>  -0.5600 
  2 C        0.1490    -1.0170     0.6220 C.3   1 <1>   0.1200 
  3 C        1.2490     0.8980    -0.1380 C.3   1 <1>   0.1200 
  4 C        1.4830    -1.7510     0.8900 C.3   1 <1>   0.2850 
  5 C        2.6250     0.2730     0.1560 C.3   1 <1>   0.1900 
  6 N        2.5690    -1.2080     0.0300 N.3   1 <1>  -0.8100 
  7 C        1.2900    -3.2520     0.6250 C.3   1 <1>  -0.1950 
  8 C        3.6870     0.8620    -0.7970 C.3   1 <1>   0.3430 
  9 C        3.8890    -1.8120     0.3060 C.3   1 <1>   0.1100 
 10 C        0.5200    -4.0990     1.5910 C.3   1 <1>  -0.2000 
 11 C        1.9950    -4.3080     1.4230 C.3   1 <1>  -0.2000 
 12 N        5.0490     0.2470    -0.5850 N.4   1 <1>  -0.9590 
 13 C        4.9730    -1.2530    -0.6370 C.3   1 <1>   0.3430 
 14 C        6.0500     0.7790    -1.5470 C.3   1 <1>   0.4860 
 15 C        6.2010     2.2720    -1.3220 C.ar  1 <1>  -0.1440 
 16 C        6.9270     2.7540    -0.2410 C.ar  1 <1>  -0.1500 
 17 C        5.6120     3.1710    -2.2000 C.ar  1 <1>  -0.1500 
 18 C        7.0560     4.1170    -0.0330 C.ar  1 <1>  -0.1500 
 19 C        5.7390     4.5320    -1.9920 C.ar  1 <1>  -0.1500 
 20 C        6.4590     5.0150    -0.9130 C.ar  1 <1>   0.0820 
 21 O        6.5380     6.3630    -0.7890 O.3   1 <1>  -0.3630 
 22 C        7.3610     6.9730     0.1740 C.3   1 <1>   0.1200 
 23 C        7.2590     8.4830    -0.0390 C.3   1 <1>  -0.1600 
 24 C        8.1250     9.2370     0.9680 C.3   1 <1>   0.3430 
 25 N        8.1000    10.7020     0.6840 N.4   1 <1>  -0.9590 
 26 C        9.1900    11.4020     1.4320 C.3   1 <1>   0.2630 
 27 C        6.7730    11.3230     1.0010 C.3   1 <1>   0.2630 
 28 H       -0.5920    -1.3250     1.3380 H     1 <1>   0.0800 
 29 H       -0.2140    -1.2440    -0.3650 H     1 <1>   0.0800 
 30 H        0.9350     0.6970    -1.1480 H     1 <1>   0.0800 
 31 H        1.2720     1.9620     0.0170 H     1 <1>   0.0800 
 32 H        1.7360    -1.6070     1.9280 H     1 <1>   0.0800 
 33 H        2.8900     0.5380     1.1650 H     1 <1>   0.0800 
 34 H        1.1100    -3.4500    -0.4180 H     1 <1>   0.1000 
 35 H        3.7400     1.9280    -0.6440 H     1 <1>   0.0800 
 36 H        3.3650     0.6870    -1.8100 H     1 <1>   0.0800 
 37 H        4.1670    -1.6410     1.3330 H     1 <1>   0.0800 
 38 H        3.8390    -2.8750     0.1490 H     1 <1>   0.0800 
 39 H        0.1680    -3.6730     2.5150 H     1 <1>   0.1000 
 40 H       -0.1530    -4.8450     1.2030 H     1 <1>   0.1000 
 41 H        2.3300    -5.2020     0.9240 H     1 <1>   0.1000 
 42 H        2.6370    -4.0280     2.2400 H     1 <1>   0.1000 
 43 H        5.3550     0.5250     0.3550 H     1 <1>   0.4500 
 44 H        4.7340    -1.5680    -1.6400 H     1 <1>   0.0800 
 45 H        5.9250    -1.6810    -0.3720 H     1 <1>   0.0800 
 46 H        7.0040     0.3000    -1.3950 H     1 <1>   0.0800 
 47 H        5.7320     0.5910    -2.5590 H     1 <1>   0.0800 
 48 H        7.4060     2.0800     0.4490 H     1 <1>   0.1500 
 49 H        5.0530     2.8290    -3.0560 H     1 <1>   0.1500 
 50 H        7.6230     4.4590     0.8120 H     1 <1>   0.1500 
 51 H        5.2850     5.2330    -2.6710 H     1 <1>   0.1500 
 52 H        7.0040     6.6900     1.1500 H     1 <1>   0.0800 
 53 H        8.3690     6.6240     0.0250 H     1 <1>   0.0800 
 54 H        7.5880     8.7060    -1.0390 H     1 <1>   0.0800 
 55 H        6.2270     8.7660     0.0710 H     1 <1>   0.0800 
 56 H        9.1380     8.8750     0.8920 H     1 <1>   0.0800 
 57 H        7.7740     9.0480     1.9700 H     1 <1>   0.0800 
 58 H        8.2770    10.8240    -0.3260 H     1 <1>   0.4500 
 59 H        9.0440    11.2960     2.4950 H     1 <1>   0.0800 
 60 H        9.1950    12.4530     1.1890 H     1 <1>   0.0800 
 61 H       10.1500    10.9880     1.1710 H     1 <1>   0.0800 
 62 H        6.5350    11.1870     2.0440 H     1 <1>   0.0800 
 63 H        5.9930    10.8720     0.4080 H     1 <1>   0.0800 
 64 H        6.7930    12.3790     0.7870 H     1 <1>   0.0800 
@<TRIPOS>BOND
  1   1   2  1   
  2   1   3  1   
  3   2   4  1   
  4   2  28  1   
  5   2  29  1   
  6   3   5  1   
  7   3  30  1   
  8   3  31  1   
  9   4   6  1   
 10   4   7  1   
 11   4  32  1   
 12   5   6  1   
 13   5   8  1   
 14   5  33  1   
 15   6   9  1   
 16   7  10  1   
 17   7  11  1   
 18   7  34  1   
 19   8  12  1   
 20   8  35  1   
 21   8  36  1   
 22   9  13  1   
 23   9  37  1   
 24   9  38  1   
 25  10  11  1   
 26  10  39  1   
 27  10  40  1   
 28  11  41  1   
 29  11  42  1   
 30  12  13  1   
 31  12  14  1   
 32  12  43  1   
 33  13  44  1   
 34  13  45  1   
 35  14  15  1   
 36  14  46  1   
 37  14  47  1   
 38  15  16  ar  
 39  15  17  ar  
 40  16  18  ar  
 41  16  48  1   
 42  17  19  ar  
 43  17  49  1   
 44  18  20  ar  
 45  18  50  1   
 46  19  20  ar  
 47  19  51  1   
 48  20  21  1   
 49  21  22  1   
 50  22  23  1   
 51  22  52  1   
 52  22  53  1   
 53  23  24  1   
 54  23  54  1   
 55  23  55  1   
 56  24  25  1   
 57  24  56  1   
 58  24  57  1   
 59  25  26  1   
 60  25  27  1   
 61  25  58  1   
 62  26  59  1   
 63  26  60  1   
 64  26  61  1   
 65  27  62  1   
 66  27  63  1   
 67  27  64  1   
@<TRIPOS>SUBSTRUCTURE
  1 ****  15 GROUP 4 **** **** 0

# MOE 2024.06 (io_trps.svl 2023.06)
