@<TRIPOS>MOLECULE
NONAME
56 58 1 0 0 
SMALL
USER_CHARGES


@<TRIPOS>ATOM
  1 O        0.7840     0.0750    -0.4860 O.3   1 <1>  -0.6800 
  2 C        1.8330    -0.6700    -1.0130 C.3   1 <1>   0.2000 
  3 C        2.3320    -1.6210     0.0790 C.3   1 <1>  -0.0800 
  4 C        3.0110     0.2790    -1.2290 C.3   1 <1>   0.3430 
  5 C        3.4210    -0.8220     0.8240 C.3   1 <1>   0.3430 
  6 C        2.8850    -2.9320    -0.5200 C.3   1 <1>  -0.0160 
  7 N        3.5300     0.5000     0.1450 N.4   1 <1>  -0.9590 
  8 C        3.3290    -3.9160     0.5540 C.ar  1 <1>   0.1670 
  9 C        4.8940     1.0990     0.2330 C.3   1 <1>   0.3430 
 10 N        4.4370    -3.6070     1.2090 N.ar  1 <1>  -0.6200 
 11 C        2.5850    -5.0700     0.8000 C.ar  1 <1>   0.1600 
 12 C        4.9270     2.5210    -0.3290 C.3   1 <1>  -0.0220 
 13 C        4.7540    -4.5250     2.1110 C.ar  1 <1>   0.1600 
 14 N        2.8950    -5.9780     1.7070 N.ar  1 <1>  -0.6200 
 15 C        6.3430     3.0800    -0.1740 C.2   1 <1>  -0.2760 
 16 C        4.0070    -5.6720     2.3520 C.ar  1 <1>   0.1600 
 17 C        7.3520     2.6680    -0.9660 C.2   1 <1>  -0.2760 
 18 C        6.5330     4.1160     0.9630 C.3   1 <1>   0.1380 
 19 C        8.7950     3.1340    -0.7940 C.3   1 <1>  -0.0220 
 20 C        7.2550     1.6950    -2.1400 C.3   1 <1>  -0.1020 
 21 C        7.9410     4.7510     0.9040 C.3   1 <1>  -0.1600 
 22 C        5.5350     5.2850     0.8550 C.3   1 <1>  -0.2400 
 23 C        6.3430     3.4230     2.3220 C.3   1 <1>  -0.2400 
 24 C        9.0410     3.7390     0.5870 C.3   1 <1>  -0.1600 
 25 H       -0.0490    -0.4440    -0.4580 H     1 <1>   0.4000 
 26 H        1.5040    -1.1500    -1.9200 H     1 <1>   0.0800 
 27 H        1.5370    -1.8740     0.7600 H     1 <1>   0.0800 
 28 H        2.6920     1.1960    -1.6970 H     1 <1>   0.0800 
 29 H        3.7610    -0.2010    -1.8350 H     1 <1>   0.0800 
 30 H        4.3640    -1.3390     0.7600 H     1 <1>   0.0800 
 31 H        3.1640    -0.7000     1.8640 H     1 <1>   0.0800 
 32 H        3.7240    -2.7270    -1.1620 H     1 <1>   0.0800 
 33 H        2.1240    -3.3940    -1.1250 H     1 <1>   0.0800 
 34 H        2.8400     1.1200     0.5990 H     1 <1>   0.4500 
 35 H        5.2080     1.1320     1.2640 H     1 <1>   0.0800 
 36 H        5.6020     0.4890    -0.3040 H     1 <1>   0.0800 
 37 H        1.6950    -5.2550     0.2250 H     1 <1>   0.1500 
 38 H        4.6620     2.5260    -1.3690 H     1 <1>   0.0800 
 39 H        4.1980     3.1140     0.1860 H     1 <1>   0.0800 
 40 H        5.6480    -4.3670     2.6890 H     1 <1>   0.1500 
 41 H        4.3430    -6.3610     3.1070 H     1 <1>   0.1500 
 42 H        9.4730     2.3070    -0.9200 H     1 <1>   0.0800 
 43 H        9.0200     3.8630    -1.5540 H     1 <1>   0.0800 
 44 H        7.6240     2.1720    -3.0320 H     1 <1>   0.0800 
 45 H        6.2560     1.3670    -2.3400 H     1 <1>   0.0800 
 46 H        7.8600     0.8270    -1.9490 H     1 <1>   0.0800 
 47 H        7.9590     5.5010     0.1320 H     1 <1>   0.0800 
 48 H        8.1660     5.2480     1.8320 H     1 <1>   0.0800 
 49 H        5.8180     6.0790     1.5240 H     1 <1>   0.0800 
 50 H        4.5350     4.9970     1.1170 H     1 <1>   0.0800 
 51 H        5.5320     5.6740    -0.1470 H     1 <1>   0.0800 
 52 H        6.5570     4.1060     3.1250 H     1 <1>   0.0800 
 53 H        7.0050     2.5810     2.4090 H     1 <1>   0.0800 
 54 H        5.3330     3.0800     2.4430 H     1 <1>   0.0800 
 55 H       10.0010     4.2240     0.6010 H     1 <1>   0.0800 
 56 H        9.0500     2.9590     1.3270 H     1 <1>   0.0800 
@<TRIPOS>BOND
  1   1   2  1   
  2   1  25  1   
  3   2   3  1   
  4   2   4  1   
  5   2  26  1   
  6   3   5  1   
  7   3   6  1   
  8   3  27  1   
  9   4   7  1   
 10   4  28  1   
 11   4  29  1   
 12   5   7  1   
 13   5  30  1   
 14   5  31  1   
 15   6   8  1   
 16   6  32  1   
 17   6  33  1   
 18   7   9  1   
 19   7  34  1   
 20   8  10  ar  
 21   8  11  ar  
 22   9  12  1   
 23   9  35  1   
 24   9  36  1   
 25  10  13  ar  
 26  11  14  ar  
 27  11  37  1   
 28  12  15  1   
 29  12  38  1   
 30  12  39  1   
 31  13  16  ar  
 32  13  40  1   
 33  14  16  ar  
 34  15  17  2   
 35  15  18  1   
 36  16  41  1   
 37  17  19  1   
 38  17  20  1   
 39  18  21  1   
 40  18  22  1   
 41  18  23  1   
 42  19  24  1   
 43  19  42  1   
 44  19  43  1   
 45  20  44  1   
 46  20  45  1   
 47  20  46  1   
 48  21  24  1   
 49  21  47  1   
 50  21  48  1   
 51  22  49  1   
 52  22  50  1   
 53  22  51  1   
 54  23  52  1   
 55  23  53  1   
 56  23  54  1   
 57  24  55  1   
 58  24  56  1   
@<TRIPOS>SUBSTRUCTURE
  1 ****   9 GROUP 4 **** **** 0

# MOE 2024.06 (io_trps.svl 2023.06)
