@<TRIPOS>MOLECULE
NONAME
42 43 1 0 0 
SMALL
USER_CHARGES


@<TRIPOS>ATOM
  1 S       -1.0830     0.9050     1.2690 S.o2  1 <1>   1.4470 
  2 O       -1.0140     0.0090     2.4030 O.2   1 <1>  -0.6500 
  3 O       -1.8650     2.1190     1.3990 O.2   1 <1>  -0.6500 
  4 N       -1.7040     0.0710    -0.0750 N.am  1 <1>  -0.8490 
  5 C        0.5950     1.3700     0.7520 C.ar  1 <1>  -0.0090 
  6 C       -1.0180    -1.1860    -0.4420 C.3   1 <1>   0.1960 
  7 C       -3.1650    -0.0440    -0.1100 C.3   1 <1>   0.1960 
  8 C        1.6940     0.5820     1.0760 C.ar  1 <1>  -0.1500 
  9 C        0.8230     2.5140    -0.0040 C.ar  1 <1>  -0.1500 
 10 C       -1.4900    -2.3990     0.3700 C.3   1 <1>  -0.1860 
 11 C       -3.6710    -1.2000     0.7560 C.3   1 <1>  -0.1600 
 12 C        2.9710     0.9260     0.6680 C.ar  1 <1>  -0.1500 
 13 C        2.0980     2.8660    -0.4130 C.ar  1 <1>  -0.1500 
 14 C       -0.8540    -3.6650    -0.1610 C.2   1 <1>   0.9060 
 15 C       -3.0120    -2.5000     0.3100 C.3   1 <1>   0.2000 
 16 C        3.1820     2.0720    -0.0800 C.ar  1 <1>  -0.1440 
 17 O        0.0470    -3.5860    -1.0020 O.co2 1 <1>  -0.9000 
 18 O       -1.2690    -4.7540     0.2580 O.co2 1 <1>  -0.9000 
 19 O       -3.4270    -3.5120     1.1440 O.3   1 <1>  -0.6800 
 20 C        4.5840     2.4510    -0.5300 C.3   1 <1>  -0.0170 
 21 C        5.2710     3.3260     0.5250 C.3   1 <1>  -0.1600 
 22 C        6.6880     3.7210     0.0960 C.3   1 <1>  -0.2400 
 23 H       -1.2100    -1.3820    -1.4840 H     1 <1>   0.0800 
 24 H        0.0490    -1.0780    -0.3420 H     1 <1>   0.0800 
 25 H       -3.6210     0.8790     0.2070 H     1 <1>   0.0800 
 26 H       -3.4670    -0.2170    -1.1290 H     1 <1>   0.0800 
 27 H        1.5470    -0.3150     1.6540 H     1 <1>   0.1500 
 28 H       -0.0130     3.1380    -0.2730 H     1 <1>   0.1500 
 29 H       -1.1730    -2.2930     1.3880 H     1 <1>   0.0800 
 30 H       -4.7360    -1.2860     0.6480 H     1 <1>   0.0800 
 31 H       -3.4450    -1.0070     1.7890 H     1 <1>   0.0800 
 32 H        3.8000     0.2930     0.9350 H     1 <1>   0.1500 
 33 H        2.2420     3.7610    -0.9930 H     1 <1>   0.1500 
 34 H       -3.3200    -2.7570    -0.6900 H     1 <1>   0.0800 
 35 H       -2.7760    -4.2590     0.9970 H     1 <1>   0.4000 
 36 H        5.1620     1.5580    -0.6940 H     1 <1>   0.0800 
 37 H        4.5320     2.9820    -1.4640 H     1 <1>   0.0800 
 38 H        4.6840     4.2140     0.6860 H     1 <1>   0.0800 
 39 H        5.3160     2.7880     1.4570 H     1 <1>   0.0800 
 40 H        6.6620     4.2810    -0.8230 H     1 <1>   0.0800 
 41 H        7.2970     2.8460    -0.0470 H     1 <1>   0.0800 
 42 H        7.1430     4.3330     0.8540 H     1 <1>   0.0800 
@<TRIPOS>BOND
  1   1   2  2   
  2   1   3  2   
  3   1   4  am  
  4   1   5  1   
  5   4   6  1   
  6   4   7  1   
  7   5   8  ar  
  8   5   9  ar  
  9   6  10  1   
 10   6  23  1   
 11   6  24  1   
 12   7  11  1   
 13   7  25  1   
 14   7  26  1   
 15   8  12  ar  
 16   8  27  1   
 17   9  13  ar  
 18   9  28  1   
 19  10  14  1   
 20  10  15  1   
 21  10  29  1   
 22  11  15  1   
 23  11  30  1   
 24  11  31  1   
 25  12  16  ar  
 26  12  32  1   
 27  13  16  ar  
 28  13  33  1   
 29  14  17  ar  
 30  14  18  ar  
 31  15  19  1   
 32  15  34  1   
 33  16  20  1   
 34  19  35  1   
 35  20  21  1   
 36  20  36  1   
 37  20  37  1   
 38  21  22  1   
 39  21  38  1   
 40  21  39  1   
 41  22  40  1   
 42  22  41  1   
 43  22  42  1   
@<TRIPOS>SUBSTRUCTURE
  1 ****   5 GROUP 4 **** **** 0

# MOE 2024.06 (io_trps.svl 2023.06)
