@<TRIPOS>MOLECULE
NONAME
51 53 1 0 0 
SMALL
USER_CHARGES


@<TRIPOS>ATOM
  1 CL      -1.6970    -0.6130     1.6910 Cl    1 <1>  -0.1770 
  2 C       -1.9070    -1.9450     0.5810 C.ar  1 <1>   0.1770 
  3 C       -1.6300    -3.2240     0.9960 C.ar  1 <1>  -0.1500 
  4 C       -2.3600    -1.6670    -0.7130 C.ar  1 <1>  -0.1500 
  5 C       -1.8160    -4.2780     0.0930 C.ar  1 <1>   0.0000 
  6 C       -2.5400    -2.6950    -1.6090 C.ar  1 <1>  -0.1500 
  7 C       -2.2690    -4.0030    -1.1940 C.ar  1 <1>  -0.1520 
  8 C       -1.6440    -5.6730     0.1660 C.2   1 <1>  -0.1810 
  9 N       -2.3570    -5.1870    -1.8730 N.pl3 1 <1>   0.0330 
 10 C       -2.0300    -6.2190    -1.0290 C.2   1 <1>  -0.2370 
 11 C       -1.0630    -6.3800     1.3790 C.3   1 <1>  -0.0590 
 12 C       -2.1200    -7.5760    -1.5010 C.2   1 <1>   0.7150 
 13 O       -1.5850    -7.8660    -2.5510 O.2   1 <1>  -0.5700 
 14 N       -2.8960    -8.5140    -0.8600 N.am  1 <1>  -0.6600 
 15 C       -3.0090    -9.8770    -1.4910 C.3   1 <1>   0.3210 
 16 C       -3.8740    -8.1390     0.2090 C.3   1 <1>   0.1400 
 17 C       -3.9770   -10.8370    -0.7960 C.2   1 <1>   0.0460 
 18 C       -5.1750    -7.6090    -0.4220 C.3   1 <1>   0.3430 
 19 N       -5.3170   -10.6730    -0.8900 N.2   1 <1>  -0.5650 
 20 C       -3.6820   -11.9310    -0.0520 C.2   1 <1>  -0.3320 
 21 N       -5.8550    -6.5580     0.4120 N.4   1 <1>  -0.9590 
 22 C       -5.8000   -11.6720    -0.2250 C.2   1 <1>   0.0360 
 23 N       -4.8580   -12.4720     0.3120 N.pl3 1 <1>   0.0330 
 24 C       -2.3480   -12.5410     0.3500 C.3   1 <1>  -0.0600 
 25 C       -7.2320    -6.3170    -0.1150 C.3   1 <1>   0.2630 
 26 C       -5.0760    -5.2760     0.4450 C.3   1 <1>   0.2630 
 27 H       -1.2730    -3.4170     1.9910 H     1 <1>   0.1500 
 28 H       -2.5540    -0.6450    -0.9870 H     1 <1>   0.1500 
 29 H       -2.8770    -2.5020    -2.6130 H     1 <1>   0.1500 
 30 H       -2.5090    -5.2910    -2.8840 H     1 <1>   0.2700 
 31 H       -0.0850    -5.9840     1.5910 H     1 <1>   0.0800 
 32 H       -0.9650    -7.4350     1.1950 H     1 <1>   0.0800 
 33 H       -1.6890    -6.2280     2.2390 H     1 <1>   0.0800 
 34 H       -2.0300   -10.3200    -1.5170 H     1 <1>   0.0800 
 35 H       -3.3310    -9.7640    -2.5120 H     1 <1>   0.0800 
 36 H       -3.4410    -7.3880     0.8370 H     1 <1>   0.0800 
 37 H       -4.0850    -8.9820     0.8420 H     1 <1>   0.0800 
 38 H       -5.8450    -8.4380    -0.5720 H     1 <1>   0.0800 
 39 H       -4.9430    -7.1940    -1.3880 H     1 <1>   0.0800 
 40 H       -5.9420    -6.9230     1.3730 H     1 <1>   0.4500 
 41 H       -6.8510   -11.8710    -0.1010 H     1 <1>   0.1500 
 42 H       -5.0110   -13.3220     0.8650 H     1 <1>   0.2700 
 43 H       -1.5280   -11.9430    -0.0030 H     1 <1>   0.0800 
 44 H       -2.2520   -13.5280    -0.0670 H     1 <1>   0.0800 
 45 H       -2.2790   -12.6090     1.4220 H     1 <1>   0.0800 
 46 H       -7.1870    -5.9410    -1.1240 H     1 <1>   0.0800 
 47 H       -7.7480    -5.5970     0.4990 H     1 <1>   0.0800 
 48 H       -7.7980    -7.2360    -0.1150 H     1 <1>   0.0800 
 49 H       -4.9330    -4.8950    -0.5540 H     1 <1>   0.0800 
 50 H       -4.1070    -5.4300     0.8890 H     1 <1>   0.0800 
 51 H       -5.6000    -4.5330     1.0240 H     1 <1>   0.0800 
@<TRIPOS>BOND
  1   1   2  1   
  2   2   3  ar  
  3   2   4  ar  
  4   3   5  ar  
  5   3  27  1   
  6   4   6  ar  
  7   4  28  1   
  8   5   7  ar  
  9   5   8  1   
 10   6   7  ar  
 11   6  29  1   
 12   7   9  1   
 13   8  10  2   
 14   8  11  1   
 15   9  10  1   
 16   9  30  1   
 17  10  12  1   
 18  11  31  1   
 19  11  32  1   
 20  11  33  1   
 21  12  13  2   
 22  12  14  am  
 23  14  15  1   
 24  14  16  1   
 25  15  17  1   
 26  15  34  1   
 27  15  35  1   
 28  16  18  1   
 29  16  36  1   
 30  16  37  1   
 31  17  19  1   
 32  17  20  2   
 33  18  21  1   
 34  18  38  1   
 35  18  39  1   
 36  19  22  2   
 37  20  23  1   
 38  20  24  1   
 39  21  25  1   
 40  21  26  1   
 41  21  40  1   
 42  22  23  1   
 43  22  41  1   
 44  23  42  1   
 45  24  43  1   
 46  24  44  1   
 47  24  45  1   
 48  25  46  1   
 49  25  47  1   
 50  25  48  1   
 51  26  49  1   
 52  26  50  1   
 53  26  51  1   
@<TRIPOS>SUBSTRUCTURE
  1 ****  16 GROUP 4 **** **** 0

# MOE 2024.06 (io_trps.svl 2023.06)
