@<TRIPOS>MOLECULE
NONAME
48 51 1 0 0 
SMALL
USER_CHARGES


@<TRIPOS>ATOM
  1 O       -2.8650     0.9870    -0.8180 O.3   1 <1>  -0.0190 
  2 N       -1.8640     1.5630    -1.4010 N.2   1 <1>  -0.4100 
  3 C       -2.6790     1.2280     0.4530 C.2   1 <1>   0.2980 
  4 C       -1.1360     2.1090    -0.4910 C.2   1 <1>   0.4620 
  5 N       -1.6450     1.9130     0.7300 N.2   1 <1>  -0.5650 
  6 C       -3.7000     0.6900     1.4500 C.3   1 <1>   0.3890 
  7 C        0.0870     2.8540    -0.7170 C.ar  1 <1>   0.0540 
  8 N       -3.6990    -0.8140     1.5160 N.pl3 1 <1>  -0.8380 
  9 C        0.5850     3.0460    -2.0070 C.ar  1 <1>   0.1600 
 10 C        0.8220     3.4110     0.3240 C.ar  1 <1>  -0.1500 
 11 C       -4.3070    -1.6340     0.6070 C.ar  1 <1>   0.4100 
 12 C       -2.7580    -1.3360     2.5630 C.3   1 <1>   0.1290 
 13 N        1.6870     3.7070    -2.3270 N.ar  1 <1>  -0.6200 
 14 C        1.9720     4.1030     0.0140 C.ar  1 <1>  -0.1500 
 15 N       -4.0470    -2.9260     0.6860 N.ar  1 <1>  -0.6200 
 16 C       -5.1720    -1.1400    -0.3940 C.ar  1 <1>  -0.1500 
 17 C        2.3570     4.2210    -1.3090 C.ar  1 <1>   0.1600 
 18 C       -4.5960    -3.7480    -0.1960 C.ar  1 <1>   0.7710 
 19 C       -5.7210    -1.9950    -1.2900 C.ar  1 <1>   0.2180 
 20 N       -5.4090    -3.3040    -1.1660 N.ar  1 <1>  -0.1790 
 21 N       -4.3280    -5.0740    -0.1220 N.pl3 1 <1>  -0.8380 
 22 C       -6.6530    -1.5620    -2.4090 C.3   1 <1>  -0.0970 
 23 C       -4.8630    -6.1800    -0.9620 C.3   1 <1>   0.2090 
 24 C       -3.4040    -5.6230     0.9110 C.3   1 <1>   0.2090 
 25 C       -4.4640    -7.4570    -0.2350 C.3   1 <1>  -0.1600 
 26 C       -3.2020    -7.0830     0.5320 C.3   1 <1>  -0.1600 
 27 H       -4.6770     1.0540     1.1940 H     1 <1>   0.0800 
 28 H       -3.4680     1.0920     2.4210 H     1 <1>   0.0800 
 29 H        0.0330     2.6230    -2.8290 H     1 <1>   0.1500 
 30 H        0.5020     3.3050     1.3460 H     1 <1>   0.1500 
 31 H       -2.8560    -0.7680     3.4720 H     1 <1>   0.0800 
 32 H       -1.7440    -1.2580     2.2090 H     1 <1>   0.0800 
 33 H       -2.9630    -2.3650     2.8010 H     1 <1>   0.0800 
 34 H        2.5690     4.5480     0.7890 H     1 <1>   0.1500 
 35 H       -5.3880    -0.0930    -0.4450 H     1 <1>   0.1500 
 36 H        3.2570     4.7640    -1.5430 H     1 <1>   0.1500 
 37 H       -5.7620    -4.0130    -1.7950 H     1 <1>   0.4570 
 38 H       -6.8040    -0.4970    -2.3830 H     1 <1>   0.0800 
 39 H       -7.6120    -2.0390    -2.3070 H     1 <1>   0.0800 
 40 H       -6.2340    -1.8170    -3.3670 H     1 <1>   0.0800 
 41 H       -4.3920    -6.1560    -1.9310 H     1 <1>   0.0800 
 42 H       -5.9340    -6.1250    -1.0650 H     1 <1>   0.0800 
 43 H       -3.8690    -5.5500     1.8800 H     1 <1>   0.0800 
 44 H       -2.4670    -5.0900     0.9230 H     1 <1>   0.0800 
 45 H       -4.3020    -8.2750    -0.9160 H     1 <1>   0.0800 
 46 H       -5.2430    -7.7290     0.4560 H     1 <1>   0.0800 
 47 H       -3.0480    -7.7030     1.3980 H     1 <1>   0.0800 
 48 H       -2.3420    -7.1630    -0.1110 H     1 <1>   0.0800 
@<TRIPOS>BOND
  1   1   2  1   
  2   1   3  1   
  3   2   4  2   
  4   3   5  2   
  5   3   6  1   
  6   4   5  1   
  7   4   7  1   
  8   6   8  1   
  9   6  27  1   
 10   6  28  1   
 11   7   9  ar  
 12   7  10  ar  
 13   8  11  1   
 14   8  12  1   
 15   9  13  ar  
 16   9  29  1   
 17  10  14  ar  
 18  10  30  1   
 19  11  15  ar  
 20  11  16  ar  
 21  12  31  1   
 22  12  32  1   
 23  12  33  1   
 24  13  17  ar  
 25  14  17  ar  
 26  14  34  1   
 27  15  18  ar  
 28  16  19  ar  
 29  16  35  1   
 30  17  36  1   
 31  18  20  ar  
 32  18  21  1   
 33  19  20  ar  
 34  19  22  1   
 35  20  37  1   
 36  21  23  1   
 37  21  24  1   
 38  22  38  1   
 39  22  39  1   
 40  22  40  1   
 41  23  25  1   
 42  23  41  1   
 43  23  42  1   
 44  24  26  1   
 45  24  43  1   
 46  24  44  1   
 47  25  26  1   
 48  25  45  1   
 49  25  46  1   
 50  26  47  1   
 51  26  48  1   
@<TRIPOS>SUBSTRUCTURE
  1 ****   1 GROUP 4 **** **** 0

# MOE 2024.06 (io_trps.svl 2023.06)
