@<TRIPOS>MOLECULE
NONAME
51 53 1 0 0 
SMALL
USER_CHARGES


@<TRIPOS>ATOM
  1 CL      -3.0870    -0.8540     1.6950 Cl    1 <1>  -0.1770 
  2 C       -2.9080     0.6470     0.8210 C.ar  1 <1>   0.1770 
  3 C       -2.4380     1.7630     1.4820 C.ar  1 <1>  -0.1500 
  4 C       -3.2370     0.6870    -0.5210 C.ar  1 <1>  -0.1500 
  5 C       -2.2790     2.9710     0.8040 C.ar  1 <1>   0.0860 
  6 C       -3.0980     1.8800    -1.2070 C.ar  1 <1>  -0.1500 
  7 C       -2.6380     3.0130    -0.5510 C.ar  1 <1>   0.0830 
  8 C       -1.7410     4.1160     1.5010 C.2   1 <1>   0.5440 
  9 O       -2.5400     4.1450    -1.2770 O.3   1 <1>  -0.3630 
 10 O       -2.4660     4.7480     2.2460 O.2   1 <1>  -0.5700 
 11 N       -0.4270     4.5050     1.3520 N.am  1 <1>  -0.6600 
 12 C       -3.4610     5.1800    -1.0000 C.3   1 <1>   0.0400 
 13 C        0.5660     3.7960     0.4820 C.3   1 <1>   0.1400 
 14 C        0.1150     5.6980     2.0540 C.3   1 <1>   0.1400 
 15 C        0.8630     4.5560    -0.8210 C.3   1 <1>   0.1400 
 16 C       -0.1430     6.9790     1.2490 C.3   1 <1>  -0.1600 
 17 N        1.2580     5.9790    -0.5710 N.am  1 <1>  -0.6600 
 18 C        0.1000     6.8650    -0.2640 C.3   1 <1>   0.1400 
 19 C        2.5790     6.3550    -0.5940 C.2   1 <1>   0.5690 
 20 O        3.4510     5.5390    -0.7880 O.2   1 <1>  -0.5700 
 21 C        2.9960     7.8150    -0.3870 C.3   1 <1>  -0.0190 
 22 C        3.0940     8.5330    -1.7440 C.3   1 <1>  -0.0220 
 23 C        4.3210     7.9590     0.3920 C.3   1 <1>  -0.1600 
 24 C        3.6960     9.9210    -1.5900 C.2   1 <1>  -0.2880 
 25 C        4.6360     9.4320     0.6990 C.3   1 <1>  -0.0220 
 26 C        4.3670    10.3190    -0.5060 C.2   1 <1>  -0.2880 
 27 H       -2.1900     1.7020     2.5260 H     1 <1>   0.1500 
 28 H       -3.5960    -0.1990    -1.0130 H     1 <1>   0.1500 
 29 H       -3.3490     1.9400    -2.2510 H     1 <1>   0.1500 
 30 H       -3.4070     5.9000    -1.7960 H     1 <1>   0.0800 
 31 H       -3.2040     5.6500    -0.0680 H     1 <1>   0.0800 
 32 H       -4.4520     4.7640    -0.9470 H     1 <1>   0.0800 
 33 H        0.2120     2.8120     0.2350 H     1 <1>   0.0800 
 34 H        1.4870     3.6720     1.0250 H     1 <1>   0.0800 
 35 H        1.1750     5.5740     2.1990 H     1 <1>   0.0800 
 36 H       -0.3370     5.7850     3.0280 H     1 <1>   0.0800 
 37 H       -0.0030     4.5280    -1.4570 H     1 <1>   0.0800 
 38 H        1.6510     4.0430    -1.3460 H     1 <1>   0.0800 
 39 H        0.4720     7.7600     1.6530 H     1 <1>   0.0800 
 40 H       -1.1640     7.2790     1.4060 H     1 <1>   0.0800 
 41 H        0.2480     7.8410    -0.6910 H     1 <1>   0.0800 
 42 H       -0.7820     6.4530    -0.7220 H     1 <1>   0.0800 
 43 H        2.2490     8.3130     0.1980 H     1 <1>   0.0800 
 44 H        2.1110     8.6120    -2.1740 H     1 <1>   0.0800 
 45 H        3.7080     7.9600    -2.4180 H     1 <1>   0.0800 
 46 H        5.1190     7.5460    -0.2000 H     1 <1>   0.0800 
 47 H        4.2710     7.4010     1.3110 H     1 <1>   0.0800 
 48 H        3.5340    10.5550    -2.4460 H     1 <1>   0.1500 
 49 H        5.6690     9.5160     0.9880 H     1 <1>   0.0800 
 50 H        4.0310     9.7710     1.5220 H     1 <1>   0.0800 
 51 H        4.7760    11.3100    -0.4020 H     1 <1>   0.1500 
@<TRIPOS>BOND
  1   1   2  1   
  2   2   3  ar  
  3   2   4  ar  
  4   3   5  ar  
  5   3  27  1   
  6   4   6  ar  
  7   4  28  1   
  8   5   7  ar  
  9   5   8  1   
 10   6   7  ar  
 11   6  29  1   
 12   7   9  1   
 13   8  10  2   
 14   8  11  am  
 15   9  12  1   
 16  11  13  1   
 17  11  14  1   
 18  12  30  1   
 19  12  31  1   
 20  12  32  1   
 21  13  15  1   
 22  13  33  1   
 23  13  34  1   
 24  14  16  1   
 25  14  35  1   
 26  14  36  1   
 27  15  17  1   
 28  15  37  1   
 29  15  38  1   
 30  16  18  1   
 31  16  39  1   
 32  16  40  1   
 33  17  18  1   
 34  17  19  am  
 35  18  41  1   
 36  18  42  1   
 37  19  20  2   
 38  19  21  1   
 39  21  22  1   
 40  21  23  1   
 41  21  43  1   
 42  22  24  1   
 43  22  44  1   
 44  22  45  1   
 45  23  25  1   
 46  23  46  1   
 47  23  47  1   
 48  24  26  2   
 49  24  48  1   
 50  25  26  1   
 51  25  49  1   
 52  25  50  1   
 53  26  51  1   
@<TRIPOS>SUBSTRUCTURE
  1 ****  15 GROUP 4 **** **** 0

# MOE 2024.06 (io_trps.svl 2023.06)
