@<TRIPOS>MOLECULE
NONAME
48 51 1 0 0 
SMALL
USER_CHARGES


@<TRIPOS>ATOM
  1 O        1.0050     0.6320     0.5600 O.3   1 <1>  -0.6800 
  2 C        1.9190     0.2190    -0.4060 C.3   1 <1>   0.2000 
  3 C        2.6000    -1.0520     0.0980 C.3   1 <1>  -0.0800 
  4 C        3.0630     1.2340    -0.4540 C.3   1 <1>   0.3430 
  5 C        3.6620    -0.5250     1.0780 C.3   1 <1>   0.3430 
  6 C        3.2230    -1.8600    -1.0620 C.3   1 <1>  -0.0170 
  7 N        3.9330     0.8950     0.7070 N.4   1 <1>  -0.9590 
  8 C        3.7710    -3.2030    -0.5960 C.ar  1 <1>   0.1670 
  9 C        3.6930     1.8260     1.8310 C.3   1 <1>   0.5240 
 10 N        4.8780    -3.1650     0.1270 N.ar  1 <1>  -0.6200 
 11 C        3.1140    -4.3850    -0.9360 C.ar  1 <1>   0.1600 
 12 C        4.3550     3.1400     1.4850 C.2   1 <1>  -0.1810 
 13 C        5.2860    -4.3770     0.4750 C.ar  1 <1>   0.1600 
 14 N        3.5140    -5.5930    -0.5800 N.ar  1 <1>  -0.6200 
 15 C        5.4970     3.3350     0.7720 C.2   1 <1>  -0.0260 
 16 C        3.9280     4.4080     1.8400 C.2   1 <1>   0.1390 
 17 C        4.6260    -5.5510     0.1340 C.ar  1 <1>   0.1600 
 18 N        6.3380     2.4210     0.1680 N.2   1 <1>  -0.5760 
 19 N        5.7000     4.6980     0.7430 N.pl3 1 <1>   0.6010 
 20 N        4.7140     5.3480     1.4010 N.2   1 <1>  -0.7070 
 21 C        7.3740     2.9110    -0.4340 C.2   1 <1>   0.3750 
 22 C        6.8130     5.2050     0.0870 C.2   1 <1>  -0.1690 
 23 C        7.6500     4.3080    -0.4990 C.2   1 <1>  -0.1360 
 24 C        8.3420     1.9640    -1.1070 C.3   1 <1>  -0.1790 
 25 C        7.0240     6.7140     0.0700 C.3   1 <1>  -0.1020 
 26 H        0.1750     0.1130     0.5090 H     1 <1>   0.4000 
 27 H        1.4090     0.1170    -1.3490 H     1 <1>   0.0800 
 28 H        1.9000    -1.6880     0.6120 H     1 <1>   0.0800 
 29 H        2.6960     2.2460    -0.4120 H     1 <1>   0.0800 
 30 H        3.6200     1.1000    -1.3660 H     1 <1>   0.0800 
 31 H        4.5680    -1.1050     1.0390 H     1 <1>   0.0800 
 32 H        3.2680    -0.5710     2.0810 H     1 <1>   0.0800 
 33 H        4.0240    -1.3080    -1.5230 H     1 <1>   0.0800 
 34 H        2.4770    -2.0340    -1.8170 H     1 <1>   0.0800 
 35 H        4.9270     1.0570     0.4450 H     1 <1>   0.4500 
 36 H        2.6350     1.9600     1.9870 H     1 <1>   0.0800 
 37 H        4.1350     1.4380     2.7340 H     1 <1>   0.0800 
 38 H        2.2180    -4.3370    -1.5300 H     1 <1>   0.1500 
 39 H        6.1880    -4.4480     1.0590 H     1 <1>   0.1500 
 40 H        3.0430     4.6260     2.4180 H     1 <1>   0.1500 
 41 H        5.0340    -6.4900     0.4640 H     1 <1>   0.1500 
 42 H        8.5350     4.6200    -1.0230 H     1 <1>   0.1500 
 43 H        9.3180     2.0690    -0.6690 H     1 <1>   0.0800 
 44 H        8.4010     2.1850    -2.1570 H     1 <1>   0.0800 
 45 H        8.0210     0.9450    -0.9860 H     1 <1>   0.0800 
 46 H        6.1870     7.1970    -0.4030 H     1 <1>   0.0800 
 47 H        7.9190     6.9720    -0.4670 H     1 <1>   0.0800 
 48 H        7.1070     7.0850     1.0760 H     1 <1>   0.0800 
@<TRIPOS>BOND
  1   1   2  1   
  2   1  26  1   
  3   2   3  1   
  4   2   4  1   
  5   2  27  1   
  6   3   5  1   
  7   3   6  1   
  8   3  28  1   
  9   4   7  1   
 10   4  29  1   
 11   4  30  1   
 12   5   7  1   
 13   5  31  1   
 14   5  32  1   
 15   6   8  1   
 16   6  33  1   
 17   6  34  1   
 18   7   9  1   
 19   7  35  1   
 20   8  10  ar  
 21   8  11  ar  
 22   9  12  1   
 23   9  36  1   
 24   9  37  1   
 25  10  13  ar  
 26  11  14  ar  
 27  11  38  1   
 28  12  15  2   
 29  12  16  1   
 30  13  17  ar  
 31  13  39  1   
 32  14  17  ar  
 33  15  18  1   
 34  15  19  1   
 35  16  20  2   
 36  16  40  1   
 37  17  41  1   
 38  18  21  2   
 39  19  20  1   
 40  19  22  1   
 41  21  23  1   
 42  21  24  1   
 43  22  23  2   
 44  22  25  1   
 45  23  42  1   
 46  24  43  1   
 47  24  44  1   
 48  24  45  1   
 49  25  46  1   
 50  25  47  1   
 51  25  48  1   
@<TRIPOS>SUBSTRUCTURE
  1 ****   7 GROUP 4 **** **** 0

# MOE 2024.06 (io_trps.svl 2023.06)
