@<TRIPOS>MOLECULE
NONAME
45 48 1 0 0 
SMALL
USER_CHARGES


@<TRIPOS>ATOM
  1 S        0.4560     0.6060     0.2680 S.3   1 <1>  -0.2320 
  2 C        1.5470    -0.6360    -0.2440 C.cat 1 <1>   0.8400 
  3 C        1.8040     1.6220     0.7830 C.2   1 <1>  -0.0490 
  4 N        1.1450    -1.7660    -0.7730 N.pl3 1 <1>  -0.7940 
  5 N        2.8110    -0.2880    -0.0370 N.pl3 1 <1>  -0.6850 
  6 C        2.9690     0.9960     0.5430 C.2   1 <1>   0.2030 
  7 C        2.0840    -2.8220    -1.2000 C.3   1 <1>   0.3290 
  8 C        3.9140    -1.2120    -0.4130 C.3   1 <1>   0.3290 
  9 C        4.3610     1.5400     0.8360 C.3   1 <1>   0.0390 
 10 C        3.4070    -2.6630    -0.4370 C.3   1 <1>  -0.1600 
 11 C        4.2970     2.9330     1.4330 C.2   1 <1>   0.5690 
 12 O        4.2630     2.9990     2.6370 O.2   1 <1>  -0.5700 
 13 N        4.2570     4.0510     0.6410 N.am  1 <1>  -0.6600 
 14 C        4.4030     5.4050     1.2510 C.3   1 <1>   0.2840 
 15 C        4.2410     4.0580    -0.8540 C.3   1 <1>   0.0600 
 16 C        5.7760     5.9640     0.9150 C.ar  1 <1>  -0.1430 
 17 C        5.9360     6.8250    -0.1570 C.ar  1 <1>  -0.1500 
 18 C        6.8810     5.6070     1.6700 C.ar  1 <1>  -0.1500 
 19 C        7.1820     7.3420    -0.5170 C.ar  1 <1>   0.0410 
 20 C        8.1290     6.1120     1.3490 C.ar  1 <1>  -0.1500 
 21 C        7.3280     8.2190    -1.6640 C.2   1 <1>   0.6960 
 22 C        8.2730     6.9660     0.2710 C.ar  1 <1>  -0.1500 
 23 N        8.4250     8.8240    -2.0030 N.2   1 <1>  -0.6190 
 24 N        6.3670     8.4940    -2.5010 N.2   1 <1>  -0.6190 
 25 N        8.1520     9.4890    -3.0670 N.2   1 <1>  -0.2500 
 26 N        6.9000     9.2880    -3.3700 N.2   1 <1>  -0.2500 
 27 H        1.5640     2.5810     1.2130 H     1 <1>   0.1500 
 28 H        0.1450    -1.9380    -0.9120 H     1 <1>   0.4500 
 29 H        2.2510    -2.7380    -2.2620 H     1 <1>   0.0800 
 30 H        1.6600    -3.7930    -0.9960 H     1 <1>   0.0800 
 31 H        4.7220    -1.1340     0.2950 H     1 <1>   0.0800 
 32 H        4.2850    -0.9340    -1.3870 H     1 <1>   0.0800 
 33 H        4.9580     1.5560    -0.0550 H     1 <1>   0.0800 
 34 H        4.8460     0.8990     1.5470 H     1 <1>   0.0800 
 35 H        4.1540    -3.2980    -0.8800 H     1 <1>   0.0800 
 36 H        3.2680    -2.9990     0.5750 H     1 <1>   0.0800 
 37 H        4.2880     5.3620     2.3210 H     1 <1>   0.0800 
 38 H        3.6360     6.0560     0.8690 H     1 <1>   0.0800 
 39 H        3.7970     3.1610    -1.2450 H     1 <1>   0.0800 
 40 H        5.2480     4.1500    -1.2270 H     1 <1>   0.0800 
 41 H        3.6690     4.8980    -1.2100 H     1 <1>   0.0800 
 42 H        5.0830     7.1140    -0.7480 H     1 <1>   0.1500 
 43 H        6.7720     4.9360     2.5050 H     1 <1>   0.1500 
 44 H        8.9880     5.8400     1.9350 H     1 <1>   0.1500 
 45 H        9.2450     7.3570     0.0190 H     1 <1>   0.1500 
@<TRIPOS>BOND
  1   1   2  1   
  2   1   3  1   
  3   2   4  ar  
  4   2   5  ar  
  5   3   6  2   
  6   3  27  1   
  7   4   7  1   
  8   4  28  1   
  9   5   6  1   
 10   5   8  1   
 11   6   9  1   
 12   7  10  1   
 13   7  29  1   
 14   7  30  1   
 15   8  10  1   
 16   8  31  1   
 17   8  32  1   
 18   9  11  1   
 19   9  33  1   
 20   9  34  1   
 21  10  35  1   
 22  10  36  1   
 23  11  12  2   
 24  11  13  am  
 25  13  14  1   
 26  13  15  1   
 27  14  16  1   
 28  14  37  1   
 29  14  38  1   
 30  15  39  1   
 31  15  40  1   
 32  15  41  1   
 33  16  17  ar  
 34  16  18  ar  
 35  17  19  ar  
 36  17  42  1   
 37  18  20  ar  
 38  18  43  1   
 39  19  21  1   
 40  19  22  ar  
 41  20  22  ar  
 42  20  44  1   
 43  21  23  1   
 44  21  24  2   
 45  22  45  1   
 46  23  25  1   
 47  24  26  1   
 48  25  26  2   
@<TRIPOS>SUBSTRUCTURE
  1 ****  15 GROUP 4 **** **** 0

# MOE 2024.06 (io_trps.svl 2023.06)
