@<TRIPOS>MOLECULE
NONAME
44 46 1 0 0 
SMALL
USER_CHARGES


@<TRIPOS>ATOM
  1 O       -2.2830    -4.1510     0.2380 O.3   1 <1>  -0.5600 
  2 C       -0.9960    -4.1130    -0.2900 C.3   1 <1>   0.1200 
  3 C       -3.2750    -4.3330    -0.7230 C.3   1 <1>   0.0400 
  4 C       -0.0160    -4.1480     0.8790 C.3   1 <1>   0.0960 
  5 N        1.3880    -4.1110     0.4150 N.pl3 1 <1>   0.0480 
  6 C        2.1390    -5.0170    -0.2320 C.2   1 <1>   0.0060 
  7 C        2.2480    -3.1090     0.6050 C.2   1 <1>   0.0360 
  8 N        3.3420    -4.5880    -0.4120 N.2   1 <1>  -0.3380 
  9 C        1.6630    -6.3790    -0.7190 C.3   1 <1>   0.3890 
 10 N        3.4120    -3.3700     0.1220 N.2   1 <1>  -0.3380 
 11 N        1.0100    -7.1590     0.3820 N.pl3 1 <1>  -0.8380 
 12 C       -0.3320    -7.5130     0.3170 C.ar  1 <1>   0.4100 
 13 C        1.9310    -7.6290     1.4540 C.3   1 <1>   0.1290 
 14 N       -0.9000    -7.6110    -0.8920 N.ar  1 <1>  -0.3100 
 15 C       -1.0730    -7.7090     1.4700 C.ar  1 <1>  -0.1500 
 16 N       -2.1820    -7.8460    -1.0160 N.ar  1 <1>  -0.3100 
 17 C       -2.4150    -7.9580     1.3400 C.ar  1 <1>  -0.1500 
 18 C       -2.9550    -8.0010     0.0650 C.ar  1 <1>   0.3100 
 19 C       -4.3740    -8.2030    -0.1260 C.ar  1 <1>   0.0000 
 20 C       -5.3110    -7.4600     0.5920 C.ar  1 <1>  -0.1500 
 21 C       -4.8540    -9.1410    -1.0380 C.ar  1 <1>  -0.1500 
 22 C       -6.6690    -7.6540     0.4150 C.ar  1 <1>  -0.1500 
 23 C       -6.2100    -9.3390    -1.2200 C.ar  1 <1>  -0.1500 
 24 C       -7.1220    -8.5950    -0.4910 C.ar  1 <1>  -0.1500 
 25 H       -0.8870    -3.2040    -0.8570 H     1 <1>   0.0800 
 26 H       -0.8600    -4.9680    -0.9290 H     1 <1>   0.0800 
 27 H       -4.2270    -4.3610    -0.2230 H     1 <1>   0.0800 
 28 H       -3.1100    -5.2660    -1.2360 H     1 <1>   0.0800 
 29 H       -3.2530    -3.5120    -1.4180 H     1 <1>   0.0800 
 30 H       -0.1660    -5.0390     1.4570 H     1 <1>   0.0800 
 31 H       -0.1930    -3.2980     1.5120 H     1 <1>   0.0800 
 32 H        1.9880    -2.1960     1.1070 H     1 <1>   0.1500 
 33 H        2.5050    -6.9350    -1.0920 H     1 <1>   0.0800 
 34 H        0.9930    -6.2280    -1.5460 H     1 <1>   0.0800 
 35 H        2.8580    -7.9660     1.0210 H     1 <1>   0.0800 
 36 H        1.4960    -8.4500     1.9970 H     1 <1>   0.0800 
 37 H        2.1410    -6.8220     2.1350 H     1 <1>   0.0800 
 38 H       -0.6150    -7.6450     2.4370 H     1 <1>   0.1500 
 39 H       -3.0390    -8.1100     2.2020 H     1 <1>   0.1500 
 40 H       -4.9740    -6.7170     1.2930 H     1 <1>   0.1500 
 41 H       -4.1510    -9.7220    -1.6120 H     1 <1>   0.1500 
 42 H       -7.3750    -7.0710     0.9800 H     1 <1>   0.1500 
 43 H       -6.5570   -10.0700    -1.9290 H     1 <1>   0.1500 
 44 H       -8.1780    -8.7480    -0.6310 H     1 <1>   0.1500 
@<TRIPOS>BOND
  1   1   2  1   
  2   1   3  1   
  3   2   4  1   
  4   2  25  1   
  5   2  26  1   
  6   3  27  1   
  7   3  28  1   
  8   3  29  1   
  9   4   5  1   
 10   4  30  1   
 11   4  31  1   
 12   5   6  1   
 13   5   7  1   
 14   6   8  2   
 15   6   9  1   
 16   7  10  2   
 17   7  32  1   
 18   8  10  1   
 19   9  11  1   
 20   9  33  1   
 21   9  34  1   
 22  11  12  1   
 23  11  13  1   
 24  12  14  ar  
 25  12  15  ar  
 26  13  35  1   
 27  13  36  1   
 28  13  37  1   
 29  14  16  ar  
 30  15  17  ar  
 31  15  38  1   
 32  16  18  ar  
 33  17  18  ar  
 34  17  39  1   
 35  18  19  1   
 36  19  20  ar  
 37  19  21  ar  
 38  20  22  ar  
 39  20  40  1   
 40  21  23  ar  
 41  21  41  1   
 42  22  24  ar  
 43  22  42  1   
 44  23  24  ar  
 45  23  43  1   
 46  24  44  1   
@<TRIPOS>SUBSTRUCTURE
  1 ****  12 GROUP 4 **** **** 0

# MOE 2024.06 (io_trps.svl 2023.06)
