@<TRIPOS>MOLECULE
NONAME
52 54 1 0 0 
SMALL
USER_CHARGES


@<TRIPOS>ATOM
  1 O        0.0810     1.3750    -1.0330 O.2   1 <1>  -0.5700 
  2 C       -0.3010     2.5190    -0.9410 C.2   1 <1>   0.5690 
  3 N       -1.0870     2.9800     0.0800 N.am  1 <1>  -0.5090 
  4 C        0.1220     3.5150    -2.0130 C.3   1 <1>   0.1810 
  5 C       -1.5240     4.4140     0.1140 C.3   1 <1>   0.3640 
  6 C       -1.3650     2.1710     1.2920 C.3   1 <1>   0.0490 
  7 O        0.4240     4.7570    -1.4350 O.3   1 <1>  -0.5600 
  8 C       -2.9900     4.5420    -0.3160 C.ar  1 <1>  -0.1440 
  9 C       -0.6630     5.3790    -0.7560 C.3   1 <1>   0.2610 
 10 C       -2.0680     0.8600     1.1290 C.3   1 <1>  -0.2000 
 11 C       -2.7680     2.0010     1.7910 C.3   1 <1>  -0.2000 
 12 C       -3.5580     3.7200    -1.2830 C.ar  1 <1>  -0.1500 
 13 C       -3.7790     5.5230     0.2710 C.ar  1 <1>  -0.1500 
 14 C       -0.1570     6.5320     0.1170 C.2   1 <1>   0.5690 
 15 C       -4.8820     3.8790    -1.6500 C.ar  1 <1>  -0.1500 
 16 C       -5.1030     5.6840    -0.0950 C.ar  1 <1>  -0.1500 
 17 O       -0.9540     7.1940     0.7410 O.2   1 <1>  -0.5700 
 18 N        1.1780     6.7830     0.1760 N.am  1 <1>  -0.7300 
 19 C       -5.6640     4.8580    -1.0640 C.ar  1 <1>   0.0830 
 20 C        1.8300     7.8840     0.9100 C.3   1 <1>   0.1400 
 21 O       -6.9510     4.9480    -1.4820 O.3   1 <1>  -0.3630 
 22 C        2.7050     8.6730    -0.0590 C.3   1 <1>  -0.1600 
 23 C       -7.8280     5.9150    -0.9500 C.3   1 <1>   0.0400 
 24 C        3.3630     9.8560     0.6460 C.3   1 <1>   0.1200 
 25 O        4.1710    10.4970    -0.2820 O.3   1 <1>  -0.5600 
 26 C        4.8240    11.6190     0.2160 C.3   1 <1>   0.0400 
 27 H       -0.6620     3.6450    -2.7370 H     1 <1>   0.0800 
 28 H        1.0060     3.1570    -2.5080 H     1 <1>   0.0800 
 29 H       -1.4600     4.7360     1.1400 H     1 <1>   0.0800 
 30 H       -0.5650     2.2230     2.0120 H     1 <1>   0.1000 
 31 H       -1.2890     5.8150    -1.5130 H     1 <1>   0.0800 
 32 H       -2.3700     0.5610     0.1410 H     1 <1>   0.1000 
 33 H       -1.7490     0.0290     1.7330 H     1 <1>   0.1000 
 34 H       -2.9370     1.9410     2.8510 H     1 <1>   0.1000 
 35 H       -3.5990     2.4410     1.2690 H     1 <1>   0.1000 
 36 H       -2.9850     2.9430    -1.7550 H     1 <1>   0.1500 
 37 H       -3.3640     6.1770     1.0210 H     1 <1>   0.1500 
 38 H       -5.3200     3.2400    -2.3960 H     1 <1>   0.1500 
 39 H       -5.6780     6.4550     0.3820 H     1 <1>   0.1500 
 40 H        1.7850     6.1890    -0.4000 H     1 <1>   0.3700 
 41 H        1.0810     8.5280     1.3410 H     1 <1>   0.0800 
 42 H        2.4290     7.4730     1.7060 H     1 <1>   0.0800 
 43 H        2.0980     9.0460    -0.8650 H     1 <1>   0.0800 
 44 H        3.4720     8.0320    -0.4550 H     1 <1>   0.0800 
 45 H       -8.7840     5.7990    -1.4290 H     1 <1>   0.0800 
 46 H       -7.4340     6.8940    -1.1540 H     1 <1>   0.0800 
 47 H       -7.9280     5.7510     0.1090 H     1 <1>   0.0800 
 48 H        3.9780     9.5220     1.4650 H     1 <1>   0.0800 
 49 H        2.6200    10.5520     0.9980 H     1 <1>   0.0800 
 50 H        5.4200    12.0370    -0.5760 H     1 <1>   0.0800 
 51 H        5.4600    11.3280     1.0330 H     1 <1>   0.0800 
 52 H        4.0940    12.3410     0.5390 H     1 <1>   0.0800 
@<TRIPOS>BOND
  1   1   2  2   
  2   2   3  am  
  3   2   4  1   
  4   3   5  1   
  5   3   6  1   
  6   4   7  1   
  7   4  27  1   
  8   4  28  1   
  9   5   8  1   
 10   5   9  1   
 11   5  29  1   
 12   6  10  1   
 13   6  11  1   
 14   6  30  1   
 15   7   9  1   
 16   8  12  ar  
 17   8  13  ar  
 18   9  14  1   
 19   9  31  1   
 20  10  11  1   
 21  10  32  1   
 22  10  33  1   
 23  11  34  1   
 24  11  35  1   
 25  12  15  ar  
 26  12  36  1   
 27  13  16  ar  
 28  13  37  1   
 29  14  17  2   
 30  14  18  am  
 31  15  19  ar  
 32  15  38  1   
 33  16  19  ar  
 34  16  39  1   
 35  18  20  1   
 36  18  40  1   
 37  19  21  1   
 38  20  22  1   
 39  20  41  1   
 40  20  42  1   
 41  21  23  1   
 42  22  24  1   
 43  22  43  1   
 44  22  44  1   
 45  23  45  1   
 46  23  46  1   
 47  23  47  1   
 48  24  25  1   
 49  24  48  1   
 50  24  49  1   
 51  25  26  1   
 52  26  50  1   
 53  26  51  1   
 54  26  52  1   
@<TRIPOS>SUBSTRUCTURE
  1 ****   9 GROUP 4 **** **** 0

# MOE 2024.06 (io_trps.svl 2023.06)
