@<TRIPOS>MOLECULE
NONAME
54 56 1 0 0 
SMALL
USER_CHARGES


@<TRIPOS>ATOM
  1 CL      -2.0200     0.6190    -1.3800 Cl    1 <1>  -0.1770 
  2 C       -1.2430     2.0550    -0.7600 C.ar  1 <1>   0.1770 
  3 C       -1.7870     2.7290     0.3290 C.ar  1 <1>   0.0860 
  4 C       -0.0940     2.4930    -1.3920 C.ar  1 <1>  -0.1500 
  5 C       -2.9910     2.2750     0.9820 C.2   1 <1>   0.5440 
  6 C       -1.1230     3.8740     0.7700 C.ar  1 <1>  -0.1500 
  7 C        0.5410     3.6350    -0.9370 C.ar  1 <1>  -0.1500 
  8 O       -2.8970     1.6150     2.0000 O.2   1 <1>  -0.5700 
  9 N       -4.2420     2.5990     0.4980 N.am  1 <1>  -0.6600 
 10 C        0.0270     4.3300     0.1470 C.ar  1 <1>  -0.1430 
 11 C       -4.4380     3.3590    -0.7700 C.3   1 <1>   0.1400 
 12 C       -5.4730     2.1820     1.2290 C.3   1 <1>   0.1400 
 13 C        0.7330     5.5790     0.6440 C.3   1 <1>  -0.0970 
 14 C       -5.8020     3.0240    -1.3720 C.3   1 <1>  -0.1600 
 15 C       -6.5930     3.2080     1.0350 C.3   1 <1>  -0.1600 
 16 C       -6.9590     3.4820    -0.4500 C.3   1 <1>   0.2800 
 17 O       -7.0250     4.8890    -0.5480 O.3   1 <1>  -0.5600 
 18 C       -8.3460     2.8320    -0.8180 C.3   1 <1>   0.2000 
 19 C       -7.7720     5.4540    -1.5800 C.3   1 <1>   0.1200 
 20 O       -8.3630     2.3690    -2.1440 O.3   1 <1>  -0.6800 
 21 C       -9.5280     3.8260    -0.6050 C.3   1 <1>   0.3000 
 22 C       -9.2610     5.1010    -1.4340 C.3   1 <1>  -0.1600 
 23 N       -9.5940     4.2670     0.8090 N.am  1 <1>  -0.7300 
 24 C      -10.8890     3.2430    -1.0240 C.3   1 <1>  -0.2400 
 25 C      -10.0250     3.7130     1.9660 C.2   1 <1>   0.5690 
 26 O       -9.8120     4.2880     3.0000 O.2   1 <1>  -0.5700 
 27 C      -10.7310     2.3810     2.0320 C.3   1 <1>  -0.1790 
 28 H        0.2970     1.9450    -2.2300 H     1 <1>   0.1500 
 29 H       -1.5270     4.4000     1.6170 H     1 <1>   0.1500 
 30 H        1.4370     3.9800    -1.4260 H     1 <1>   0.1500 
 31 H       -4.3780     4.4150    -0.5640 H     1 <1>   0.0800 
 32 H       -3.6710     3.1030    -1.4790 H     1 <1>   0.0800 
 33 H       -5.7840     1.2180     0.8640 H     1 <1>   0.0800 
 34 H       -5.2600     2.0860     2.2810 H     1 <1>   0.0800 
 35 H        1.6700     5.3110     1.0980 H     1 <1>   0.0800 
 36 H        0.1340     6.0960     1.3720 H     1 <1>   0.0800 
 37 H        0.9230     6.2470    -0.1770 H     1 <1>   0.0800 
 38 H       -5.8450     1.9580    -1.5180 H     1 <1>   0.0800 
 39 H       -5.8840     3.4770    -2.3410 H     1 <1>   0.0800 
 40 H       -6.2760     4.1200     1.5100 H     1 <1>   0.0800 
 41 H       -7.4450     2.8560     1.5810 H     1 <1>   0.0800 
 42 H       -8.5010     1.9570    -0.2130 H     1 <1>   0.0800 
 43 H       -7.6360     6.5210    -1.5370 H     1 <1>   0.0800 
 44 H       -7.3810     5.1020    -2.5180 H     1 <1>   0.0800 
 45 H       -8.1500     3.0970    -2.7560 H     1 <1>   0.4000 
 46 H       -9.7920     5.9340    -1.0080 H     1 <1>   0.0800 
 47 H       -9.6470     4.9810    -2.4290 H     1 <1>   0.0800 
 48 H       -9.0210     5.1020     0.9610 H     1 <1>   0.3700 
 49 H      -10.9400     3.1340    -2.0930 H     1 <1>   0.0800 
 50 H      -11.6900     3.8900    -0.7150 H     1 <1>   0.0800 
 51 H      -11.0340     2.2630    -0.6150 H     1 <1>   0.0800 
 52 H      -10.1880     1.6420     1.4770 H     1 <1>   0.0800 
 53 H      -11.7270     2.4800     1.6450 H     1 <1>   0.0800 
 54 H      -10.7940     2.0610     3.0550 H     1 <1>   0.0800 
@<TRIPOS>BOND
  1   1   2  1   
  2   2   3  ar  
  3   2   4  ar  
  4   3   5  1   
  5   3   6  ar  
  6   4   7  ar  
  7   4  28  1   
  8   5   8  2   
  9   5   9  am  
 10   6  10  ar  
 11   6  29  1   
 12   7  10  ar  
 13   7  30  1   
 14   9  11  1   
 15   9  12  1   
 16  10  13  1   
 17  11  14  1   
 18  11  31  1   
 19  11  32  1   
 20  12  15  1   
 21  12  33  1   
 22  12  34  1   
 23  13  35  1   
 24  13  36  1   
 25  13  37  1   
 26  14  16  1   
 27  14  38  1   
 28  14  39  1   
 29  15  16  1   
 30  15  40  1   
 31  15  41  1   
 32  16  17  1   
 33  16  18  1   
 34  17  19  1   
 35  18  20  1   
 36  18  21  1   
 37  18  42  1   
 38  19  22  1   
 39  19  43  1   
 40  19  44  1   
 41  20  45  1   
 42  21  22  1   
 43  21  23  1   
 44  21  24  1   
 45  22  46  1   
 46  22  47  1   
 47  23  25  am  
 48  23  48  1   
 49  24  49  1   
 50  24  50  1   
 51  24  51  1   
 52  25  26  2   
 53  25  27  1   
 54  27  52  1   
 55  27  53  1   
 56  27  54  1   
@<TRIPOS>SUBSTRUCTURE
  1 ****  11 GROUP 4 **** **** 0

# MOE 2024.06 (io_trps.svl 2023.06)
