@<TRIPOS>MOLECULE
NONAME
46 49 1 0 0 
SMALL
USER_CHARGES


@<TRIPOS>ATOM
  1 CL      -1.9360     0.7180    -1.5050 Cl    1 <1>  -0.1770 
  2 C       -2.6440     0.1870     0.0040 C.ar  1 <1>   0.1770 
  3 C       -3.0460    -1.1460     0.1900 C.ar  1 <1>  -0.1520 
  4 C       -2.8110     1.1170     1.0010 C.ar  1 <1>  -0.1500 
  5 N       -2.9930    -2.2740    -0.6040 N.pl3 1 <1>   0.0480 
  6 C       -3.6410    -1.4950     1.3980 C.ar  1 <1>   0.0000 
  7 C       -3.3950     0.7480     2.2180 C.ar  1 <1>  -0.1500 
  8 C       -3.5880    -3.3210     0.0800 C.2   1 <1>  -0.2370 
  9 C       -2.2780    -2.3680    -1.8990 C.3   1 <1>   0.0160 
 10 C       -3.8100    -0.5470     2.4160 C.ar  1 <1>  -0.1500 
 11 C       -3.9740    -2.8530     1.3030 C.2   1 <1>  -0.1500 
 12 C       -3.7690    -4.6540    -0.4360 C.2   1 <1>   0.7150 
 13 O       -3.8260    -4.8950    -1.6260 O.2   1 <1>  -0.5700 
 14 N       -3.9050    -5.6810     0.4410 N.am  1 <1>  -0.7300 
 15 C       -4.1670    -7.0910     0.0850 C.3   1 <1>   0.2200 
 16 C       -5.6500    -7.3760     0.2460 C.3   1 <1>  -0.0800 
 17 C       -3.5580    -8.0080     1.1400 C.3   1 <1>   0.1200 
 18 C       -5.7600    -7.6880     1.7430 C.3   1 <1>   0.1200 
 19 C       -6.0990    -8.5580    -0.6330 C.3   1 <1>  -0.0170 
 20 O       -4.4850    -8.0640     2.1820 O.3   1 <1>  -0.5600 
 21 C       -7.5920    -8.8150    -0.4960 C.ar  1 <1>  -0.1430 
 22 C       -8.5250    -7.9820    -1.0790 C.ar  1 <1>  -0.1500 
 23 C       -8.0910    -9.8880     0.2150 C.ar  1 <1>  -0.1500 
 24 C       -9.8750    -8.2510    -0.9230 C.ar  1 <1>   0.1600 
 25 C       -9.4610   -10.0670     0.3100 C.ar  1 <1>   0.1600 
 26 N      -10.3660    -9.2730    -0.2400 N.ar  1 <1>  -0.6200 
 27 H       -2.4960     2.1330     0.8470 H     1 <1>   0.1500 
 28 H       -3.5180     1.4870     2.9900 H     1 <1>   0.1500 
 29 H       -2.0280    -3.3880    -2.1200 H     1 <1>   0.0800 
 30 H       -1.3630    -1.8090    -1.8460 H     1 <1>   0.0800 
 31 H       -2.9030    -1.9740    -2.6790 H     1 <1>   0.0800 
 32 H       -4.2670    -0.8500     3.3410 H     1 <1>   0.1500 
 33 H       -4.4690    -3.3930     2.0900 H     1 <1>   0.1500 
 34 H       -3.8740    -5.4820     1.4410 H     1 <1>   0.3700 
 35 H       -3.7960    -7.3030    -0.9050 H     1 <1>   0.0800 
 36 H       -6.2400    -6.5130    -0.0110 H     1 <1>   0.0800 
 37 H       -2.6150    -7.6460     1.5120 H     1 <1>   0.0800 
 38 H       -3.4380    -9.0050     0.7550 H     1 <1>   0.0800 
 39 H       -6.4520    -8.4820     1.9600 H     1 <1>   0.0800 
 40 H       -6.0440    -6.8090     2.2940 H     1 <1>   0.0800 
 41 H       -5.5530    -9.4480    -0.3720 H     1 <1>   0.0800 
 42 H       -5.8830    -8.3360    -1.6640 H     1 <1>   0.0800 
 43 H       -8.2170    -7.1270    -1.6520 H     1 <1>   0.1500 
 44 H       -7.4310   -10.5850     0.6970 H     1 <1>   0.1500 
 45 H      -10.5880    -7.5900    -1.3840 H     1 <1>   0.1500 
 46 H       -9.8330   -10.9090     0.8690 H     1 <1>   0.1500 
@<TRIPOS>BOND
  1   1   2  1   
  2   2   3  ar  
  3   2   4  ar  
  4   3   5  1   
  5   3   6  ar  
  6   4   7  ar  
  7   4  27  1   
  8   5   8  1   
  9   5   9  1   
 10   6  10  ar  
 11   6  11  1   
 12   7  10  ar  
 13   7  28  1   
 14   8  11  2   
 15   8  12  1   
 16   9  29  1   
 17   9  30  1   
 18   9  31  1   
 19  10  32  1   
 20  11  33  1   
 21  12  13  2   
 22  12  14  am  
 23  14  15  1   
 24  14  34  1   
 25  15  16  1   
 26  15  17  1   
 27  15  35  1   
 28  16  18  1   
 29  16  19  1   
 30  16  36  1   
 31  17  20  1   
 32  17  37  1   
 33  17  38  1   
 34  18  20  1   
 35  18  39  1   
 36  18  40  1   
 37  19  21  1   
 38  19  41  1   
 39  19  42  1   
 40  21  22  ar  
 41  21  23  ar  
 42  22  24  ar  
 43  22  43  1   
 44  23  25  ar  
 45  23  44  1   
 46  24  26  ar  
 47  24  45  1   
 48  25  26  ar  
 49  25  46  1   
@<TRIPOS>SUBSTRUCTURE
  1 ****  14 GROUP 4 **** **** 0

# MOE 2024.06 (io_trps.svl 2023.06)
