@<TRIPOS>MOLECULE
NONAME
59 62 1 0 0 
SMALL
USER_CHARGES


@<TRIPOS>ATOM
  1 O        0.0860    -4.0310    -3.1670 O.2   1 <1>  -0.5700 
  2 C       -0.5240    -3.9080    -2.1220 C.2   1 <1>   0.5440 
  3 N        0.2040    -4.0240    -0.9450 N.am  1 <1>  -0.6600 
  4 C       -1.9560    -3.6260    -2.1570 C.ar  1 <1>   0.3960 
  5 C        1.6600    -3.6970    -0.9120 C.3   1 <1>   0.1400 
  6 C       -0.4150    -4.0630     0.4130 C.3   1 <1>   0.1400 
  7 N       -2.4770    -2.7180    -1.3130 N.ar  1 <1>  -0.6200 
  8 C       -2.7440    -4.3180    -3.0790 C.ar  1 <1>   0.1600 
  9 C        1.8620    -2.3330    -0.2220 C.3   1 <1>   0.3430 
 10 C       -0.2450    -2.6900     1.0880 C.3   1 <1>   0.3430 
 11 C       -3.7890    -2.5800    -1.4320 C.ar  1 <1>   0.4100 
 12 N       -4.0560    -4.1950    -3.2110 N.ar  1 <1>  -0.6200 
 13 N        1.2070    -2.2670     1.1410 N.4   1 <1>  -0.9590 
 14 N       -4.3840    -1.6770    -0.5680 N.pl3 1 <1>  -0.8380 
 15 C       -4.5430    -3.3110    -2.3650 C.ar  1 <1>   0.1600 
 16 C        1.3350    -0.8990     1.7250 C.3   1 <1>   0.2630 
 17 C       -5.5930    -2.0360     0.2380 C.3   1 <1>   0.2090 
 18 C       -3.7530    -0.3790    -0.2200 C.3   1 <1>   0.2090 
 19 C       -6.6720    -0.9270     0.1520 C.3   1 <1>   0.0000 
 20 C       -4.7960     0.7420    -0.2920 C.3   1 <1>  -0.1600 
 21 C       -7.8880    -1.2700     1.0310 C.3   1 <1>   0.2000 
 22 C       -6.0460     0.4270     0.5490 C.3   1 <1>  -0.1600 
 23 C       -7.3030    -0.8830    -1.2520 C.3   1 <1>  -0.1600 
 24 O       -7.4970    -1.8660     2.2320 O.3   1 <1>  -0.5600 
 25 C       -8.7520    -2.2240     0.1990 C.3   1 <1>  -0.1600 
 26 C       -8.3630    -1.9890    -1.2660 C.3   1 <1>  -0.1600 
 27 C       -8.4830    -1.9040     3.2150 C.3   1 <1>   0.0400 
 28 H        2.1900    -4.4680    -0.3810 H     1 <1>   0.0800 
 29 H        2.0650    -3.6530    -1.9090 H     1 <1>   0.0800 
 30 H       -1.4580    -4.3190     0.3550 H     1 <1>   0.0800 
 31 H        0.0650    -4.8240     1.0030 H     1 <1>   0.0800 
 32 H       -2.2540    -5.0140    -3.7380 H     1 <1>   0.1500 
 33 H        1.4400    -1.5740    -0.8600 H     1 <1>   0.0800 
 34 H        2.9180    -2.1370    -0.1330 H     1 <1>   0.0800 
 35 H       -0.6540    -2.7330     2.0840 H     1 <1>   0.0800 
 36 H       -0.8180    -1.9680     0.5280 H     1 <1>   0.0800 
 37 H        1.7000    -2.9350     1.7510 H     1 <1>   0.4500 
 38 H       -5.6000    -3.1300    -2.3970 H     1 <1>   0.1500 
 39 H        0.8260    -0.1790     1.1050 H     1 <1>   0.0800 
 40 H        2.3740    -0.6170     1.7990 H     1 <1>   0.0800 
 41 H        0.9020    -0.8700     2.7120 H     1 <1>   0.0800 
 42 H       -5.9970    -2.9790    -0.0850 H     1 <1>   0.0800 
 43 H       -5.2840    -2.1540     1.2620 H     1 <1>   0.0800 
 44 H       -3.3540    -0.4410     0.7770 H     1 <1>   0.0800 
 45 H       -2.9470    -0.1650    -0.9020 H     1 <1>   0.0800 
 46 H       -4.3520     1.6580     0.0550 H     1 <1>   0.0800 
 47 H       -5.0730     0.8890    -1.3210 H     1 <1>   0.0800 
 48 H       -8.4370    -0.3680     1.2450 H     1 <1>   0.0800 
 49 H       -6.7650     1.2190     0.4340 H     1 <1>   0.0800 
 50 H       -5.7680     0.3880     1.5880 H     1 <1>   0.0800 
 51 H       -7.7960     0.0640    -1.3930 H     1 <1>   0.0800 
 52 H       -6.5800    -1.0040    -2.0390 H     1 <1>   0.0800 
 53 H       -8.5480    -3.2460     0.4670 H     1 <1>   0.0800 
 54 H       -9.7950    -2.0130     0.3530 H     1 <1>   0.0800 
 55 H       -7.9480    -2.8930    -1.6790 H     1 <1>   0.0800 
 56 H       -9.2130    -1.6990    -1.8600 H     1 <1>   0.0800 
 57 H       -8.0640    -2.3690     4.0900 H     1 <1>   0.0800 
 58 H       -9.3190    -2.4840     2.8650 H     1 <1>   0.0800 
 59 H       -8.7890    -0.9000     3.4520 H     1 <1>   0.0800 
@<TRIPOS>BOND
  1   1   2  2   
  2   2   3  am  
  3   2   4  1   
  4   3   5  1   
  5   3   6  1   
  6   4   7  ar  
  7   4   8  ar  
  8   5   9  1   
  9   5  28  1   
 10   5  29  1   
 11   6  10  1   
 12   6  30  1   
 13   6  31  1   
 14   7  11  ar  
 15   8  12  ar  
 16   8  32  1   
 17   9  13  1   
 18   9  33  1   
 19   9  34  1   
 20  10  13  1   
 21  10  35  1   
 22  10  36  1   
 23  11  14  1   
 24  11  15  ar  
 25  12  15  ar  
 26  13  16  1   
 27  13  37  1   
 28  14  17  1   
 29  14  18  1   
 30  15  38  1   
 31  16  39  1   
 32  16  40  1   
 33  16  41  1   
 34  17  19  1   
 35  17  42  1   
 36  17  43  1   
 37  18  20  1   
 38  18  44  1   
 39  18  45  1   
 40  19  21  1   
 41  19  22  1   
 42  19  23  1   
 43  20  22  1   
 44  20  46  1   
 45  20  47  1   
 46  21  24  1   
 47  21  25  1   
 48  21  48  1   
 49  22  49  1   
 50  22  50  1   
 51  23  26  1   
 52  23  51  1   
 53  23  52  1   
 54  24  27  1   
 55  25  26  1   
 56  25  53  1   
 57  25  54  1   
 58  26  55  1   
 59  26  56  1   
 60  27  57  1   
 61  27  58  1   
 62  27  59  1   
@<TRIPOS>SUBSTRUCTURE
  1 ****  11 GROUP 4 **** **** 0

# MOE 2024.06 (io_trps.svl 2023.06)
