@<TRIPOS>MOLECULE
NONAME
49 51 1 0 0 
SMALL
USER_CHARGES


@<TRIPOS>ATOM
  1 O        0.0020     0.6050     1.5240 O.2   1 <1>  -0.5700 
  2 C       -1.0130     1.0280     1.0310 C.2   1 <1>   0.5690 
  3 N       -2.0620     0.2540     0.6210 N.am  1 <1>  -0.5470 
  4 C       -1.1210     2.5230     0.8230 C.3   1 <1>  -0.0990 
  5 C       -2.2670    -1.1350     0.6640 C.ar  1 <1>   0.1170 
  6 C       -0.3530     2.9580    -0.4340 C.3   1 <1>  -0.0990 
  7 C       -3.2600    -1.6790    -0.1460 C.ar  1 <1>  -0.1500 
  8 C       -1.5350    -1.9910     1.4890 C.ar  1 <1>  -0.1500 
  9 C       -0.4630     4.4510    -0.6480 C.2   1 <1>   0.5690 
 10 C       -3.5000    -3.0390    -0.1260 C.ar  1 <1>  -0.1430 
 11 C       -1.7800    -3.3540     1.5040 C.ar  1 <1>  -0.1500 
 12 O       -1.4860     4.8780    -1.1270 O.2   1 <1>  -0.5700 
 13 N        0.5840     5.2360    -0.2740 N.am  1 <1>  -0.4930 
 14 C       -2.7700    -3.8670     0.6870 C.ar  1 <1>  -0.1430 
 15 C       -4.5200    -3.8150    -0.9220 C.3   1 <1>  -0.0160 
 16 C        0.7110     6.6450    -0.3620 C.2   1 <1>   0.0630 
 17 C       -3.2020    -5.3040     0.5420 C.3   1 <1>  -0.0170 
 18 C       -4.1010    -5.2810    -0.7060 C.3   1 <1>  -0.1600 
 19 C       -0.1860     7.5880    -0.8660 C.2   1 <1>   0.1390 
 20 C        1.7710     7.3720     0.0430 C.2   1 <1>  -0.3020 
 21 N        0.2740     8.8010    -0.7830 N.2   1 <1>  -0.7070 
 22 N        1.4900     8.6710    -0.2180 N.pl3 1 <1>   0.3140 
 23 C        2.3550     9.8530     0.0510 C.3   1 <1>   0.1760 
 24 C        3.6670     9.7590    -0.7410 C.3   1 <1>  -0.2400 
 25 C        2.6270     9.9980     1.5540 C.3   1 <1>  -0.2400 
 26 H       -2.8170     0.7650     0.1700 H     1 <1>   0.3700 
 27 H       -0.7130     3.0160     1.6870 H     1 <1>   0.0800 
 28 H       -2.1550     2.8090     0.7390 H     1 <1>   0.0800 
 29 H       -0.7590     2.4610    -1.2970 H     1 <1>   0.0800 
 30 H        0.6810     2.6730    -0.3470 H     1 <1>   0.0800 
 31 H       -3.8410    -1.0470    -0.7910 H     1 <1>   0.1500 
 32 H       -0.7690    -1.5970     2.1290 H     1 <1>   0.1500 
 33 H       -1.2080    -4.0030     2.1420 H     1 <1>   0.1500 
 34 H        1.3910     4.7640     0.1310 H     1 <1>   0.3700 
 35 H       -4.4980    -3.5480    -1.9630 H     1 <1>   0.0800 
 36 H       -5.5010    -3.6380    -0.5170 H     1 <1>   0.0800 
 37 H       -3.7640    -5.5970     1.4110 H     1 <1>   0.0800 
 38 H       -2.3590    -5.9590     0.4110 H     1 <1>   0.0800 
 39 H       -3.5220    -5.6020    -1.5540 H     1 <1>   0.0800 
 40 H       -4.9530    -5.9280    -0.5980 H     1 <1>   0.0800 
 41 H       -1.1510     7.3450    -1.2790 H     1 <1>   0.1500 
 42 H        2.6910     7.0540     0.4930 H     1 <1>   0.1500 
 43 H        1.8140    10.7210    -0.2850 H     1 <1>   0.0800 
 44 H        4.2470     8.9120    -0.4230 H     1 <1>   0.0800 
 45 H        4.2500    10.6490    -0.5900 H     1 <1>   0.0800 
 46 H        3.4540     9.6690    -1.7910 H     1 <1>   0.0800 
 47 H        3.1830     9.1560     1.9270 H     1 <1>   0.0800 
 48 H        1.6960    10.0730     2.0880 H     1 <1>   0.0800 
 49 H        3.1950    10.8920     1.7400 H     1 <1>   0.0800 
@<TRIPOS>BOND
  1   1   2  2   
  2   2   3  am  
  3   2   4  1   
  4   3   5  1   
  5   3  26  1   
  6   4   6  1   
  7   4  27  1   
  8   4  28  1   
  9   5   7  ar  
 10   5   8  ar  
 11   6   9  1   
 12   6  29  1   
 13   6  30  1   
 14   7  10  ar  
 15   7  31  1   
 16   8  11  ar  
 17   8  32  1   
 18   9  12  2   
 19   9  13  am  
 20  10  14  ar  
 21  10  15  1   
 22  11  14  ar  
 23  11  33  1   
 24  13  16  1   
 25  13  34  1   
 26  14  17  1   
 27  15  18  1   
 28  15  35  1   
 29  15  36  1   
 30  16  19  1   
 31  16  20  2   
 32  17  18  1   
 33  17  37  1   
 34  17  38  1   
 35  18  39  1   
 36  18  40  1   
 37  19  21  2   
 38  19  41  1   
 39  20  22  1   
 40  20  42  1   
 41  21  22  1   
 42  22  23  1   
 43  23  24  1   
 44  23  25  1   
 45  23  43  1   
 46  24  44  1   
 47  24  45  1   
 48  24  46  1   
 49  25  47  1   
 50  25  48  1   
 51  25  49  1   
@<TRIPOS>SUBSTRUCTURE
  1 ****   4 GROUP 4 **** **** 0

# MOE 2024.06 (io_trps.svl 2023.06)
