@<TRIPOS>MOLECULE
NONAME
31 32 1 0 0 
SMALL
USER_CHARGES


@<TRIPOS>ATOM
  1 S        0.3010    -1.5210    -1.4650 S.3   1 <1>  -0.0800 
  2 C       -0.9690    -2.7280    -1.3830 C.2   1 <1>  -0.1100 
  3 C       -0.4160    -0.6170    -0.1440 C.2   1 <1>  -0.1100 
  4 C       -1.8470    -2.4340    -0.4050 C.2   1 <1>  -0.1810 
  5 C       -1.5330    -1.2230     0.2990 C.2   1 <1>  -0.1500 
  6 C       -3.0520    -3.2790    -0.0500 C.3   1 <1>   0.5240 
  7 N       -2.7290    -3.9760     1.2330 N.4   1 <1>  -0.9590 
  8 C       -1.8000    -5.1340     0.9770 C.3   1 <1>   0.3430 
  9 C       -3.9960    -4.3780     1.9340 C.3   1 <1>   0.3430 
 10 C       -2.4410    -6.2760     0.1490 C.3   1 <1>   0.2000 
 11 C       -4.2970    -5.8850     1.8170 C.3   1 <1>  -0.1600 
 12 O       -2.1790    -6.0350    -1.1890 O.3   1 <1>  -0.6800 
 13 C       -3.9610    -6.4390     0.4100 C.3   1 <1>  -0.1860 
 14 C       -4.8070    -5.7920    -0.6800 C.2   1 <1>   0.9060 
 15 O       -5.4680    -4.7800    -0.4230 O.co2 1 <1>  -0.9000 
 16 O       -4.6740    -6.2160    -1.8270 O.co2 1 <1>  -0.9000 
 17 H       -0.9230    -3.5470    -2.0830 H     1 <1>   0.1500 
 18 H        0.0810     0.2880     0.1590 H     1 <1>   0.1500 
 19 H       -2.1560    -0.8520     1.0950 H     1 <1>   0.1500 
 20 H       -3.2500    -3.9850    -0.8380 H     1 <1>   0.0800 
 21 H       -3.9250    -2.6560     0.0610 H     1 <1>   0.0800 
 22 H       -2.2340    -3.2740     1.7870 H     1 <1>   0.4500 
 23 H       -0.9080    -4.7990     0.4740 H     1 <1>   0.0800 
 24 H       -1.5060    -5.5440     1.9280 H     1 <1>   0.0800 
 25 H       -3.9360    -4.1170     2.9770 H     1 <1>   0.0800 
 26 H       -4.8250    -3.8300     1.5110 H     1 <1>   0.0800 
 27 H       -1.9370    -7.1950     0.3930 H     1 <1>   0.0800 
 28 H       -3.7470    -6.4230     2.5690 H     1 <1>   0.0800 
 29 H       -5.3430    -6.0380     2.0190 H     1 <1>   0.0800 
 30 H       -3.0310    -6.1950    -1.7080 H     1 <1>   0.4000 
 31 H       -4.1950    -7.4860     0.3900 H     1 <1>   0.0800 
@<TRIPOS>BOND
  1   1   2  1   
  2   1   3  1   
  3   2   4  2   
  4   2  17  1   
  5   3   5  2   
  6   3  18  1   
  7   4   5  1   
  8   4   6  1   
  9   5  19  1   
 10   6   7  1   
 11   6  20  1   
 12   6  21  1   
 13   7   8  1   
 14   7   9  1   
 15   7  22  1   
 16   8  10  1   
 17   8  23  1   
 18   8  24  1   
 19   9  11  1   
 20   9  25  1   
 21   9  26  1   
 22  10  12  1   
 23  10  13  1   
 24  10  27  1   
 25  11  13  1   
 26  11  28  1   
 27  11  29  1   
 28  12  30  1   
 29  13  14  1   
 30  13  31  1   
 31  14  15  ar  
 32  14  16  ar  
@<TRIPOS>SUBSTRUCTURE
  1 ****   6 GROUP 4 **** **** 0

# MOE 2024.06 (io_trps.svl 2023.06)
