@<TRIPOS>MOLECULE
NONAME
51 53 1 0 0 
SMALL
USER_CHARGES


@<TRIPOS>ATOM
  1 O        0.0590    -0.2460     0.0720 O.3   1 <1>  -0.2800 
  2 C        1.0690    -1.0950     0.1260 C.2   1 <1>  -0.0400 
  3 C        0.3740     0.7970     0.8150 C.2   1 <1>  -0.0100 
  4 C        2.0520    -0.6100     0.9160 C.2   1 <1>  -0.1500 
  5 C        0.9790    -2.4010    -0.6420 C.3   1 <1>   0.5230 
  6 C        1.5940     0.6340     1.3680 C.2   1 <1>  -0.1500 
  7 N       -0.2750    -3.1060    -0.2240 N.4   1 <1>  -0.9590 
  8 C       -0.1090    -4.5840    -0.2390 C.3   1 <1>   0.3430 
  9 C       -1.4350    -2.6240    -1.0280 C.3   1 <1>   0.3430 
 10 C       -1.3870    -5.2530     0.2760 C.3   1 <1>  -0.1600 
 11 C       -2.7220    -3.2700    -0.5110 C.3   1 <1>  -0.1600 
 12 C       -2.6180    -4.7960    -0.5170 C.3   1 <1>   0.4230 
 13 N       -3.8590    -5.3580     0.0710 N.4   1 <1>  -0.9060 
 14 C       -4.0290    -6.8240    -0.1210 C.3   1 <1>   0.3430 
 15 C       -5.3630    -7.2510     0.4870 C.3   1 <1>  -0.1600 
 16 C       -5.5720    -8.7640     0.3060 C.3   1 <1>  -0.1600 
 17 C       -6.8960    -9.2680     0.9170 C.3   1 <1>  -0.0800 
 18 C       -6.9780   -10.7880     0.8260 C.3   1 <1>   0.1200 
 19 C       -8.1210    -8.8620     0.1000 C.3   1 <1>  -0.1600 
 20 O       -7.4530   -11.0320    -0.4530 O.3   1 <1>  -0.5600 
 21 C       -8.4020   -10.0730    -0.7910 C.3   1 <1>   0.1200 
 22 H       -0.3230     1.6150     0.8980 H     1 <1>   0.1500 
 23 H        3.0050    -1.0370     1.1780 H     1 <1>   0.1500 
 24 H        1.8450    -2.9980    -0.4070 H     1 <1>   0.0800 
 25 H        0.9730    -2.2050    -1.7020 H     1 <1>   0.0800 
 26 H        2.1310     1.3030     2.0200 H     1 <1>   0.1500 
 27 H       -0.4080    -2.7750     0.7460 H     1 <1>   0.4500 
 28 H        0.7240    -4.8680     0.3870 H     1 <1>   0.0800 
 29 H        0.0990    -4.9170    -1.2440 H     1 <1>   0.0800 
 30 H       -1.2900    -2.8730    -2.0670 H     1 <1>   0.0800 
 31 H       -1.5200    -1.5500    -0.9540 H     1 <1>   0.0800 
 32 H       -1.5010    -5.0210     1.3210 H     1 <1>   0.0800 
 33 H       -1.2610    -6.3170     0.1820 H     1 <1>   0.0800 
 34 H       -3.5310    -2.9570    -1.1480 H     1 <1>   0.0800 
 35 H       -2.9150    -2.9020     0.4820 H     1 <1>   0.0800 
 36 H       -2.5250    -5.1310    -1.5400 H     1 <1>   0.0800 
 37 H       -4.6770    -4.8980    -0.3510 H     1 <1>   0.4500 
 38 H       -3.9100    -5.1510     1.0770 H     1 <1>   0.4500 
 39 H       -3.2290    -7.3630     0.3610 H     1 <1>   0.0800 
 40 H       -4.0220    -7.0670    -1.1720 H     1 <1>   0.0800 
 41 H       -6.1650    -6.7200     0.0060 H     1 <1>   0.0800 
 42 H       -5.3780    -7.0250     1.5390 H     1 <1>   0.0800 
 43 H       -4.7600    -9.2870     0.7840 H     1 <1>   0.0800 
 44 H       -5.5490    -9.0210    -0.7410 H     1 <1>   0.0800 
 45 H       -6.9780    -8.9540     1.9440 H     1 <1>   0.0800 
 46 H       -7.6930   -11.1840     1.5270 H     1 <1>   0.0800 
 47 H       -6.0290   -11.2800     0.9530 H     1 <1>   0.0800 
 48 H       -7.9790    -7.9780    -0.4930 H     1 <1>   0.0800 
 49 H       -8.9660    -8.7050     0.7470 H     1 <1>   0.0800 
 50 H       -8.2910    -9.8450    -1.8370 H     1 <1>   0.0800 
 51 H       -9.3800   -10.4830    -0.6050 H     1 <1>   0.0800 
@<TRIPOS>BOND
  1   1   2  1   
  2   1   3  1   
  3   2   4  2   
  4   2   5  1   
  5   3   6  2   
  6   3  22  1   
  7   4   6  1   
  8   4  23  1   
  9   5   7  1   
 10   5  24  1   
 11   5  25  1   
 12   6  26  1   
 13   7   8  1   
 14   7   9  1   
 15   7  27  1   
 16   8  10  1   
 17   8  28  1   
 18   8  29  1   
 19   9  11  1   
 20   9  30  1   
 21   9  31  1   
 22  10  12  1   
 23  10  32  1   
 24  10  33  1   
 25  11  12  1   
 26  11  34  1   
 27  11  35  1   
 28  12  13  1   
 29  12  36  1   
 30  13  14  1   
 31  13  37  1   
 32  13  38  1   
 33  14  15  1   
 34  14  39  1   
 35  14  40  1   
 36  15  16  1   
 37  15  41  1   
 38  15  42  1   
 39  16  17  1   
 40  16  43  1   
 41  16  44  1   
 42  17  18  1   
 43  17  19  1   
 44  17  45  1   
 45  18  20  1   
 46  18  46  1   
 47  18  47  1   
 48  19  21  1   
 49  19  48  1   
 50  19  49  1   
 51  20  21  1   
 52  21  50  1   
 53  21  51  1   
@<TRIPOS>SUBSTRUCTURE
  1 ****  12 GROUP 4 **** **** 0

# MOE 2024.06 (io_trps.svl 2023.06)
