@<TRIPOS>MOLECULE
NONAME
54 56 1 0 0 
SMALL
USER_CHARGES


@<TRIPOS>ATOM
  1 F       -1.6900    -0.8270    -2.4840 F     1 <1>  -0.1900 
  2 C       -1.6200     0.2390    -1.7310 C.ar  1 <1>   0.1900 
  3 C       -1.8930     0.1360    -0.3700 C.ar  1 <1>  -0.1440 
  4 C       -1.2760     1.4320    -2.3360 C.ar  1 <1>  -0.1500 
  5 C       -1.8170     1.2870     0.4060 C.ar  1 <1>  -0.1500 
  6 C       -2.2730    -1.1920     0.2750 C.3   1 <1>  -0.0160 
  7 C       -1.2120     2.5490    -1.5300 C.ar  1 <1>   0.1900 
  8 C       -1.4750     2.5010    -0.1720 C.ar  1 <1>  -0.1500 
  9 C       -3.7650    -1.4900     0.0620 C.3   1 <1>  -0.0990 
 10 F       -0.8910     3.6950    -2.0680 F     1 <1>  -0.1900 
 11 C       -4.2460    -2.7670     0.7400 C.2   1 <1>   0.5690 
 12 O       -3.4300    -3.4420     1.3250 O.2   1 <1>  -0.5700 
 13 N       -5.5720    -3.1350     0.6920 N.am  1 <1>  -0.6600 
 14 C       -6.6190    -2.3760    -0.0590 C.3   1 <1>   0.2200 
 15 C       -5.9880    -4.3720     1.4230 C.3   1 <1>   0.0600 
 16 C       -7.6080    -1.6840     0.8760 C.3   1 <1>  -0.1600 
 17 C       -7.4670    -3.2450    -0.9980 C.3   1 <1>  -0.1600 
 18 C       -8.8700    -1.4940     0.0280 C.3   1 <1>  -0.0800 
 19 C       -8.9030    -2.7040    -0.9030 C.3   1 <1>  -0.0800 
 20 C      -10.1760    -1.5020     0.8390 C.3   1 <1>  -0.1600 
 21 C       -9.9010    -3.6700    -0.2520 C.3   1 <1>  -0.1600 
 22 C      -10.9100    -2.8120     0.5140 C.3   1 <1>   0.4230 
 23 N      -12.1620    -2.6040    -0.2850 N.4   1 <1>  -0.9590 
 24 C      -11.9840    -1.8470    -1.5670 C.3   1 <1>   0.2630 
 25 C      -13.2310    -1.9700     0.5490 C.3   1 <1>   0.2630 
 26 H       -1.0690     1.4870    -3.3880 H     1 <1>   0.1500 
 27 H       -2.0230     1.2430     1.4630 H     1 <1>   0.1500 
 28 H       -1.6810    -1.9870    -0.1460 H     1 <1>   0.0800 
 29 H       -2.0600    -1.1590     1.3300 H     1 <1>   0.0800 
 30 H       -1.4120     3.3980     0.4180 H     1 <1>   0.1500 
 31 H       -3.9480    -1.5760    -0.9920 H     1 <1>   0.0800 
 32 H       -4.3370    -0.6660     0.4460 H     1 <1>   0.0800 
 33 H       -6.1690    -1.6130    -0.6680 H     1 <1>   0.0800 
 34 H       -7.0460    -4.3830     1.6070 H     1 <1>   0.0800 
 35 H       -5.4770    -4.4280     2.3700 H     1 <1>   0.0800 
 36 H       -5.7210    -5.2370     0.8410 H     1 <1>   0.0800 
 37 H       -7.8170    -2.3130     1.7220 H     1 <1>   0.0800 
 38 H       -7.2200    -0.7430     1.2240 H     1 <1>   0.0800 
 39 H       -7.0970    -3.1340    -2.0020 H     1 <1>   0.0800 
 40 H       -7.4280    -4.2880    -0.7470 H     1 <1>   0.0800 
 41 H       -8.7740    -0.5890    -0.5510 H     1 <1>   0.0800 
 42 H       -9.2490    -2.4080    -1.8790 H     1 <1>   0.0800 
 43 H      -10.7640    -0.6320     0.6120 H     1 <1>   0.0800 
 44 H       -9.9550    -1.4770     1.8920 H     1 <1>   0.0800 
 45 H       -9.3810    -4.2700     0.4750 H     1 <1>   0.0800 
 46 H      -10.3570    -4.3320    -0.9660 H     1 <1>   0.0800 
 47 H      -11.1660    -3.3160     1.4320 H     1 <1>   0.0800 
 48 H      -12.4960    -3.5460    -0.5360 H     1 <1>   0.4500 
 49 H      -11.5800    -0.8670    -1.3750 H     1 <1>   0.0800 
 50 H      -12.9310    -1.7360    -2.0710 H     1 <1>   0.0800 
 51 H      -11.3130    -2.3750    -2.2240 H     1 <1>   0.0800 
 52 H      -12.9420    -0.9710     0.8360 H     1 <1>   0.0800 
 53 H      -13.4030    -2.5480     1.4420 H     1 <1>   0.0800 
 54 H      -14.1540    -1.9130    -0.0050 H     1 <1>   0.0800 
@<TRIPOS>BOND
  1   1   2  1   
  2   2   3  ar  
  3   2   4  ar  
  4   3   5  ar  
  5   3   6  1   
  6   4   7  ar  
  7   4  26  1   
  8   5   8  ar  
  9   5  27  1   
 10   6   9  1   
 11   6  28  1   
 12   6  29  1   
 13   7   8  ar  
 14   7  10  1   
 15   8  30  1   
 16   9  11  1   
 17   9  31  1   
 18   9  32  1   
 19  11  12  2   
 20  11  13  am  
 21  13  14  1   
 22  13  15  1   
 23  14  16  1   
 24  14  17  1   
 25  14  33  1   
 26  15  34  1   
 27  15  35  1   
 28  15  36  1   
 29  16  18  1   
 30  16  37  1   
 31  16  38  1   
 32  17  19  1   
 33  17  39  1   
 34  17  40  1   
 35  18  19  1   
 36  18  20  1   
 37  18  41  1   
 38  19  21  1   
 39  19  42  1   
 40  20  22  1   
 41  20  43  1   
 42  20  44  1   
 43  21  22  1   
 44  21  45  1   
 45  21  46  1   
 46  22  23  1   
 47  22  47  1   
 48  23  24  1   
 49  23  25  1   
 50  23  48  1   
 51  24  49  1   
 52  24  50  1   
 53  24  51  1   
 54  25  52  1   
 55  25  53  1   
 56  25  54  1   
@<TRIPOS>SUBSTRUCTURE
  1 ****  14 GROUP 4 **** **** 0

# MOE 2024.06 (io_trps.svl 2023.06)
