@<TRIPOS>MOLECULE
NONAME
48 51 1 0 0 
SMALL
USER_CHARGES


@<TRIPOS>ATOM
  1 O        0.0900     0.7830    -0.3140 O.2   1 <1>  -0.5700 
  2 C       -0.6380     1.5820    -0.8750 C.2   1 <1>   0.6900 
  3 N       -2.0030     1.4800    -0.7870 N.am  1 <1>  -0.6600 
  4 N       -0.1020     2.6010    -1.5810 N.am  1 <1>  -0.7300 
  5 C       -2.8930     2.6850    -0.8480 C.3   1 <1>   0.1400 
  6 C       -2.6410     0.2400    -0.2480 C.3   1 <1>   0.1400 
  7 C        0.8910     3.5570    -0.9880 C.3   1 <1>   0.0340 
  8 C       -3.4300     3.0530     0.5560 C.3   1 <1>   0.1430 
  9 C       -3.9310     0.5440     0.5350 C.3   1 <1>  -0.1600 
 10 C        0.2850     4.9530    -0.8250 C.2   1 <1>   0.9060 
 11 C       -4.6390     3.9550     0.3610 C.ar  1 <1>   0.1660 
 12 C       -3.7550     1.7960     1.4080 C.3   1 <1>  -0.1600 
 13 C       -2.4520     3.9930     1.3060 C.3   1 <1>  -0.1600 
 14 O       -0.6070     5.2970    -1.6160 O.co2 1 <1>  -0.9000 
 15 O        0.6380     5.6720     0.1150 O.co2 1 <1>  -0.9000 
 16 N       -5.8390     3.5620     0.0010 N.ar  1 <1>  -0.6200 
 17 C       -4.3300     5.2590     0.5950 C.ar  1 <1>  -0.1430 
 18 C       -2.8840     5.4340     0.9860 C.3   1 <1>  -0.0170 
 19 C       -6.7570     4.5290    -0.1210 C.ar  1 <1>   0.6200 
 20 C       -5.3240     6.1900     0.4430 C.ar  1 <1>   0.1600 
 21 N       -6.5410     5.8360     0.0930 N.ar  1 <1>  -0.6200 
 22 C       -8.1000     4.1270    -0.5170 C.ar  1 <1>   0.0000 
 23 C       -9.2290     4.8520    -0.1240 C.ar  1 <1>  -0.1500 
 24 C       -8.3240     2.9960    -1.3080 C.ar  1 <1>  -0.1500 
 25 C      -10.5060     4.4730    -0.4970 C.ar  1 <1>  -0.1500 
 26 C       -9.5970     2.6090    -1.6840 C.ar  1 <1>  -0.1500 
 27 C      -10.6930     3.3480    -1.2790 C.ar  1 <1>  -0.1500 
 28 H       -0.7840     3.1590    -2.1050 H     1 <1>   0.3700 
 29 H       -3.7200     2.4560    -1.4960 H     1 <1>   0.0800 
 30 H       -2.3900     3.5360    -1.2710 H     1 <1>   0.0800 
 31 H       -1.9490    -0.2560     0.4110 H     1 <1>   0.0800 
 32 H       -2.8550    -0.4270    -1.0640 H     1 <1>   0.0800 
 33 H        1.7450     3.6320    -1.6320 H     1 <1>   0.0800 
 34 H        1.2090     3.2080    -0.0230 H     1 <1>   0.0800 
 35 H       -4.1770    -0.3020     1.1510 H     1 <1>   0.0800 
 36 H       -4.7460     0.6920    -0.1530 H     1 <1>   0.0800 
 37 H       -4.6390     1.9670     1.9970 H     1 <1>   0.0800 
 38 H       -2.9420     1.6040     2.0860 H     1 <1>   0.0800 
 39 H       -1.4250     3.8150     1.0390 H     1 <1>   0.0800 
 40 H       -2.5520     3.8510     2.3670 H     1 <1>   0.0800 
 41 H       -2.3260     5.8270     0.1540 H     1 <1>   0.0800 
 42 H       -2.7620     6.0810     1.8350 H     1 <1>   0.0800 
 43 H       -5.1160     7.2330     0.6100 H     1 <1>   0.1500 
 44 H       -9.1020     5.7310     0.4850 H     1 <1>   0.1500 
 45 H       -7.4820     2.4090    -1.6330 H     1 <1>   0.1500 
 46 H      -11.3540     5.0530    -0.1780 H     1 <1>   0.1500 
 47 H       -9.7360     1.7330    -2.2930 H     1 <1>   0.1500 
 48 H      -11.6850     3.0500    -1.5700 H     1 <1>   0.1500 
@<TRIPOS>BOND
  1   1   2  2   
  2   2   3  am  
  3   2   4  am  
  4   3   5  1   
  5   3   6  1   
  6   4   7  1   
  7   4  28  1   
  8   5   8  1   
  9   5  29  1   
 10   5  30  1   
 11   6   9  1   
 12   6  31  1   
 13   6  32  1   
 14   7  10  1   
 15   7  33  1   
 16   7  34  1   
 17   8  11  1   
 18   8  12  1   
 19   8  13  1   
 20   9  12  1   
 21   9  35  1   
 22   9  36  1   
 23  10  14  ar  
 24  10  15  ar  
 25  11  16  ar  
 26  11  17  ar  
 27  12  37  1   
 28  12  38  1   
 29  13  18  1   
 30  13  39  1   
 31  13  40  1   
 32  16  19  ar  
 33  17  18  1   
 34  17  20  ar  
 35  18  41  1   
 36  18  42  1   
 37  19  21  ar  
 38  19  22  1   
 39  20  21  ar  
 40  20  43  1   
 41  22  23  ar  
 42  22  24  ar  
 43  23  25  ar  
 44  23  44  1   
 45  24  26  ar  
 46  24  45  1   
 47  25  27  ar  
 48  25  46  1   
 49  26  27  ar  
 50  26  47  1   
 51  27  48  1   
@<TRIPOS>SUBSTRUCTURE
  1 ****  11 GROUP 4 **** **** 0

# MOE 2024.06 (io_trps.svl 2023.06)
