@<TRIPOS>MOLECULE
NONAME
43 44 1 0 0 
SMALL
USER_CHARGES


@<TRIPOS>ATOM
  1 O       -0.3370    -0.1610     0.1940 O.2   1 <1>  -0.5700 
  2 C        0.6150    -0.8280    -0.1310 C.2   1 <1>   0.5690 
  3 N        1.8860    -0.3440    -0.2090 N.am  1 <1>  -0.4930 
  4 C        0.3870    -2.2880    -0.4610 C.3   1 <1>  -0.0990 
  5 C        2.3620     0.9630     0.0650 C.2   1 <1>   0.0630 
  6 C        0.1170    -3.1070     0.8060 C.3   1 <1>  -0.0160 
  7 C        3.6400     1.3900    -0.0380 C.2   1 <1>  -0.3320 
  8 C        1.6480     2.0820     0.4950 C.2   1 <1>   0.1390 
  9 C       -0.0160    -4.5820     0.4670 C.ar  1 <1>  -0.1440 
 10 N        3.6380     2.6990     0.3210 N.pl3 1 <1>   0.3140 
 11 C        4.8910     0.6330    -0.4620 C.3   1 <1>  -0.0600 
 12 N        2.4090     3.1240     0.6500 N.2   1 <1>  -0.7070 
 13 C       -1.1990    -5.0690    -0.0630 C.ar  1 <1>  -0.1500 
 14 C        1.0360    -5.4560     0.6780 C.ar  1 <1>  -0.1500 
 15 C        4.7880     3.6110     0.3710 C.3   1 <1>   0.0160 
 16 C       -1.3470    -6.4090    -0.3840 C.ar  1 <1>   0.0820 
 17 C        0.9100    -6.7970     0.3570 C.ar  1 <1>  -0.1500 
 18 O       -2.5690    -6.7470    -0.8870 O.3   1 <1>  -0.3620 
 19 C       -0.2740    -7.2930    -0.1850 C.ar  1 <1>   0.0820 
 20 C       -3.1500    -7.9980    -0.5920 C.3   1 <1>   0.0400 
 21 O       -0.3990    -8.6070    -0.5370 O.3   1 <1>  -0.3630 
 22 C        0.6900    -9.5030    -0.4970 C.3   1 <1>   0.0400 
 23 H        2.6070    -0.9960    -0.5050 H     1 <1>   0.3700 
 24 H        1.2400    -2.6880    -0.9770 H     1 <1>   0.0800 
 25 H       -0.4600    -2.3590    -1.1200 H     1 <1>   0.0800 
 26 H       -0.7900    -2.7610     1.2730 H     1 <1>   0.0800 
 27 H        0.9180    -2.9640     1.5110 H     1 <1>   0.0800 
 28 H        0.5870     2.0890     0.6790 H     1 <1>   0.1500 
 29 H        4.6570    -0.3870    -0.7040 H     1 <1>   0.0800 
 30 H        5.6130     0.6360     0.3360 H     1 <1>   0.0800 
 31 H        5.3260     1.0960    -1.3290 H     1 <1>   0.0800 
 32 H       -2.0290    -4.4080    -0.2330 H     1 <1>   0.1500 
 33 H        1.9620    -5.0990     1.0950 H     1 <1>   0.1500 
 34 H        5.5110     3.2300     1.0670 H     1 <1>   0.0800 
 35 H        4.4540     4.5800     0.6940 H     1 <1>   0.0800 
 36 H        5.2200     3.6880    -0.6080 H     1 <1>   0.0800 
 37 H        1.7520    -7.4360     0.5370 H     1 <1>   0.1500 
 38 H       -4.2120    -7.9160    -0.7380 H     1 <1>   0.0800 
 39 H       -2.9350    -8.2540     0.4300 H     1 <1>   0.0800 
 40 H       -2.7480    -8.7340    -1.2630 H     1 <1>   0.0800 
 41 H        0.3560   -10.4510    -0.8790 H     1 <1>   0.0800 
 42 H        1.0140    -9.6150     0.5220 H     1 <1>   0.0800 
 43 H        1.4810    -9.1190    -1.1170 H     1 <1>   0.0800 
@<TRIPOS>BOND
  1   1   2  2   
  2   2   3  am  
  3   2   4  1   
  4   3   5  1   
  5   3  23  1   
  6   4   6  1   
  7   4  24  1   
  8   4  25  1   
  9   5   7  2   
 10   5   8  1   
 11   6   9  1   
 12   6  26  1   
 13   6  27  1   
 14   7  10  1   
 15   7  11  1   
 16   8  12  2   
 17   8  28  1   
 18   9  13  ar  
 19   9  14  ar  
 20  10  12  1   
 21  10  15  1   
 22  11  29  1   
 23  11  30  1   
 24  11  31  1   
 25  13  16  ar  
 26  13  32  1   
 27  14  17  ar  
 28  14  33  1   
 29  15  34  1   
 30  15  35  1   
 31  15  36  1   
 32  16  18  1   
 33  16  19  ar  
 34  17  19  ar  
 35  17  37  1   
 36  18  20  1   
 37  19  21  1   
 38  20  38  1   
 39  20  39  1   
 40  20  40  1   
 41  21  22  1   
 42  22  41  1   
 43  22  42  1   
 44  22  43  1   
@<TRIPOS>SUBSTRUCTURE
  1 ****   4 GROUP 4 **** **** 0

# MOE 2024.06 (io_trps.svl 2023.06)
