@<TRIPOS>MOLECULE
NONAME
54 57 1 0 0 
SMALL
USER_CHARGES


@<TRIPOS>ATOM
  1 F       -1.1230    -2.9220     3.5810 F     1 <1>  -0.1900 
  2 C       -0.5770    -3.0110     2.3980 C.ar  1 <1>   0.1900 
  3 C       -1.2310    -3.7230     1.4160 C.ar  1 <1>  -0.1500 
  4 C        0.6320    -2.3820     2.1770 C.ar  1 <1>  -0.1500 
  5 C       -0.6660    -3.8400     0.1460 C.ar  1 <1>   0.0860 
  6 C        1.2040    -2.4910     0.9230 C.ar  1 <1>  -0.1500 
  7 C       -1.3970    -4.5600    -0.8710 C.2   1 <1>   0.5440 
  8 C        0.5790    -3.2260    -0.0780 C.ar  1 <1>   0.0830 
  9 O       -2.0110    -3.9380    -1.7150 O.2   1 <1>  -0.5700 
 10 N       -1.4400    -5.9390    -0.8880 N.am  1 <1>  -0.6600 
 11 O        1.2370    -3.2990    -1.2580 O.3   1 <1>  -0.3630 
 12 C       -2.3280    -6.6920    -1.8270 C.3   1 <1>   0.1400 
 13 C       -0.6750    -6.8350     0.0360 C.3   1 <1>   0.1400 
 14 C        1.6630    -4.5510    -1.7690 C.3   1 <1>   0.1200 
 15 C       -3.2940    -7.5950    -1.0450 C.3   1 <1>   0.1400 
 16 C       -1.6380    -7.7320     0.8270 C.3   1 <1>   0.1400 
 17 C        2.7670    -5.1270    -0.8740 C.3   1 <1>   0.0960 
 18 N       -2.5450    -8.4820    -0.0990 N.am  1 <1>  -0.6600 
 19 N        2.7670    -6.6000    -0.9070 N.pl3 1 <1>   0.3140 
 20 C       -2.5970    -9.8510    -0.2150 C.2   1 <1>   0.5690 
 21 N        2.5240    -7.3280    -2.0020 N.2   1 <1>  -0.4180 
 22 C        3.0430    -7.4150     0.1120 C.2   1 <1>  -0.3020 
 23 O       -3.3230   -10.3890    -1.0190 O.2   1 <1>  -0.5700 
 24 C       -1.7280   -10.7690     0.6500 C.3   1 <1>   0.2010 
 25 N        2.6450    -8.5730    -1.6990 N.2   1 <1>  -0.2270 
 26 C        2.9720    -8.6490    -0.4040 C.2   1 <1>   0.0460 
 27 N       -0.3450   -10.9440     0.1060 N.am  1 <1>  -0.7300 
 28 C        3.2430    -9.9700     0.2920 C.3   1 <1>   0.0210 
 29 C        0.8000   -10.5790     0.7290 C.2   1 <1>   0.5690 
 30 C        2.1150   -10.9930     0.1000 C.3   1 <1>  -0.0990 
 31 O        0.7930    -9.9800     1.7770 O.2   1 <1>  -0.5700 
 32 H       -2.1810    -4.1790     1.6270 H     1 <1>   0.1500 
 33 H        1.1050    -1.8230     2.9660 H     1 <1>   0.1500 
 34 H        2.1420    -2.0060     0.7130 H     1 <1>   0.1500 
 35 H       -1.7220    -7.2990    -2.4780 H     1 <1>   0.0800 
 36 H       -2.8970    -6.0180    -2.4430 H     1 <1>   0.0800 
 37 H       -0.0730    -6.2670     0.7210 H     1 <1>   0.0800 
 38 H       -0.0150    -7.4600    -0.5420 H     1 <1>   0.0800 
 39 H        2.0410    -4.3850    -2.7620 H     1 <1>   0.0800 
 40 H        0.8220    -5.2110    -1.8360 H     1 <1>   0.0800 
 41 H       -3.8700    -8.1780    -1.7420 H     1 <1>   0.0800 
 42 H       -3.9790    -6.9800    -0.4880 H     1 <1>   0.0800 
 43 H       -2.2340    -7.1180     1.4800 H     1 <1>   0.0800 
 44 H       -1.0640    -8.3950     1.4440 H     1 <1>   0.0800 
 45 H        2.6220    -4.8280     0.1450 H     1 <1>   0.0800 
 46 H        3.7260    -4.7800    -1.2110 H     1 <1>   0.0800 
 47 H        3.2780    -7.0860     1.1060 H     1 <1>   0.1500 
 48 H       -2.2020   -11.7330     0.6890 H     1 <1>   0.0800 
 49 H       -1.6910   -10.3950     1.6560 H     1 <1>   0.0800 
 50 H       -0.3080   -11.3470    -0.8330 H     1 <1>   0.3700 
 51 H        3.4010    -9.7950     1.3420 H     1 <1>   0.0800 
 52 H        4.1530   -10.3780    -0.1110 H     1 <1>   0.0800 
 53 H        2.4110   -11.9230     0.5480 H     1 <1>   0.0800 
 54 H        1.9710   -11.1650    -0.9510 H     1 <1>   0.0800 
@<TRIPOS>BOND
  1   1   2  1   
  2   2   3  ar  
  3   2   4  ar  
  4   3   5  ar  
  5   3  32  1   
  6   4   6  ar  
  7   4  33  1   
  8   5   7  1   
  9   5   8  ar  
 10   6   8  ar  
 11   6  34  1   
 12   7   9  2   
 13   7  10  am  
 14   8  11  1   
 15  10  12  1   
 16  10  13  1   
 17  11  14  1   
 18  12  15  1   
 19  12  35  1   
 20  12  36  1   
 21  13  16  1   
 22  13  37  1   
 23  13  38  1   
 24  14  17  1   
 25  14  39  1   
 26  14  40  1   
 27  15  18  1   
 28  15  41  1   
 29  15  42  1   
 30  16  18  1   
 31  16  43  1   
 32  16  44  1   
 33  17  19  1   
 34  17  45  1   
 35  17  46  1   
 36  18  20  am  
 37  19  21  1   
 38  19  22  1   
 39  20  23  2   
 40  20  24  1   
 41  21  25  2   
 42  22  26  2   
 43  22  47  1   
 44  24  27  1   
 45  24  48  1   
 46  24  49  1   
 47  25  26  1   
 48  26  28  1   
 49  27  29  am  
 50  27  50  1   
 51  28  30  1   
 52  28  51  1   
 53  28  52  1   
 54  29  30  1   
 55  29  31  2   
 56  30  53  1   
 57  30  54  1   
@<TRIPOS>SUBSTRUCTURE
  1 ****  13 GROUP 4 **** **** 0

# MOE 2024.06 (io_trps.svl 2023.06)
