@<TRIPOS>MOLECULE
NONAME
45 47 1 0 0 
SMALL
USER_CHARGES


@<TRIPOS>ATOM
  1 CL      -0.1150     0.8090     1.7160 Cl    1 <1>  -0.1770 
  2 C        1.2520     1.1860     0.6980 C.ar  1 <1>   0.1770 
  3 C        2.0990     0.1760     0.2790 C.ar  1 <1>  -0.1440 
  4 C        1.4530     2.5030     0.3230 C.ar  1 <1>  -0.1500 
  5 C        3.1580     0.5370    -0.5370 C.ar  1 <1>   0.1900 
  6 C        1.8910    -1.2650     0.6960 C.3   1 <1>   0.4860 
  7 C        2.5250     2.8330    -0.4930 C.ar  1 <1>  -0.1500 
  8 F        3.9610    -0.4070    -0.9560 F     1 <1>  -0.1900 
  9 C        3.3940     1.8460    -0.9350 C.ar  1 <1>  -0.1440 
 10 N        1.5000    -2.0680    -0.4950 N.4   1 <1>  -0.9590 
 11 C        4.5730     2.2030    -1.8300 C.3   1 <1>  -0.0970 
 12 C        0.0990    -1.7520    -0.9180 C.3   1 <1>   0.3430 
 13 C        1.5320    -3.5280    -0.1680 C.3   1 <1>   0.3430 
 14 C       -0.7770    -2.8420    -0.2940 C.3   1 <1>   0.2000 
 15 C        0.1180    -4.0750    -0.3920 C.3   1 <1>  -0.0800 
 16 O       -0.9910    -2.5200     1.0430 O.3   1 <1>  -0.6800 
 17 C       -0.2260    -5.2380     0.5580 C.3   1 <1>   0.0210 
 18 C        0.7020    -6.4180     0.3380 C.2   1 <1>   0.1080 
 19 N        1.9930    -6.3350     0.4570 N.2   1 <1>  -0.7070 
 20 C        0.2870    -7.6990    -0.0050 C.2   1 <1>  -0.1500 
 21 N        2.4380    -7.5840     0.2010 N.pl3 1 <1>   0.3000 
 22 C        1.4220    -8.4230    -0.0860 C.2   1 <1>  -0.3320 
 23 C        1.6010    -9.8930    -0.4200 C.3   1 <1>  -0.0600 
 24 H        0.7770     3.2670     0.6680 H     1 <1>   0.1500 
 25 H        1.1300    -1.3370     1.4570 H     1 <1>   0.0800 
 26 H        2.8130    -1.6460     1.1050 H     1 <1>   0.0800 
 27 H        2.6760     3.8610    -0.7790 H     1 <1>   0.1500 
 28 H        2.1730    -1.8520    -1.2440 H     1 <1>   0.4500 
 29 H        4.6080     3.2610    -2.0220 H     1 <1>   0.0800 
 30 H        4.4920     1.6900    -2.7720 H     1 <1>   0.0800 
 31 H        5.4950     1.9130    -1.3580 H     1 <1>   0.0800 
 32 H       -0.2170    -0.7720    -0.6000 H     1 <1>   0.0800 
 33 H        0.0270    -1.8160    -1.9910 H     1 <1>   0.0800 
 34 H        2.2410    -4.0580    -0.7840 H     1 <1>   0.0800 
 35 H        1.8070    -3.6750     0.8650 H     1 <1>   0.0800 
 36 H       -1.7280    -2.9450    -0.7900 H     1 <1>   0.0800 
 37 H        0.0740    -4.4470    -1.4010 H     1 <1>   0.0800 
 38 H       -1.7370    -3.0320     1.4210 H     1 <1>   0.4000 
 39 H       -1.2400    -5.5550     0.3950 H     1 <1>   0.0800 
 40 H       -0.1320    -4.9310     1.5850 H     1 <1>   0.0800 
 41 H       -0.7270    -8.0240    -0.1620 H     1 <1>   0.1500 
 42 H        3.4330    -7.8370     0.2340 H     1 <1>   0.2700 
 43 H        0.6450   -10.3500    -0.6080 H     1 <1>   0.0800 
 44 H        2.0690   -10.4080     0.4000 H     1 <1>   0.0800 
 45 H        2.2110   -10.0060    -1.2990 H     1 <1>   0.0800 
@<TRIPOS>BOND
  1   1   2  1   
  2   2   3  ar  
  3   2   4  ar  
  4   3   5  ar  
  5   3   6  1   
  6   4   7  ar  
  7   4  24  1   
  8   5   8  1   
  9   5   9  ar  
 10   6  10  1   
 11   6  25  1   
 12   6  26  1   
 13   7   9  ar  
 14   7  27  1   
 15   9  11  1   
 16  10  12  1   
 17  10  13  1   
 18  10  28  1   
 19  11  29  1   
 20  11  30  1   
 21  11  31  1   
 22  12  14  1   
 23  12  32  1   
 24  12  33  1   
 25  13  15  1   
 26  13  34  1   
 27  13  35  1   
 28  14  15  1   
 29  14  16  1   
 30  14  36  1   
 31  15  17  1   
 32  15  37  1   
 33  16  38  1   
 34  17  18  1   
 35  17  39  1   
 36  17  40  1   
 37  18  19  2   
 38  18  20  1   
 39  19  21  1   
 40  20  22  2   
 41  20  41  1   
 42  21  22  1   
 43  21  42  1   
 44  22  23  1   
 45  23  43  1   
 46  23  44  1   
 47  23  45  1   
@<TRIPOS>SUBSTRUCTURE
  1 ****  10 GROUP 4 **** **** 0

# MOE 2024.06 (io_trps.svl 2023.06)
