@<TRIPOS>MOLECULE
NONAME
39 40 1 0 0 
SMALL
USER_CHARGES


@<TRIPOS>ATOM
  1 S        0.3440    -0.2320    -1.4660 S.o2  1 <1>   1.3330 
  2 O        0.5760    -1.6590    -1.4510 O.2   1 <1>  -0.6500 
  3 O       -0.4800     0.3460    -2.5040 O.2   1 <1>  -0.6500 
  4 N       -0.3340     0.2030     0.0280 N.am  1 <1>  -0.8490 
  5 C        1.9390     0.5870    -1.4620 C.3   1 <1>  -0.0550 
  6 C       -0.8580     1.5740     0.0570 C.3   1 <1>   0.1160 
  7 C       -1.3750    -0.7360     0.4530 C.3   1 <1>   0.1160 
  8 C        2.8110     0.2590    -0.2370 C.3   1 <1>  -0.0800 
  9 C        4.0890     1.0720    -0.2100 C.3   1 <1>   0.2890 
 10 C        3.3360    -1.1690    -0.1740 C.3   1 <1>   0.1200 
 11 N        3.8490     2.3520     0.5010 N.pl3 1 <1>  -0.8690 
 12 C        5.0840     0.1560     0.5040 C.3   1 <1>   0.1200 
 13 O        4.4770    -1.0990     0.6200 O.3   1 <1>  -0.5600 
 14 C        4.6200     3.4870     0.3290 C.ar  1 <1>   0.4100 
 15 N        5.6070     3.3860    -0.5550 N.ar  1 <1>  -0.6200 
 16 C        4.3540     4.6570     1.0580 C.ar  1 <1>   0.0730 
 17 C        6.3600     4.4560    -0.7270 C.ar  1 <1>   0.1600 
 18 C        3.2640     4.6990     1.9810 C.1   1 <1>   0.4840 
 19 C        5.1600     5.7630     0.8600 C.ar  1 <1>  -0.1500 
 20 C        6.1850     5.6520    -0.0550 C.ar  1 <1>  -0.1500 
 21 N        2.3910     4.7110     2.7150 N.1   1 <1>  -0.5570 
 22 H        2.4700     0.3250    -2.3570 H     1 <1>   0.0800 
 23 H        1.7790     1.6470    -1.4850 H     1 <1>   0.0800 
 24 H       -1.2070     1.8160     1.0460 H     1 <1>   0.0800 
 25 H       -1.6740     1.6810    -0.6400 H     1 <1>   0.0800 
 26 H       -0.0840     2.2740    -0.2060 H     1 <1>   0.0800 
 27 H       -1.7690    -0.4480     1.4130 H     1 <1>   0.0800 
 28 H       -0.9620    -1.7270     0.5440 H     1 <1>   0.0800 
 29 H       -2.1750    -0.7590    -0.2680 H     1 <1>   0.0800 
 30 H        2.2560     0.4350     0.6680 H     1 <1>   0.0800 
 31 H        4.4410     1.2550    -1.2120 H     1 <1>   0.0800 
 32 H        3.6280    -1.5310    -1.1460 H     1 <1>   0.0800 
 33 H        2.6320    -1.8500     0.2750 H     1 <1>   0.0800 
 34 H        3.3490     2.2420     1.3880 H     1 <1>   0.4000 
 35 H        5.3150     0.5100     1.4930 H     1 <1>   0.0800 
 36 H        5.9860     0.0470    -0.0710 H     1 <1>   0.0800 
 37 H        7.1620     4.3780    -1.4420 H     1 <1>   0.1500 
 38 H        4.9950     6.6810     1.3990 H     1 <1>   0.1500 
 39 H        6.8420     6.4820    -0.2490 H     1 <1>   0.1500 
@<TRIPOS>BOND
  1   1   2  2   
  2   1   3  2   
  3   1   4  am  
  4   1   5  1   
  5   4   6  1   
  6   4   7  1   
  7   5   8  1   
  8   5  22  1   
  9   5  23  1   
 10   6  24  1   
 11   6  25  1   
 12   6  26  1   
 13   7  27  1   
 14   7  28  1   
 15   7  29  1   
 16   8   9  1   
 17   8  10  1   
 18   8  30  1   
 19   9  11  1   
 20   9  12  1   
 21   9  31  1   
 22  10  13  1   
 23  10  32  1   
 24  10  33  1   
 25  11  14  1   
 26  11  34  1   
 27  12  13  1   
 28  12  35  1   
 29  12  36  1   
 30  14  15  ar  
 31  14  16  ar  
 32  15  17  ar  
 33  16  18  1   
 34  16  19  ar  
 35  17  20  ar  
 36  17  37  1   
 37  18  21  3   
 38  19  20  ar  
 39  19  38  1   
 40  20  39  1   
@<TRIPOS>SUBSTRUCTURE
  1 ****  11 GROUP 4 **** **** 0

# MOE 2024.06 (io_trps.svl 2023.06)
