@<TRIPOS>MOLECULE
NONAME
41 43 1 0 0 
SMALL
USER_CHARGES


@<TRIPOS>ATOM
  1 S       -0.9430    -1.5370     1.3120 S.3   1 <1>  -0.2820 
  2 C       -0.9740     0.1870     0.9840 C.2   1 <1>   0.7320 
  3 C       -2.2180    -1.7410     0.1400 C.2   1 <1>   0.6510 
  4 S        0.1900     1.1740     1.9120 S.3   1 <1>  -0.3710 
  5 N       -1.8180     0.5780     0.1230 N.2   1 <1>  -0.5120 
  6 N       -2.7360    -2.8960    -0.1410 N.2   1 <1>  -0.6210 
  7 N       -2.5480    -0.5140    -0.3780 N.am  1 <1>  -0.0580 
  8 C       -0.1240     2.8970     1.3180 C.3   1 <1>  -0.0100 
  9 C       -3.7270    -2.8850    -1.0880 C.2   1 <1>   0.0330 
 10 C       -3.5630    -0.4840    -1.3210 C.2   1 <1>   0.6160 
 11 C       -4.1460    -1.7300    -1.6690 C.2   1 <1>  -0.1360 
 12 C       -4.3250    -4.2480    -1.4410 C.3   1 <1>   0.4810 
 13 O       -3.9520     0.5560    -1.8290 O.2   1 <1>  -0.5700 
 14 N       -4.5120    -5.0210    -0.1780 N.4   1 <1>  -0.9590 
 15 C       -4.5180    -6.4960    -0.4370 C.3   1 <1>   0.3430 
 16 C       -5.7070    -4.5430     0.5860 C.3   1 <1>   0.2630 
 17 C       -4.3430    -7.3160     0.8450 C.3   1 <1>   0.0200 
 18 C       -4.3390    -8.7900     0.4940 C.2   1 <1>  -0.1400 
 19 S       -5.8130    -9.4430    -0.1710 S.3   1 <1>  -0.0800 
 20 C       -3.4300    -9.7790     0.5730 C.2   1 <1>   0.0460 
 21 C       -5.0410   -11.0070    -0.2790 C.2   1 <1>   0.2280 
 22 N       -3.8360   -11.0240     0.1280 N.2   1 <1>  -0.5650 
 23 C       -2.0090    -9.7040     1.0920 C.3   1 <1>  -0.0590 
 24 H        0.5460     3.5540     1.8430 H     1 <1>   0.0800 
 25 H       -1.1490     3.1420     1.5330 H     1 <1>   0.0800 
 26 H        0.0620     2.9240     0.2590 H     1 <1>   0.0800 
 27 H       -4.9220    -1.6870    -2.4130 H     1 <1>   0.1500 
 28 H       -3.6290    -4.7650    -2.0810 H     1 <1>   0.0800 
 29 H       -5.2600    -4.1350    -1.9660 H     1 <1>   0.0800 
 30 H       -3.6630    -4.7680     0.3630 H     1 <1>   0.4500 
 31 H       -3.7110    -6.7490    -1.1060 H     1 <1>   0.0800 
 32 H       -5.4420    -6.7790    -0.9150 H     1 <1>   0.0800 
 33 H       -6.6130    -4.7570     0.0430 H     1 <1>   0.0800 
 34 H       -5.6440    -3.4780     0.7500 H     1 <1>   0.0800 
 35 H       -5.7580    -5.0280     1.5480 H     1 <1>   0.0800 
 36 H       -5.1500    -7.1350     1.5310 H     1 <1>   0.0800 
 37 H       -3.4150    -7.0570     1.3210 H     1 <1>   0.0800 
 38 H       -5.6240   -11.8210    -0.6740 H     1 <1>   0.1500 
 39 H       -1.7630    -8.7160     1.4280 H     1 <1>   0.0800 
 40 H       -1.3260    -9.9890     0.3130 H     1 <1>   0.0800 
 41 H       -1.8930   -10.3880     1.9140 H     1 <1>   0.0800 
@<TRIPOS>BOND
  1   1   2  1   
  2   1   3  1   
  3   2   4  1   
  4   2   5  2   
  5   3   6  2   
  6   3   7  1   
  7   4   8  1   
  8   5   7  1   
  9   6   9  1   
 10   7  10  am  
 11   8  24  1   
 12   8  25  1   
 13   8  26  1   
 14   9  11  2   
 15   9  12  1   
 16  10  11  1   
 17  10  13  2   
 18  11  27  1   
 19  12  14  1   
 20  12  28  1   
 21  12  29  1   
 22  14  15  1   
 23  14  16  1   
 24  14  30  1   
 25  15  17  1   
 26  15  31  1   
 27  15  32  1   
 28  16  33  1   
 29  16  34  1   
 30  16  35  1   
 31  17  18  1   
 32  17  36  1   
 33  17  37  1   
 34  18  19  1   
 35  18  20  2   
 36  19  21  1   
 37  20  22  1   
 38  20  23  1   
 39  21  22  2   
 40  21  38  1   
 41  23  39  1   
 42  23  40  1   
 43  23  41  1   
@<TRIPOS>SUBSTRUCTURE
  1 ****   6 GROUP 4 **** **** 0

# MOE 2024.06 (io_trps.svl 2023.06)
