@<TRIPOS>MOLECULE
NONAME
49 52 1 0 0 
SMALL
USER_CHARGES


@<TRIPOS>ATOM
  1 F       -1.1090    -1.2950     2.7840 F     1 <1>  -0.1900 
  2 C       -1.4540    -2.2750     1.9880 C.ar  1 <1>   0.1900 
  3 C       -0.5110    -2.9960     1.2460 C.ar  1 <1>   0.0830 
  4 C       -2.8030    -2.5600     1.9140 C.ar  1 <1>  -0.1500 
  5 O        0.8410    -2.8100     1.2340 O.3   1 <1>  -0.3630 
  6 C       -0.9780    -4.0140     0.4300 C.ar  1 <1>  -0.1500 
  7 C       -3.2350    -3.5810     1.0890 C.ar  1 <1>  -0.1500 
  8 C        1.4930    -1.8550     2.0420 C.3   1 <1>   0.0400 
  9 C       -2.3340    -4.3340     0.3320 C.ar  1 <1>   0.0530 
 10 C       -2.7810    -5.4050    -0.5250 C.2   1 <1>   0.0870 
 11 O       -2.0780    -5.7680    -1.5730 O.3   1 <1>  -0.0190 
 12 C       -3.8720    -6.2080    -0.4990 C.2   1 <1>  -0.2330 
 13 N       -2.6350    -6.7430    -2.2470 N.2   1 <1>  -0.4100 
 14 C       -3.7200    -7.0200    -1.6200 C.2   1 <1>   0.3720 
 15 C       -4.9700    -6.3000     0.3940 C.2   1 <1>   1.0330 
 16 N       -4.6130    -8.0080    -2.0560 N.pl3 1 <1>  -0.8210 
 17 O       -5.9660    -5.5750     0.2560 O.co2 1 <1>  -0.9000 
 18 O       -5.0850    -7.2580     1.1790 O.co2 1 <1>  -0.9000 
 19 C       -5.9270    -7.4850    -2.5620 C.3   1 <1>   0.2090 
 20 C       -4.6500    -9.2410    -1.1970 C.3   1 <1>   0.2090 
 21 C       -7.1200    -7.5670    -1.5720 C.3   1 <1>   0.3430 
 22 C       -6.0670    -9.6760    -0.7570 C.3   1 <1>   0.3430 
 23 N       -6.9150    -8.4980    -0.4130 N.4   1 <1>  -0.9590 
 24 C       -8.1480    -8.7400     0.3590 C.3   1 <1>   0.4380 
 25 C       -7.8320    -9.5370     1.6250 C.3   1 <1>  -0.1950 
 26 C       -7.8340   -11.0360     1.6600 C.3   1 <1>  -0.2000 
 27 C       -8.9190   -10.2630     2.3550 C.3   1 <1>  -0.2000 
 28 H       -3.5070    -1.9890     2.4930 H     1 <1>   0.1500 
 29 H       -0.2640    -4.5760    -0.1430 H     1 <1>   0.1500 
 30 H       -4.2900    -3.7910     1.0290 H     1 <1>   0.1500 
 31 H        2.5500    -1.9320     1.8630 H     1 <1>   0.0800 
 32 H        1.2810    -2.0670     3.0750 H     1 <1>   0.0800 
 33 H        1.1480    -0.8730     1.7700 H     1 <1>   0.0800 
 34 H       -6.1820    -8.0370    -3.4490 H     1 <1>   0.0800 
 35 H       -5.8080    -6.4580    -2.8630 H     1 <1>   0.0800 
 36 H       -4.0580    -9.0760    -0.3120 H     1 <1>   0.0800 
 37 H       -4.1860   -10.0490    -1.7350 H     1 <1>   0.0800 
 38 H       -7.9930    -7.8640    -2.1250 H     1 <1>   0.0800 
 39 H       -7.3110    -6.5770    -1.1910 H     1 <1>   0.0800 
 40 H       -5.9670   -10.3210     0.0980 H     1 <1>   0.0800 
 41 H       -6.5290   -10.2360    -1.5510 H     1 <1>   0.0800 
 42 H       -6.3130    -7.9480     0.2560 H     1 <1>   0.4500 
 43 H       -8.8630    -9.2770    -0.2420 H     1 <1>   0.0800 
 44 H       -8.5780    -7.7920     0.6420 H     1 <1>   0.0800 
 45 H       -7.1200    -9.0160     2.2480 H     1 <1>   0.1000 
 46 H       -7.1010   -11.5410     2.2670 H     1 <1>   0.1000 
 47 H       -8.1040   -11.6010     0.7850 H     1 <1>   0.1000 
 48 H       -9.9130   -10.2970     1.9430 H     1 <1>   0.1000 
 49 H       -8.9230   -10.2370     3.4320 H     1 <1>   0.1000 
@<TRIPOS>BOND
  1   1   2  1   
  2   2   3  ar  
  3   2   4  ar  
  4   3   5  1   
  5   3   6  ar  
  6   4   7  ar  
  7   4  28  1   
  8   5   8  1   
  9   6   9  ar  
 10   6  29  1   
 11   7   9  ar  
 12   7  30  1   
 13   8  31  1   
 14   8  32  1   
 15   8  33  1   
 16   9  10  1   
 17  10  11  1   
 18  10  12  2   
 19  11  13  1   
 20  12  14  1   
 21  12  15  1   
 22  13  14  2   
 23  14  16  1   
 24  15  17  ar  
 25  15  18  ar  
 26  16  19  1   
 27  16  20  1   
 28  19  21  1   
 29  19  34  1   
 30  19  35  1   
 31  20  22  1   
 32  20  36  1   
 33  20  37  1   
 34  21  23  1   
 35  21  38  1   
 36  21  39  1   
 37  22  23  1   
 38  22  40  1   
 39  22  41  1   
 40  23  24  1   
 41  23  42  1   
 42  24  25  1   
 43  24  43  1   
 44  24  44  1   
 45  25  26  1   
 46  25  27  1   
 47  25  45  1   
 48  26  27  1   
 49  26  46  1   
 50  26  47  1   
 51  27  48  1   
 52  27  49  1   
@<TRIPOS>SUBSTRUCTURE
  1 ****  12 GROUP 4 **** **** 0

# MOE 2024.06 (io_trps.svl 2023.06)
