@<TRIPOS>MOLECULE
NONAME
55 57 1 0 0 
SMALL
USER_CHARGES


@<TRIPOS>ATOM
  1 O        0.1130     0.3940     2.8430 O.2   1 <1>  -0.5700 
  2 C        0.9790    -0.4440     2.7540 C.2   1 <1>   0.5690 
  3 N        2.2660    -0.2020     3.1000 N.am  1 <1>  -0.7300 
  4 C        0.6380    -1.8130     2.1630 C.3   1 <1>   0.1710 
  5 C        2.8300     1.1360     3.3370 C.3   1 <1>   0.2840 
  6 N        1.6840    -2.3740     1.2520 N.3   1 <1>  -0.8100 
  7 C        3.5310     1.5640     2.0610 C.ar  1 <1>  -0.1430 
  8 C        1.9900    -1.5030     0.0990 C.3   1 <1>   0.1100 
  9 C        1.2250    -3.6230     0.6390 C.3   1 <1>   0.1100 
 10 C        2.7800     2.0250     0.9900 C.ar  1 <1>  -0.1500 
 11 C        4.9070     1.4760     1.9400 C.ar  1 <1>  -0.1500 
 12 C        0.9850    -1.8470    -1.0020 C.3   1 <1>   0.2000 
 13 C        0.4450    -3.2300    -0.6230 C.3   1 <1>  -0.0800 
 14 C        3.3830     2.3850    -0.2130 C.ar  1 <1>   0.0830 
 15 C        5.5220     1.8490     0.7590 C.ar  1 <1>  -0.1500 
 16 O       -0.0560    -0.9310    -0.9940 O.3   1 <1>  -0.6800 
 17 C        0.5940    -4.2530    -1.7590 C.3   1 <1>  -0.0160 
 18 O        2.6330     2.7800    -1.2830 O.3   1 <1>  -0.3620 
 19 C        4.7820     2.3100    -0.3180 C.ar  1 <1>   0.0830 
 20 C        0.0930    -5.6210    -1.3230 C.ar  1 <1>  -0.1430 
 21 C        1.2540     2.4880    -1.3650 C.3   1 <1>   0.0400 
 22 O        5.5170     2.6470    -1.4160 O.3   1 <1>  -0.3630 
 23 C       -1.2550    -5.9060    -1.2450 C.ar  1 <1>  -0.1500 
 24 C        0.9530    -6.6430    -0.9760 C.ar  1 <1>  -0.1500 
 25 C        5.1020     3.6800    -2.2810 C.3   1 <1>   0.0400 
 26 C       -1.6670    -7.1600    -0.8270 C.ar  1 <1>   0.1600 
 27 C        0.4380    -7.8630    -0.5700 C.ar  1 <1>   0.1600 
 28 N       -0.8520    -8.1440    -0.4830 N.ar  1 <1>  -0.6200 
 29 H        2.9410    -0.9140     2.8040 H     1 <1>   0.3700 
 30 H       -0.3010    -1.7300     1.6470 H     1 <1>   0.0800 
 31 H        0.4960    -2.4920     2.9850 H     1 <1>   0.0800 
 32 H        2.0470     1.8330     3.5840 H     1 <1>   0.0800 
 33 H        3.5230     1.0950     4.1600 H     1 <1>   0.0800 
 34 H        1.9800    -0.4560     0.3430 H     1 <1>   0.0800 
 35 H        2.9770    -1.7520    -0.2510 H     1 <1>   0.0800 
 36 H        2.0930    -4.2010     0.3670 H     1 <1>   0.0800 
 37 H        0.6260    -4.2110     1.3160 H     1 <1>   0.0800 
 38 H        1.7150     2.0860     1.1140 H     1 <1>   0.1500 
 39 H        5.5070     1.1160     2.7580 H     1 <1>   0.1500 
 40 H        1.4460    -1.8190    -1.9750 H     1 <1>   0.0800 
 41 H       -0.5970    -3.1600    -0.3630 H     1 <1>   0.0800 
 42 H        6.5910     1.7840     0.6630 H     1 <1>   0.1500 
 43 H       -0.3770    -0.8080    -0.0790 H     1 <1>   0.4000 
 44 H        1.6250    -4.3210    -2.0600 H     1 <1>   0.0800 
 45 H        0.0270    -3.9230    -2.6120 H     1 <1>   0.0800 
 46 H        0.9150     2.7460    -2.3510 H     1 <1>   0.0800 
 47 H        0.7260     3.0750    -0.6340 H     1 <1>   0.0800 
 48 H        1.1070     1.4370    -1.1940 H     1 <1>   0.0800 
 49 H       -1.9890    -5.1650    -1.5050 H     1 <1>   0.1500 
 50 H        2.0180    -6.5050    -1.0140 H     1 <1>   0.1500 
 51 H        5.9580     4.0190    -2.8340 H     1 <1>   0.0800 
 52 H        4.6950     4.4860    -1.6970 H     1 <1>   0.0800 
 53 H        4.3640     3.2900    -2.9590 H     1 <1>   0.0800 
 54 H       -2.7230    -7.3650    -0.7720 H     1 <1>   0.1500 
 55 H        1.1230    -8.6490    -0.3020 H     1 <1>   0.1500 
@<TRIPOS>BOND
  1   1   2  2   
  2   2   3  am  
  3   2   4  1   
  4   3   5  1   
  5   3  29  1   
  6   4   6  1   
  7   4  30  1   
  8   4  31  1   
  9   5   7  1   
 10   5  32  1   
 11   5  33  1   
 12   6   8  1   
 13   6   9  1   
 14   7  10  ar  
 15   7  11  ar  
 16   8  12  1   
 17   8  34  1   
 18   8  35  1   
 19   9  13  1   
 20   9  36  1   
 21   9  37  1   
 22  10  14  ar  
 23  10  38  1   
 24  11  15  ar  
 25  11  39  1   
 26  12  13  1   
 27  12  16  1   
 28  12  40  1   
 29  13  17  1   
 30  13  41  1   
 31  14  18  1   
 32  14  19  ar  
 33  15  19  ar  
 34  15  42  1   
 35  16  43  1   
 36  17  20  1   
 37  17  44  1   
 38  17  45  1   
 39  18  21  1   
 40  19  22  1   
 41  20  23  ar  
 42  20  24  ar  
 43  21  46  1   
 44  21  47  1   
 45  21  48  1   
 46  22  25  1   
 47  23  26  ar  
 48  23  49  1   
 49  24  27  ar  
 50  24  50  1   
 51  25  51  1   
 52  25  52  1   
 53  25  53  1   
 54  26  28  ar  
 55  26  54  1   
 56  27  28  ar  
 57  27  55  1   
@<TRIPOS>SUBSTRUCTURE
  1 ****   8 GROUP 4 **** **** 0

# MOE 2024.06 (io_trps.svl 2023.06)
