@<TRIPOS>MOLECULE
NONAME
47 49 1 0 0 
SMALL
USER_CHARGES


@<TRIPOS>ATOM
  1 F        1.7570    -0.0070     1.7860 F     1 <1>  -0.3400 
  2 C        1.4320     0.5310     0.6190 C.3   1 <1>   0.7800 
  3 F        1.6570    -0.4300    -0.2650 F     1 <1>  -0.3400 
  4 C        2.3590     1.6900     0.3330 C.2   1 <1>  -0.3320 
  5 N        3.6920     1.5400     0.3290 N.pl3 1 <1>   0.3000 
  6 C        2.1180     2.9870     0.0530 C.2   1 <1>  -0.1500 
  7 N        4.3240     2.6910     0.0560 N.2   1 <1>  -0.7070 
  8 C        3.3700     3.5950    -0.1200 C.2   1 <1>   0.2030 
  9 C        3.5120     5.0210    -0.4230 C.2   1 <1>   0.7160 
 10 O        2.5690     5.7630    -0.1880 O.2   1 <1>  -0.5700 
 11 N        4.6550     5.5980    -0.9550 N.am  1 <1>  -0.6600 
 12 C        5.8170     4.8280    -1.5050 C.3   1 <1>   0.1400 
 13 C        4.8640     7.0710    -0.9350 C.3   1 <1>   0.1400 
 14 C        6.9670     4.7090    -0.4920 C.3   1 <1>   0.1400 
 15 C        5.4100     7.5290     0.4260 C.3   1 <1>  -0.1600 
 16 N        7.3900     6.0500     0.0280 N.am  1 <1>  -0.6600 
 17 C        6.4580     6.5970     1.0550 C.3   1 <1>   0.1400 
 18 C        8.4660     6.7030    -0.5240 C.2   1 <1>   0.5690 
 19 O        9.1020     6.1970    -1.4210 O.2   1 <1>  -0.5700 
 20 C        8.8960     8.0990    -0.0610 C.3   1 <1>  -0.0190 
 21 C        8.6920     9.1270    -1.1900 C.3   1 <1>  -0.0220 
 22 C       10.3580     8.1200     0.4260 C.3   1 <1>  -0.1600 
 23 C        9.3070    10.4690    -0.8260 C.2   1 <1>  -0.2880 
 24 C       10.7390     9.4910     1.0080 C.3   1 <1>  -0.0220 
 25 C       10.2030    10.6280     0.1530 C.2   1 <1>  -0.2880 
 26 H        0.3820     0.7660     0.6210 H     1 <1>   0.0800 
 27 H        4.1900     0.6580     0.5140 H     1 <1>   0.2700 
 28 H        1.1770     3.5050    -0.0310 H     1 <1>   0.1500 
 29 H        6.1870     5.3220    -2.3860 H     1 <1>   0.0800 
 30 H        5.5050     3.8470    -1.8120 H     1 <1>   0.0800 
 31 H        3.9380     7.5790    -1.1450 H     1 <1>   0.0800 
 32 H        5.5630     7.3410    -1.7080 H     1 <1>   0.0800 
 33 H        7.7980     4.2190    -0.9680 H     1 <1>   0.0800 
 34 H        6.6590     4.0810     0.3250 H     1 <1>   0.0800 
 35 H        4.5860     7.6190     1.1110 H     1 <1>   0.0800 
 36 H        5.8270     8.5130     0.3150 H     1 <1>   0.0800 
 37 H        5.9440     5.7770     1.5300 H     1 <1>   0.0800 
 38 H        7.0030     7.1070     1.8290 H     1 <1>   0.0800 
 39 H        8.2920     8.4150     0.7640 H     1 <1>   0.0800 
 40 H        7.6380     9.2480    -1.3700 H     1 <1>   0.0800 
 41 H        9.1470     8.7750    -2.1000 H     1 <1>   0.0800 
 42 H       11.0040     7.9000    -0.4080 H     1 <1>   0.0800 
 43 H       10.5110     7.3570     1.1690 H     1 <1>   0.0800 
 44 H        8.9550    11.2830    -1.4380 H     1 <1>   0.1500 
 45 H       11.8110     9.5600     1.0710 H     1 <1>   0.0800 
 46 H       10.3390     9.5890     2.0020 H     1 <1>   0.0800 
 47 H       10.6210    11.5870     0.4110 H     1 <1>   0.1500 
@<TRIPOS>BOND
  1   1   2  1   
  2   2   3  1   
  3   2   4  1   
  4   2  26  1   
  5   4   5  1   
  6   4   6  2   
  7   5   7  1   
  8   5  27  1   
  9   6   8  1   
 10   6  28  1   
 11   7   8  2   
 12   8   9  1   
 13   9  10  2   
 14   9  11  am  
 15  11  12  1   
 16  11  13  1   
 17  12  14  1   
 18  12  29  1   
 19  12  30  1   
 20  13  15  1   
 21  13  31  1   
 22  13  32  1   
 23  14  16  1   
 24  14  33  1   
 25  14  34  1   
 26  15  17  1   
 27  15  35  1   
 28  15  36  1   
 29  16  17  1   
 30  16  18  am  
 31  17  37  1   
 32  17  38  1   
 33  18  19  2   
 34  18  20  1   
 35  20  21  1   
 36  20  22  1   
 37  20  39  1   
 38  21  23  1   
 39  21  40  1   
 40  21  41  1   
 41  22  24  1   
 42  22  42  1   
 43  22  43  1   
 44  23  25  2   
 45  23  44  1   
 46  24  25  1   
 47  24  45  1   
 48  24  46  1   
 49  25  47  1   
@<TRIPOS>SUBSTRUCTURE
  1 ****  11 GROUP 4 **** **** 0

# MOE 2024.06 (io_trps.svl 2023.06)
