@<TRIPOS>MOLECULE
NONAME
49 52 1 0 0 
SMALL
USER_CHARGES


@<TRIPOS>ATOM
  1 S        0.9350     0.1050    -0.2960 S.3   1 <1>  -0.0800 
  2 C       -0.0810    -1.1650     0.2970 C.2   1 <1>  -0.1400 
  3 C       -0.5350     0.9650    -0.7680 C.2   1 <1>   0.1980 
  4 C       -1.3450    -0.8500     0.1010 C.2   1 <1>   0.0460 
  5 C        0.1820    -2.4820     0.9520 C.3   1 <1>   0.0200 
  6 N       -1.6280     0.3590    -0.5020 N.2   1 <1>  -0.5650 
  7 C       -0.3620     2.3160    -1.4220 C.3   1 <1>   0.0200 
  8 C       -2.2650    -1.9260     0.6000 C.3   1 <1>   0.0210 
  9 C       -1.2720    -2.9890     1.1650 C.3   1 <1>  -0.1600 
 10 C       -0.0960     3.3750    -0.3570 C.3   1 <1>   0.2090 
 11 N        0.1890     4.6750    -1.0070 N.pl3 1 <1>  -0.8690 
 12 C        1.3850     5.3020    -0.8290 C.ar  1 <1>   0.4100 
 13 N        1.2950     6.5440    -0.4820 N.ar  1 <1>  -0.6200 
 14 C        2.6040     4.6280    -1.0140 C.ar  1 <1>  -0.1500 
 15 C        2.4510     7.2320    -0.2680 C.ar  1 <1>   0.3100 
 16 C        3.7830     5.2720    -0.8120 C.ar  1 <1>  -0.1430 
 17 C        2.3900     8.5990     0.1230 C.ar  1 <1>   0.0820 
 18 C        3.7260     6.6300    -0.4200 C.ar  1 <1>   0.0000 
 19 C        5.1070     4.5460    -1.0100 C.3   1 <1>  -0.0970 
 20 O        1.1520     9.1580     0.2630 O.3   1 <1>  -0.3630 
 21 C        3.5410     9.3230     0.3510 C.ar  1 <1>  -0.1500 
 22 C        4.8750     7.4070    -0.1760 C.ar  1 <1>  -0.1500 
 23 C        0.9550    10.5140     0.5950 C.3   1 <1>   0.0400 
 24 C        4.7970     8.7200     0.2000 C.ar  1 <1>   0.0820 
 25 O        5.9690     9.3740     0.4100 O.3   1 <1>  -0.3620 
 26 C        6.0050    10.7260     0.8100 C.3   1 <1>   0.0400 
 27 H        0.7010    -2.3490     1.8850 H     1 <1>   0.0800 
 28 H        0.7390    -3.1290     0.2970 H     1 <1>   0.0800 
 29 H       -1.2600     2.5660    -1.9570 H     1 <1>   0.0800 
 30 H        0.4570     2.2740    -2.1160 H     1 <1>   0.0800 
 31 H       -2.8480    -2.3200    -0.2130 H     1 <1>   0.0800 
 32 H       -2.9110    -1.5370     1.3660 H     1 <1>   0.0800 
 33 H       -1.4570    -3.1360     2.2150 H     1 <1>   0.0800 
 34 H       -1.4120    -3.9270     0.6570 H     1 <1>   0.0800 
 35 H        0.7390     3.0810     0.2570 H     1 <1>   0.0800 
 36 H       -0.9590     3.4730     0.2790 H     1 <1>   0.0800 
 37 H       -0.5620     5.3590    -0.8760 H     1 <1>   0.4000 
 38 H        2.5650     3.6030    -1.3230 H     1 <1>   0.1500 
 39 H        4.9440     3.5260    -1.3100 H     1 <1>   0.0800 
 40 H        5.6660     4.5420    -0.0920 H     1 <1>   0.0800 
 41 H        5.6850     5.0350    -1.7740 H     1 <1>   0.0800 
 42 H        3.4900    10.3490     0.6460 H     1 <1>   0.1500 
 43 H        5.8490     6.9690    -0.2850 H     1 <1>   0.1500 
 44 H       -0.1040    10.6980     0.6180 H     1 <1>   0.0800 
 45 H        1.4150    11.1280    -0.1580 H     1 <1>   0.0800 
 46 H        1.3790    10.7020     1.5650 H     1 <1>   0.0800 
 47 H        7.0350    11.0150     0.9140 H     1 <1>   0.0800 
 48 H        5.5010    10.8240     1.7550 H     1 <1>   0.0800 
 49 H        5.5320    11.3270     0.0540 H     1 <1>   0.0800 
@<TRIPOS>BOND
  1   1   2  1   
  2   1   3  1   
  3   2   4  2   
  4   2   5  1   
  5   3   6  2   
  6   3   7  1   
  7   4   6  1   
  8   4   8  1   
  9   5   9  1   
 10   5  27  1   
 11   5  28  1   
 12   7  10  1   
 13   7  29  1   
 14   7  30  1   
 15   8   9  1   
 16   8  31  1   
 17   8  32  1   
 18   9  33  1   
 19   9  34  1   
 20  10  11  1   
 21  10  35  1   
 22  10  36  1   
 23  11  12  1   
 24  11  37  1   
 25  12  13  ar  
 26  12  14  ar  
 27  13  15  ar  
 28  14  16  ar  
 29  14  38  1   
 30  15  17  ar  
 31  15  18  ar  
 32  16  18  ar  
 33  16  19  1   
 34  17  20  1   
 35  17  21  ar  
 36  18  22  ar  
 37  19  39  1   
 38  19  40  1   
 39  19  41  1   
 40  20  23  1   
 41  21  24  ar  
 42  21  42  1   
 43  22  24  ar  
 44  22  43  1   
 45  23  44  1   
 46  23  45  1   
 47  23  46  1   
 48  24  25  1   
 49  25  26  1   
 50  26  47  1   
 51  26  48  1   
 52  26  49  1   
@<TRIPOS>SUBSTRUCTURE
  1 ****  12 GROUP 4 **** **** 0

# MOE 2024.06 (io_trps.svl 2023.06)
