@<TRIPOS>MOLECULE
NONAME
47 49 1 0 0 
SMALL
USER_CHARGES


@<TRIPOS>ATOM
  1 O       -0.0140     1.6830     0.8600 O.co2 1 <1>  -0.9000 
  2 C        0.2800     2.7300     0.2580 C.2   1 <1>   0.9790 
  3 O       -0.6400     3.4640    -0.1400 O.co2 1 <1>  -0.9000 
  4 C        1.6740     3.0400     0.0070 C.ar  1 <1>  -0.1790 
  5 C        2.2000     4.3350     0.0070 C.ar  1 <1>   0.1660 
  6 C        2.5620     2.0030    -0.2490 C.ar  1 <1>  -0.1500 
  7 N        3.4660     4.6300    -0.2280 N.ar  1 <1>  -0.6200 
  8 C        1.3210     5.5380     0.3000 C.3   1 <1>  -0.0960 
  9 C        3.8870     2.2850    -0.4970 C.ar  1 <1>   0.0730 
 10 C        4.3020     3.6240    -0.4670 C.ar  1 <1>   0.4100 
 11 C        4.8040     1.2290    -0.7920 C.1   1 <1>   0.4840 
 12 N        5.6180     4.0010    -0.6940 N.pl3 1 <1>  -0.8380 
 13 N        5.5460     0.3860    -1.0030 N.1   1 <1>  -0.5570 
 14 C        5.8920     5.1280    -1.6360 C.3   1 <1>   0.2090 
 15 C        6.7070     3.5370     0.2030 C.3   1 <1>   0.2090 
 16 C        5.9910     6.4800    -0.9100 C.3   1 <1>   0.2090 
 17 C        7.3090     4.6700     1.0390 C.3   1 <1>  -0.1600 
 18 N        7.3440     6.7840    -0.3200 N.pl3 1 <1>  -0.8380 
 19 C        8.1490     5.6480     0.2140 C.3   1 <1>   0.2090 
 20 C        7.8290     8.0510    -0.2950 C.ar  1 <1>   0.1000 
 21 C        7.1760     9.1230     0.3470 C.ar  1 <1>  -0.1440 
 22 C        9.0440     8.3280    -0.9330 C.ar  1 <1>  -0.1500 
 23 C        7.7300    10.3790     0.3050 C.ar  1 <1>   0.2110 
 24 C        5.8740     8.9060     1.1150 C.3   1 <1>  -0.0970 
 25 C        9.5630     9.5940    -0.9480 C.ar  1 <1>   0.2110 
 26 N        8.9030    10.6070    -0.3360 N.ar  1 <1>  -0.1790 
 27 H        2.1950     0.9890    -0.2510 H     1 <1>   0.1500 
 28 H        0.7010     5.3430     1.1560 H     1 <1>   0.0800 
 29 H        0.6890     5.7330    -0.5460 H     1 <1>   0.0800 
 30 H        1.9170     6.4080     0.5010 H     1 <1>   0.0800 
 31 H        5.0730     5.1850    -2.3320 H     1 <1>   0.0800 
 32 H        6.7870     4.9380    -2.2010 H     1 <1>   0.0800 
 33 H        7.4710     3.0600    -0.3870 H     1 <1>   0.0800 
 34 H        6.3130     2.7990     0.8820 H     1 <1>   0.0800 
 35 H        5.2460     6.5040    -0.1360 H     1 <1>   0.0800 
 36 H        5.7490     7.2540    -1.6160 H     1 <1>   0.0800 
 37 H        7.9620     4.2110     1.7570 H     1 <1>   0.0800 
 38 H        6.5420     5.1840     1.5890 H     1 <1>   0.0800 
 39 H        8.6300     5.1310    -0.5980 H     1 <1>   0.0800 
 40 H        8.9210     6.0490     0.8490 H     1 <1>   0.0800 
 41 H        9.5560     7.5200    -1.4220 H     1 <1>   0.1500 
 42 H        7.2430    11.2120     0.7880 H     1 <1>   0.1500 
 43 H        5.9360     8.0050     1.7010 H     1 <1>   0.0800 
 44 H        5.0490     8.8140     0.4320 H     1 <1>   0.0800 
 45 H        5.6700     9.7220     1.7850 H     1 <1>   0.0800 
 46 H       10.4960     9.8050    -1.4460 H     1 <1>   0.1500 
 47 H        9.2960    11.5540    -0.3530 H     1 <1>   0.4570 
@<TRIPOS>BOND
  1   1   2  ar  
  2   2   3  ar  
  3   2   4  1   
  4   4   5  ar  
  5   4   6  ar  
  6   5   7  ar  
  7   5   8  1   
  8   6   9  ar  
  9   6  27  1   
 10   7  10  ar  
 11   8  28  1   
 12   8  29  1   
 13   8  30  1   
 14   9  10  ar  
 15   9  11  1   
 16  10  12  1   
 17  11  13  3   
 18  12  14  1   
 19  12  15  1   
 20  14  16  1   
 21  14  31  1   
 22  14  32  1   
 23  15  17  1   
 24  15  33  1   
 25  15  34  1   
 26  16  18  1   
 27  16  35  1   
 28  16  36  1   
 29  17  19  1   
 30  17  37  1   
 31  17  38  1   
 32  18  19  1   
 33  18  20  1   
 34  19  39  1   
 35  19  40  1   
 36  20  21  ar  
 37  20  22  ar  
 38  21  23  ar  
 39  21  24  1   
 40  22  25  ar  
 41  22  41  1   
 42  23  26  ar  
 43  23  42  1   
 44  24  43  1   
 45  24  44  1   
 46  24  45  1   
 47  25  26  ar  
 48  25  46  1   
 49  26  47  1   
@<TRIPOS>SUBSTRUCTURE
  1 ****  12 GROUP 4 **** **** 0

# MOE 2024.06 (io_trps.svl 2023.06)
