@<TRIPOS>MOLECULE
NONAME
37 38 1 0 0 
SMALL
USER_CHARGES


@<TRIPOS>ATOM
  1 S        0.4050     0.8260    -0.1640 S.3   1 <1>  -0.0800 
  2 C        2.1080     1.1320    -0.4730 C.2   1 <1>  -0.1400 
  3 C        0.6750    -0.9080    -0.1400 C.2   1 <1>  -0.1100 
  4 C        2.7880    -0.0270    -0.5470 C.2   1 <1>  -0.1500 
  5 C        2.5550     2.5780    -0.6120 C.3   1 <1>   0.0200 
  6 C        1.9730    -1.1890    -0.3560 C.2   1 <1>  -0.1500 
  7 C        2.4350     3.3460     0.7150 C.3   1 <1>   0.2890 
  8 N        2.5890     4.8110     0.5280 N.pl3 1 <1>  -0.8690 
  9 C        3.4100     2.8630     1.7890 C.3   1 <1>  -0.2400 
 10 C        3.6710     5.5190     0.0520 C.ar  1 <1>   0.4100 
 11 N        4.6850     4.8410    -0.4420 N.ar  1 <1>  -0.6200 
 12 C        3.6870     6.9100     0.0950 C.ar  1 <1>  -0.1430 
 13 C        5.7030     5.5470    -0.8820 C.ar  1 <1>   0.4770 
 14 C        4.8120     7.5260    -0.4000 C.ar  1 <1>   0.1600 
 15 C        2.4930     7.6810     0.6690 C.3   1 <1>  -0.0170 
 16 N        5.8340     6.8580    -0.8940 N.ar  1 <1>  -0.6200 
 17 C        6.8600     4.7610    -1.4490 C.3   1 <1>  -0.0970 
 18 C        2.6110     9.2090     0.6220 C.3   1 <1>  -0.2400 
 19 H       -0.1780    -1.5390     0.0360 H     1 <1>   0.1500 
 20 H        3.8440    -0.1200    -0.7300 H     1 <1>   0.1500 
 21 H        1.9480     3.0600    -1.3570 H     1 <1>   0.0800 
 22 H        3.5740     2.5870    -0.9510 H     1 <1>   0.0800 
 23 H        2.4010    -2.1750    -0.3910 H     1 <1>   0.1500 
 24 H        1.4380     3.1840     1.0870 H     1 <1>   0.0800 
 25 H        1.8790     5.3530     1.0180 H     1 <1>   0.4000 
 26 H        4.4250     2.9530     1.4490 H     1 <1>   0.0800 
 27 H        3.2200     1.8300     2.0170 H     1 <1>   0.0800 
 28 H        3.2850     3.4380     2.6870 H     1 <1>   0.0800 
 29 H        4.9010     8.5970    -0.4020 H     1 <1>   0.1500 
 30 H        2.3560     7.3830     1.6940 H     1 <1>   0.0800 
 31 H        1.6100     7.3950     0.1230 H     1 <1>   0.0800 
 32 H        6.8940     3.7820    -1.0080 H     1 <1>   0.0800 
 33 H        7.7840     5.2680    -1.2440 H     1 <1>   0.0800 
 34 H        6.7350     4.6660    -2.5110 H     1 <1>   0.0800 
 35 H        3.4570     9.5410     1.1990 H     1 <1>   0.0800 
 36 H        1.7250     9.6560     1.0360 H     1 <1>   0.0800 
 37 H        2.7180     9.5490    -0.3940 H     1 <1>   0.0800 
@<TRIPOS>BOND
  1   1   2  1   
  2   1   3  1   
  3   2   4  2   
  4   2   5  1   
  5   3   6  2   
  6   3  19  1   
  7   4   6  1   
  8   4  20  1   
  9   5   7  1   
 10   5  21  1   
 11   5  22  1   
 12   6  23  1   
 13   7   8  1   
 14   7   9  1   
 15   7  24  1   
 16   8  10  1   
 17   8  25  1   
 18   9  26  1   
 19   9  27  1   
 20   9  28  1   
 21  10  11  ar  
 22  10  12  ar  
 23  11  13  ar  
 24  12  14  ar  
 25  12  15  1   
 26  13  16  ar  
 27  13  17  1   
 28  14  16  ar  
 29  14  29  1   
 30  15  18  1   
 31  15  30  1   
 32  15  31  1   
 33  17  32  1   
 34  17  33  1   
 35  17  34  1   
 36  18  35  1   
 37  18  36  1   
 38  18  37  1   
@<TRIPOS>SUBSTRUCTURE
  1 ****   8 GROUP 4 **** **** 0

# MOE 2024.06 (io_trps.svl 2023.06)
