@<TRIPOS>MOLECULE
NONAME
48 50 1 0 0 
SMALL
USER_CHARGES


@<TRIPOS>ATOM
  1 O       -0.2740     0.3990     1.4060 O.2   1 <1>  -0.5700 
  2 C       -1.2300     1.0610     1.0410 C.2   1 <1>   0.5440 
  3 N       -2.3160     0.4140     0.4760 N.am  1 <1>  -0.6600 
  4 C       -1.1930     2.4930     1.2510 C.ar  1 <1>   0.0860 
  5 C       -3.4600     1.1690    -0.1160 C.3   1 <1>   0.2200 
  6 C       -2.3170    -1.0760     0.3490 C.3   1 <1>   0.0600 
  7 C       -1.0260     3.4020     0.2020 C.ar  1 <1>   0.0830 
  8 C       -1.3260     3.0040     2.5420 C.ar  1 <1>  -0.1500 
  9 C       -4.7680     0.9920     0.6450 C.3   1 <1>  -0.1600 
 10 C       -3.8020     0.7780    -1.5500 C.3   1 <1>  -0.1600 
 11 O       -0.8980     2.9420    -1.0650 O.3   1 <1>  -0.3620 
 12 C       -1.0230     4.7790     0.4330 C.ar  1 <1>   0.0830 
 13 C       -1.3150     4.3640     2.7830 C.ar  1 <1>  -0.1500 
 14 C       -5.8350     1.4730    -0.3470 C.3   1 <1>  -0.0800 
 15 C       -5.2190     1.3310    -1.7530 C.3   1 <1>  -0.0800 
 16 C        0.4000     2.5650    -1.4620 C.3   1 <1>   0.0400 
 17 O       -0.8770     5.6070    -0.6410 O.3   1 <1>  -0.3630 
 18 C       -1.1660     5.2540     1.7320 C.ar  1 <1>  -0.1500 
 19 C       -6.1870     2.9590    -0.1780 C.3   1 <1>  -0.1600 
 20 C       -5.2310     2.7340    -2.3800 C.3   1 <1>  -0.1600 
 21 C       -0.8780     7.0110    -0.5010 C.3   1 <1>   0.0400 
 22 C       -6.2830     3.5020    -1.5950 C.3   1 <1>   0.2000 
 23 O       -5.9900     4.8470    -1.6070 O.3   1 <1>  -0.6800 
 24 H       -3.2470     2.2210    -0.1260 H     1 <1>   0.0800 
 25 H       -3.3160    -1.4650     0.4060 H     1 <1>   0.0800 
 26 H       -1.7370    -1.5200     1.1400 H     1 <1>   0.0800 
 27 H       -1.8810    -1.3540    -0.5940 H     1 <1>   0.0800 
 28 H       -1.4370     2.3130     3.3600 H     1 <1>   0.1500 
 29 H       -4.9370    -0.0460     0.8620 H     1 <1>   0.0800 
 30 H       -4.7720     1.5520     1.5630 H     1 <1>   0.0800 
 31 H       -3.0920     1.1840    -2.2490 H     1 <1>   0.0800 
 32 H       -3.8370    -0.2890    -1.6580 H     1 <1>   0.0800 
 33 H       -1.4200     4.7330     3.7890 H     1 <1>   0.1500 
 34 H       -6.7280     0.8760    -0.2680 H     1 <1>   0.0800 
 35 H       -5.8080     0.6590    -2.3540 H     1 <1>   0.0800 
 36 H        0.3570     2.2370    -2.4840 H     1 <1>   0.0800 
 37 H        0.7430     1.7630    -0.8320 H     1 <1>   0.0800 
 38 H        1.0490     3.4180    -1.3730 H     1 <1>   0.0800 
 39 H       -1.1640     6.3040     1.9510 H     1 <1>   0.1500 
 40 H       -5.4010     3.4700     0.3520 H     1 <1>   0.0800 
 41 H       -7.1150     3.0850     0.3500 H     1 <1>   0.0800 
 42 H       -5.4790     2.6940    -3.4250 H     1 <1>   0.0800 
 43 H       -4.2700     3.2040    -2.2560 H     1 <1>   0.0800 
 44 H       -0.7570     7.4420    -1.4790 H     1 <1>   0.0800 
 45 H       -0.0560     7.3000     0.1290 H     1 <1>   0.0800 
 46 H       -1.8180     7.3200    -0.0800 H     1 <1>   0.0800 
 47 H       -7.2670     3.3490    -2.0040 H     1 <1>   0.0800 
 48 H       -5.0710     4.9840    -1.3100 H     1 <1>   0.4000 
@<TRIPOS>BOND
  1   1   2  2   
  2   2   3  am  
  3   2   4  1   
  4   3   5  1   
  5   3   6  1   
  6   4   7  ar  
  7   4   8  ar  
  8   5   9  1   
  9   5  10  1   
 10   5  24  1   
 11   6  25  1   
 12   6  26  1   
 13   6  27  1   
 14   7  11  1   
 15   7  12  ar  
 16   8  13  ar  
 17   8  28  1   
 18   9  14  1   
 19   9  29  1   
 20   9  30  1   
 21  10  15  1   
 22  10  31  1   
 23  10  32  1   
 24  11  16  1   
 25  12  17  1   
 26  12  18  ar  
 27  13  18  ar  
 28  13  33  1   
 29  14  15  1   
 30  14  19  1   
 31  14  34  1   
 32  15  20  1   
 33  15  35  1   
 34  16  36  1   
 35  16  37  1   
 36  16  38  1   
 37  17  21  1   
 38  18  39  1   
 39  19  22  1   
 40  19  40  1   
 41  19  41  1   
 42  20  22  1   
 43  20  42  1   
 44  20  43  1   
 45  21  44  1   
 46  21  45  1   
 47  21  46  1   
 48  22  23  1   
 49  22  47  1   
 50  23  48  1   
@<TRIPOS>SUBSTRUCTURE
  1 ****   5 GROUP 4 **** **** 0

# MOE 2024.06 (io_trps.svl 2023.06)
