@<TRIPOS>MOLECULE
NONAME
52 54 1 0 0 
SMALL
USER_CHARGES


@<TRIPOS>ATOM
  1 O       -2.1990     1.2780     1.8790 O.2   1 <1>  -0.5700 
  2 C       -2.5020     1.5980     0.7500 C.2   1 <1>   0.5690 
  3 N       -2.8500     0.6570    -0.1860 N.am  1 <1>  -0.6600 
  4 C       -2.4520     3.1000     0.4120 C.3   1 <1>   0.1710 
  5 C       -2.4430    -0.7680     0.0650 C.3   1 <1>   0.3640 
  6 C       -3.7470     0.9640    -1.3410 C.3   1 <1>   0.1400 
  7 N       -1.1740     3.5920    -0.1860 N.3   1 <1>  -0.8100 
  8 C       -0.9240    -0.8650    -0.1140 C.ar  1 <1>  -0.1440 
  9 C       -3.1520    -1.8510    -0.8060 C.3   1 <1>   0.2000 
 10 C       -3.9700    -0.2280    -2.2770 C.3   1 <1>   0.1200 
 11 C       -0.0180     3.1640     0.6350 C.3   1 <1>   0.2540 
 12 C       -1.0130     3.1820    -1.5860 C.3   1 <1>   0.0300 
 13 C       -0.3140    -0.5750    -1.3280 C.ar  1 <1>  -0.1500 
 14 C       -0.1300    -1.2390     0.9610 C.ar  1 <1>  -0.1500 
 15 O       -4.2520    -1.3620    -1.5260 O.3   1 <1>  -0.5600 
 16 C       -3.6570    -3.0310     0.0370 C.3   1 <1>   0.1200 
 17 C        1.2870     3.7750     0.1400 C.ar  1 <1>  -0.1440 
 18 C        1.0610    -0.6620    -1.4660 C.ar  1 <1>  -0.1500 
 19 C        1.2440    -1.3280     0.8250 C.ar  1 <1>  -0.1500 
 20 O       -2.6170    -3.6090     0.7610 O.3   1 <1>  -0.6800 
 21 C        1.4220     5.1490     0.0220 C.ar  1 <1>  -0.1500 
 22 C        2.3560     2.9560    -0.1950 C.ar  1 <1>  -0.1500 
 23 C        1.8410    -1.0410    -0.3890 C.ar  1 <1>  -0.1500 
 24 C        2.6090     5.7010    -0.4260 C.ar  1 <1>  -0.1500 
 25 C        3.5450     3.5060    -0.6440 C.ar  1 <1>  -0.1500 
 26 C        3.6720     4.8790    -0.7590 C.ar  1 <1>  -0.1500 
 27 H       -2.6080     3.6340     1.3330 H     1 <1>   0.0800 
 28 H       -3.2700     3.3580    -0.2330 H     1 <1>   0.0800 
 29 H       -2.6710    -0.9900     1.0940 H     1 <1>   0.0800 
 30 H       -4.7040     1.2730    -0.9570 H     1 <1>   0.0800 
 31 H       -3.3450     1.7790    -1.9130 H     1 <1>   0.0800 
 32 H       -2.4590    -2.2370    -1.5310 H     1 <1>   0.0800 
 33 H       -3.1050    -0.4150    -2.8900 H     1 <1>   0.0800 
 34 H       -4.8120    -0.0400    -2.9200 H     1 <1>   0.0800 
 35 H       -0.1740     3.4690     1.6560 H     1 <1>   0.0800 
 36 H        0.0660     2.0900     0.6210 H     1 <1>   0.0800 
 37 H       -0.1360     3.6430    -2.0080 H     1 <1>   0.0800 
 38 H       -1.8620     3.5020    -2.1630 H     1 <1>   0.0800 
 39 H       -0.9080     2.1140    -1.6570 H     1 <1>   0.0800 
 40 H       -0.9050    -0.2730    -2.1710 H     1 <1>   0.1500 
 41 H       -0.5830    -1.4580     1.9140 H     1 <1>   0.1500 
 42 H       -4.0870    -3.7880    -0.5960 H     1 <1>   0.0800 
 43 H       -4.3960    -2.6920     0.7420 H     1 <1>   0.0800 
 44 H        1.5240    -0.4330    -2.4100 H     1 <1>   0.1500 
 45 H        1.8470    -1.6180     1.6680 H     1 <1>   0.1500 
 46 H       -1.9380    -3.9880     0.1670 H     1 <1>   0.4000 
 47 H        0.5910     5.7850     0.2750 H     1 <1>   0.1500 
 48 H        2.2620     1.8880    -0.1080 H     1 <1>   0.1500 
 49 H        2.9100    -1.1100    -0.4930 H     1 <1>   0.1500 
 50 H        2.7030     6.7690    -0.5160 H     1 <1>   0.1500 
 51 H        4.3690     2.8660    -0.9020 H     1 <1>   0.1500 
 52 H        4.5950     5.3070    -1.1070 H     1 <1>   0.1500 
@<TRIPOS>BOND
  1   1   2  2   
  2   2   3  am  
  3   2   4  1   
  4   3   5  1   
  5   3   6  1   
  6   4   7  1   
  7   4  27  1   
  8   4  28  1   
  9   5   8  1   
 10   5   9  1   
 11   5  29  1   
 12   6  10  1   
 13   6  30  1   
 14   6  31  1   
 15   7  11  1   
 16   7  12  1   
 17   8  13  ar  
 18   8  14  ar  
 19   9  15  1   
 20   9  16  1   
 21   9  32  1   
 22  10  15  1   
 23  10  33  1   
 24  10  34  1   
 25  11  17  1   
 26  11  35  1   
 27  11  36  1   
 28  12  37  1   
 29  12  38  1   
 30  12  39  1   
 31  13  18  ar  
 32  13  40  1   
 33  14  19  ar  
 34  14  41  1   
 35  16  20  1   
 36  16  42  1   
 37  16  43  1   
 38  17  21  ar  
 39  17  22  ar  
 40  18  23  ar  
 41  18  44  1   
 42  19  23  ar  
 43  19  45  1   
 44  20  46  1   
 45  21  24  ar  
 46  21  47  1   
 47  22  25  ar  
 48  22  48  1   
 49  23  49  1   
 50  24  26  ar  
 51  24  50  1   
 52  25  26  ar  
 53  25  51  1   
 54  26  52  1   
@<TRIPOS>SUBSTRUCTURE
  1 ****   8 GROUP 4 **** **** 0

# MOE 2024.06 (io_trps.svl 2023.06)
