@<TRIPOS>MOLECULE
NONAME
53 55 1 0 0 
SMALL
USER_CHARGES


@<TRIPOS>ATOM
  1 F       -0.6750     0.1380    -0.3000 F     1 <1>  -0.1900 
  2 C       -1.9330     0.4920    -0.2320 C.ar  1 <1>   0.1900 
  3 C       -2.4400     1.2250     0.8470 C.ar  1 <1>   0.0830 
  4 C       -2.7370     0.1070    -1.2870 C.ar  1 <1>  -0.1500 
  5 O       -1.7510     1.6630     1.9400 O.3   1 <1>  -0.3630 
  6 C       -3.7860     1.5530     0.8240 C.ar  1 <1>  -0.1500 
  7 C       -4.0760     0.4520    -1.2780 C.ar  1 <1>  -0.1500 
  8 C       -0.3810     1.3930     2.1450 C.3   1 <1>   0.0400 
  9 C       -4.6300     1.1760    -0.2210 C.ar  1 <1>   0.0530 
 10 C       -6.0220     1.5490    -0.2020 C.2   1 <1>   0.0870 
 11 O       -6.3460     2.7750     0.1220 O.3   1 <1>  -0.0190 
 12 C       -7.1840     0.8840    -0.4550 C.2   1 <1>  -0.0860 
 13 N       -7.6330     2.9890     0.0940 N.2   1 <1>  -0.4100 
 14 C       -8.1610     1.8690    -0.2530 C.2   1 <1>   0.3720 
 15 C       -7.4270    -0.4830    -0.8090 C.2   1 <1>   0.7160 
 16 N       -9.5480     1.7040    -0.4100 N.pl3 1 <1>  -0.8210 
 17 O       -6.5230    -1.2750    -1.0000 O.2   1 <1>  -0.5700 
 18 N       -8.7020    -0.9470    -0.9290 N.am  1 <1>  -0.7300 
 19 C      -10.0440     2.3350    -1.6650 C.3   1 <1>   0.1290 
 20 C      -10.3270     2.1920     0.7650 C.3   1 <1>   0.1290 
 21 C       -9.1060    -2.2940    -1.3740 C.3   1 <1>   0.1400 
 22 C       -8.9140    -3.2960    -0.2270 C.3   1 <1>  -0.0800 
 23 C       -9.3000    -4.7210    -0.6210 C.3   1 <1>   0.3430 
 24 C       -9.7440    -2.9750     1.0200 C.3   1 <1>  -0.1600 
 25 N      -10.2640    -5.1950     0.4180 N.4   1 <1>  -0.9590 
 26 C      -10.0680    -4.3330     1.6110 C.3   1 <1>   0.3430 
 27 C      -10.1180    -6.6500     0.7260 C.3   1 <1>   0.2630 
 28 H       -2.3190    -0.4550    -2.1030 H     1 <1>   0.1500 
 29 H       -4.1880     2.1180     1.6460 H     1 <1>   0.1500 
 30 H       -4.7020     0.1560    -2.1010 H     1 <1>   0.1500 
 31 H       -0.0910     1.8320     3.0820 H     1 <1>   0.0800 
 32 H        0.1860     1.8350     1.3450 H     1 <1>   0.0800 
 33 H       -0.2350     0.3280     2.1800 H     1 <1>   0.0800 
 34 H       -9.4300    -0.2260    -0.7870 H     1 <1>   0.3700 
 35 H       -9.4780     1.9720    -2.5070 H     1 <1>   0.0800 
 36 H       -9.9320     3.4050    -1.6120 H     1 <1>   0.0800 
 37 H      -11.0820     2.0950    -1.8170 H     1 <1>   0.0800 
 38 H       -9.9080     1.7940     1.6730 H     1 <1>   0.0800 
 39 H      -11.3530     1.8750     0.6870 H     1 <1>   0.0800 
 40 H      -10.2930     3.2680     0.8150 H     1 <1>   0.0800 
 41 H       -8.4950    -2.5790    -2.2150 H     1 <1>   0.0800 
 42 H      -10.1340    -2.2670    -1.6930 H     1 <1>   0.0800 
 43 H       -7.8690    -3.3150     0.0360 H     1 <1>   0.0800 
 44 H       -8.4160    -5.3390    -0.6260 H     1 <1>   0.0800 
 45 H       -9.7530    -4.7480    -1.5990 H     1 <1>   0.0800 
 46 H      -10.6600    -2.4740     0.7570 H     1 <1>   0.0800 
 47 H       -9.2010    -2.3580     1.7150 H     1 <1>   0.0800 
 48 H      -11.2160    -5.0170     0.0660 H     1 <1>   0.4500 
 49 H      -10.9460    -4.3020     2.2360 H     1 <1>   0.0800 
 50 H       -9.2260    -4.6850     2.1860 H     1 <1>   0.0800 
 51 H       -9.1280    -6.8560     1.1000 H     1 <1>   0.0800 
 52 H      -10.2800    -7.2380    -0.1630 H     1 <1>   0.0800 
 53 H      -10.8380    -6.9480     1.4710 H     1 <1>   0.0800 
@<TRIPOS>BOND
  1   1   2  1   
  2   2   3  ar  
  3   2   4  ar  
  4   3   5  1   
  5   3   6  ar  
  6   4   7  ar  
  7   4  28  1   
  8   5   8  1   
  9   6   9  ar  
 10   6  29  1   
 11   7   9  ar  
 12   7  30  1   
 13   8  31  1   
 14   8  32  1   
 15   8  33  1   
 16   9  10  1   
 17  10  11  1   
 18  10  12  2   
 19  11  13  1   
 20  12  14  1   
 21  12  15  1   
 22  13  14  2   
 23  14  16  1   
 24  15  17  2   
 25  15  18  am  
 26  16  19  1   
 27  16  20  1   
 28  18  21  1   
 29  18  34  1   
 30  19  35  1   
 31  19  36  1   
 32  19  37  1   
 33  20  38  1   
 34  20  39  1   
 35  20  40  1   
 36  21  22  1   
 37  21  41  1   
 38  21  42  1   
 39  22  23  1   
 40  22  24  1   
 41  22  43  1   
 42  23  25  1   
 43  23  44  1   
 44  23  45  1   
 45  24  26  1   
 46  24  46  1   
 47  24  47  1   
 48  25  26  1   
 49  25  27  1   
 50  25  48  1   
 51  26  49  1   
 52  26  50  1   
 53  27  51  1   
 54  27  52  1   
 55  27  53  1   
@<TRIPOS>SUBSTRUCTURE
  1 ****  15 GROUP 4 **** **** 0

# MOE 2024.06 (io_trps.svl 2023.06)
