@<TRIPOS>MOLECULE
NONAME
52 56 1 0 0 
SMALL
USER_CHARGES


@<TRIPOS>ATOM
  1 O       -1.8420     0.1260    -0.8350 O.2   1 <1>  -0.5700 
  2 C       -2.5220    -0.8620    -0.7390 C.2   1 <1>   0.5690 
  3 N       -3.6540    -0.8960     0.0250 N.am  1 <1>  -0.3680 
  4 C       -2.1750    -2.1250    -1.4910 C.3   1 <1>  -0.0990 
  5 N       -4.4780    -1.9800     0.2460 N.2   1 <1>  -0.5120 
  6 C       -2.7110    -3.3640    -0.7500 C.3   1 <1>  -0.0990 
  7 C       -4.1100    -3.1650    -0.1290 C.2   1 <1>   0.3890 
  8 C       -4.8950    -4.3840     0.0330 C.2   1 <1>   0.6300 
  9 O       -4.3110    -5.4610     0.0550 O.2   1 <1>  -0.5700 
 10 N       -6.2800    -4.4410     0.1660 N.am  1 <1>  -0.6600 
 11 C       -7.2280    -3.3390    -0.1910 C.3   1 <1>   0.1400 
 12 C       -6.9440    -5.7300     0.5440 C.3   1 <1>   0.1400 
 13 C       -8.1660    -3.0010     0.9900 C.3   1 <1>   0.1430 
 14 C       -8.4310    -5.5480     0.9000 C.3   1 <1>  -0.1600 
 15 C       -9.3060    -2.1720     0.4230 C.ar  1 <1>   0.1670 
 16 C       -8.6510    -4.2750     1.7330 C.3   1 <1>  -0.1600 
 17 C       -7.5120    -2.0000     1.9770 C.3   1 <1>  -0.1600 
 18 N      -10.3200    -2.6370    -0.2670 N.ar  1 <1>  -0.6200 
 19 C       -9.1430    -0.8480     0.6950 C.ar  1 <1>  -0.1440 
 20 C       -7.8870    -0.5910     1.4890 C.3   1 <1>  -0.0160 
 21 C      -11.2120    -1.7290    -0.6830 C.ar  1 <1>   0.6200 
 22 C      -10.0940     0.0210     0.2290 C.ar  1 <1>   0.1600 
 23 N      -11.1280    -0.4090    -0.4580 N.ar  1 <1>  -0.6200 
 24 C      -12.3580    -2.2130    -1.4420 C.ar  1 <1>   0.0000 
 25 C      -13.5780    -1.5290    -1.4440 C.ar  1 <1>  -0.1500 
 26 C      -12.2940    -3.3840    -2.2030 C.ar  1 <1>  -0.1500 
 27 C      -14.6690    -1.9850    -2.1610 C.ar  1 <1>  -0.1500 
 28 C      -13.3810    -3.8470    -2.9220 C.ar  1 <1>  -0.1500 
 29 C      -14.5730    -3.1480    -2.9040 C.ar  1 <1>  -0.1500 
 30 H       -3.8940     0.0060     0.4490 H     1 <1>   0.3700 
 31 H       -1.1090    -2.1920    -1.6150 H     1 <1>   0.0800 
 32 H       -2.6270    -2.0610    -2.4640 H     1 <1>   0.0800 
 33 H       -2.0370    -3.6120     0.0510 H     1 <1>   0.0800 
 34 H       -2.7190    -4.1940    -1.4350 H     1 <1>   0.0800 
 35 H       -7.8280    -3.6790    -1.0180 H     1 <1>   0.0800 
 36 H       -6.7220    -2.4570    -0.5300 H     1 <1>   0.0800 
 37 H       -6.4280    -6.1380     1.3980 H     1 <1>   0.0800 
 38 H       -6.8460    -6.4330    -0.2660 H     1 <1>   0.0800 
 39 H       -8.7710    -6.4090     1.4480 H     1 <1>   0.0800 
 40 H       -9.0150    -5.4950    -0.0030 H     1 <1>   0.0800 
 41 H       -9.6920    -4.1800     1.9920 H     1 <1>   0.0800 
 42 H       -8.0990    -4.3930     2.6490 H     1 <1>   0.0800 
 43 H       -6.4500    -2.1370     2.0600 H     1 <1>   0.0800 
 44 H       -7.9450    -2.1280     2.9540 H     1 <1>   0.0800 
 45 H       -7.1210    -0.1970     0.8430 H     1 <1>   0.0800 
 46 H       -8.0590     0.0820     2.3110 H     1 <1>   0.0800 
 47 H      -10.0080     1.0770     0.4190 H     1 <1>   0.1500 
 48 H      -13.6730    -0.6220    -0.8720 H     1 <1>   0.1500 
 49 H      -11.3750    -3.9430    -2.2310 H     1 <1>   0.1500 
 50 H      -15.5940    -1.4350    -2.1420 H     1 <1>   0.1500 
 51 H      -13.2990    -4.7530    -3.4980 H     1 <1>   0.1500 
 52 H      -15.4200    -3.5050    -3.4620 H     1 <1>   0.1500 
@<TRIPOS>BOND
  1   1   2  2   
  2   2   3  am  
  3   2   4  1   
  4   3   5  1   
  5   3  30  1   
  6   4   6  1   
  7   4  31  1   
  8   4  32  1   
  9   5   7  2   
 10   6   7  1   
 11   6  33  1   
 12   6  34  1   
 13   7   8  1   
 14   8   9  2   
 15   8  10  am  
 16  10  11  1   
 17  10  12  1   
 18  11  13  1   
 19  11  35  1   
 20  11  36  1   
 21  12  14  1   
 22  12  37  1   
 23  12  38  1   
 24  13  15  1   
 25  13  16  1   
 26  13  17  1   
 27  14  16  1   
 28  14  39  1   
 29  14  40  1   
 30  15  18  ar  
 31  15  19  ar  
 32  16  41  1   
 33  16  42  1   
 34  17  20  1   
 35  17  43  1   
 36  17  44  1   
 37  18  21  ar  
 38  19  20  1   
 39  19  22  ar  
 40  20  45  1   
 41  20  46  1   
 42  21  23  ar  
 43  21  24  1   
 44  22  23  ar  
 45  22  47  1   
 46  24  25  ar  
 47  24  26  ar  
 48  25  27  ar  
 49  25  48  1   
 50  26  28  ar  
 51  26  49  1   
 52  27  29  ar  
 53  27  50  1   
 54  28  29  ar  
 55  28  51  1   
 56  29  52  1   
@<TRIPOS>SUBSTRUCTURE
  1 ****  11 GROUP 4 **** **** 0

# MOE 2024.06 (io_trps.svl 2023.06)
