@<TRIPOS>MOLECULE
NONAME
49 51 1 0 0 
SMALL
USER_CHARGES


@<TRIPOS>ATOM
  1 O       -0.4790     0.9400     0.7340 O.2   1 <1>  -0.5700 
  2 C       -0.4810     2.1340     0.5420 C.2   1 <1>   0.5690 
  3 N       -1.4980     2.9460     0.9630 N.am  1 <1>  -0.6600 
  4 C        0.6920     2.7440    -0.2250 C.3   1 <1>   0.1810 
  5 C       -1.5040     4.4150     0.6580 C.3   1 <1>   0.3640 
  6 C       -2.6440     2.4380     1.7720 C.3   1 <1>   0.0600 
  7 O        0.8800     4.1040     0.0770 O.3   1 <1>  -0.5600 
  8 C       -2.8210     4.8240    -0.0250 C.ar  1 <1>  -0.1430 
  9 C       -0.2670     4.9190    -0.1360 C.3   1 <1>   0.2610 
 10 C       -3.3550     4.2130    -1.1650 C.ar  1 <1>  -0.1430 
 11 C       -3.5180     5.8810     0.5520 C.ar  1 <1>  -0.1500 
 12 C        0.0470     6.3670     0.2630 C.2   1 <1>   0.5690 
 13 C       -4.5600     4.6680    -1.6830 C.ar  1 <1>  -0.1500 
 14 C       -2.6940     3.0460    -1.8900 C.3   1 <1>  -0.0960 
 15 C       -4.7150     6.3260     0.0260 C.ar  1 <1>  -0.1500 
 16 O       -0.7370     7.2490     0.0030 O.2   1 <1>  -0.5700 
 17 N        1.2150     6.6390     0.9060 N.am  1 <1>  -0.7300 
 18 C       -5.2390     5.7170    -1.0950 C.ar  1 <1>  -0.1500 
 19 C        1.6630     7.9710     1.3530 C.3   1 <1>   0.1400 
 20 C        2.6550     8.5280     0.3340 C.3   1 <1>  -0.1600 
 21 C        3.0420     9.9710     0.6850 C.3   1 <1>   0.0960 
 22 N        4.0270    10.4990    -0.2780 N.pl3 1 <1>   0.3140 
 23 N        5.3320    10.5850    -0.0050 N.2   1 <1>  -0.4180 
 24 C        3.8000    10.9560    -1.5110 C.2   1 <1>  -0.3020 
 25 N        5.9320    11.0820    -1.0310 N.2   1 <1>  -0.2270 
 26 C        5.0080    11.3160    -1.9670 C.2   1 <1>   0.0770 
 27 H        0.5300     2.6430    -1.2820 H     1 <1>   0.0800 
 28 H        1.5940     2.2220     0.0390 H     1 <1>   0.0800 
 29 H       -1.4670     4.9100     1.6130 H     1 <1>   0.0800 
 30 H       -2.7450     3.0210     2.6700 H     1 <1>   0.0800 
 31 H       -2.4890     1.4090     2.0470 H     1 <1>   0.0800 
 32 H       -3.5540     2.5060     1.2020 H     1 <1>   0.0800 
 33 H       -0.4820     4.9120    -1.1870 H     1 <1>   0.0800 
 34 H       -3.1280     6.3810     1.4210 H     1 <1>   0.1500 
 35 H       -4.9850     4.2050    -2.5560 H     1 <1>   0.1500 
 36 H       -3.1640     2.8660    -2.8390 H     1 <1>   0.0800 
 37 H       -2.7830     2.1490    -1.3030 H     1 <1>   0.0800 
 38 H       -1.6580     3.2450    -2.0770 H     1 <1>   0.0800 
 39 H       -5.2340     7.1490     0.4860 H     1 <1>   0.1500 
 40 H        1.8670     5.8550     1.0260 H     1 <1>   0.3700 
 41 H       -6.1710     6.0590    -1.5100 H     1 <1>   0.1500 
 42 H        0.8100     8.6260     1.4310 H     1 <1>   0.0800 
 43 H        2.1200     7.8890     2.3240 H     1 <1>   0.0800 
 44 H        2.2000     8.5130    -0.6410 H     1 <1>   0.0800 
 45 H        3.5390     7.9130     0.3240 H     1 <1>   0.0800 
 46 H        3.4790    10.0100     1.6660 H     1 <1>   0.0800 
 47 H        2.1760    10.6060     0.6670 H     1 <1>   0.0800 
 48 H        2.8310    10.9940    -1.9720 H     1 <1>   0.1500 
 49 H        5.2690    11.7350    -2.9240 H     1 <1>   0.1500 
@<TRIPOS>BOND
  1   1   2  2   
  2   2   3  am  
  3   2   4  1   
  4   3   5  1   
  5   3   6  1   
  6   4   7  1   
  7   4  27  1   
  8   4  28  1   
  9   5   8  1   
 10   5   9  1   
 11   5  29  1   
 12   6  30  1   
 13   6  31  1   
 14   6  32  1   
 15   7   9  1   
 16   8  10  ar  
 17   8  11  ar  
 18   9  12  1   
 19   9  33  1   
 20  10  13  ar  
 21  10  14  1   
 22  11  15  ar  
 23  11  34  1   
 24  12  16  2   
 25  12  17  am  
 26  13  18  ar  
 27  13  35  1   
 28  14  36  1   
 29  14  37  1   
 30  14  38  1   
 31  15  18  ar  
 32  15  39  1   
 33  17  19  1   
 34  17  40  1   
 35  18  41  1   
 36  19  20  1   
 37  19  42  1   
 38  19  43  1   
 39  20  21  1   
 40  20  44  1   
 41  20  45  1   
 42  21  22  1   
 43  21  46  1   
 44  21  47  1   
 45  22  23  1   
 46  22  24  1   
 47  23  25  2   
 48  24  26  2   
 49  24  48  1   
 50  25  26  1   
 51  26  49  1   
@<TRIPOS>SUBSTRUCTURE
  1 ****  12 GROUP 4 **** **** 0

# MOE 2024.06 (io_trps.svl 2023.06)
