@<TRIPOS>MOLECULE
NONAME
47 48 1 0 0 
SMALL
USER_CHARGES


@<TRIPOS>ATOM
  1 S       -1.4860    -0.8190     0.6440 S.3   1 <1>  -0.4600 
  2 C       -2.8680    -1.9750     0.9620 C.3   1 <1>   0.1310 
  3 C       -0.6630    -0.6960     2.2530 C.3   1 <1>  -0.0100 
  4 C       -3.5740    -2.3870    -0.3270 C.2   1 <1>   0.5690 
  5 O       -3.4160    -3.5270    -0.7010 O.2   1 <1>  -0.5700 
  6 N       -4.4040    -1.5260    -1.0040 N.am  1 <1>  -0.6600 
  7 C       -5.1510    -1.9900    -2.2080 C.3   1 <1>   0.1400 
  8 C       -4.7060    -0.1280    -0.5920 C.3   1 <1>   0.1400 
  9 C       -6.4720    -2.6910    -1.8410 C.3   1 <1>   0.1400 
 10 C       -6.0470    -0.0350     0.1470 C.3   1 <1>  -0.1600 
 11 N       -7.1790    -2.0880    -0.6600 N.am  1 <1>  -0.6600 
 12 C       -7.2440    -0.5990    -0.6290 C.3   1 <1>   0.1400 
 13 C       -7.7540    -2.8360     0.3520 C.2   1 <1>   0.5440 
 14 O       -8.4260    -2.2650     1.1930 O.2   1 <1>  -0.5700 
 15 C       -7.6120    -4.2680     0.4480 C.ar  1 <1>   0.0860 
 16 C       -8.7390    -5.0850     0.4260 C.ar  1 <1>   0.1600 
 17 C       -6.3830    -4.9050     0.5760 C.ar  1 <1>  -0.1500 
 18 N       -8.7460    -6.4050     0.4850 N.ar  1 <1>  -0.6200 
 19 C       -6.3690    -6.2760     0.6410 C.ar  1 <1>  -0.1500 
 20 C       -7.5600    -6.9990     0.5950 C.ar  1 <1>   0.4100 
 21 N       -7.5450    -8.3780     0.6660 N.pl3 1 <1>  -0.8380 
 22 C       -6.7400    -9.0780     1.7010 C.3   1 <1>   0.1290 
 23 C       -8.6730    -9.1700     0.1040 C.3   1 <1>   0.1290 
 24 H       -3.5520    -1.4900     1.6320 H     1 <1>   0.0800 
 25 H       -2.4470    -2.8410     1.4370 H     1 <1>   0.0800 
 26 H        0.1670    -0.0200     2.1450 H     1 <1>   0.0800 
 27 H       -0.3200    -1.6780     2.5290 H     1 <1>   0.0800 
 28 H       -1.3740    -0.3180     2.9660 H     1 <1>   0.0800 
 29 H       -4.5380    -2.6720    -2.7730 H     1 <1>   0.0800 
 30 H       -5.3590    -1.1520    -2.8490 H     1 <1>   0.0800 
 31 H       -4.7320     0.4970    -1.4680 H     1 <1>   0.0800 
 32 H       -3.9270     0.2570     0.0410 H     1 <1>   0.0800 
 33 H       -6.2490    -3.7260    -1.6610 H     1 <1>   0.0800 
 34 H       -7.1290    -2.6600    -2.6920 H     1 <1>   0.0800 
 35 H       -6.2400     1.0040     0.3460 H     1 <1>   0.0800 
 36 H       -5.9770    -0.5290     1.1000 H     1 <1>   0.0800 
 37 H       -7.2660    -0.2070    -1.6310 H     1 <1>   0.0800 
 38 H       -8.1550    -0.2900    -0.1450 H     1 <1>   0.0800 
 39 H       -9.6970    -4.5990     0.3530 H     1 <1>   0.1500 
 40 H       -5.4740    -4.3330     0.6140 H     1 <1>   0.1500 
 41 H       -5.4400    -6.8070     0.7170 H     1 <1>   0.1500 
 42 H       -6.2310    -8.3680     2.3300 H     1 <1>   0.0800 
 43 H       -6.0140    -9.7130     1.2260 H     1 <1>   0.0800 
 44 H       -7.3830    -9.6780     2.3220 H     1 <1>   0.0800 
 45 H       -9.0690    -8.6790    -0.7690 H     1 <1>   0.0800 
 46 H       -9.4560    -9.2570     0.8380 H     1 <1>   0.0800 
 47 H       -8.3320   -10.1500    -0.1780 H     1 <1>   0.0800 
@<TRIPOS>BOND
  1   1   2  1   
  2   1   3  1   
  3   2   4  1   
  4   2  24  1   
  5   2  25  1   
  6   3  26  1   
  7   3  27  1   
  8   3  28  1   
  9   4   5  2   
 10   4   6  am  
 11   6   7  1   
 12   6   8  1   
 13   7   9  1   
 14   7  29  1   
 15   7  30  1   
 16   8  10  1   
 17   8  31  1   
 18   8  32  1   
 19   9  11  1   
 20   9  33  1   
 21   9  34  1   
 22  10  12  1   
 23  10  35  1   
 24  10  36  1   
 25  11  12  1   
 26  11  13  am  
 27  12  37  1   
 28  12  38  1   
 29  13  14  2   
 30  13  15  1   
 31  15  16  ar  
 32  15  17  ar  
 33  16  18  ar  
 34  16  39  1   
 35  17  19  ar  
 36  17  40  1   
 37  18  20  ar  
 38  19  20  ar  
 39  19  41  1   
 40  20  21  1   
 41  21  22  1   
 42  21  23  1   
 43  22  42  1   
 44  22  43  1   
 45  22  44  1   
 46  23  45  1   
 47  23  46  1   
 48  23  47  1   
@<TRIPOS>SUBSTRUCTURE
  1 ****  17 GROUP 4 **** **** 0

# MOE 2024.06 (io_trps.svl 2023.06)
