@<TRIPOS>MOLECULE
NONAME
52 55 1 0 0 
SMALL
USER_CHARGES


@<TRIPOS>ATOM
  1 O       -0.7440    -0.2970    -1.9280 O.2   1 <1>  -0.5700 
  2 C       -1.4050     0.6550    -1.5820 C.2   1 <1>   0.5690 
  3 N       -2.6700     0.4970    -1.0520 N.am  1 <1>  -0.6600 
  4 C       -0.7700     2.0290    -1.7800 C.3   1 <1>   0.0820 
  5 C       -3.4560     1.6210    -0.4490 C.3   1 <1>   0.2200 
  6 C       -3.2200    -0.8860    -0.8950 C.3   1 <1>   0.0600 
  7 C       -0.5000     2.7510    -0.4630 C.2   1 <1>  -0.1810 
  8 C       -3.7330     1.4470     1.0400 C.3   1 <1>  -0.1600 
  9 C       -4.8290     1.8580    -1.0660 C.3   1 <1>  -0.1600 
 10 C       -0.8140     4.0970    -0.1340 C.ar  1 <1>   0.0000 
 11 C        0.0280     2.1990     0.6450 C.2   1 <1>  -0.0100 
 12 C       -4.8690     2.4380     1.3290 C.3   1 <1>  -0.0800 
 13 C       -5.5420     2.7330    -0.0260 C.3   1 <1>  -0.0800 
 14 C       -1.3650     5.2220    -0.7680 C.ar  1 <1>  -0.1440 
 15 C       -0.4540     4.2030     1.2020 C.ar  1 <1>   0.1400 
 16 O        0.0650     3.0610     1.6490 O.3   1 <1>  -0.2800 
 17 C       -4.3710     3.7850     1.8770 C.3   1 <1>  -0.1600 
 18 C       -5.3610     4.2390    -0.2710 C.3   1 <1>  -0.1600 
 19 C       -1.5560     6.3760    -0.0310 C.ar  1 <1>  -0.1500 
 20 C       -1.7470     5.2140    -2.2390 C.3   1 <1>  -0.0970 
 21 C       -0.6470     5.3600     1.9420 C.ar  1 <1>  -0.1500 
 22 C       -5.1650     4.8330     1.1140 C.3   1 <1>   0.2000 
 23 C       -1.2110     6.4530     1.3200 C.ar  1 <1>  -0.1440 
 24 O       -4.4490     6.0070     1.0360 O.3   1 <1>  -0.6800 
 25 C       -1.4630     7.7420     2.0810 C.3   1 <1>  -0.0970 
 26 H        0.1580     1.9160    -2.3100 H     1 <1>   0.0800 
 27 H       -1.4310     2.5910    -2.4040 H     1 <1>   0.0800 
 28 H       -2.9310     2.5470    -0.5620 H     1 <1>   0.0800 
 29 H       -4.2910    -0.8920    -0.9700 H     1 <1>   0.0800 
 30 H       -2.9310    -1.2810     0.0630 H     1 <1>   0.0800 
 31 H       -2.8290    -1.5330    -1.6620 H     1 <1>   0.0800 
 32 H       -4.0890     0.4550     1.2450 H     1 <1>   0.0800 
 33 H       -2.8550     1.6380     1.6320 H     1 <1>   0.0800 
 34 H       -4.7600     2.3350    -2.0270 H     1 <1>   0.0800 
 35 H       -5.3690     0.9350    -1.1650 H     1 <1>   0.0800 
 36 H        0.3880     1.1990     0.8200 H     1 <1>   0.1500 
 37 H       -5.5810     2.0080     2.0130 H     1 <1>   0.0800 
 38 H       -6.5920     2.4970     0.0200 H     1 <1>   0.0800 
 39 H       -3.3220     3.9050     1.6710 H     1 <1>   0.0800 
 40 H       -4.5390     3.8640     2.9360 H     1 <1>   0.0800 
 41 H       -6.2190     4.6650    -0.7590 H     1 <1>   0.0800 
 42 H       -4.4820     4.4200    -0.8630 H     1 <1>   0.0800 
 43 H       -1.9810     7.2490    -0.4980 H     1 <1>   0.1500 
 44 H       -2.0100     6.2020    -2.5720 H     1 <1>   0.0800 
 45 H       -2.5920     4.5700    -2.4010 H     1 <1>   0.0800 
 46 H       -0.9170     4.8740    -2.8310 H     1 <1>   0.0800 
 47 H       -0.3580     5.3740     2.9770 H     1 <1>   0.1500 
 48 H       -6.1130     5.0290     1.5880 H     1 <1>   0.0800 
 49 H       -3.5150     5.8120     0.8070 H     1 <1>   0.4000 
 50 H       -0.9250     8.5520     1.6200 H     1 <1>   0.0800 
 51 H       -1.1410     7.6550     3.1030 H     1 <1>   0.0800 
 52 H       -2.5140     7.9730     2.0730 H     1 <1>   0.0800 
@<TRIPOS>BOND
  1   1   2  2   
  2   2   3  am  
  3   2   4  1   
  4   3   5  1   
  5   3   6  1   
  6   4   7  1   
  7   4  26  1   
  8   4  27  1   
  9   5   8  1   
 10   5   9  1   
 11   5  28  1   
 12   6  29  1   
 13   6  30  1   
 14   6  31  1   
 15   7  10  1   
 16   7  11  2   
 17   8  12  1   
 18   8  32  1   
 19   8  33  1   
 20   9  13  1   
 21   9  34  1   
 22   9  35  1   
 23  10  14  ar  
 24  10  15  ar  
 25  11  16  1   
 26  11  36  1   
 27  12  13  1   
 28  12  17  1   
 29  12  37  1   
 30  13  18  1   
 31  13  38  1   
 32  14  19  ar  
 33  14  20  1   
 34  15  16  1   
 35  15  21  ar  
 36  17  22  1   
 37  17  39  1   
 38  17  40  1   
 39  18  22  1   
 40  18  41  1   
 41  18  42  1   
 42  19  23  ar  
 43  19  43  1   
 44  20  44  1   
 45  20  45  1   
 46  20  46  1   
 47  21  23  ar  
 48  21  47  1   
 49  22  24  1   
 50  22  48  1   
 51  23  25  1   
 52  24  49  1   
 53  25  50  1   
 54  25  51  1   
 55  25  52  1   
@<TRIPOS>SUBSTRUCTURE
  1 ****  10 GROUP 4 **** **** 0

# MOE 2024.06 (io_trps.svl 2023.06)
