@<TRIPOS>MOLECULE
NONAME
55 58 1 0 0 
SMALL
USER_CHARGES


@<TRIPOS>ATOM
  1 O       -0.0510     1.0230    -3.0620 O.2   1 <1>  -0.5700 
  2 C        0.0200     1.3220    -1.8950 C.2   1 <1>   0.5690 
  3 N       -1.0150     1.4110    -1.0080 N.am  1 <1>  -0.4770 
  4 C        1.3370     1.6530    -1.2510 C.3   1 <1>  -0.0990 
  5 C       -2.3780     1.1270    -1.2170 C.ar  1 <1>   0.1170 
  6 C       -0.4920     1.7930     0.3240 C.3   1 <1>   0.1400 
  7 C        0.9100     2.3490     0.0370 C.3   1 <1>   0.2890 
  8 C       -3.3720     1.8920    -0.6170 C.ar  1 <1>  -0.1500 
  9 C       -2.7680     0.0650    -2.0280 C.ar  1 <1>  -0.1500 
 10 N        0.8260     3.8080    -0.2300 N.pl3 1 <1>  -0.8690 
 11 C       -4.7130     1.6050    -0.8030 C.ar  1 <1>   0.0830 
 12 C       -4.1050    -0.2300    -2.2240 C.ar  1 <1>  -0.1500 
 13 C        0.6490     4.7210     0.7820 C.ar  1 <1>   0.4100 
 14 O       -5.6010     2.4110    -0.1670 O.3   1 <1>  -0.3630 
 15 C       -5.0820     0.5350    -1.6130 C.ar  1 <1>  -0.1500 
 16 N        0.7670     4.2860     2.0290 N.ar  1 <1>  -0.6200 
 17 C        0.3460     6.0330     0.4560 C.ar  1 <1>  -0.1500 
 18 C       -6.9920     2.2260    -0.3130 C.3   1 <1>   0.0400 
 19 C        0.5680     5.1900     2.9730 C.ar  1 <1>   0.1600 
 20 C        0.1540     6.9850     1.4390 C.ar  1 <1>   0.0860 
 21 C        0.2650     6.5150     2.7400 C.ar  1 <1>  -0.1500 
 22 C       -0.1560     8.3690     1.1430 C.2   1 <1>   0.5440 
 23 O       -1.0850     8.8970     1.7240 O.2   1 <1>  -0.5700 
 24 N        0.5720     9.1020     0.2300 N.am  1 <1>  -0.6600 
 25 C        1.9680     8.7790    -0.1770 C.3   1 <1>   0.1400 
 26 C        0.0630    10.3900    -0.3170 C.3   1 <1>   0.1400 
 27 C        2.0600     8.7250    -1.7060 C.3   1 <1>  -0.1600 
 28 C        0.1400    10.3600    -1.8480 C.3   1 <1>  -0.1600 
 29 C        1.5550    10.0280    -2.3440 C.3   1 <1>  -0.1600 
 30 H        1.9470     2.2760    -1.8770 H     1 <1>   0.0800 
 31 H        1.8510     0.7370    -1.0320 H     1 <1>   0.0800 
 32 H       -0.4250     0.9130     0.9380 H     1 <1>   0.0800 
 33 H       -1.1070     2.5260     0.8130 H     1 <1>   0.0800 
 34 H        1.5960     2.1610     0.8460 H     1 <1>   0.0800 
 35 H       -3.1170     2.7310    -0.0010 H     1 <1>   0.1500 
 36 H       -2.0170    -0.5350    -2.5110 H     1 <1>   0.1500 
 37 H        0.3150     4.0210    -1.0910 H     1 <1>   0.4000 
 38 H       -4.3830    -1.0560    -2.8560 H     1 <1>   0.1500 
 39 H       -6.1120     0.2850    -1.7790 H     1 <1>   0.1500 
 40 H        0.2580     6.3120    -0.5760 H     1 <1>   0.1500 
 41 H       -7.4910     2.9810     0.2660 H     1 <1>   0.0800 
 42 H       -7.2540     1.2500     0.0540 H     1 <1>   0.0800 
 43 H       -7.2500     2.3310    -1.3520 H     1 <1>   0.0800 
 44 H        0.6520     4.8520     3.9930 H     1 <1>   0.1500 
 45 H        0.1100     7.1930     3.5600 H     1 <1>   0.1500 
 46 H        2.2920     7.8450     0.2460 H     1 <1>   0.0800 
 47 H        2.6210     9.5500     0.1950 H     1 <1>   0.0800 
 48 H        0.6630    11.1970     0.0680 H     1 <1>   0.0800 
 49 H       -0.9570    10.5560    -0.0130 H     1 <1>   0.0800 
 50 H        1.4760     7.8960    -2.0640 H     1 <1>   0.0800 
 51 H        3.0820     8.5550    -1.9940 H     1 <1>   0.0800 
 52 H       -0.1650    11.3160    -2.2360 H     1 <1>   0.0800 
 53 H       -0.5550     9.6230    -2.2120 H     1 <1>   0.0800 
 54 H        1.5530     9.9320    -3.4160 H     1 <1>   0.0800 
 55 H        2.2200    10.8330    -2.0830 H     1 <1>   0.0800 
@<TRIPOS>BOND
  1   1   2  2   
  2   2   3  am  
  3   2   4  1   
  4   3   5  1   
  5   3   6  1   
  6   4   7  1   
  7   4  30  1   
  8   4  31  1   
  9   5   8  ar  
 10   5   9  ar  
 11   6   7  1   
 12   6  32  1   
 13   6  33  1   
 14   7  10  1   
 15   7  34  1   
 16   8  11  ar  
 17   8  35  1   
 18   9  12  ar  
 19   9  36  1   
 20  10  13  1   
 21  10  37  1   
 22  11  14  1   
 23  11  15  ar  
 24  12  15  ar  
 25  12  38  1   
 26  13  16  ar  
 27  13  17  ar  
 28  14  18  1   
 29  15  39  1   
 30  16  19  ar  
 31  17  20  ar  
 32  17  40  1   
 33  18  41  1   
 34  18  42  1   
 35  18  43  1   
 36  19  21  ar  
 37  19  44  1   
 38  20  21  ar  
 39  20  22  1   
 40  21  45  1   
 41  22  23  2   
 42  22  24  am  
 43  24  25  1   
 44  24  26  1   
 45  25  27  1   
 46  25  46  1   
 47  25  47  1   
 48  26  28  1   
 49  26  48  1   
 50  26  49  1   
 51  27  29  1   
 52  27  50  1   
 53  27  51  1   
 54  28  29  1   
 55  28  52  1   
 56  28  53  1   
 57  29  54  1   
 58  29  55  1   
@<TRIPOS>SUBSTRUCTURE
  1 ****  10 GROUP 4 **** **** 0

# MOE 2024.06 (io_trps.svl 2023.06)
