@<TRIPOS>MOLECULE
NONAME
54 57 1 0 0 
SMALL
USER_CHARGES


@<TRIPOS>ATOM
  1 O       -0.7760     0.2380     0.9970 O.2   1 <1>  -0.5700 
  2 C       -1.8410     0.7620     0.7660 C.2   1 <1>   0.6300 
  3 N       -2.8970     0.0450     0.2750 N.am  1 <1>  -0.6600 
  4 C       -2.0320     2.2510     1.0710 C.3   1 <1>  -0.1000 
  5 C       -4.2890     0.5360     0.1520 C.3   1 <1>   0.1400 
  6 C       -2.8170    -1.3990    -0.0400 C.3   1 <1>   0.1400 
  7 C       -2.2060     3.2860    -0.0230 C.3   1 <1>  -0.1900 
  8 C       -0.9900     3.3270     0.8520 C.3   1 <1>  -0.1900 
  9 C       -5.1160    -0.6940    -0.2310 C.3   1 <1>   0.2000 
 10 C       -4.2520    -1.9080     0.1110 C.3   1 <1>  -0.0800 
 11 C       -3.3290     4.3240     0.1410 C.3   1 <1>  -0.1450 
 12 C       -2.0650     2.8930    -1.5050 C.3   1 <1>  -0.1450 
 13 C       -0.8400     4.4030     1.9400 C.3   1 <1>  -0.1450 
 14 C        0.3980     2.9730     0.2890 C.3   1 <1>  -0.1450 
 15 O       -6.3040    -0.7470     0.4810 O.3   1 <1>  -0.6800 
 16 C       -4.5740    -3.1300    -0.7650 C.3   1 <1>  -0.0160 
 17 C       -3.6690    -4.3030    -0.4310 C.ar  1 <1>   0.1670 
 18 N       -2.5570    -4.4060    -1.0910 N.ar  1 <1>  -0.6200 
 19 C       -4.0660    -5.2040     0.5700 C.ar  1 <1>  -0.1500 
 20 C       -1.7330    -5.4410    -0.7860 C.ar  1 <1>   0.3100 
 21 C       -3.2610    -6.2530     0.8950 C.ar  1 <1>  -0.1500 
 22 C       -2.0450    -6.3970     0.2060 C.ar  1 <1>   0.0000 
 23 C       -0.5190    -5.5700    -1.4790 C.ar  1 <1>  -0.1500 
 24 C       -1.1340    -7.4400     0.4630 C.ar  1 <1>  -0.1500 
 25 C        0.3540    -6.5920    -1.2140 C.ar  1 <1>  -0.1500 
 26 C        0.0410    -7.5370    -0.2320 C.ar  1 <1>  -0.1500 
 27 H       -2.6250     2.3570     1.9590 H     1 <1>   0.1000 
 28 H       -4.6110     0.9430     1.0940 H     1 <1>   0.0800 
 29 H       -4.3530     1.2850    -0.6160 H     1 <1>   0.0800 
 30 H       -2.4690    -1.5190    -1.0520 H     1 <1>   0.0800 
 31 H       -2.1430    -1.9110     0.6270 H     1 <1>   0.0800 
 32 H       -5.3500    -0.6600    -1.2810 H     1 <1>   0.0800 
 33 H       -4.3850    -2.1660     1.1470 H     1 <1>   0.0800 
 34 H       -4.2330     3.9710    -0.3220 H     1 <1>   0.0800 
 35 H       -3.0420     5.2480    -0.3280 H     1 <1>   0.0800 
 36 H       -3.5490     4.5180     1.1740 H     1 <1>   0.0800 
 37 H       -3.0240     2.6540    -1.9260 H     1 <1>   0.0800 
 38 H       -1.4330     2.0360    -1.6390 H     1 <1>   0.0800 
 39 H       -1.6480     3.7150    -2.0590 H     1 <1>   0.0800 
 40 H       -0.1110     4.0920     2.6660 H     1 <1>   0.0800 
 41 H       -1.7600     4.5800     2.4630 H     1 <1>   0.0800 
 42 H       -0.5120     5.3270     1.4990 H     1 <1>   0.0800 
 43 H        1.0530     2.6780     1.0890 H     1 <1>   0.0800 
 44 H        0.8220     3.8250    -0.2100 H     1 <1>   0.0800 
 45 H        0.3640     2.1560    -0.4060 H     1 <1>   0.0800 
 46 H       -6.1220    -0.8020     1.4380 H     1 <1>   0.4000 
 47 H       -4.4500    -2.8790    -1.8040 H     1 <1>   0.0800 
 48 H       -5.6010    -3.4150    -0.6210 H     1 <1>   0.0800 
 49 H       -5.0040    -5.0530     1.0720 H     1 <1>   0.1500 
 50 H       -3.5310    -6.9640     1.6550 H     1 <1>   0.1500 
 51 H       -0.2980    -4.8330    -2.2280 H     1 <1>   0.1500 
 52 H       -1.3800    -8.1630     1.2200 H     1 <1>   0.1500 
 53 H        1.2820    -6.6790    -1.7530 H     1 <1>   0.1500 
 54 H        0.7370    -8.3350    -0.0330 H     1 <1>   0.1500 
@<TRIPOS>BOND
  1   1   2  2   
  2   2   3  am  
  3   2   4  1   
  4   3   5  1   
  5   3   6  1   
  6   4   7  1   
  7   4   8  1   
  8   4  27  1   
  9   5   9  1   
 10   5  28  1   
 11   5  29  1   
 12   6  10  1   
 13   6  30  1   
 14   6  31  1   
 15   7   8  1   
 16   7  11  1   
 17   7  12  1   
 18   8  13  1   
 19   8  14  1   
 20   9  10  1   
 21   9  15  1   
 22   9  32  1   
 23  10  16  1   
 24  10  33  1   
 25  11  34  1   
 26  11  35  1   
 27  11  36  1   
 28  12  37  1   
 29  12  38  1   
 30  12  39  1   
 31  13  40  1   
 32  13  41  1   
 33  13  42  1   
 34  14  43  1   
 35  14  44  1   
 36  14  45  1   
 37  15  46  1   
 38  16  17  1   
 39  16  47  1   
 40  16  48  1   
 41  17  18  ar  
 42  17  19  ar  
 43  18  20  ar  
 44  19  21  ar  
 45  19  49  1   
 46  20  22  ar  
 47  20  23  ar  
 48  21  22  ar  
 49  21  50  1   
 50  22  24  ar  
 51  23  25  ar  
 52  23  51  1   
 53  24  26  ar  
 54  24  52  1   
 55  25  26  ar  
 56  25  53  1   
 57  26  54  1   
@<TRIPOS>SUBSTRUCTURE
  1 ****   6 GROUP 4 **** **** 0

# MOE 2024.06 (io_trps.svl 2023.06)
