@<TRIPOS>MOLECULE
NONAME
50 53 1 0 0 
SMALL
USER_CHARGES


@<TRIPOS>ATOM
  1 O       -2.9410     0.6970    -2.0150 O.2   1 <1>  -0.5700 
  2 C       -2.3430     0.7620    -0.9570 C.2   1 <1>   0.7150 
  3 N       -2.1260    -0.3920    -0.2630 N.am  1 <1>  -0.7300 
  4 C       -1.8900     2.0250    -0.4390 C.2   1 <1>   0.0550 
  5 C       -2.5970    -1.7330    -0.6740 C.3   1 <1>   0.2200 
  6 O       -1.2750     2.1080     0.7180 O.3   1 <1>  -0.0190 
  7 C       -1.9600     3.2870    -0.9180 C.2   1 <1>  -0.1500 
  8 C       -3.9620    -1.9890    -0.0610 C.3   1 <1>  -0.0800 
  9 C       -1.7460    -2.8140    -0.0140 C.3   1 <1>   0.1200 
 10 N       -0.9410     3.3220     1.0300 N.2   1 <1>  -0.4100 
 11 C       -1.3450     4.0620     0.0540 C.2   1 <1>   0.1080 
 12 C       -3.5950    -2.5040     1.3330 C.3   1 <1>   0.1200 
 13 C       -4.7610    -3.0250    -0.8770 C.3   1 <1>  -0.0160 
 14 O       -2.3130    -3.0550     1.2400 O.3   1 <1>  -0.5600 
 15 C       -1.1730     5.5760    -0.0230 C.3   1 <1>   0.1010 
 16 C       -6.1730    -3.2020    -0.3270 C.ar  1 <1>  -0.1440 
 17 C        0.3110     5.9600     0.0210 C.3   1 <1>  -0.2400 
 18 C       -1.9390     6.2670     1.1120 C.3   1 <1>  -0.2400 
 19 C       -7.1930    -2.2440    -0.5390 C.ar  1 <1>   0.0000 
 20 C       -6.4900    -4.3120     0.4000 C.ar  1 <1>  -0.1500 
 21 C       -8.4630    -2.5000     0.0340 C.ar  1 <1>   0.3100 
 22 C       -7.0320    -1.0540    -1.2870 C.ar  1 <1>  -0.1500 
 23 C       -7.7810    -4.4700     0.9180 C.ar  1 <1>   0.1600 
 24 N       -8.7390    -3.6140     0.7580 N.ar  1 <1>  -0.6200 
 25 C       -9.4930    -1.5640    -0.1500 C.ar  1 <1>  -0.1500 
 26 C       -8.0580    -0.1630    -1.4480 C.ar  1 <1>  -0.1500 
 27 C       -9.3050    -0.4170    -0.8730 C.ar  1 <1>  -0.1500 
 28 H       -1.7070    -0.3380     0.6690 H     1 <1>   0.3700 
 29 H       -2.5910    -1.8120    -1.7480 H     1 <1>   0.0800 
 30 H       -2.3930     3.6250    -1.8420 H     1 <1>   0.1500 
 31 H       -4.5330    -1.0810     0.0110 H     1 <1>   0.0800 
 32 H       -0.7180    -2.5190     0.1050 H     1 <1>   0.0800 
 33 H       -1.7980    -3.7310    -0.5740 H     1 <1>   0.0800 
 34 H       -4.2750    -3.2520     1.7020 H     1 <1>   0.0800 
 35 H       -3.5470    -1.6900     2.0350 H     1 <1>   0.0800 
 36 H       -4.2480    -3.9710    -0.8650 H     1 <1>   0.0800 
 37 H       -4.8220    -2.7170    -1.9060 H     1 <1>   0.0800 
 38 H       -1.5810     5.9150    -0.9600 H     1 <1>   0.0800 
 39 H        0.7500     5.6470     0.9520 H     1 <1>   0.0800 
 40 H        0.4270     7.0240    -0.0780 H     1 <1>   0.0800 
 41 H        0.8390     5.4790    -0.7830 H     1 <1>   0.0800 
 42 H       -1.5490     5.9580     2.0660 H     1 <1>   0.0800 
 43 H       -2.9800     6.0020     1.0670 H     1 <1>   0.0800 
 44 H       -1.8500     7.3350     1.0300 H     1 <1>   0.0800 
 45 H       -5.7690    -5.0840     0.5970 H     1 <1>   0.1500 
 46 H       -6.0840    -0.8360    -1.7430 H     1 <1>   0.1500 
 47 H       -7.9890    -5.3610     1.4870 H     1 <1>   0.1500 
 48 H      -10.4440    -1.7820     0.3000 H     1 <1>   0.1500 
 49 H       -7.9190     0.7400    -2.0180 H     1 <1>   0.1500 
 50 H      -10.1040     0.2910    -1.0060 H     1 <1>   0.1500 
@<TRIPOS>BOND
  1   1   2  2   
  2   2   3  am  
  3   2   4  1   
  4   3   5  1   
  5   3  28  1   
  6   4   6  1   
  7   4   7  2   
  8   5   8  1   
  9   5   9  1   
 10   5  29  1   
 11   6  10  1   
 12   7  11  1   
 13   7  30  1   
 14   8  12  1   
 15   8  13  1   
 16   8  31  1   
 17   9  14  1   
 18   9  32  1   
 19   9  33  1   
 20  10  11  2   
 21  11  15  1   
 22  12  14  1   
 23  12  34  1   
 24  12  35  1   
 25  13  16  1   
 26  13  36  1   
 27  13  37  1   
 28  15  17  1   
 29  15  18  1   
 30  15  38  1   
 31  16  19  ar  
 32  16  20  ar  
 33  17  39  1   
 34  17  40  1   
 35  17  41  1   
 36  18  42  1   
 37  18  43  1   
 38  18  44  1   
 39  19  21  ar  
 40  19  22  ar  
 41  20  23  ar  
 42  20  45  1   
 43  21  24  ar  
 44  21  25  ar  
 45  22  26  ar  
 46  22  46  1   
 47  23  24  ar  
 48  23  47  1   
 49  25  27  ar  
 50  25  48  1   
 51  26  27  ar  
 52  26  49  1   
 53  27  50  1   
@<TRIPOS>SUBSTRUCTURE
  1 ****   8 GROUP 4 **** **** 0

# MOE 2024.06 (io_trps.svl 2023.06)
