@<TRIPOS>MOLECULE
NONAME
49 51 1 0 0 
SMALL
USER_CHARGES


@<TRIPOS>ATOM
  1 N        0.0200    -0.6280     0.0680 N.ar  1 <1>  -0.6200 
  2 C        1.0200     0.1380    -0.3480 C.ar  1 <1>   0.7710 
  3 C        0.2730    -1.8860     0.3410 C.ar  1 <1>   0.4100 
  4 N        2.2680    -0.3480    -0.4750 N.ar  1 <1>  -0.1790 
  5 N        0.7890     1.4460    -0.6480 N.pl3 1 <1>  -0.8380 
  6 N       -0.7910    -2.5940     0.7450 N.pl3 1 <1>  -0.8690 
  7 C        1.5620    -2.4340     0.2230 C.ar  1 <1>  -0.1500 
  8 C        2.5740    -1.6370    -0.1950 C.ar  1 <1>   0.2170 
  9 C        1.7440     2.4170    -1.2670 C.3   1 <1>   0.2090 
 10 C       -0.5300     2.1010    -0.3520 C.3   1 <1>   0.2090 
 11 C       -0.9440    -4.0350     1.0340 C.3   1 <1>   0.2090 
 12 C        4.0090    -2.1080    -0.3580 C.3   1 <1>  -0.0970 
 13 C        2.0250     3.5470    -0.2730 C.3   1 <1>  -0.1600 
 14 C       -0.3080     3.2380     0.6510 C.3   1 <1>  -0.1600 
 15 C       -2.2930    -4.4900     0.4860 C.3   1 <1>  -0.1600 
 16 C        0.7280     4.2540     0.1470 C.3   1 <1>  -0.1600 
 17 C       -2.5410    -5.9820     0.7530 C.3   1 <1>  -0.0170 
 18 C       -3.9150    -6.4010     0.2570 C.ar  1 <1>   0.1670 
 19 N       -4.9450    -5.9750     0.9710 N.ar  1 <1>  -0.6200 
 20 C       -4.0320    -7.1850    -0.8820 C.ar  1 <1>  -0.1500 
 21 C       -6.1380    -6.3420     0.5330 C.ar  1 <1>   0.1600 
 22 C       -5.2810    -7.5610    -1.3260 C.ar  1 <1>  -0.1500 
 23 C       -6.3590    -7.1210    -0.5900 C.ar  1 <1>  -0.1500 
 24 H        2.9650     0.3230    -0.7670 H     1 <1>   0.4570 
 25 H       -1.6650    -2.0630     0.8340 H     1 <1>   0.4000 
 26 H        1.7160    -3.4660     0.4700 H     1 <1>   0.1500 
 27 H        1.2950     2.8310    -2.1570 H     1 <1>   0.0800 
 28 H        2.6660     1.9510    -1.5600 H     1 <1>   0.0800 
 29 H       -1.2480     1.4110     0.0570 H     1 <1>   0.0800 
 30 H       -0.9440     2.4960    -1.2640 H     1 <1>   0.0800 
 31 H       -0.9090    -4.1890     2.1000 H     1 <1>   0.0800 
 32 H       -0.1550    -4.6010     0.5710 H     1 <1>   0.0800 
 33 H        4.6650    -1.5470     0.2840 H     1 <1>   0.0800 
 34 H        4.3300    -1.9900    -1.3780 H     1 <1>   0.0800 
 35 H        4.0960    -3.1480    -0.0980 H     1 <1>   0.0800 
 36 H        2.6890     4.2640    -0.7230 H     1 <1>   0.0800 
 37 H        2.5160     3.1460     0.5970 H     1 <1>   0.0800 
 38 H        0.0170     2.8170     1.5870 H     1 <1>   0.0800 
 39 H       -1.2430     3.7390     0.8300 H     1 <1>   0.0800 
 40 H       -2.3320    -4.3110    -0.5740 H     1 <1>   0.0800 
 41 H       -3.0760    -3.9200     0.9570 H     1 <1>   0.0800 
 42 H        0.3220     4.7850    -0.6970 H     1 <1>   0.0800 
 43 H        0.9370     4.9750     0.9200 H     1 <1>   0.0800 
 44 H       -2.4900    -6.1770     1.8100 H     1 <1>   0.0800 
 45 H       -1.7820    -6.5710     0.2700 H     1 <1>   0.0800 
 46 H       -3.1570    -7.5000    -1.4200 H     1 <1>   0.1500 
 47 H       -6.9880    -6.0030     1.1010 H     1 <1>   0.1500 
 48 H       -5.4090    -8.1680    -2.2060 H     1 <1>   0.1500 
 49 H       -7.3620    -7.3760    -0.8800 H     1 <1>   0.1500 
@<TRIPOS>BOND
  1   1   2  ar  
  2   1   3  ar  
  3   2   4  ar  
  4   2   5  1   
  5   3   6  1   
  6   3   7  ar  
  7   4   8  ar  
  8   4  24  1   
  9   5   9  1   
 10   5  10  1   
 11   6  11  1   
 12   6  25  1   
 13   7   8  ar  
 14   7  26  1   
 15   8  12  1   
 16   9  13  1   
 17   9  27  1   
 18   9  28  1   
 19  10  14  1   
 20  10  29  1   
 21  10  30  1   
 22  11  15  1   
 23  11  31  1   
 24  11  32  1   
 25  12  33  1   
 26  12  34  1   
 27  12  35  1   
 28  13  16  1   
 29  13  36  1   
 30  13  37  1   
 31  14  16  1   
 32  14  38  1   
 33  14  39  1   
 34  15  17  1   
 35  15  40  1   
 36  15  41  1   
 37  16  42  1   
 38  16  43  1   
 39  17  18  1   
 40  17  44  1   
 41  17  45  1   
 42  18  19  ar  
 43  18  20  ar  
 44  19  21  ar  
 45  20  22  ar  
 46  20  46  1   
 47  21  23  ar  
 48  21  47  1   
 49  22  23  ar  
 50  22  48  1   
 51  23  49  1   
@<TRIPOS>SUBSTRUCTURE
  1 ****   6 GROUP 4 **** **** 0

# MOE 2024.06 (io_trps.svl 2023.06)
