@<TRIPOS>MOLECULE
NONAME
47 50 1 0 0 
SMALL
USER_CHARGES


@<TRIPOS>ATOM
  1 S       -0.2690    -0.7230    -0.4690 S.3   1 <1>  -0.0800 
  2 C        0.0090     0.9950    -0.2710 C.ar  1 <1>   0.0400 
  3 C       -1.8810    -0.5200     0.2010 C.2   1 <1>   0.1980 
  4 C       -1.1300     1.5550     0.2790 C.ar  1 <1>   0.2270 
  5 C        1.1400     1.7240    -0.5870 C.ar  1 <1>  -0.1500 
  6 N       -2.1820     0.6720     0.5340 N.2   1 <1>  -0.5650 
  7 C       -2.7430    -1.7700     0.3180 C.3   1 <1>   0.5230 
  8 C       -1.1380     2.9200     0.5280 C.ar  1 <1>  -0.1500 
  9 C        1.1150     3.0850    -0.3320 C.ar  1 <1>  -0.1500 
 10 N       -4.1450    -1.3810     0.6660 N.4   1 <1>  -0.9590 
 11 C       -0.0180     3.6770     0.2220 C.ar  1 <1>  -0.1500 
 12 C       -4.8440    -2.5110     1.3730 C.3   1 <1>   0.3430 
 13 C       -4.8430    -0.8470    -0.5460 C.3   1 <1>   0.3430 
 14 C       -6.3270    -2.2550     1.7080 C.3   1 <1>   0.1400 
 15 C       -6.0100     0.0530    -0.1370 C.3   1 <1>  -0.1600 
 16 N       -7.1340    -2.1010     0.4630 N.am  1 <1>  -0.6600 
 17 C       -7.3390    -0.6970     0.0040 C.3   1 <1>   0.1400 
 18 C       -7.7130    -3.1810    -0.2020 C.2   1 <1>   0.7160 
 19 O       -8.4020    -2.9310    -1.1750 O.2   1 <1>  -0.5700 
 20 C       -7.5130    -4.5770     0.1960 C.2   1 <1>   0.1410 
 21 N       -6.3260    -5.0770     0.6740 N.2   1 <1>  -0.5650 
 22 C       -8.4160    -5.6060     0.1420 C.2   1 <1>  -0.3320 
 23 C       -6.5450    -6.3320     0.8730 C.2   1 <1>   0.0360 
 24 N       -7.7980    -6.7150     0.5680 N.pl3 1 <1>   0.0330 
 25 C       -9.8710    -5.6180    -0.3050 C.3   1 <1>  -0.0600 
 26 H        2.0050     1.2480    -1.0140 H     1 <1>   0.1500 
 27 H       -2.3290    -2.3950     1.0910 H     1 <1>   0.0800 
 28 H       -2.7260    -2.3180    -0.6100 H     1 <1>   0.0800 
 29 H       -2.0120     3.3750     0.9570 H     1 <1>   0.1500 
 30 H        1.9750     3.6920    -0.5630 H     1 <1>   0.1500 
 31 H       -4.0340    -0.5780     1.3030 H     1 <1>   0.4500 
 32 H       -0.0200     4.7370     0.4140 H     1 <1>   0.1500 
 33 H       -4.3260    -2.7260     2.2930 H     1 <1>   0.0800 
 34 H       -4.7840    -3.3950     0.7610 H     1 <1>   0.0800 
 35 H       -5.1930    -1.6520    -1.1740 H     1 <1>   0.0800 
 36 H       -4.1490    -0.2500    -1.1170 H     1 <1>   0.0800 
 37 H       -6.4230    -1.3790     2.3250 H     1 <1>   0.0800 
 38 H       -6.7080    -3.0840     2.2790 H     1 <1>   0.0800 
 39 H       -6.1470     0.7960    -0.9030 H     1 <1>   0.0800 
 40 H       -5.7810     0.5860     0.7670 H     1 <1>   0.0800 
 41 H       -7.8360    -0.6880    -0.9520 H     1 <1>   0.0800 
 42 H       -7.9830    -0.1840     0.6990 H     1 <1>   0.0800 
 43 H       -5.8150    -7.0320     1.2450 H     1 <1>   0.1500 
 44 H       -8.1890    -7.6600     0.6420 H     1 <1>   0.2700 
 45 H      -10.2170    -4.6240    -0.5260 H     1 <1>   0.0800 
 46 H      -10.4970    -6.0250     0.4690 H     1 <1>   0.0800 
 47 H       -9.9810    -6.2170    -1.1920 H     1 <1>   0.0800 
@<TRIPOS>BOND
  1   1   2  1   
  2   1   3  1   
  3   2   4  ar  
  4   2   5  ar  
  5   3   6  2   
  6   3   7  1   
  7   4   6  1   
  8   4   8  ar  
  9   5   9  ar  
 10   5  26  1   
 11   7  10  1   
 12   7  27  1   
 13   7  28  1   
 14   8  11  ar  
 15   8  29  1   
 16   9  11  ar  
 17   9  30  1   
 18  10  12  1   
 19  10  13  1   
 20  10  31  1   
 21  11  32  1   
 22  12  14  1   
 23  12  33  1   
 24  12  34  1   
 25  13  15  1   
 26  13  35  1   
 27  13  36  1   
 28  14  16  1   
 29  14  37  1   
 30  14  38  1   
 31  15  17  1   
 32  15  39  1   
 33  15  40  1   
 34  16  17  1   
 35  16  18  am  
 36  17  41  1   
 37  17  42  1   
 38  18  19  2   
 39  18  20  1   
 40  20  21  1   
 41  20  22  2   
 42  21  23  2   
 43  22  24  1   
 44  22  25  1   
 45  23  24  1   
 46  23  43  1   
 47  24  44  1   
 48  25  45  1   
 49  25  46  1   
 50  25  47  1   
@<TRIPOS>SUBSTRUCTURE
  1 ****  10 GROUP 4 **** **** 0

# MOE 2024.06 (io_trps.svl 2023.06)
