@<TRIPOS>MOLECULE
NONAME
42 44 1 0 0 
SMALL
USER_CHARGES


@<TRIPOS>ATOM
  1 CL      -1.8620    -0.7920    -2.2670 Cl    1 <1>  -0.1770 
  2 C       -2.1880    -2.2360    -1.3440 C.ar  1 <1>   0.1770 
  3 C       -1.1460    -2.8890    -0.7120 C.ar  1 <1>  -0.1500 
  4 C       -3.4810    -2.7130    -1.2550 C.ar  1 <1>  -0.1500 
  5 C       -1.4100    -4.0340     0.0170 C.ar  1 <1>  -0.1500 
  6 C       -3.7300    -3.8610    -0.5240 C.ar  1 <1>  -0.1500 
  7 C       -2.7060    -4.5480     0.1300 C.ar  1 <1>   0.0530 
  8 C       -2.9480    -5.7570     0.8800 C.2   1 <1>   0.0870 
  9 O       -2.0380    -6.7050     0.8560 O.3   1 <1>  -0.0190 
 10 C       -3.9680    -6.2110     1.6590 C.2   1 <1>  -0.2330 
 11 N       -2.3780    -7.7580     1.5500 N.2   1 <1>  -0.4100 
 12 C       -3.5320    -7.4790     2.0430 C.2   1 <1>   0.3720 
 13 C       -5.2170    -5.6300     2.0550 C.2   1 <1>   1.0330 
 14 N       -4.2600    -8.3400     2.8490 N.pl3 1 <1>  -0.8520 
 15 O       -5.4530    -4.4250     1.8750 O.co2 1 <1>  -0.9000 
 16 O       -6.1090    -6.3300     2.5750 O.co2 1 <1>  -0.9000 
 17 C       -4.6290    -9.6230     2.2300 C.3   1 <1>   0.2090 
 18 C       -6.0110    -9.4730     1.5940 C.3   1 <1>  -0.1600 
 19 C       -6.4720   -10.7700     0.9120 C.3   1 <1>  -0.1600 
 20 C       -7.8810   -10.6280     0.3110 C.3   1 <1>  -0.0800 
 21 C       -8.3850   -11.9130    -0.3550 C.3   1 <1>   0.1200 
 22 C       -7.9670    -9.5990    -0.8050 C.3   1 <1>  -0.1600 
 23 O       -8.8650   -11.5600    -1.6160 O.3   1 <1>  -0.5600 
 24 C       -9.0330   -10.1850    -1.7120 C.3   1 <1>   0.1200 
 25 H       -0.1470    -2.5020    -0.7910 H     1 <1>   0.1500 
 26 H       -4.2830    -2.1920    -1.7440 H     1 <1>   0.1500 
 27 H       -0.6040    -4.5450     0.5150 H     1 <1>   0.1500 
 28 H       -4.7390    -4.2310    -0.4510 H     1 <1>   0.1500 
 29 H       -5.1380    -7.8220     3.0750 H     1 <1>   0.4000 
 30 H       -4.6490   -10.3830     2.9910 H     1 <1>   0.0800 
 31 H       -3.9010    -9.9010     1.4860 H     1 <1>   0.0800 
 32 H       -5.9690    -8.6770     0.8710 H     1 <1>   0.0800 
 33 H       -6.7180    -9.1940     2.3560 H     1 <1>   0.0800 
 34 H       -6.4800   -11.5660     1.6370 H     1 <1>   0.0800 
 35 H       -5.7730   -11.0350     0.1360 H     1 <1>   0.0800 
 36 H       -8.5740   -10.3640     1.0910 H     1 <1>   0.0800 
 37 H       -9.1900   -12.3550     0.2060 H     1 <1>   0.0800 
 38 H       -7.5970   -12.6320    -0.4940 H     1 <1>   0.0800 
 39 H       -7.0410    -9.5390    -1.3510 H     1 <1>   0.0800 
 40 H       -8.2310    -8.6200    -0.4460 H     1 <1>   0.0800 
 41 H       -8.9190    -9.8820    -2.7380 H     1 <1>   0.0800 
 42 H      -10.0200    -9.9440    -1.3570 H     1 <1>   0.0800 
@<TRIPOS>BOND
  1   1   2  1   
  2   2   3  ar  
  3   2   4  ar  
  4   3   5  ar  
  5   3  25  1   
  6   4   6  ar  
  7   4  26  1   
  8   5   7  ar  
  9   5  27  1   
 10   6   7  ar  
 11   6  28  1   
 12   7   8  1   
 13   8   9  1   
 14   8  10  2   
 15   9  11  1   
 16  10  12  1   
 17  10  13  1   
 18  11  12  2   
 19  12  14  1   
 20  13  15  ar  
 21  13  16  ar  
 22  14  17  1   
 23  14  29  1   
 24  17  18  1   
 25  17  30  1   
 26  17  31  1   
 27  18  19  1   
 28  18  32  1   
 29  18  33  1   
 30  19  20  1   
 31  19  34  1   
 32  19  35  1   
 33  20  21  1   
 34  20  22  1   
 35  20  36  1   
 36  21  23  1   
 37  21  37  1   
 38  21  38  1   
 39  22  24  1   
 40  22  39  1   
 41  22  40  1   
 42  23  24  1   
 43  24  41  1   
 44  24  42  1   
@<TRIPOS>SUBSTRUCTURE
  1 ****  10 GROUP 4 **** **** 0

# MOE 2024.06 (io_trps.svl 2023.06)
