@<TRIPOS>MOLECULE
NONAME
44 46 1 0 0 
SMALL
USER_CHARGES


@<TRIPOS>ATOM
  1 S        0.2240     0.2060     1.2840 S.o2  1 <1>   1.4470 
  2 O       -0.5060     1.2520     1.9640 O.2   1 <1>  -0.6500 
  3 O        0.8580    -0.8460     2.0480 O.2   1 <1>  -0.6500 
  4 N        1.5090     0.9980     0.5010 N.am  1 <1>  -0.8490 
  5 C       -0.7560    -0.4580    -0.0890 C.ar  1 <1>  -0.0090 
  6 C        2.1990     1.8920     1.4590 C.3   1 <1>   0.1960 
  7 C        2.4210     0.0540    -0.1600 C.3   1 <1>   0.1960 
  8 C       -1.4950     0.3850    -0.9090 C.ar  1 <1>  -0.1500 
  9 C       -0.7690    -1.8180    -0.3760 C.ar  1 <1>  -0.1500 
 10 C        3.4570     2.6430     0.9430 C.3   1 <1>   0.4230 
 11 C        3.3040     0.7430    -1.2230 C.3   1 <1>  -0.0800 
 12 C       -2.2140    -0.1080    -1.9850 C.ar  1 <1>  -0.1500 
 13 C       -1.4840    -2.3170    -1.4510 C.ar  1 <1>  -0.1500 
 14 N        3.3510     3.1830    -0.4680 N.4   1 <1>  -0.9590 
 15 C        4.7440     1.7900     1.0850 C.3   1 <1>   0.1200 
 16 C        4.8150     0.5680    -0.9570 C.3   1 <1>   0.1200 
 17 C        2.8790     2.2000    -1.5010 C.3   1 <1>   0.3430 
 18 C       -2.2080    -1.4630    -2.2640 C.ar  1 <1>  -0.1430 
 19 C        2.5720     4.4520    -0.5400 C.3   1 <1>   0.2630 
 20 O        5.3510     1.5860    -0.1630 O.3   1 <1>  -0.5600 
 21 C       -2.9980    -2.0080    -3.4400 C.3   1 <1>  -0.0970 
 22 H        1.4980     2.6450     1.7780 H     1 <1>   0.0800 
 23 H        2.4650     1.3340     2.3420 H     1 <1>   0.0800 
 24 H        3.0160    -0.4650     0.5750 H     1 <1>   0.0800 
 25 H        1.8380    -0.6990    -0.6660 H     1 <1>   0.0800 
 26 H       -1.5140     1.4410    -0.7010 H     1 <1>   0.1500 
 27 H       -0.2150    -2.5010     0.2480 H     1 <1>   0.1500 
 28 H        3.5940     3.4760     1.6120 H     1 <1>   0.0800 
 29 H        3.1110     0.1990    -2.1300 H     1 <1>   0.0800 
 30 H       -2.7820     0.5670    -2.6020 H     1 <1>   0.1500 
 31 H       -1.4790    -3.3760    -1.6490 H     1 <1>   0.1500 
 32 H        4.3420     3.3500    -0.7150 H     1 <1>   0.4500 
 33 H        4.5650     0.8410     1.5590 H     1 <1>   0.0800 
 34 H        5.4510     2.3270     1.6930 H     1 <1>   0.0800 
 35 H        5.3510     0.6000    -1.8920 H     1 <1>   0.0800 
 36 H        5.0290    -0.3800    -0.4910 H     1 <1>   0.0800 
 37 H        1.8030     2.2310    -1.5580 H     1 <1>   0.0800 
 38 H        3.2630     2.4960    -2.4630 H     1 <1>   0.0800 
 39 H        1.5430     4.2710    -0.2760 H     1 <1>   0.0800 
 40 H        2.6050     4.8540    -1.5400 H     1 <1>   0.0800 
 41 H        2.9810     5.1840     0.1370 H     1 <1>   0.0800 
 42 H       -3.0610    -1.2750    -4.2240 H     1 <1>   0.0800 
 43 H       -3.9930    -2.2630    -3.1230 H     1 <1>   0.0800 
 44 H       -2.5240    -2.8880    -3.8370 H     1 <1>   0.0800 
@<TRIPOS>BOND
  1   1   2  2   
  2   1   3  2   
  3   1   4  am  
  4   1   5  1   
  5   4   6  1   
  6   4   7  1   
  7   5   8  ar  
  8   5   9  ar  
  9   6  10  1   
 10   6  22  1   
 11   6  23  1   
 12   7  11  1   
 13   7  24  1   
 14   7  25  1   
 15   8  12  ar  
 16   8  26  1   
 17   9  13  ar  
 18   9  27  1   
 19  10  14  1   
 20  10  15  1   
 21  10  28  1   
 22  11  16  1   
 23  11  17  1   
 24  11  29  1   
 25  12  18  ar  
 26  12  30  1   
 27  13  18  ar  
 28  13  31  1   
 29  14  17  1   
 30  14  19  1   
 31  14  32  1   
 32  15  20  1   
 33  15  33  1   
 34  15  34  1   
 35  16  20  1   
 36  16  35  1   
 37  16  36  1   
 38  17  37  1   
 39  17  38  1   
 40  18  21  1   
 41  19  39  1   
 42  19  40  1   
 43  19  41  1   
 44  21  42  1   
 45  21  43  1   
 46  21  44  1   
@<TRIPOS>SUBSTRUCTURE
  1 ****   4 GROUP 4 **** **** 0

# MOE 2024.06 (io_trps.svl 2023.06)
