@<TRIPOS>MOLECULE
NONAME
47 49 1 0 0 
SMALL
USER_CHARGES


@<TRIPOS>ATOM
  1 F       -1.0430    -0.6400    -0.4380 F     1 <1>  -0.1900 
  2 C       -2.2190    -0.0660    -0.4080 C.ar  1 <1>   0.1900 
  3 C       -2.3730     1.3190    -0.5310 C.ar  1 <1>   0.0830 
  4 C       -3.3060    -0.9020    -0.2500 C.ar  1 <1>  -0.1500 
  5 O       -1.3830     2.2450    -0.6900 O.3   1 <1>  -0.3630 
  6 C       -3.6610     1.8280    -0.4900 C.ar  1 <1>  -0.1500 
  7 C       -4.5780    -0.3610    -0.2150 C.ar  1 <1>  -0.1500 
  8 C       -0.0130     1.9120    -0.6980 C.3   1 <1>   0.0400 
  9 C       -4.7870     1.0160    -0.3310 C.ar  1 <1>   0.0530 
 10 C       -6.1100     1.5920    -0.2950 C.2   1 <1>   0.0870 
 11 O       -6.3430     2.7530    -0.8550 O.3   1 <1>  -0.0190 
 12 C       -7.2920     1.1660     0.2230 C.2   1 <1>  -0.0860 
 13 N       -7.5900     3.1310    -0.7510 N.2   1 <1>  -0.4100 
 14 C       -8.1840     2.1940    -0.0970 C.2   1 <1>   0.3720 
 15 C       -7.6030    -0.0280     0.9390 C.2   1 <1>   0.7160 
 16 N       -9.5480     2.2140     0.2360 N.pl3 1 <1>  -0.8210 
 17 O       -7.1140    -0.1910     2.0430 O.2   1 <1>  -0.5700 
 18 N       -8.3970    -1.0240     0.4050 N.am  1 <1>  -0.6600 
 19 C       -9.8200     2.3480     1.6940 C.3   1 <1>   0.1290 
 20 C      -10.3970     3.1300    -0.5760 C.3   1 <1>   0.1290 
 21 C       -9.0670    -0.9190    -0.9220 C.3   1 <1>   0.1400 
 22 C       -8.7000    -2.2810     1.1440 C.3   1 <1>   0.1400 
 23 C       -8.6740    -2.1160    -1.7940 C.3   1 <1>  -0.1600 
 24 C       -8.3010    -3.4890     0.2900 C.3   1 <1>  -0.1600 
 25 C       -8.9670    -3.4500    -1.0920 C.3   1 <1>  -0.1600 
 26 H       -3.1570    -1.9630    -0.1570 H     1 <1>   0.1500 
 27 H       -3.7870     2.8920    -0.5820 H     1 <1>   0.1500 
 28 H       -5.4160    -1.0250    -0.0970 H     1 <1>   0.1500 
 29 H        0.5510     2.8210    -0.8070 H     1 <1>   0.0800 
 30 H        0.1850     1.2600    -1.5300 H     1 <1>   0.0800 
 31 H        0.2390     1.4380     0.2340 H     1 <1>   0.0800 
 32 H       -9.1940     1.6810     2.2600 H     1 <1>   0.0800 
 33 H      -10.8480     2.1040     1.8970 H     1 <1>   0.0800 
 34 H       -9.6250     3.3580     2.0120 H     1 <1>   0.0800 
 35 H      -10.1910     2.9860    -1.6230 H     1 <1>   0.0800 
 36 H      -10.1870     4.1540    -0.3190 H     1 <1>   0.0800 
 37 H      -11.4370     2.9230    -0.3970 H     1 <1>   0.0800 
 38 H       -8.7960    -0.0100    -1.4290 H     1 <1>   0.0800 
 39 H      -10.1330    -0.9060    -0.7730 H     1 <1>   0.0800 
 40 H       -9.7550    -2.3150     1.3560 H     1 <1>   0.0800 
 41 H       -8.1720    -2.3150     2.0820 H     1 <1>   0.0800 
 42 H       -7.6250    -2.0480    -2.0230 H     1 <1>   0.0800 
 43 H       -9.2150    -2.0700    -2.7230 H     1 <1>   0.0800 
 44 H       -8.5820    -4.3930     0.8020 H     1 <1>   0.0800 
 45 H       -7.2310    -3.4960     0.1800 H     1 <1>   0.0800 
 46 H       -8.6060    -4.2660    -1.6940 H     1 <1>   0.0800 
 47 H      -10.0310    -3.5660    -0.9790 H     1 <1>   0.0800 
@<TRIPOS>BOND
  1   1   2  1   
  2   2   3  ar  
  3   2   4  ar  
  4   3   5  1   
  5   3   6  ar  
  6   4   7  ar  
  7   4  26  1   
  8   5   8  1   
  9   6   9  ar  
 10   6  27  1   
 11   7   9  ar  
 12   7  28  1   
 13   8  29  1   
 14   8  30  1   
 15   8  31  1   
 16   9  10  1   
 17  10  11  1   
 18  10  12  2   
 19  11  13  1   
 20  12  14  1   
 21  12  15  1   
 22  13  14  2   
 23  14  16  1   
 24  15  17  2   
 25  15  18  am  
 26  16  19  1   
 27  16  20  1   
 28  18  21  1   
 29  18  22  1   
 30  19  32  1   
 31  19  33  1   
 32  19  34  1   
 33  20  35  1   
 34  20  36  1   
 35  20  37  1   
 36  21  23  1   
 37  21  38  1   
 38  21  39  1   
 39  22  24  1   
 40  22  40  1   
 41  22  41  1   
 42  23  25  1   
 43  23  42  1   
 44  23  43  1   
 45  24  25  1   
 46  24  44  1   
 47  24  45  1   
 48  25  46  1   
 49  25  47  1   
@<TRIPOS>SUBSTRUCTURE
  1 ****  10 GROUP 4 **** **** 0

# MOE 2024.06 (io_trps.svl 2023.06)
