@<TRIPOS>MOLECULE
NONAME
61 64 1 0 0 
SMALL
USER_CHARGES


@<TRIPOS>ATOM
  1 O       -1.4270     0.9430     0.8020 O.2   1 <1>  -0.5700 
  2 C       -2.5430     1.3820     0.6720 C.2   1 <1>   0.5690 
  3 N       -3.4390     0.8300    -0.2110 N.am  1 <1>  -0.6600 
  4 C       -2.9260     2.5620     1.5340 C.3   1 <1>  -0.1790 
  5 C       -3.0170    -0.2560    -1.1350 C.3   1 <1>   0.1400 
  6 C       -4.8730     1.2030    -0.3160 C.3   1 <1>   0.1400 
  7 C       -3.8210    -1.5120    -0.8080 C.3   1 <1>  -0.1600 
  8 C       -5.7170    -0.0300     0.0180 C.3   1 <1>  -0.1600 
  9 C       -5.3260    -1.2130    -0.8770 C.3   1 <1>   0.4230 
 10 N       -6.1450    -2.4080    -0.5250 N.4   1 <1>  -0.9590 
 11 C       -5.8620    -3.0290     0.8010 C.3   1 <1>   0.3430 
 12 C       -6.1750    -3.4270    -1.6190 C.3   1 <1>   0.3430 
 13 C       -7.0110    -3.9600     1.2050 C.3   1 <1>  -0.1600 
 14 C       -6.9320    -4.6880    -1.1910 C.3   1 <1>  -0.1600 
 15 C       -7.8530    -4.4550     0.0120 C.3   1 <1>   0.4240 
 16 O       -8.7040    -3.3940    -0.3700 O.3   1 <1>  -0.5600 
 17 C       -8.6280    -5.7450     0.3400 C.ar  1 <1>  -0.1440 
 18 C       -9.9510    -3.3070     0.2600 C.3   1 <1>   0.1200 
 19 C      -10.0130    -5.7880     0.2870 C.ar  1 <1>  -0.1440 
 20 C       -7.9500    -6.9050     0.6920 C.ar  1 <1>  -0.1500 
 21 C      -10.7810    -4.5380    -0.0890 C.3   1 <1>  -0.0170 
 22 C      -10.6930    -6.9600     0.5740 C.ar  1 <1>  -0.1500 
 23 C       -8.6080    -8.0860     0.9860 C.ar  1 <1>   0.0820 
 24 C      -10.0120    -8.1230     0.9270 C.ar  1 <1>   0.0820 
 25 O       -7.7660    -9.1110     1.3120 O.3   1 <1>  -0.3630 
 26 O      -10.6900    -9.2750     1.2090 O.3   1 <1>  -0.3620 
 27 C       -8.2070   -10.4080     1.6440 C.3   1 <1>   0.0400 
 28 C      -12.0950    -9.3740     1.1220 C.3   1 <1>   0.0400 
 29 H       -3.2730     3.3700     0.9180 H     1 <1>   0.0800 
 30 H       -2.0670     2.8990     2.0860 H     1 <1>   0.0800 
 31 H       -3.6890     2.2760     2.2310 H     1 <1>   0.0800 
 32 H       -1.9640    -0.4600    -1.0330 H     1 <1>   0.0800 
 33 H       -3.1930     0.0560    -2.1510 H     1 <1>   0.0800 
 34 H       -5.0770     1.5400    -1.3190 H     1 <1>   0.0800 
 35 H       -5.1210     2.0040     0.3580 H     1 <1>   0.0800 
 36 H       -3.5310    -1.8340     0.1760 H     1 <1>   0.0800 
 37 H       -3.5550    -2.2770    -1.5130 H     1 <1>   0.0800 
 38 H       -6.7540     0.2130    -0.1290 H     1 <1>   0.0800 
 39 H       -5.5610    -0.2630     1.0550 H     1 <1>   0.0800 
 40 H       -5.5550    -0.9310    -1.8920 H     1 <1>   0.0800 
 41 H       -7.1350    -2.1080    -0.4610 H     1 <1>   0.4500 
 42 H       -5.7350    -2.2730     1.5580 H     1 <1>   0.0800 
 43 H       -4.9460    -3.5950     0.7380 H     1 <1>   0.0800 
 44 H       -5.1740    -3.6970    -1.9110 H     1 <1>   0.0800 
 45 H       -6.6710    -3.0020    -2.4780 H     1 <1>   0.0800 
 46 H       -7.6420    -3.4720     1.9230 H     1 <1>   0.0800 
 47 H       -6.5730    -4.7980     1.7150 H     1 <1>   0.0800 
 48 H       -6.2130    -5.4490    -0.9530 H     1 <1>   0.0800 
 49 H       -7.5110    -5.0600    -2.0180 H     1 <1>   0.0800 
 50 H      -10.4420    -2.4150    -0.0910 H     1 <1>   0.0800 
 51 H       -9.8090    -3.2340     1.3240 H     1 <1>   0.0800 
 52 H       -6.8770    -6.9210     0.7460 H     1 <1>   0.1500 
 53 H      -10.9970    -4.5440    -1.1430 H     1 <1>   0.0800 
 54 H      -11.7130    -4.4990     0.4460 H     1 <1>   0.0800 
 55 H      -11.7640    -6.9460     0.5160 H     1 <1>   0.1500 
 56 H       -7.3430   -11.0130     1.8530 H     1 <1>   0.0800 
 57 H       -8.7460   -10.8170     0.8080 H     1 <1>   0.0800 
 58 H       -8.8330   -10.3500     2.5160 H     1 <1>   0.0800 
 59 H      -12.3740   -10.3810     1.3740 H     1 <1>   0.0800 
 60 H      -12.3990    -9.1530     0.1140 H     1 <1>   0.0800 
 61 H      -12.5380    -8.6880     1.8220 H     1 <1>   0.0800 
@<TRIPOS>BOND
  1   1   2  2   
  2   2   3  am  
  3   2   4  1   
  4   3   5  1   
  5   3   6  1   
  6   4  29  1   
  7   4  30  1   
  8   4  31  1   
  9   5   7  1   
 10   5  32  1   
 11   5  33  1   
 12   6   8  1   
 13   6  34  1   
 14   6  35  1   
 15   7   9  1   
 16   7  36  1   
 17   7  37  1   
 18   8   9  1   
 19   8  38  1   
 20   8  39  1   
 21   9  10  1   
 22   9  40  1   
 23  10  11  1   
 24  10  12  1   
 25  10  41  1   
 26  11  13  1   
 27  11  42  1   
 28  11  43  1   
 29  12  14  1   
 30  12  44  1   
 31  12  45  1   
 32  13  15  1   
 33  13  46  1   
 34  13  47  1   
 35  14  15  1   
 36  14  48  1   
 37  14  49  1   
 38  15  16  1   
 39  15  17  1   
 40  16  18  1   
 41  17  19  ar  
 42  17  20  ar  
 43  18  21  1   
 44  18  50  1   
 45  18  51  1   
 46  19  21  1   
 47  19  22  ar  
 48  20  23  ar  
 49  20  52  1   
 50  21  53  1   
 51  21  54  1   
 52  22  24  ar  
 53  22  55  1   
 54  23  24  ar  
 55  23  25  1   
 56  24  26  1   
 57  25  27  1   
 58  26  28  1   
 59  27  56  1   
 60  27  57  1   
 61  27  58  1   
 62  28  59  1   
 63  28  60  1   
 64  28  61  1   
@<TRIPOS>SUBSTRUCTURE
  1 ****  13 GROUP 4 **** **** 0

# MOE 2024.06 (io_trps.svl 2023.06)
