@<TRIPOS>MOLECULE
NONAME
47 49 1 0 0 
SMALL
USER_CHARGES


@<TRIPOS>ATOM
  1 O       -0.6690     0.2920    -1.2180 O.2   1 <1>  -0.5700 
  2 C       -1.5610     0.7430    -0.5250 C.2   1 <1>   0.5440 
  3 N       -2.4790    -0.1160     0.0290 N.am  1 <1>  -0.6600 
  4 C       -1.6360     2.1640    -0.2900 C.ar  1 <1>   0.0860 
  5 C       -3.6570     0.3040     0.8260 C.3   1 <1>   0.1400 
  6 C       -2.6090    -1.5250    -0.3840 C.3   1 <1>   0.1400 
  7 C       -0.8730     2.7780     0.6930 C.ar  1 <1>   0.1660 
  8 C       -2.4800     2.9970    -1.0120 C.ar  1 <1>   0.1660 
  9 C       -4.6710    -0.8510     0.7330 C.3   1 <1>  -0.0800 
 10 C       -4.1080    -1.8160    -0.3330 C.3   1 <1>  -0.0800 
 11 N       -0.9500     4.0660     0.9490 N.ar  1 <1>  -0.6200 
 12 C        0.1020     1.9780     1.5400 C.3   1 <1>  -0.0970 
 13 N       -2.5730     4.2870    -0.7710 N.ar  1 <1>  -0.6200 
 14 C       -3.3700     2.4730    -2.1300 C.3   1 <1>  -0.0970 
 15 C       -6.1620    -0.4390     0.5240 C.3   1 <1>   0.2800 
 16 C       -4.7790    -1.6050    -1.6990 C.3   1 <1>  -0.1600 
 17 C       -1.7990     4.7450     0.1980 C.ar  1 <1>   0.4700 
 18 O       -6.2450     0.7010    -0.2550 O.3   1 <1>  -0.6800 
 19 C       -6.9050    -1.5480    -0.2450 C.3   1 <1>  -0.1600 
 20 C       -6.8940    -0.1340     1.8500 C.3   1 <1>  -0.1600 
 21 C       -6.2960    -1.8550    -1.6310 C.3   1 <1>  -0.1600 
 22 C       -6.3200     1.0270     2.6810 C.3   1 <1>  -0.2400 
 23 H       -3.3610     0.4630     1.8480 H     1 <1>   0.0800 
 24 H       -4.0500     1.2240     0.4370 H     1 <1>   0.0800 
 25 H       -2.2010    -1.6870    -1.3670 H     1 <1>   0.0800 
 26 H       -2.0820    -2.1420     0.3240 H     1 <1>   0.0800 
 27 H       -4.6150    -1.3820     1.6660 H     1 <1>   0.0800 
 28 H       -4.2610    -2.8390    -0.0360 H     1 <1>   0.0800 
 29 H        0.8270     1.4970     0.9070 H     1 <1>   0.0800 
 30 H       -0.4250     1.2300     2.1020 H     1 <1>   0.0800 
 31 H        0.6230     2.6220     2.2260 H     1 <1>   0.0800 
 32 H       -2.9810     1.5690    -2.5580 H     1 <1>   0.0800 
 33 H       -3.4430     3.2080    -2.9110 H     1 <1>   0.0800 
 34 H       -4.3560     2.2820    -1.7460 H     1 <1>   0.0800 
 35 H       -4.6050    -0.5900    -2.0140 H     1 <1>   0.0800 
 36 H       -4.3390    -2.2520    -2.4380 H     1 <1>   0.0800 
 37 H       -1.8690     5.8010     0.3990 H     1 <1>   0.1500 
 38 H       -7.1810     0.9020    -0.4310 H     1 <1>   0.4000 
 39 H       -6.8600    -2.4450     0.3480 H     1 <1>   0.0800 
 40 H       -7.9460    -1.3010    -0.3550 H     1 <1>   0.0800 
 41 H       -7.9260     0.0810     1.6340 H     1 <1>   0.0800 
 42 H       -6.8860    -1.0210     2.4590 H     1 <1>   0.0800 
 43 H       -6.5040    -2.8820    -1.8790 H     1 <1>   0.0800 
 44 H       -6.7730    -1.2410    -2.3750 H     1 <1>   0.0800 
 45 H       -6.2590     1.9260     2.0920 H     1 <1>   0.0800 
 46 H       -5.3410     0.7880     3.0530 H     1 <1>   0.0800 
 47 H       -6.9580     1.2200     3.5250 H     1 <1>   0.0800 
@<TRIPOS>BOND
  1   1   2  2   
  2   2   3  am  
  3   2   4  1   
  4   3   5  1   
  5   3   6  1   
  6   4   7  ar  
  7   4   8  ar  
  8   5   9  1   
  9   5  23  1   
 10   5  24  1   
 11   6  10  1   
 12   6  25  1   
 13   6  26  1   
 14   7  11  ar  
 15   7  12  1   
 16   8  13  ar  
 17   8  14  1   
 18   9  10  1   
 19   9  15  1   
 20   9  27  1   
 21  10  16  1   
 22  10  28  1   
 23  11  17  ar  
 24  12  29  1   
 25  12  30  1   
 26  12  31  1   
 27  13  17  ar  
 28  14  32  1   
 29  14  33  1   
 30  14  34  1   
 31  15  18  1   
 32  15  19  1   
 33  15  20  1   
 34  16  21  1   
 35  16  35  1   
 36  16  36  1   
 37  17  37  1   
 38  18  38  1   
 39  19  21  1   
 40  19  39  1   
 41  19  40  1   
 42  20  22  1   
 43  20  41  1   
 44  20  42  1   
 45  21  43  1   
 46  21  44  1   
 47  22  45  1   
 48  22  46  1   
 49  22  47  1   
@<TRIPOS>SUBSTRUCTURE
  1 ****   5 GROUP 4 **** **** 0

# MOE 2024.06 (io_trps.svl 2023.06)
