@<TRIPOS>MOLECULE
NONAME
48 50 1 0 0 
SMALL
USER_CHARGES


@<TRIPOS>ATOM
  1 O       -0.1210     0.9960     0.3520 O.2   1 <1>  -0.5700 
  2 C       -0.2000     2.2010     0.2970 C.2   1 <1>   0.5690 
  3 N       -1.2750     2.8900     0.7920 N.am  1 <1>  -0.6600 
  4 C        0.9390     2.9680    -0.3730 C.3   1 <1>   0.1810 
  5 C       -1.3730     4.3820     0.6540 C.3   1 <1>   0.3640 
  6 C       -2.3780     2.2210     1.5420 C.3   1 <1>   0.0600 
  7 O        1.0130     4.3050     0.0570 O.3   1 <1>  -0.5600 
  8 C       -2.7290     4.7930     0.0560 C.ar  1 <1>  -0.1440 
  9 C       -0.1930     5.0340    -0.1130 C.3   1 <1>   0.2610 
 10 C       -3.2720     4.2720    -1.1240 C.ar  1 <1>  -0.1440 
 11 C       -3.4500     5.7540     0.7550 C.ar  1 <1>  -0.1500 
 12 C       -0.0010     6.4760     0.3690 C.2   1 <1>   0.5690 
 13 C       -4.5110     4.7190    -1.5600 C.ar  1 <1>  -0.1500 
 14 C       -2.5840     3.2130    -1.9790 C.3   1 <1>  -0.0960 
 15 C       -4.6830     6.1930     0.3100 C.ar  1 <1>  -0.1500 
 16 O       -0.7290     7.3500    -0.0330 O.2   1 <1>  -0.5700 
 17 N        1.0040     6.7560     1.2380 N.am  1 <1>  -0.7300 
 18 C       -5.2160     5.6730    -0.8510 C.ar  1 <1>  -0.1500 
 19 C        1.3750     8.1170     1.6930 C.3   1 <1>   0.2840 
 20 C        2.5560     8.6410     0.8920 C.ar  1 <1>   0.1670 
 21 N        3.7460     8.6290     1.4760 N.ar  1 <1>  -0.6200 
 22 C        2.3380     9.1030    -0.4030 C.ar  1 <1>   0.1600 
 23 C        4.6890     9.1090     0.6820 C.ar  1 <1>   0.1600 
 24 N        3.2840     9.5840    -1.1940 N.ar  1 <1>  -0.6200 
 25 C        4.4700     9.5740    -0.6130 C.ar  1 <1>   0.1670 
 26 C        5.6170    10.1070    -1.4470 C.3   1 <1>  -0.0970 
 27 H        0.8100     2.9550    -1.4400 H     1 <1>   0.0800 
 28 H        1.8740     2.4960    -0.1320 H     1 <1>   0.0800 
 29 H       -1.3290     4.7700     1.6570 H     1 <1>   0.0800 
 30 H       -2.5040     2.6900     2.5020 H     1 <1>   0.0800 
 31 H       -2.1560     1.1790     1.6960 H     1 <1>   0.0800 
 32 H       -3.2980     2.2970     0.9890 H     1 <1>   0.0800 
 33 H       -0.4110     5.0700    -1.1640 H     1 <1>   0.0800 
 34 H       -3.0550     6.1830     1.6600 H     1 <1>   0.1500 
 35 H       -4.9440     4.3250    -2.4620 H     1 <1>   0.1500 
 36 H       -3.0540     3.1320    -2.9430 H     1 <1>   0.0800 
 37 H       -2.6490     2.2530    -1.4990 H     1 <1>   0.0800 
 38 H       -1.5530     3.4540    -2.1440 H     1 <1>   0.0800 
 39 H       -5.2240     6.9400     0.8650 H     1 <1>   0.1500 
 40 H        1.7090     6.0270     1.3990 H     1 <1>   0.3700 
 41 H       -6.1750     6.0100    -1.2030 H     1 <1>   0.1500 
 42 H        0.5390     8.7850     1.5760 H     1 <1>   0.0800 
 43 H        1.6330     8.0860     2.7380 H     1 <1>   0.0800 
 44 H        1.3380     9.0690    -0.8010 H     1 <1>   0.1500 
 45 H        5.6880     9.1360     1.0790 H     1 <1>   0.1500 
 46 H        6.5440    10.0670    -0.9070 H     1 <1>   0.0800 
 47 H        5.4160    11.1260    -1.7210 H     1 <1>   0.0800 
 48 H        5.7100     9.5210    -2.3440 H     1 <1>   0.0800 
@<TRIPOS>BOND
  1   1   2  2   
  2   2   3  am  
  3   2   4  1   
  4   3   5  1   
  5   3   6  1   
  6   4   7  1   
  7   4  27  1   
  8   4  28  1   
  9   5   8  1   
 10   5   9  1   
 11   5  29  1   
 12   6  30  1   
 13   6  31  1   
 14   6  32  1   
 15   7   9  1   
 16   8  10  ar  
 17   8  11  ar  
 18   9  12  1   
 19   9  33  1   
 20  10  13  ar  
 21  10  14  1   
 22  11  15  ar  
 23  11  34  1   
 24  12  16  2   
 25  12  17  am  
 26  13  18  ar  
 27  13  35  1   
 28  14  36  1   
 29  14  37  1   
 30  14  38  1   
 31  15  18  ar  
 32  15  39  1   
 33  17  19  1   
 34  17  40  1   
 35  18  41  1   
 36  19  20  1   
 37  19  42  1   
 38  19  43  1   
 39  20  21  ar  
 40  20  22  ar  
 41  21  23  ar  
 42  22  24  ar  
 43  22  44  1   
 44  23  25  ar  
 45  23  45  1   
 46  24  25  ar  
 47  25  26  1   
 48  26  46  1   
 49  26  47  1   
 50  26  48  1   
@<TRIPOS>SUBSTRUCTURE
  1 ****  12 GROUP 4 **** **** 0

# MOE 2024.06 (io_trps.svl 2023.06)
