@<TRIPOS>MOLECULE
NONAME
57 59 1 0 0 
SMALL
USER_CHARGES


@<TRIPOS>ATOM
  1 O       -1.5090     0.3660     2.2350 O.2   1 <1>  -0.5700 
  2 C       -1.6800     0.8690     1.1400 C.2   1 <1>   0.5440 
  3 N       -2.0770     0.0760     0.0880 N.am  1 <1>  -0.6600 
  4 C       -1.4730     2.2880     0.9780 C.ar  1 <1>   0.0860 
  5 C       -2.1380    -1.4200     0.2210 C.3   1 <1>   0.3640 
  6 C       -2.5340     0.6640    -1.2100 C.3   1 <1>   0.1400 
  7 C       -0.4150     2.8200     0.2250 C.ar  1 <1>   0.0830 
  8 C       -2.3580     3.1880     1.5720 C.ar  1 <1>  -0.1500 
  9 C       -0.8310    -2.0840    -0.2380 C.ar  1 <1>  -0.1440 
 10 C       -3.3620    -2.0490    -0.5180 C.3   1 <1>   0.2000 
 11 C       -3.0460    -0.4010    -2.1890 C.3   1 <1>   0.1200 
 12 O        0.5130     2.0340    -0.3630 O.3   1 <1>  -0.3630 
 13 C       -0.2880     4.1860     0.0380 C.ar  1 <1>  -0.1500 
 14 C       -2.2230     4.5520     1.3980 C.ar  1 <1>  -0.1500 
 15 C       -0.5500    -3.3570     0.2430 C.ar  1 <1>  -0.1500 
 16 C        0.0820    -1.4880    -1.1040 C.ar  1 <1>  -0.1500 
 17 O       -3.9320    -1.2460    -1.5280 O.3   1 <1>  -0.5600 
 18 C       -4.4930    -2.3870     0.4600 C.3   1 <1>   0.1200 
 19 C        1.3750     1.2860     0.4730 C.3   1 <1>   0.0400 
 20 C       -1.1920     5.0630     0.6240 C.ar  1 <1>   0.0830 
 21 C        0.5980    -4.0320    -0.1350 C.ar  1 <1>   0.0830 
 22 C        1.2430    -2.1450    -1.4730 C.ar  1 <1>  -0.1500 
 23 O       -4.1280    -3.4600     1.2700 O.3   1 <1>  -0.6800 
 24 O       -1.1340     6.4070     0.4930 O.3   1 <1>  -0.3630 
 25 O        0.7680    -5.2890     0.3440 O.3   1 <1>  -0.3620 
 26 C        1.5190    -3.4080    -0.9830 C.ar  1 <1>   0.0830 
 27 C       -0.1140     7.0350    -0.2530 C.3   1 <1>   0.0400 
 28 C        0.7770    -6.3300    -0.6080 C.3   1 <1>   0.0400 
 29 O        2.6920    -3.9790    -1.3520 O.3   1 <1>  -0.3630 
 30 C        3.6340    -4.1880    -0.3220 C.3   1 <1>   0.0400 
 31 H       -2.2390    -1.6640     1.2650 H     1 <1>   0.0800 
 32 H       -3.3290     1.3630    -1.0160 H     1 <1>   0.0800 
 33 H       -1.7240     1.2030    -1.6680 H     1 <1>   0.0800 
 34 H       -3.1610     2.8020     2.1750 H     1 <1>   0.1500 
 35 H       -3.0530    -2.9600    -0.9980 H     1 <1>   0.0800 
 36 H       -2.2390    -0.9870    -2.5950 H     1 <1>   0.0800 
 37 H       -3.5750     0.0650    -3.0010 H     1 <1>   0.0800 
 38 H        0.5270     4.5400    -0.5630 H     1 <1>   0.1500 
 39 H       -2.9150     5.2340     1.8590 H     1 <1>   0.1500 
 40 H       -1.2290    -3.8440     0.9210 H     1 <1>   0.1500 
 41 H       -0.0900    -0.5020    -1.4940 H     1 <1>   0.1500 
 42 H       -5.3870    -2.6600    -0.0720 H     1 <1>   0.0800 
 43 H       -4.6960    -1.5430     1.0970 H     1 <1>   0.0800 
 44 H        2.2000     0.9380    -0.1210 H     1 <1>   0.0800 
 45 H        0.8460     0.4420     0.8780 H     1 <1>   0.0800 
 46 H        1.7320     1.9180     1.2670 H     1 <1>   0.0800 
 47 H        1.9450    -1.6750    -2.1380 H     1 <1>   0.1500 
 48 H       -4.1960    -4.3030     0.7800 H     1 <1>   0.4000 
 49 H       -0.2740     8.0970    -0.2080 H     1 <1>   0.0800 
 50 H       -0.1700     6.6990    -1.2730 H     1 <1>   0.0800 
 51 H        0.8380     6.7910     0.1830 H     1 <1>   0.0800 
 52 H        0.7870    -7.2670    -0.0810 H     1 <1>   0.0800 
 53 H        1.6550    -6.2470    -1.2210 H     1 <1>   0.0800 
 54 H       -0.1090    -6.2550    -1.2130 H     1 <1>   0.0800 
 55 H        4.5450    -4.5450    -0.7670 H     1 <1>   0.0800 
 56 H        3.2520    -4.9180     0.3680 H     1 <1>   0.0800 
 57 H        3.8090    -3.2540     0.1820 H     1 <1>   0.0800 
@<TRIPOS>BOND
  1   1   2  2   
  2   2   3  am  
  3   2   4  1   
  4   3   5  1   
  5   3   6  1   
  6   4   7  ar  
  7   4   8  ar  
  8   5   9  1   
  9   5  10  1   
 10   5  31  1   
 11   6  11  1   
 12   6  32  1   
 13   6  33  1   
 14   7  12  1   
 15   7  13  ar  
 16   8  14  ar  
 17   8  34  1   
 18   9  15  ar  
 19   9  16  ar  
 20  10  17  1   
 21  10  18  1   
 22  10  35  1   
 23  11  17  1   
 24  11  36  1   
 25  11  37  1   
 26  12  19  1   
 27  13  20  ar  
 28  13  38  1   
 29  14  20  ar  
 30  14  39  1   
 31  15  21  ar  
 32  15  40  1   
 33  16  22  ar  
 34  16  41  1   
 35  18  23  1   
 36  18  42  1   
 37  18  43  1   
 38  19  44  1   
 39  19  45  1   
 40  19  46  1   
 41  20  24  1   
 42  21  25  1   
 43  21  26  ar  
 44  22  26  ar  
 45  22  47  1   
 46  23  48  1   
 47  24  27  1   
 48  25  28  1   
 49  26  29  1   
 50  27  49  1   
 51  27  50  1   
 52  27  51  1   
 53  28  52  1   
 54  28  53  1   
 55  28  54  1   
 56  29  30  1   
 57  30  55  1   
 58  30  56  1   
 59  30  57  1   
@<TRIPOS>SUBSTRUCTURE
  1 ****   3 GROUP 4 **** **** 0

# MOE 2024.06 (io_trps.svl 2023.06)
