@<TRIPOS>MOLECULE
NONAME
51 54 1 0 0 
SMALL
USER_CHARGES


@<TRIPOS>ATOM
  1 O       -2.4520     0.4260     2.7740 O.2   1 <1>  -0.5700 
  2 C       -2.4550     0.9600     1.6890 C.2   1 <1>   0.5690 
  3 N       -3.1570     0.4250     0.6410 N.am  1 <1>  -0.6600 
  4 C       -1.6570     2.2380     1.5470 C.3   1 <1>   0.1570 
  5 C       -3.2440     0.9730    -0.7430 C.3   1 <1>   0.1400 
  6 C       -3.6300    -0.9820     0.6600 C.3   1 <1>   0.1400 
  7 N       -0.6110     2.0990     0.5210 N.pl3 1 <1>   0.3140 
  8 C       -4.0560    -0.0630    -1.5210 C.3   1 <1>   0.2000 
  9 C       -3.7470    -1.3860    -0.8170 C.3   1 <1>  -0.0800 
 10 N       -0.5330     2.9940    -0.4850 N.2   1 <1>  -0.7070 
 11 C        0.3450     1.1450     0.3970 C.2   1 <1>  -0.3320 
 12 O       -5.4030     0.2120    -1.3510 O.3   1 <1>  -0.6800 
 13 C       -2.4320    -1.9920    -1.3530 C.3   1 <1>  -0.0170 
 14 C        0.4660     2.6020    -1.2090 C.2   1 <1>   0.1080 
 15 C        1.0550     1.4480    -0.7090 C.2   1 <1>  -0.1500 
 16 C        0.5500    -0.0360     1.3340 C.3   1 <1>  -0.0600 
 17 C       -2.0930    -3.3110    -0.6800 C.ar  1 <1>   0.1670 
 18 C        0.9090     3.3420    -2.4490 C.3   1 <1>  -0.0590 
 19 N       -1.1860    -3.2950     0.2490 N.ar  1 <1>  -0.6200 
 20 C       -2.7680    -4.4740    -1.0860 C.ar  1 <1>  -0.1500 
 21 C       -0.8870    -4.4680     0.8630 C.ar  1 <1>   0.3100 
 22 C       -2.4840    -5.6650    -0.4910 C.ar  1 <1>  -0.1500 
 23 C       -1.5130    -5.6870     0.5240 C.ar  1 <1>   0.0000 
 24 C        0.0810    -4.4740     1.8790 C.ar  1 <1>  -0.1500 
 25 C       -1.1440    -6.8610     1.2100 C.ar  1 <1>  -0.1500 
 26 C        0.4260    -5.6260     2.5360 C.ar  1 <1>  -0.1500 
 27 C       -0.1940    -6.8330     2.1960 C.ar  1 <1>  -0.1500 
 28 H       -1.1860     2.4760     2.4800 H     1 <1>   0.0800 
 29 H       -2.3130     3.0400     1.2720 H     1 <1>   0.0800 
 30 H       -3.7030     1.9460    -0.7650 H     1 <1>   0.0800 
 31 H       -2.2580     1.0320    -1.1700 H     1 <1>   0.0800 
 32 H       -2.9490    -1.6100     1.2110 H     1 <1>   0.0800 
 33 H       -4.5940    -1.0190     1.1360 H     1 <1>   0.0800 
 34 H       -3.8410    -0.0660    -2.5760 H     1 <1>   0.0800 
 35 H       -4.5420    -2.0960    -0.9610 H     1 <1>   0.0800 
 36 H       -5.5770     0.3620    -0.4000 H     1 <1>   0.4000 
 37 H       -1.6160    -1.3060    -1.2000 H     1 <1>   0.0800 
 38 H       -2.5170    -2.1590    -2.4110 H     1 <1>   0.0800 
 39 H        1.8950     0.9270    -1.1330 H     1 <1>   0.1500 
 40 H        1.4530    -0.5600     1.0770 H     1 <1>   0.0800 
 41 H       -0.2710    -0.7270     1.2530 H     1 <1>   0.0800 
 42 H        0.6250     0.2980     2.3530 H     1 <1>   0.0800 
 43 H        1.7400     2.8420    -2.9090 H     1 <1>   0.0800 
 44 H        1.2010     4.3410    -2.1820 H     1 <1>   0.0800 
 45 H        0.0940     3.3910    -3.1470 H     1 <1>   0.0800 
 46 H       -3.5050    -4.4080    -1.8660 H     1 <1>   0.1500 
 47 H       -2.9800    -6.5760    -0.7750 H     1 <1>   0.1500 
 48 H        0.5440    -3.5370     2.1260 H     1 <1>   0.1500 
 49 H       -1.6250    -7.7860     0.9450 H     1 <1>   0.1500 
 50 H        1.1700    -5.6170     3.3140 H     1 <1>   0.1500 
 51 H        0.0860    -7.7300     2.7200 H     1 <1>   0.1500 
@<TRIPOS>BOND
  1   1   2  2   
  2   2   3  am  
  3   2   4  1   
  4   3   5  1   
  5   3   6  1   
  6   4   7  1   
  7   4  28  1   
  8   4  29  1   
  9   5   8  1   
 10   5  30  1   
 11   5  31  1   
 12   6   9  1   
 13   6  32  1   
 14   6  33  1   
 15   7  10  1   
 16   7  11  1   
 17   8   9  1   
 18   8  12  1   
 19   8  34  1   
 20   9  13  1   
 21   9  35  1   
 22  10  14  2   
 23  11  15  2   
 24  11  16  1   
 25  12  36  1   
 26  13  17  1   
 27  13  37  1   
 28  13  38  1   
 29  14  15  1   
 30  14  18  1   
 31  15  39  1   
 32  16  40  1   
 33  16  41  1   
 34  16  42  1   
 35  17  19  ar  
 36  17  20  ar  
 37  18  43  1   
 38  18  44  1   
 39  18  45  1   
 40  19  21  ar  
 41  20  22  ar  
 42  20  46  1   
 43  21  23  ar  
 44  21  24  ar  
 45  22  23  ar  
 46  22  47  1   
 47  23  25  ar  
 48  24  26  ar  
 49  24  48  1   
 50  25  27  ar  
 51  25  49  1   
 52  26  27  ar  
 53  26  50  1   
 54  27  51  1   
@<TRIPOS>SUBSTRUCTURE
  1 ****  13 GROUP 4 **** **** 0

# MOE 2024.06 (io_trps.svl 2023.06)
