@<TRIPOS>MOLECULE
NONAME
54 56 1 0 0 
SMALL
USER_CHARGES


@<TRIPOS>ATOM
  1 S        1.1620    -0.5770    -0.1540 S.o2  1 <1>   1.2040 
  2 O        1.0640    -0.3080    -1.5690 O.2   1 <1>  -0.6500 
  3 O        1.8360     0.3610     0.7160 O.2   1 <1>  -0.6500 
  4 C       -0.4820    -0.9460     0.5120 C.ar  1 <1>  -0.0090 
  5 C        1.9940    -2.1430     0.0240 C.3   1 <1>  -0.1350 
  6 C       -1.4000    -1.6890    -0.2170 C.ar  1 <1>  -0.1500 
  7 C       -0.8570    -0.5140     1.7780 C.ar  1 <1>  -0.1500 
  8 C       -2.6640    -2.0210     0.2710 C.ar  1 <1>   0.0860 
  9 C       -2.1060    -0.8110     2.2900 C.ar  1 <1>  -0.1500 
 10 C       -3.5890    -2.8140    -0.5270 C.2   1 <1>   0.5440 
 11 C       -2.9980    -1.5540     1.5420 C.ar  1 <1>  -0.1500 
 12 O       -3.5220    -2.7630    -1.7400 O.2   1 <1>  -0.5700 
 13 N       -4.5280    -3.6460     0.0540 N.am  1 <1>  -0.6600 
 14 C       -5.7400    -4.0740    -0.7130 C.3   1 <1>   0.2200 
 15 C       -4.1010    -4.5520     1.1630 C.3   1 <1>   0.0600 
 16 C       -6.4680    -2.8950    -1.3600 C.3   1 <1>  -0.1600 
 17 C       -6.8290    -4.6810     0.1750 C.3   1 <1>  -0.1600 
 18 C       -7.8980    -3.3870    -1.6130 C.3   1 <1>  -0.0800 
 19 C       -8.1380    -4.5260    -0.6130 C.3   1 <1>  -0.0800 
 20 C       -8.9650    -2.3220    -1.3340 C.3   1 <1>  -0.1600 
 21 C       -9.3310    -4.1020     0.2530 C.3   1 <1>  -0.1600 
 22 C       -9.3790    -2.5830     0.1130 C.3   1 <1>   0.4230 
 23 N      -10.7000    -1.9980     0.5010 N.4   1 <1>  -0.9590 
 24 C      -11.8620    -2.4180    -0.3510 C.3   1 <1>   0.2630 
 25 C      -10.6160    -0.5060     0.5520 C.3   1 <1>   0.2630 
 26 H        1.4910    -2.9020    -0.5430 H     1 <1>   0.0800 
 27 H        2.0210    -2.4380     1.0550 H     1 <1>   0.0800 
 28 H        3.0020    -2.0620    -0.3350 H     1 <1>   0.0800 
 29 H       -1.1340    -2.0210    -1.2080 H     1 <1>   0.1500 
 30 H       -0.1670     0.0690     2.3670 H     1 <1>   0.1500 
 31 H       -2.3820    -0.4590     3.2710 H     1 <1>   0.1500 
 32 H       -3.9710    -1.7710     1.9450 H     1 <1>   0.1500 
 33 H       -5.4530    -4.7800    -1.4760 H     1 <1>   0.0800 
 34 H       -4.6970    -4.3700     2.0400 H     1 <1>   0.0800 
 35 H       -3.0660    -4.3930     1.4110 H     1 <1>   0.0800 
 36 H       -4.2160    -5.5790     0.8620 H     1 <1>   0.0800 
 37 H       -6.4620    -2.0640    -0.6770 H     1 <1>   0.0800 
 38 H       -6.0000    -2.6020    -2.2830 H     1 <1>   0.0800 
 39 H       -6.6290    -5.7170     0.3880 H     1 <1>   0.0800 
 40 H       -6.8830    -4.1250     1.0940 H     1 <1>   0.0800 
 41 H       -7.9750    -3.7550    -2.6240 H     1 <1>   0.0800 
 42 H       -8.3520    -5.4430    -1.1400 H     1 <1>   0.0800 
 43 H       -9.7820    -2.4900    -2.0100 H     1 <1>   0.0800 
 44 H       -8.5810    -1.3280    -1.4760 H     1 <1>   0.0800 
 45 H       -9.2150    -4.4090     1.2780 H     1 <1>   0.0800 
 46 H      -10.2130    -4.5570    -0.1560 H     1 <1>   0.0800 
 47 H       -8.6100    -2.1770     0.7510 H     1 <1>   0.0800 
 48 H      -10.8860    -2.3320     1.4580 H     1 <1>   0.4500 
 49 H      -11.7310    -2.0740    -1.3640 H     1 <1>   0.0800 
 50 H      -12.7770    -1.9990     0.0350 H     1 <1>   0.0800 
 51 H      -11.9590    -3.4910    -0.3610 H     1 <1>   0.0800 
 52 H      -10.4230    -0.1080    -0.4320 H     1 <1>   0.0800 
 53 H       -9.8180    -0.1980     1.2090 H     1 <1>   0.0800 
 54 H      -11.5410    -0.0900     0.9170 H     1 <1>   0.0800 
@<TRIPOS>BOND
  1   1   2  2   
  2   1   3  2   
  3   1   4  1   
  4   1   5  1   
  5   4   6  ar  
  6   4   7  ar  
  7   5  26  1   
  8   5  27  1   
  9   5  28  1   
 10   6   8  ar  
 11   6  29  1   
 12   7   9  ar  
 13   7  30  1   
 14   8  10  1   
 15   8  11  ar  
 16   9  11  ar  
 17   9  31  1   
 18  10  12  2   
 19  10  13  am  
 20  11  32  1   
 21  13  14  1   
 22  13  15  1   
 23  14  16  1   
 24  14  17  1   
 25  14  33  1   
 26  15  34  1   
 27  15  35  1   
 28  15  36  1   
 29  16  18  1   
 30  16  37  1   
 31  16  38  1   
 32  17  19  1   
 33  17  39  1   
 34  17  40  1   
 35  18  19  1   
 36  18  20  1   
 37  18  41  1   
 38  19  21  1   
 39  19  42  1   
 40  20  22  1   
 41  20  43  1   
 42  20  44  1   
 43  21  22  1   
 44  21  45  1   
 45  21  46  1   
 46  22  23  1   
 47  22  47  1   
 48  23  24  1   
 49  23  25  1   
 50  23  48  1   
 51  24  49  1   
 52  24  50  1   
 53  24  51  1   
 54  25  52  1   
 55  25  53  1   
 56  25  54  1   
@<TRIPOS>SUBSTRUCTURE
  1 ****  10 GROUP 4 **** **** 0

# MOE 2024.06 (io_trps.svl 2023.06)
