@<TRIPOS>MOLECULE
NONAME
45 47 1 0 0 
SMALL
USER_CHARGES


@<TRIPOS>ATOM
  1 O        0.1440    -0.2510     1.0800 O.2   1 <1>  -0.5700 
  2 C        1.1320    -0.8150     0.6540 C.2   1 <1>   0.5440 
  3 N        2.2090    -0.0870     0.2020 N.am  1 <1>  -0.4940 
  4 C        1.1760    -2.2630     0.6090 C.ar  1 <1>   0.0860 
  5 C        2.4620     1.3060     0.1880 C.2   1 <1>  -0.0880 
  6 C        0.0500    -3.0060     0.3180 C.ar  1 <1>  -0.1500 
  7 C        2.3710    -2.9700     0.8620 C.ar  1 <1>  -0.1500 
  8 N        1.5730     2.3150    -0.0410 N.pl3 1 <1>   0.3140 
  9 C        3.6680     1.9000     0.3700 C.2   1 <1>  -0.1810 
 10 C        0.0610    -4.4030     0.2440 C.ar  1 <1>   0.3100 
 11 C        2.4140    -4.3380     0.8000 C.ar  1 <1>  -0.1500 
 12 N        2.1810     3.5210    -0.0140 N.2   1 <1>  -0.7070 
 13 C        0.1500     2.2350    -0.3950 C.3   1 <1>   0.0160 
 14 C        3.4250     3.2650     0.2360 C.2   1 <1>   0.1080 
 15 C        5.0110     1.2550     0.6640 C.3   1 <1>  -0.0590 
 16 N       -1.0840    -5.0610    -0.0630 N.ar  1 <1>  -0.6200 
 17 C        1.2730    -5.0910     0.4870 C.ar  1 <1>   0.3100 
 18 C        4.4590     4.3700     0.3550 C.3   1 <1>   0.0210 
 19 C       -0.9700    -6.3520    -0.1100 C.ar  1 <1>   0.1670 
 20 N        1.3630    -6.4400     0.4280 N.ar  1 <1>  -0.6200 
 21 C        5.1200     4.6580    -0.9970 C.3   1 <1>  -0.2400 
 22 C        0.2510    -7.0400     0.1350 C.ar  1 <1>   0.1670 
 23 C       -2.2360    -7.1210    -0.4490 C.3   1 <1>  -0.0970 
 24 C        0.3100    -8.5570     0.0610 C.3   1 <1>  -0.0970 
 25 H        2.9930    -0.6460    -0.1270 H     1 <1>   0.3700 
 26 H       -0.8870    -2.5100     0.1350 H     1 <1>   0.1500 
 27 H        3.2600    -2.4220     1.1210 H     1 <1>   0.1500 
 28 H        3.3230    -4.8780     0.9930 H     1 <1>   0.1500 
 29 H       -0.0200     1.3610    -0.9940 H     1 <1>   0.0800 
 30 H       -0.1260     3.1120    -0.9490 H     1 <1>   0.0800 
 31 H       -0.4300     2.1800     0.5070 H     1 <1>   0.0800 
 32 H        4.9160     0.1890     0.7390 H     1 <1>   0.0800 
 33 H        5.3980     1.6290     1.5950 H     1 <1>   0.0800 
 34 H        5.7070     1.4880    -0.1220 H     1 <1>   0.0800 
 35 H        5.2040     4.0920     1.0780 H     1 <1>   0.0800 
 36 H        3.9700     5.2590     0.7110 H     1 <1>   0.0800 
 37 H        5.6200     3.7790    -1.3630 H     1 <1>   0.0800 
 38 H        5.8360     5.4540    -0.8990 H     1 <1>   0.0800 
 39 H        4.3700     4.9500    -1.7100 H     1 <1>   0.0800 
 40 H       -3.0580    -6.4430    -0.5980 H     1 <1>   0.0800 
 41 H       -2.4910    -7.7860     0.3550 H     1 <1>   0.0800 
 42 H       -2.0960    -7.6840    -1.3530 H     1 <1>   0.0800 
 43 H       -0.3560    -8.9890     0.7850 H     1 <1>   0.0800 
 44 H        1.3070    -8.9030     0.2710 H     1 <1>   0.0800 
 45 H        0.0380    -8.8910    -0.9230 H     1 <1>   0.0800 
@<TRIPOS>BOND
  1   1   2  2   
  2   2   3  am  
  3   2   4  1   
  4   3   5  1   
  5   3  25  1   
  6   4   6  ar  
  7   4   7  ar  
  8   5   8  1   
  9   5   9  2   
 10   6  10  ar  
 11   6  26  1   
 12   7  11  ar  
 13   7  27  1   
 14   8  12  1   
 15   8  13  1   
 16   9  14  1   
 17   9  15  1   
 18  10  16  ar  
 19  10  17  ar  
 20  11  17  ar  
 21  11  28  1   
 22  12  14  2   
 23  13  29  1   
 24  13  30  1   
 25  13  31  1   
 26  14  18  1   
 27  15  32  1   
 28  15  33  1   
 29  15  34  1   
 30  16  19  ar  
 31  17  20  ar  
 32  18  21  1   
 33  18  35  1   
 34  18  36  1   
 35  19  22  ar  
 36  19  23  1   
 37  20  22  ar  
 38  21  37  1   
 39  21  38  1   
 40  21  39  1   
 41  22  24  1   
 42  23  40  1   
 43  23  41  1   
 44  23  42  1   
 45  24  43  1   
 46  24  44  1   
 47  24  45  1   
@<TRIPOS>SUBSTRUCTURE
  1 ****   4 GROUP 4 **** **** 0

# MOE 2024.06 (io_trps.svl 2023.06)
