@<TRIPOS>MOLECULE
NONAME
57 60 1 0 0 
SMALL
USER_CHARGES


@<TRIPOS>ATOM
  1 O       -0.8120    -2.3200    -0.6770 O.2   1 <1>  -0.5700 
  2 C        0.3190    -2.7410    -0.6360 C.2   1 <1>   0.5690 
  3 N        0.9830    -3.2250    -1.7300 N.am  1 <1>  -0.6600 
  4 C        1.0520    -2.7490     0.6890 C.3   1 <1>  -0.0990 
  5 C        2.3760    -3.7200    -1.6030 C.3   1 <1>   0.1400 
  6 C        0.3560    -3.3120    -3.0760 C.3   1 <1>   0.0600 
  7 C        2.4850    -2.2120     0.5180 C.3   1 <1>  -0.0800 
  8 C        3.2050    -2.7510    -0.7400 C.3   1 <1>  -0.0800 
  9 C        3.3940    -2.5280     1.7120 C.3   1 <1>  -0.1600 
 10 C        4.5200    -3.3700    -0.2470 C.3   1 <1>  -0.1600 
 11 C        4.7810    -2.6940     1.0960 C.3   1 <1>   0.2200 
 12 N        5.7390    -3.4500     1.9630 N.am  1 <1>  -0.6600 
 13 C        6.9460    -2.9050     2.3640 C.2   1 <1>   0.5440 
 14 C        5.3000    -4.7590     2.5380 C.3   1 <1>   0.0600 
 15 O        7.5640    -3.4400     3.2650 O.2   1 <1>  -0.5700 
 16 C        7.4830    -1.7040     1.7660 C.ar  1 <1>   0.0860 
 17 C        7.9230    -1.6630     0.4200 C.ar  1 <1>   0.0000 
 18 C        7.5600    -0.5380     2.4800 C.ar  1 <1>  -0.1500 
 19 C        8.3150    -0.4170    -0.1190 C.ar  1 <1>   0.3100 
 20 C        7.9880    -2.8070    -0.4030 C.ar  1 <1>  -0.1500 
 21 C        7.9930     0.6420     1.8740 C.ar  1 <1>   0.1670 
 22 N        8.3390     0.7180     0.6300 N.ar  1 <1>  -0.6200 
 23 C        8.6970    -0.3560    -1.4790 C.ar  1 <1>  -0.1440 
 24 C        8.3690    -2.7280    -1.7140 C.ar  1 <1>  -0.1440 
 25 C        8.0620     1.9180     2.6850 C.3   1 <1>  -0.0970 
 26 C        8.7180    -1.4870    -2.2530 C.ar  1 <1>  -0.1500 
 27 C        9.0970     0.9810    -2.0940 C.3   1 <1>  -0.0970 
 28 C        8.4270    -3.9590    -2.6000 C.3   1 <1>  -0.0970 
 29 H        0.5160    -2.1490     1.4020 H     1 <1>   0.0800 
 30 H        1.0660    -3.7620     1.0450 H     1 <1>   0.0800 
 31 H        2.3470    -4.6940    -1.1460 H     1 <1>   0.0800 
 32 H        2.8280    -3.8160    -2.5760 H     1 <1>   0.0800 
 33 H        0.9060    -2.7050    -3.7740 H     1 <1>   0.0800 
 34 H       -0.6610    -2.9600    -3.0420 H     1 <1>   0.0800 
 35 H        0.3560    -4.3330    -3.4130 H     1 <1>   0.0800 
 36 H        2.4220    -1.1410     0.4140 H     1 <1>   0.0800 
 37 H        3.4520    -1.9030    -1.3580 H     1 <1>   0.0800 
 38 H        3.0720    -3.4410     2.1770 H     1 <1>   0.0800 
 39 H        3.3820    -1.7340     2.4390 H     1 <1>   0.0800 
 40 H        5.3180    -3.1840    -0.9430 H     1 <1>   0.0800 
 41 H        4.4010    -4.4290    -0.1150 H     1 <1>   0.0800 
 42 H        5.1570    -1.7060     0.8960 H     1 <1>   0.0800 
 43 H        4.6210    -5.2670     1.8790 H     1 <1>   0.0800 
 44 H        4.8160    -4.5900     3.4840 H     1 <1>   0.0800 
 45 H        6.1530    -5.3960     2.7010 H     1 <1>   0.0800 
 46 H        7.2750    -0.5310     3.5160 H     1 <1>   0.1500 
 47 H        7.7290    -3.7620     0.0190 H     1 <1>   0.1500 
 48 H        7.7740     1.7500     3.7060 H     1 <1>   0.0800 
 49 H        7.4080     2.6530     2.2540 H     1 <1>   0.0800 
 50 H        9.0680     2.2980     2.6660 H     1 <1>   0.0800 
 51 H        9.0100    -1.4390    -3.2870 H     1 <1>   0.1500 
 52 H        9.3550     0.8740    -3.1320 H     1 <1>   0.0800 
 53 H        9.9450     1.3830    -1.5690 H     1 <1>   0.0800 
 54 H        8.2820     1.6780    -2.0130 H     1 <1>   0.0800 
 55 H        7.7620    -3.8410    -3.4370 H     1 <1>   0.0800 
 56 H        8.1400    -4.8400    -2.0550 H     1 <1>   0.0800 
 57 H        9.4280    -4.0970    -2.9680 H     1 <1>   0.0800 
@<TRIPOS>BOND
  1   1   2  2   
  2   2   3  am  
  3   2   4  1   
  4   3   5  1   
  5   3   6  1   
  6   4   7  1   
  7   4  29  1   
  8   4  30  1   
  9   5   8  1   
 10   5  31  1   
 11   5  32  1   
 12   6  33  1   
 13   6  34  1   
 14   6  35  1   
 15   7   8  1   
 16   7   9  1   
 17   7  36  1   
 18   8  10  1   
 19   8  37  1   
 20   9  11  1   
 21   9  38  1   
 22   9  39  1   
 23  10  11  1   
 24  10  40  1   
 25  10  41  1   
 26  11  12  1   
 27  11  42  1   
 28  12  13  am  
 29  12  14  1   
 30  13  15  2   
 31  13  16  1   
 32  14  43  1   
 33  14  44  1   
 34  14  45  1   
 35  16  17  ar  
 36  16  18  ar  
 37  17  19  ar  
 38  17  20  ar  
 39  18  21  ar  
 40  18  46  1   
 41  19  22  ar  
 42  19  23  ar  
 43  20  24  ar  
 44  20  47  1   
 45  21  22  ar  
 46  21  25  1   
 47  23  26  ar  
 48  23  27  1   
 49  24  26  ar  
 50  24  28  1   
 51  25  48  1   
 52  25  49  1   
 53  25  50  1   
 54  26  51  1   
 55  27  52  1   
 56  27  53  1   
 57  27  54  1   
 58  28  55  1   
 59  28  56  1   
 60  28  57  1   
@<TRIPOS>SUBSTRUCTURE
  1 ****  11 GROUP 4 **** **** 0

# MOE 2024.06 (io_trps.svl 2023.06)
