@<TRIPOS>MOLECULE
NONAME
43 45 1 0 0 
SMALL
USER_CHARGES


@<TRIPOS>ATOM
  1 O       -2.4590     0.0040    -2.7890 O.2   1 <1>  -0.5700 
  2 C       -2.4370    -0.5650    -1.7320 C.2   1 <1>   0.5690 
  3 N       -2.2670     0.1250    -0.5920 N.am  1 <1>  -0.7300 
  4 C       -2.6450    -2.0540    -1.6840 C.3   1 <1>  -0.0190 
  5 C       -2.2290    -0.4540     0.7700 C.3   1 <1>   0.2200 
  6 C       -1.4230    -2.7840    -1.0840 C.3   1 <1>   0.1200 
  7 C       -4.0050    -2.3330    -1.0320 C.3   1 <1>   0.3430 
  8 C       -1.0670    -1.4710     0.8910 C.3   1 <1>   0.1200 
  9 C       -3.6160    -1.0430     1.1520 C.3   1 <1>   0.3430 
 10 O       -1.3690    -2.7180     0.3170 O.3   1 <1>  -0.5600 
 11 N       -3.9810    -2.3380     0.4720 N.4   1 <1>  -0.9590 
 12 C       -5.1940    -2.9700     1.0630 C.3   1 <1>   0.4860 
 13 C       -5.3640    -4.3650     0.4820 C.ar  1 <1>  -0.1430 
 14 C       -6.3960    -4.6130    -0.4240 C.ar  1 <1>  -0.1430 
 15 C       -4.4860    -5.3910     0.8340 C.ar  1 <1>  -0.1430 
 16 C       -6.5210    -5.8720    -0.9880 C.ar  1 <1>  -0.1500 
 17 C       -7.4150    -3.5510    -0.8230 C.3   1 <1>  -0.0970 
 18 C       -4.6300    -6.6390     0.2530 C.ar  1 <1>  -0.1500 
 19 C       -3.3530    -5.2270     1.8430 C.3   1 <1>  -0.0970 
 20 C       -5.6400    -6.8810    -0.6560 C.ar  1 <1>  -0.1500 
 21 H       -2.0770     1.1280    -0.6990 H     1 <1>   0.3700 
 22 H       -2.7220    -2.3710    -2.7080 H     1 <1>   0.0800 
 23 H       -2.0200     0.3580     1.4470 H     1 <1>   0.0800 
 24 H       -0.5030    -2.3890    -1.4860 H     1 <1>   0.0800 
 25 H       -1.4730    -3.8290    -1.3420 H     1 <1>   0.0800 
 26 H       -4.3270    -3.3030    -1.3770 H     1 <1>   0.0800 
 27 H       -4.7240    -1.6110    -1.3850 H     1 <1>   0.0800 
 28 H       -0.8660    -1.6550     1.9330 H     1 <1>   0.0800 
 29 H       -0.1660    -1.0850     0.4450 H     1 <1>   0.0800 
 30 H       -4.3700    -0.3010     0.9460 H     1 <1>   0.0800 
 31 H       -3.6120    -1.2110     2.2160 H     1 <1>   0.0800 
 32 H       -3.1910    -2.9810     0.6800 H     1 <1>   0.4500 
 33 H       -5.0900    -3.0450     2.1320 H     1 <1>   0.0800 
 34 H       -6.0610    -2.3680     0.8530 H     1 <1>   0.0800 
 35 H       -7.3090    -6.0850    -1.6910 H     1 <1>   0.1500 
 36 H       -8.1220    -3.9460    -1.5320 H     1 <1>   0.0800 
 37 H       -6.9340    -2.7060    -1.2780 H     1 <1>   0.0800 
 38 H       -7.9690    -3.2260     0.0400 H     1 <1>   0.0800 
 39 H       -3.9580    -7.4420     0.5060 H     1 <1>   0.1500 
 40 H       -3.1560    -6.1660     2.3300 H     1 <1>   0.0800 
 41 H       -3.5970    -4.5180     2.6120 H     1 <1>   0.0800 
 42 H       -2.4510    -4.9210     1.3440 H     1 <1>   0.0800 
 43 H       -5.7440    -7.8560    -1.1000 H     1 <1>   0.1500 
@<TRIPOS>BOND
  1   1   2  2   
  2   2   3  am  
  3   2   4  1   
  4   3   5  1   
  5   3  21  1   
  6   4   6  1   
  7   4   7  1   
  8   4  22  1   
  9   5   8  1   
 10   5   9  1   
 11   5  23  1   
 12   6  10  1   
 13   6  24  1   
 14   6  25  1   
 15   7  11  1   
 16   7  26  1   
 17   7  27  1   
 18   8  10  1   
 19   8  28  1   
 20   8  29  1   
 21   9  11  1   
 22   9  30  1   
 23   9  31  1   
 24  11  12  1   
 25  11  32  1   
 26  12  13  1   
 27  12  33  1   
 28  12  34  1   
 29  13  14  ar  
 30  13  15  ar  
 31  14  16  ar  
 32  14  17  1   
 33  15  18  ar  
 34  15  19  1   
 35  16  20  ar  
 36  16  35  1   
 37  17  36  1   
 38  17  37  1   
 39  17  38  1   
 40  18  20  ar  
 41  18  39  1   
 42  19  40  1   
 43  19  41  1   
 44  19  42  1   
 45  20  43  1   
@<TRIPOS>SUBSTRUCTURE
  1 ****  11 GROUP 4 **** **** 0

# MOE 2024.06 (io_trps.svl 2023.06)
