@<TRIPOS>MOLECULE
NONAME
54 55 1 0 0 
SMALL
USER_CHARGES


@<TRIPOS>ATOM
  1 O        0.6590    -0.5740    -2.0170 O.2   1 <1>  -0.5700 
  2 C        1.3320    -0.9900    -1.1050 C.2   1 <1>   0.5690 
  3 N        2.1300    -0.2070    -0.3290 N.am  1 <1>  -0.4930 
  4 C        1.2670    -2.4680    -0.7930 C.3   1 <1>  -0.0990 
  5 C        2.3550     1.1900    -0.4030 C.2   1 <1>   0.0630 
  6 C        0.0790    -2.7860     0.1260 C.3   1 <1>  -0.0990 
  7 C        3.1350     1.9230     0.4230 C.2   1 <1>  -0.3320 
  8 C        1.8410     2.1120    -1.3170 C.2   1 <1>   0.1390 
  9 C        0.0400    -4.2590     0.4630 C.2   1 <1>   0.5690 
 10 N        3.0620     3.2080    -0.0150 N.pl3 1 <1>   0.3140 
 11 C        3.9600     1.4760     1.6220 C.3   1 <1>  -0.0600 
 12 N        2.2600     3.3200    -1.0880 N.2   1 <1>  -0.7070 
 13 O        0.7900    -4.6680     1.3140 O.2   1 <1>  -0.5700 
 14 N       -0.8240    -5.0530    -0.2200 N.am  1 <1>  -0.7300 
 15 C        3.7340     4.3980     0.5510 C.3   1 <1>   0.0960 
 16 C       -1.0000    -6.5170    -0.0700 C.3   1 <1>   0.2200 
 17 C        5.1310     4.5860    -0.0540 C.3   1 <1>  -0.2400 
 18 C       -1.5460    -6.8330     1.3390 C.3   1 <1>  -0.1600 
 19 C        0.3230    -7.2260    -0.4040 C.3   1 <1>  -0.1600 
 20 C       -2.8730    -7.6080     1.3230 C.3   1 <1>  -0.1600 
 21 C        0.1640    -8.6420    -0.9820 C.3   1 <1>  -0.1600 
 22 C       -2.7260    -9.1320     1.1940 C.3   1 <1>  -0.1600 
 23 C       -0.5200    -9.6530    -0.0490 C.3   1 <1>  -0.1600 
 24 C       -2.0610    -9.6230    -0.1010 C.3   1 <1>  -0.1600 
 25 H        2.6380    -0.6720     0.4190 H     1 <1>   0.3700 
 26 H        2.1840    -2.7840    -0.3280 H     1 <1>   0.0800 
 27 H        1.1630    -3.0100    -1.7170 H     1 <1>   0.0800 
 28 H       -0.8400    -2.4950    -0.3500 H     1 <1>   0.0800 
 29 H        0.1670    -2.2320     1.0430 H     1 <1>   0.0800 
 30 H        1.1730     1.8570    -2.1210 H     1 <1>   0.1500 
 31 H        3.8720     0.4160     1.7740 H     1 <1>   0.0800 
 32 H        3.6180     1.9740     2.5120 H     1 <1>   0.0800 
 33 H        4.9980     1.7100     1.4670 H     1 <1>   0.0800 
 34 H       -1.4290    -4.6300    -0.9240 H     1 <1>   0.3700 
 35 H        3.7970     4.2880     1.6170 H     1 <1>   0.0800 
 36 H        3.1250     5.2570     0.3330 H     1 <1>   0.0800 
 37 H       -1.7270    -6.8150    -0.8060 H     1 <1>   0.0800 
 38 H        5.7550     3.7370     0.1600 H     1 <1>   0.0800 
 39 H        5.5920     5.4660     0.3580 H     1 <1>   0.0800 
 40 H        5.0540     4.7090    -1.1200 H     1 <1>   0.0800 
 41 H       -1.7220    -5.9100     1.8620 H     1 <1>   0.0800 
 42 H       -0.8190    -7.3740     1.9170 H     1 <1>   0.0800 
 43 H        0.9480    -7.2600     0.4720 H     1 <1>   0.0800 
 44 H        0.8460    -6.6450    -1.1420 H     1 <1>   0.0800 
 45 H       -3.5120    -7.2320     0.5430 H     1 <1>   0.0800 
 46 H       -3.3760    -7.4150     2.2550 H     1 <1>   0.0800 
 47 H        1.1540    -9.0090    -1.1930 H     1 <1>   0.0800 
 48 H       -0.3560    -8.5980    -1.9230 H     1 <1>   0.0800 
 49 H       -3.7180    -9.5500     1.2330 H     1 <1>   0.0800 
 50 H       -2.1970    -9.5190     2.0480 H     1 <1>   0.0800 
 51 H       -0.1570    -9.5340     0.9570 H     1 <1>   0.0800 
 52 H       -0.2100   -10.6340    -0.3670 H     1 <1>   0.0800 
 53 H       -2.4200    -9.0590    -0.9440 H     1 <1>   0.0800 
 54 H       -2.3910   -10.6370    -0.2560 H     1 <1>   0.0800 
@<TRIPOS>BOND
  1   1   2  2   
  2   2   3  am  
  3   2   4  1   
  4   3   5  1   
  5   3  25  1   
  6   4   6  1   
  7   4  26  1   
  8   4  27  1   
  9   5   7  2   
 10   5   8  1   
 11   6   9  1   
 12   6  28  1   
 13   6  29  1   
 14   7  10  1   
 15   7  11  1   
 16   8  12  2   
 17   8  30  1   
 18   9  13  2   
 19   9  14  am  
 20  10  12  1   
 21  10  15  1   
 22  11  31  1   
 23  11  32  1   
 24  11  33  1   
 25  14  16  1   
 26  14  34  1   
 27  15  17  1   
 28  15  35  1   
 29  15  36  1   
 30  16  18  1   
 31  16  19  1   
 32  16  37  1   
 33  17  38  1   
 34  17  39  1   
 35  17  40  1   
 36  18  20  1   
 37  18  41  1   
 38  18  42  1   
 39  19  21  1   
 40  19  43  1   
 41  19  44  1   
 42  20  22  1   
 43  20  45  1   
 44  20  46  1   
 45  21  23  1   
 46  21  47  1   
 47  21  48  1   
 48  22  24  1   
 49  22  49  1   
 50  22  50  1   
 51  23  24  1   
 52  23  51  1   
 53  23  52  1   
 54  24  53  1   
 55  24  54  1   
@<TRIPOS>SUBSTRUCTURE
  1 ****   6 GROUP 4 **** **** 0

# MOE 2024.06 (io_trps.svl 2023.06)
