@<TRIPOS>MOLECULE
NONAME
46 48 1 0 0 
SMALL
USER_CHARGES


@<TRIPOS>ATOM
  1 O       -1.9580     0.1930     2.7800 O.2   1 <1>  -0.5700 
  2 C       -2.4080     0.8260     1.8440 C.2   1 <1>   0.5440 
  3 N       -3.4800     0.3080     1.1540 N.am  1 <1>  -0.6600 
  4 C       -1.8380     2.1050     1.5100 C.ar  1 <1>   0.0860 
  5 C       -4.1370     0.9460    -0.0200 C.3   1 <1>   0.1400 
  6 C       -3.8550    -1.1250     1.2360 C.3   1 <1>   0.1400 
  7 C       -1.0640     2.2820     0.3570 C.ar  1 <1>   0.3920 
  8 C       -2.0340     3.2070     2.3310 C.ar  1 <1>  -0.1500 
  9 C       -5.0710    -0.1300    -0.5810 C.3   1 <1>   0.2000 
 10 C       -4.4380    -1.4530    -0.1430 C.3   1 <1>  -0.0800 
 11 O       -0.8510     1.2040    -0.4300 O.3   1 <1>  -0.3630 
 12 N       -0.5220     3.4350    -0.0300 N.ar  1 <1>  -0.6200 
 13 C       -1.4710     4.4010     1.9480 C.ar  1 <1>  -0.1500 
 14 O       -6.3030    -0.0120     0.0430 O.3   1 <1>  -0.6800 
 15 C       -3.3310    -1.8810    -1.1270 C.3   1 <1>   0.0200 
 16 C       -0.0120     1.2610    -1.5680 C.3   1 <1>   0.0400 
 17 C       -0.7350     4.4690     0.7750 C.ar  1 <1>   0.3930 
 18 C       -2.6600    -3.1660    -0.6830 C.2   1 <1>  -0.0400 
 19 O       -0.2140     5.6660     0.4510 O.3   1 <1>  -0.3630 
 20 O       -3.3170    -4.2940    -0.7040 O.3   1 <1>  -0.0190 
 21 C       -1.4260    -3.4130    -0.2210 C.2   1 <1>  -0.1500 
 22 C        0.5700     5.8380    -0.7140 C.3   1 <1>   0.0400 
 23 N       -2.5880    -5.2850    -0.2800 N.2   1 <1>  -0.4100 
 24 C       -1.4430    -4.7840     0.0200 C.2   1 <1>   0.1080 
 25 C       -0.2790    -5.5810     0.5630 C.3   1 <1>  -0.0590 
 26 H       -4.6760     1.8340     0.2630 H     1 <1>   0.0800 
 27 H       -3.3960     1.1950    -0.7570 H     1 <1>   0.0800 
 28 H       -3.0050    -1.7370     1.4870 H     1 <1>   0.0800 
 29 H       -4.6040    -1.2460     2.0000 H     1 <1>   0.0800 
 30 H       -2.6070     3.1150     3.2370 H     1 <1>   0.1500 
 31 H       -5.2240    -0.0480    -1.6430 H     1 <1>   0.0800 
 32 H       -5.1700    -2.2390    -0.0810 H     1 <1>   0.0800 
 33 H       -1.5890     5.2880     2.5430 H     1 <1>   0.1500 
 34 H       -6.1710     0.0180     1.0110 H     1 <1>   0.4000 
 35 H       -2.5810    -1.1120    -1.2010 H     1 <1>   0.0800 
 36 H       -3.7510    -2.0340    -2.1050 H     1 <1>   0.0800 
 37 H        0.0220     0.2840    -2.0140 H     1 <1>   0.0800 
 38 H        0.9750     1.5590    -1.2560 H     1 <1>   0.0800 
 39 H       -0.4150     1.9750    -2.2640 H     1 <1>   0.0800 
 40 H       -0.6040    -2.7410    -0.0560 H     1 <1>   0.1500 
 41 H        0.8790     6.8660    -0.7650 H     1 <1>   0.0800 
 42 H       -0.0250     5.5870    -1.5740 H     1 <1>   0.0800 
 43 H        1.4310     5.1960    -0.6510 H     1 <1>   0.0800 
 44 H        0.0710    -5.1380     1.4770 H     1 <1>   0.0800 
 45 H        0.5190    -5.5950    -0.1550 H     1 <1>   0.0800 
 46 H       -0.5880    -6.5920     0.7620 H     1 <1>   0.0800 
@<TRIPOS>BOND
  1   1   2  2   
  2   2   3  am  
  3   2   4  1   
  4   3   5  1   
  5   3   6  1   
  6   4   7  ar  
  7   4   8  ar  
  8   5   9  1   
  9   5  26  1   
 10   5  27  1   
 11   6  10  1   
 12   6  28  1   
 13   6  29  1   
 14   7  11  1   
 15   7  12  ar  
 16   8  13  ar  
 17   8  30  1   
 18   9  10  1   
 19   9  14  1   
 20   9  31  1   
 21  10  15  1   
 22  10  32  1   
 23  11  16  1   
 24  12  17  ar  
 25  13  17  ar  
 26  13  33  1   
 27  14  34  1   
 28  15  18  1   
 29  15  35  1   
 30  15  36  1   
 31  16  37  1   
 32  16  38  1   
 33  16  39  1   
 34  17  19  1   
 35  18  20  1   
 36  18  21  2   
 37  19  22  1   
 38  20  23  1   
 39  21  24  1   
 40  21  40  1   
 41  22  41  1   
 42  22  42  1   
 43  22  43  1   
 44  23  24  2   
 45  24  25  1   
 46  25  44  1   
 47  25  45  1   
 48  25  46  1   
@<TRIPOS>SUBSTRUCTURE
  1 ****   3 GROUP 4 **** **** 0

# MOE 2024.06 (io_trps.svl 2023.06)
