@<TRIPOS>MOLECULE
NONAME
52 55 1 0 0 
SMALL
USER_CHARGES


@<TRIPOS>ATOM
  1 O        1.7370    -2.4020     1.4360 O.2   1 <1>  -0.5700 
  2 C        1.2590    -2.1690     0.3460 C.2   1 <1>   0.6900 
  3 N        0.1220    -2.7220    -0.1710 N.am  1 <1>  -0.4770 
  4 N        1.8430    -1.3430    -0.5360 N.am  1 <1>  -0.7300 
  5 C       -0.7410    -3.6520     0.4260 C.ar  1 <1>   0.1170 
  6 C       -0.0510    -2.2780    -1.5740 C.3   1 <1>   0.1400 
  7 C        1.1650    -1.3730    -1.8400 C.3   1 <1>   0.1400 
  8 C       -1.5230    -3.3310     1.5370 C.ar  1 <1>  -0.1430 
  9 C       -0.8280    -4.9290    -0.1100 C.ar  1 <1>  -0.1500 
 10 C       -2.3650    -4.2890     2.0760 C.ar  1 <1>  -0.1500 
 11 C       -1.4710    -1.9480     2.1750 C.3   1 <1>  -0.0970 
 12 C       -1.6670    -5.9060     0.4170 C.ar  1 <1>   0.0860 
 13 C       -2.4380    -5.5540     1.5240 C.ar  1 <1>  -0.1500 
 14 C       -1.7230    -7.2320    -0.1750 C.2   1 <1>   0.5440 
 15 O       -1.4790    -7.4010    -1.3530 O.2   1 <1>  -0.5700 
 16 N       -2.0560    -8.3210     0.5770 N.am  1 <1>  -0.7300 
 17 C       -2.0830    -9.7220     0.0950 C.3   1 <1>   0.2200 
 18 C       -3.5100   -10.2100    -0.1090 C.3   1 <1>  -0.0800 
 19 C       -1.6350   -10.6390     1.2250 C.3   1 <1>   0.1200 
 20 C       -3.9250   -10.6600     1.2970 C.3   1 <1>   0.1200 
 21 C       -4.4770    -9.2090    -0.7680 C.3   1 <1>  -0.0170 
 22 O       -2.7520   -10.7680     2.0510 O.3   1 <1>  -0.5600 
 23 C       -5.8380    -9.8450    -1.0040 C.ar  1 <1>  -0.1430 
 24 C       -6.0780   -10.6550    -2.0960 C.ar  1 <1>  -0.1500 
 25 C       -6.9000    -9.6500    -0.1450 C.ar  1 <1>  -0.1500 
 26 C       -7.3320   -11.2190    -2.2670 C.ar  1 <1>   0.1600 
 27 C       -8.1150   -10.2610    -0.4080 C.ar  1 <1>   0.1600 
 28 N       -8.3550   -11.0440    -1.4480 N.ar  1 <1>  -0.6200 
 29 H        2.8140    -1.0600    -0.4020 H     1 <1>   0.3700 
 30 H       -0.0580    -3.1210    -2.2420 H     1 <1>   0.0800 
 31 H       -0.9700    -1.7270    -1.6740 H     1 <1>   0.0800 
 32 H        0.8590    -0.3840    -2.1350 H     1 <1>   0.0800 
 33 H        1.8070    -1.8020    -2.5900 H     1 <1>   0.0800 
 34 H       -0.2190    -5.1790    -0.9590 H     1 <1>   0.1500 
 35 H       -2.9700    -4.0510     2.9340 H     1 <1>   0.1500 
 36 H       -2.2980    -1.7980     2.8440 H     1 <1>   0.0800 
 37 H       -1.5060    -1.1850     1.4180 H     1 <1>   0.0800 
 38 H       -0.5570    -1.8400     2.7310 H     1 <1>   0.0800 
 39 H       -3.1090    -6.2720     1.9590 H     1 <1>   0.1500 
 40 H       -2.2140    -8.2280     1.5830 H     1 <1>   0.3700 
 41 H       -1.4740    -9.8350    -0.7870 H     1 <1>   0.0800 
 42 H       -3.4690   -11.0900    -0.7270 H     1 <1>   0.0800 
 43 H       -0.8080   -10.2400     1.7850 H     1 <1>   0.0800 
 44 H       -1.3870   -11.6160     0.8480 H     1 <1>   0.0800 
 45 H       -4.4210   -11.6160     1.2790 H     1 <1>   0.0800 
 46 H       -4.5550    -9.9320     1.7780 H     1 <1>   0.0800 
 47 H       -4.0660    -8.8840    -1.7080 H     1 <1>   0.0800 
 48 H       -4.5940    -8.3360    -0.1500 H     1 <1>   0.0800 
 49 H       -5.3040   -10.8510    -2.8140 H     1 <1>   0.1500 
 50 H       -6.7970    -9.0280     0.7250 H     1 <1>   0.1500 
 51 H       -7.5000   -11.8480    -3.1250 H     1 <1>   0.1500 
 52 H       -8.9320   -10.0980     0.2730 H     1 <1>   0.1500 
@<TRIPOS>BOND
  1   1   2  2   
  2   2   3  am  
  3   2   4  am  
  4   3   5  1   
  5   3   6  1   
  6   4   7  1   
  7   4  29  1   
  8   5   8  ar  
  9   5   9  ar  
 10   6   7  1   
 11   6  30  1   
 12   6  31  1   
 13   7  32  1   
 14   7  33  1   
 15   8  10  ar  
 16   8  11  1   
 17   9  12  ar  
 18   9  34  1   
 19  10  13  ar  
 20  10  35  1   
 21  11  36  1   
 22  11  37  1   
 23  11  38  1   
 24  12  13  ar  
 25  12  14  1   
 26  13  39  1   
 27  14  15  2   
 28  14  16  am  
 29  16  17  1   
 30  16  40  1   
 31  17  18  1   
 32  17  19  1   
 33  17  41  1   
 34  18  20  1   
 35  18  21  1   
 36  18  42  1   
 37  19  22  1   
 38  19  43  1   
 39  19  44  1   
 40  20  22  1   
 41  20  45  1   
 42  20  46  1   
 43  21  23  1   
 44  21  47  1   
 45  21  48  1   
 46  23  24  ar  
 47  23  25  ar  
 48  24  26  ar  
 49  24  49  1   
 50  25  27  ar  
 51  25  50  1   
 52  26  28  ar  
 53  26  51  1   
 54  27  28  ar  
 55  27  52  1   
@<TRIPOS>SUBSTRUCTURE
  1 ****  14 GROUP 4 **** **** 0

# MOE 2024.06 (io_trps.svl 2023.06)
