@<TRIPOS>MOLECULE
NONAME
54 56 1 0 0 
SMALL
USER_CHARGES


@<TRIPOS>ATOM
  1 CL      -0.3270     0.2560    -0.1410 Cl    1 <1>  -0.1770 
  2 C       -2.0140     0.6940    -0.2060 C.ar  1 <1>   0.1770 
  3 C       -2.4480     1.5910    -1.1640 C.ar  1 <1>  -0.1500 
  4 C       -2.8980     0.1430     0.7010 C.ar  1 <1>  -0.1500 
  5 C       -3.7870     1.9360    -1.2110 C.ar  1 <1>  -0.1500 
  6 C       -4.2340     0.4960     0.6460 C.ar  1 <1>  -0.1500 
  7 C       -4.7090     1.3940    -0.3130 C.ar  1 <1>   0.0530 
  8 C       -6.0950     1.7770    -0.3800 C.2   1 <1>   0.0870 
  9 O       -6.4040     3.0460    -0.4730 O.3   1 <1>  -0.0190 
 10 C       -7.2670     1.0820    -0.3950 C.2   1 <1>  -0.0860 
 11 N       -7.6910     3.2570    -0.5350 N.2   1 <1>  -0.4100 
 12 C       -8.2280     2.0970    -0.4720 C.2   1 <1>   0.3720 
 13 C       -7.5340    -0.3240    -0.3950 C.2   1 <1>   0.7160 
 14 N       -9.6100     1.9510    -0.4850 N.pl3 1 <1>  -0.8520 
 15 O       -6.7300    -1.1240     0.0450 O.2   1 <1>  -0.5700 
 16 N       -8.7200    -0.7740    -0.8900 N.am  1 <1>  -0.7300 
 17 C      -10.2370     2.0590     0.8680 C.3   1 <1>   0.2090 
 18 C       -9.3160    -2.1400    -0.8340 C.3   1 <1>   0.3610 
 19 C      -10.5570     0.6800     1.4440 C.3   1 <1>   0.1200 
 20 C       -9.5150    -2.6020     0.6500 C.2   1 <1>   0.5690 
 21 C      -10.6590    -2.0260    -1.5970 C.3   1 <1>  -0.1600 
 22 C       -8.3990    -3.1070    -1.6230 C.3   1 <1>  -0.1600 
 23 O      -11.2170     0.8450     2.6580 O.3   1 <1>  -0.5600 
 24 O      -10.6120    -2.6680     1.1520 O.2   1 <1>  -0.5700 
 25 N       -8.4450    -2.8830     1.4260 N.am  1 <1>  -0.8000 
 26 C      -11.3270    -3.3860    -1.8710 C.3   1 <1>  -0.1600 
 27 C       -9.0480    -4.4790    -1.8650 C.3   1 <1>  -0.1600 
 28 C      -11.5930    -0.3620     3.2430 C.3   1 <1>   0.0400 
 29 C      -10.3770    -4.3320    -2.6120 C.3   1 <1>  -0.1600 
 30 H       -1.7430     2.0100    -1.8590 H     1 <1>   0.1500 
 31 H       -2.5400    -0.5530     1.4390 H     1 <1>   0.1500 
 32 H       -4.1280     2.6360    -1.9540 H     1 <1>   0.1500 
 33 H       -4.9210     0.0720     1.3570 H     1 <1>   0.1500 
 34 H       -9.9710     2.7430    -1.0310 H     1 <1>   0.4000 
 35 H       -9.4020    -0.0300    -1.0800 H     1 <1>   0.3700 
 36 H      -11.1520     2.6190     0.7840 H     1 <1>   0.0800 
 37 H       -9.5790     2.5810     1.5430 H     1 <1>   0.0800 
 38 H       -9.6520     0.1280     1.6240 H     1 <1>   0.0800 
 39 H      -11.2040     0.1380     0.7770 H     1 <1>   0.0800 
 40 H      -10.4840    -1.5490    -2.5460 H     1 <1>   0.0800 
 41 H      -11.3430    -1.4120    -1.0390 H     1 <1>   0.0800 
 42 H       -7.4740    -3.2600    -1.0980 H     1 <1>   0.0800 
 43 H       -8.1640    -2.6680    -2.5770 H     1 <1>   0.0800 
 44 H       -8.5640    -3.1470     2.4030 H     1 <1>   0.3700 
 45 H       -7.4970    -2.6260     1.1200 H     1 <1>   0.3700 
 46 H      -12.2160    -3.2370    -2.4590 H     1 <1>   0.0800 
 47 H      -11.6270    -3.8400    -0.9420 H     1 <1>   0.0800 
 48 H       -9.2190    -4.9730    -0.9220 H     1 <1>   0.0800 
 49 H       -8.3800    -5.0960    -2.4400 H     1 <1>   0.0800 
 50 H      -12.0930    -0.1460     4.1710 H     1 <1>   0.0800 
 51 H      -10.7160    -0.9570     3.4310 H     1 <1>   0.0800 
 52 H      -12.2630    -0.8860     2.5830 H     1 <1>   0.0800 
 53 H      -10.1900    -3.9480    -3.6010 H     1 <1>   0.0800 
 54 H      -10.8410    -5.2980    -2.7180 H     1 <1>   0.0800 
@<TRIPOS>BOND
  1   1   2  1   
  2   2   3  ar  
  3   2   4  ar  
  4   3   5  ar  
  5   3  30  1   
  6   4   6  ar  
  7   4  31  1   
  8   5   7  ar  
  9   5  32  1   
 10   6   7  ar  
 11   6  33  1   
 12   7   8  1   
 13   8   9  1   
 14   8  10  2   
 15   9  11  1   
 16  10  12  1   
 17  10  13  1   
 18  11  12  2   
 19  12  14  1   
 20  13  15  2   
 21  13  16  am  
 22  14  17  1   
 23  14  34  1   
 24  16  18  1   
 25  16  35  1   
 26  17  19  1   
 27  17  36  1   
 28  17  37  1   
 29  18  20  1   
 30  18  21  1   
 31  18  22  1   
 32  19  23  1   
 33  19  38  1   
 34  19  39  1   
 35  20  24  2   
 36  20  25  am  
 37  21  26  1   
 38  21  40  1   
 39  21  41  1   
 40  22  27  1   
 41  22  42  1   
 42  22  43  1   
 43  23  28  1   
 44  25  44  1   
 45  25  45  1   
 46  26  29  1   
 47  26  46  1   
 48  26  47  1   
 49  27  29  1   
 50  27  48  1   
 51  27  49  1   
 52  28  50  1   
 53  28  51  1   
 54  28  52  1   
 55  29  53  1   
 56  29  54  1   
@<TRIPOS>SUBSTRUCTURE
  1 ****  13 GROUP 4 **** **** 0

# MOE 2024.06 (io_trps.svl 2023.06)
