@<TRIPOS>MOLECULE
NONAME
54 56 1 0 0 
SMALL
USER_CHARGES


@<TRIPOS>ATOM
  1 O       -1.2120    -2.1330    -1.3960 O.co2 1 <1>  -0.9000 
  2 C       -1.0980    -3.2100    -0.8040 C.2   1 <1>   1.0330 
  3 O       -1.5240    -4.2520    -1.3370 O.co2 1 <1>  -0.9000 
  4 C       -0.5180    -3.3090     0.4860 C.2   1 <1>  -0.2330 
  5 C       -1.1830    -3.2510     1.7120 C.2   1 <1>   0.3720 
  6 C        0.7690    -3.5760     0.8190 C.2   1 <1>   0.0870 
  7 N       -0.3610    -3.4650     2.6790 N.2   1 <1>  -0.4100 
  8 N       -2.5510    -3.0530     1.9790 N.pl3 1 <1>  -0.8210 
  9 O        0.8090    -3.6460     2.1260 O.3   1 <1>  -0.0190 
 10 C        1.9540    -3.8360     0.0340 C.ar  1 <1>   0.0530 
 11 C       -3.5900    -3.6170     1.0580 C.3   1 <1>   0.2090 
 12 C       -2.8190    -1.6230     2.2870 C.3   1 <1>   0.1290 
 13 C        3.0260    -4.5480     0.5770 C.ar  1 <1>  -0.1500 
 14 C        2.0750    -3.4160    -1.2910 C.ar  1 <1>  -0.1500 
 15 C       -3.8410    -5.1260     1.2700 C.3   1 <1>  -0.0800 
 16 C        4.1530    -4.8420    -0.1690 C.ar  1 <1>  -0.1500 
 17 C        3.1970    -3.7090    -2.0430 C.ar  1 <1>  -0.1500 
 18 C       -2.5710    -5.9450     1.5650 C.3   1 <1>   0.3430 
 19 C       -4.6340    -5.7100     0.0720 C.3   1 <1>  -0.1600 
 20 C        4.2390    -4.4260    -1.4840 C.ar  1 <1>  -0.1500 
 21 N       -1.9360    -6.3820     0.2960 N.4   1 <1>  -0.9590 
 22 C       -4.2600    -7.1780    -0.2000 C.3   1 <1>  -0.1600 
 23 C       -2.7550    -7.3540    -0.4790 C.3   1 <1>   0.3430 
 24 C       -0.5100    -6.7830     0.4860 C.3   1 <1>   0.3430 
 25 C        0.2630    -6.9420    -0.8350 C.3   1 <1>   0.1200 
 26 O       -0.1940    -8.0650    -1.5330 O.3   1 <1>  -0.5600 
 27 C        0.3090    -8.1470    -2.8280 C.3   1 <1>   0.0400 
 28 H       -3.3420    -3.4070     0.0370 H     1 <1>   0.0800 
 29 H       -4.5220    -3.1080     1.2340 H     1 <1>   0.0800 
 30 H       -2.0590    -1.2400     2.9480 H     1 <1>   0.0800 
 31 H       -3.7750    -1.5210     2.7700 H     1 <1>   0.0800 
 32 H       -2.8100    -1.0440     1.3780 H     1 <1>   0.0800 
 33 H        2.9800    -4.8750     1.6000 H     1 <1>   0.1500 
 34 H        1.2850    -2.8440    -1.7490 H     1 <1>   0.1500 
 35 H       -4.4520    -5.2080     2.1500 H     1 <1>   0.0800 
 36 H        4.9650    -5.3920     0.2740 H     1 <1>   0.1500 
 37 H        3.2570    -3.3720    -3.0640 H     1 <1>   0.1500 
 38 H       -2.8450    -6.8190     2.1310 H     1 <1>   0.0800 
 39 H       -1.8870    -5.3770     2.1680 H     1 <1>   0.0800 
 40 H       -4.4100    -5.1500    -0.8230 H     1 <1>   0.0800 
 41 H       -5.6920    -5.6210     0.2520 H     1 <1>   0.0800 
 42 H        5.1140    -4.6520    -2.0690 H     1 <1>   0.1500 
 43 H       -1.8920    -5.5300    -0.3210 H     1 <1>   0.4500 
 44 H       -4.8120    -7.5460    -1.0470 H     1 <1>   0.0800 
 45 H       -4.5330    -7.7840     0.6450 H     1 <1>   0.0800 
 46 H       -2.4580    -8.3610    -0.2400 H     1 <1>   0.0800 
 47 H       -2.5620    -7.1950    -1.5280 H     1 <1>   0.0800 
 48 H       -0.4550    -7.7050     1.0390 H     1 <1>   0.0800 
 49 H       -0.0180    -6.0200     1.0670 H     1 <1>   0.0800 
 50 H        1.3100    -7.0790    -0.6300 H     1 <1>   0.0800 
 51 H        0.1410    -6.0630    -1.4460 H     1 <1>   0.0800 
 52 H       -0.0760    -9.0410    -3.2850 H     1 <1>   0.0800 
 53 H        1.3850    -8.1910    -2.7920 H     1 <1>   0.0800 
 54 H       -0.0140    -7.2860    -3.3900 H     1 <1>   0.0800 
@<TRIPOS>BOND
  1   1   2  ar  
  2   2   3  ar  
  3   2   4  1   
  4   4   5  1   
  5   4   6  2   
  6   5   7  2   
  7   5   8  1   
  8   6   9  1   
  9   6  10  1   
 10   7   9  1   
 11   8  11  1   
 12   8  12  1   
 13  10  13  ar  
 14  10  14  ar  
 15  11  15  1   
 16  11  28  1   
 17  11  29  1   
 18  12  30  1   
 19  12  31  1   
 20  12  32  1   
 21  13  16  ar  
 22  13  33  1   
 23  14  17  ar  
 24  14  34  1   
 25  15  18  1   
 26  15  19  1   
 27  15  35  1   
 28  16  20  ar  
 29  16  36  1   
 30  17  20  ar  
 31  17  37  1   
 32  18  21  1   
 33  18  38  1   
 34  18  39  1   
 35  19  22  1   
 36  19  40  1   
 37  19  41  1   
 38  20  42  1   
 39  21  23  1   
 40  21  24  1   
 41  21  43  1   
 42  22  23  1   
 43  22  44  1   
 44  22  45  1   
 45  23  46  1   
 46  23  47  1   
 47  24  25  1   
 48  24  48  1   
 49  24  49  1   
 50  25  26  1   
 51  25  50  1   
 52  25  51  1   
 53  26  27  1   
 54  27  52  1   
 55  27  53  1   
 56  27  54  1   
@<TRIPOS>SUBSTRUCTURE
  1 ****   4 GROUP 4 **** **** 0

# MOE 2024.06 (io_trps.svl 2023.06)
