@<TRIPOS>MOLECULE
NONAME
39 40 1 0 0 
SMALL
USER_CHARGES


@<TRIPOS>ATOM
  1 S       -0.5050     0.4370     1.3760 S.o2  1 <1>   1.4470 
  2 O       -0.9780     1.5620     2.1550 O.2   1 <1>  -0.6500 
  3 O       -0.4140    -0.8590     2.0150 O.2   1 <1>  -0.6500 
  4 N       -1.5370     0.2810     0.0370 N.am  1 <1>  -0.8490 
  5 C        1.1050     0.8550     0.6240 C.ar  1 <1>  -0.0090 
  6 C       -1.1950    -0.8370    -0.8700 C.3   1 <1>   0.1960 
  7 C       -2.9760     0.3880     0.3580 C.3   1 <1>   0.1960 
  8 C        1.3520     2.0490    -0.0610 C.ar  1 <1>  -0.1440 
  9 C        2.1460    -0.0650     0.7150 C.ar  1 <1>  -0.1500 
 10 C       -1.7280    -2.2230    -0.4360 C.3   1 <1>   0.2000 
 11 C       -3.7990    -0.8630     0.0100 C.3   1 <1>  -0.1600 
 12 C        2.5980     2.2870    -0.6210 C.ar  1 <1>  -0.1500 
 13 C        0.2800     3.1210    -0.2180 C.3   1 <1>  -0.0960 
 14 C        3.3890     0.1680     0.1550 C.ar  1 <1>  -0.1440 
 15 O       -1.9500    -2.9310    -1.6020 O.3   1 <1>  -0.6800 
 16 C       -3.0310    -2.1410     0.3900 C.3   1 <1>  -0.1860 
 17 C        3.6110     1.3550    -0.5160 C.ar  1 <1>  -0.1500 
 18 C        4.4930    -0.8660     0.2810 C.3   1 <1>  -0.0970 
 19 C       -3.9150    -3.3830     0.3950 C.2   1 <1>   0.9060 
 20 O       -4.8120    -3.4470     1.2390 O.co2 1 <1>  -0.9000 
 21 O       -3.7380    -4.2860    -0.4360 O.co2 1 <1>  -0.9000 
 22 H       -1.6260    -0.6050    -1.8290 H     1 <1>   0.0800 
 23 H       -0.1310    -0.8960    -1.0070 H     1 <1>   0.0800 
 24 H       -3.1020     0.5800     1.4110 H     1 <1>   0.0800 
 25 H       -3.3860     1.2330    -0.1680 H     1 <1>   0.0800 
 26 H        1.9790    -0.9920     1.2390 H     1 <1>   0.1500 
 27 H       -0.9830    -2.7610     0.1250 H     1 <1>   0.0800 
 28 H       -4.7310    -0.8300     0.5470 H     1 <1>   0.0800 
 29 H       -4.0320    -0.8790    -1.0400 H     1 <1>   0.0800 
 30 H        2.7910     3.2060    -1.1470 H     1 <1>   0.1500 
 31 H        0.6320     3.9370    -0.8230 H     1 <1>   0.0800 
 32 H        0.0070     3.5160     0.7450 H     1 <1>   0.0800 
 33 H       -0.5960     2.7140    -0.6890 H     1 <1>   0.0800 
 34 H       -2.6340    -3.6380    -1.3610 H     1 <1>   0.4000 
 35 H       -2.7360    -2.0240     1.4160 H     1 <1>   0.0800 
 36 H        4.5710     1.5600    -0.9570 H     1 <1>   0.1500 
 37 H        5.1940    -0.7720    -0.5290 H     1 <1>   0.0800 
 38 H        4.0810    -1.8590     0.2580 H     1 <1>   0.0800 
 39 H        5.0160    -0.7280     1.2100 H     1 <1>   0.0800 
@<TRIPOS>BOND
  1   1   2  2   
  2   1   3  2   
  3   1   4  am  
  4   1   5  1   
  5   4   6  1   
  6   4   7  1   
  7   5   8  ar  
  8   5   9  ar  
  9   6  10  1   
 10   6  22  1   
 11   6  23  1   
 12   7  11  1   
 13   7  24  1   
 14   7  25  1   
 15   8  12  ar  
 16   8  13  1   
 17   9  14  ar  
 18   9  26  1   
 19  10  15  1   
 20  10  16  1   
 21  10  27  1   
 22  11  16  1   
 23  11  28  1   
 24  11  29  1   
 25  12  17  ar  
 26  12  30  1   
 27  13  31  1   
 28  13  32  1   
 29  13  33  1   
 30  14  17  ar  
 31  14  18  1   
 32  15  34  1   
 33  16  19  1   
 34  16  35  1   
 35  17  36  1   
 36  18  37  1   
 37  18  38  1   
 38  18  39  1   
 39  19  20  ar  
 40  19  21  ar  
@<TRIPOS>SUBSTRUCTURE
  1 ****   4 GROUP 4 **** **** 0

# MOE 2024.06 (io_trps.svl 2023.06)
