@<TRIPOS>MOLECULE
NONAME
54 57 1 0 0 
SMALL
USER_CHARGES


@<TRIPOS>ATOM
  1 O       -1.0560    -0.6330     0.4750 O.2   1 <1>  -0.5700 
  2 C       -1.5180     0.2480    -0.2330 C.2   1 <1>   0.7150 
  3 N       -2.6910    -0.0480    -0.9030 N.am  1 <1>  -0.6600 
  4 C       -0.8900     1.5460    -0.3400 C.2   1 <1>   0.0550 
  5 C       -3.0920    -1.4720    -1.0580 C.3   1 <1>   0.1400 
  6 C       -3.8450     0.8890    -0.8360 C.3   1 <1>   0.1400 
  7 O       -0.1200     2.0160     0.6430 O.3   1 <1>  -0.2800 
  8 C       -0.9330     2.4790    -1.3370 C.2   1 <1>  -0.1500 
  9 C       -3.9310    -1.8900     0.1720 C.3   1 <1>   0.4230 
 10 C       -4.7060     0.5030     0.3750 C.3   1 <1>  -0.1600 
 11 C        0.3170     3.2060     0.2980 C.2   1 <1>   0.2030 
 12 C       -0.1530     3.5570    -0.9220 C.2   1 <1>  -0.1500 
 13 N       -4.2260    -3.3810     0.2450 N.4   1 <1>  -0.9590 
 14 C       -5.1840    -0.9800     0.3590 C.3   1 <1>   0.0000 
 15 O        1.1150     3.8630     1.1670 O.3   1 <1>  -0.1460 
 16 C       -5.3480    -3.7370     1.1730 C.3   1 <1>   0.3430 
 17 C       -4.4110    -4.0730    -1.0730 C.3   1 <1>   0.2630 
 18 C       -5.8530    -1.3040     1.7280 C.3   1 <1>  -0.1600 
 19 C       -6.1920    -1.2110    -0.8040 C.3   1 <1>   0.1200 
 20 C        1.8640     4.9110     0.7490 C.ar  1 <1>   0.0820 
 21 C       -5.4950    -2.6960     2.2820 C.3   1 <1>  -0.1600 
 22 O       -7.2090    -0.2720    -0.7950 O.3   1 <1>  -0.6800 
 23 C        1.8190     6.0900     1.4750 C.ar  1 <1>  -0.1500 
 24 C        2.6780     4.8160    -0.3730 C.ar  1 <1>  -0.1500 
 25 C        2.5710     7.1800     1.0730 C.ar  1 <1>  -0.1500 
 26 C        3.4290     5.9070    -0.7740 C.ar  1 <1>  -0.1500 
 27 C        3.3730     7.0890    -0.0530 C.ar  1 <1>  -0.1500 
 28 H       -3.6440    -1.5790    -1.9740 H     1 <1>   0.0800 
 29 H       -2.2090    -2.0840    -1.1220 H     1 <1>   0.0800 
 30 H       -3.5070     1.9050    -0.7240 H     1 <1>   0.0800 
 31 H       -4.4180     0.8300    -1.7470 H     1 <1>   0.0800 
 32 H       -1.4570     2.4170    -2.2750 H     1 <1>   0.1500 
 33 H       -3.3000    -1.6720     1.0190 H     1 <1>   0.0800 
 34 H       -4.1160     0.6860     1.2570 H     1 <1>   0.0800 
 35 H       -5.5470     1.1740     0.4290 H     1 <1>   0.0800 
 36 H        0.0230     4.4670    -1.4670 H     1 <1>   0.1500 
 37 H       -3.3740    -3.7780     0.6710 H     1 <1>   0.4500 
 38 H       -6.2750    -3.7830     0.6250 H     1 <1>   0.0800 
 39 H       -5.1710    -4.7090     1.6060 H     1 <1>   0.0800 
 40 H       -5.2640    -3.6720    -1.5950 H     1 <1>   0.0800 
 41 H       -4.5680    -5.1290    -0.9210 H     1 <1>   0.0800 
 42 H       -3.5370    -3.9500    -1.6920 H     1 <1>   0.0800 
 43 H       -5.5640    -0.5800     2.4720 H     1 <1>   0.0800 
 44 H       -6.9230    -1.2270     1.6430 H     1 <1>   0.0800 
 45 H       -6.6500    -2.1820    -0.7430 H     1 <1>   0.0800 
 46 H       -5.7130    -1.1230    -1.7620 H     1 <1>   0.0800 
 47 H       -6.2640    -3.0120     2.9650 H     1 <1>   0.0800 
 48 H       -4.5770    -2.6470     2.8440 H     1 <1>   0.0800 
 49 H       -7.7590    -0.3270     0.0120 H     1 <1>   0.4000 
 50 H        1.1950     6.1510     2.3490 H     1 <1>   0.1500 
 51 H        2.7300     3.8940    -0.9240 H     1 <1>   0.1500 
 52 H        2.5340     8.0980     1.6340 H     1 <1>   0.1500 
 53 H        4.0580     5.8370    -1.6440 H     1 <1>   0.1500 
 54 H        3.9580     7.9370    -0.3660 H     1 <1>   0.1500 
@<TRIPOS>BOND
  1   1   2  2   
  2   2   3  am  
  3   2   4  1   
  4   3   5  1   
  5   3   6  1   
  6   4   7  1   
  7   4   8  2   
  8   5   9  1   
  9   5  28  1   
 10   5  29  1   
 11   6  10  1   
 12   6  30  1   
 13   6  31  1   
 14   7  11  1   
 15   8  12  1   
 16   8  32  1   
 17   9  13  1   
 18   9  14  1   
 19   9  33  1   
 20  10  14  1   
 21  10  34  1   
 22  10  35  1   
 23  11  12  2   
 24  11  15  1   
 25  12  36  1   
 26  13  16  1   
 27  13  17  1   
 28  13  37  1   
 29  14  18  1   
 30  14  19  1   
 31  15  20  1   
 32  16  21  1   
 33  16  38  1   
 34  16  39  1   
 35  17  40  1   
 36  17  41  1   
 37  17  42  1   
 38  18  21  1   
 39  18  43  1   
 40  18  44  1   
 41  19  22  1   
 42  19  45  1   
 43  19  46  1   
 44  20  23  ar  
 45  20  24  ar  
 46  21  47  1   
 47  21  48  1   
 48  22  49  1   
 49  23  25  ar  
 50  23  50  1   
 51  24  26  ar  
 52  24  51  1   
 53  25  27  ar  
 54  25  52  1   
 55  26  27  ar  
 56  26  53  1   
 57  27  54  1   
@<TRIPOS>SUBSTRUCTURE
  1 ****   2 GROUP 4 **** **** 0

# MOE 2024.06 (io_trps.svl 2023.06)
