@<TRIPOS>MOLECULE
NONAME
52 55 1 0 0 
SMALL
USER_CHARGES


@<TRIPOS>ATOM
  1 O        0.8010     0.2800     1.7670 O.2   1 <1>  -0.5700 
  2 C        1.3620    -0.1790     0.7980 C.2   1 <1>   0.5690 
  3 N        0.7770    -0.9470    -0.1560 N.am  1 <1>  -0.6600 
  4 C        2.8320     0.0600     0.4690 C.3   1 <1>   0.2810 
  5 C        1.7190    -1.3280    -1.2220 C.3   1 <1>   0.1400 
  6 C       -0.6490    -1.3480    -0.2100 C.3   1 <1>   0.0600 
  7 N        3.0670     1.4310    -0.0550 N.am  1 <1>  -0.7300 
  8 C        3.0950    -0.9600    -0.6480 C.3   1 <1>  -0.1600 
  9 C        4.1060     2.2310     0.2940 C.2   1 <1>   0.7160 
 10 O        5.0860     1.7080     0.7870 O.2   1 <1>  -0.5700 
 11 C        4.0230     3.6460     0.0850 C.2   1 <1>  -0.0860 
 12 C        2.8480     4.3670    -0.1760 C.2   1 <1>   0.3720 
 13 C        4.9810     4.6150     0.1060 C.2   1 <1>   0.0870 
 14 N        3.0870     5.6260    -0.2840 N.2   1 <1>  -0.4100 
 15 N        1.5620     3.8100    -0.2790 N.pl3 1 <1>  -0.8210 
 16 O        4.3730     5.7540    -0.1110 O.3   1 <1>  -0.0190 
 17 C        6.4100     4.6100     0.2970 C.ar  1 <1>   0.0530 
 18 C        0.8160     3.7870     1.0130 C.3   1 <1>   0.2090 
 19 C        0.6730     4.3810    -1.3300 C.3   1 <1>   0.2090 
 20 C        7.2270     3.6050    -0.2220 C.ar  1 <1>  -0.1500 
 21 C        7.0340     5.6390     1.0030 C.ar  1 <1>  -0.1500 
 22 C       -0.5070     4.4920     0.7510 C.3   1 <1>  -0.1600 
 23 C       -0.7300     4.3290    -0.7440 C.3   1 <1>  -0.1600 
 24 C        8.5980     3.6170    -0.0400 C.ar  1 <1>  -0.1500 
 25 C        8.4040     5.6600     1.1880 C.ar  1 <1>  -0.1500 
 26 C        9.1990     4.6510     0.6710 C.ar  1 <1>   0.0830 
 27 O       10.5310     4.7400     0.8960 O.3   1 <1>  -0.3630 
 28 C       11.4210     3.7420     0.4510 C.3   1 <1>   0.0400 
 29 H        3.4470    -0.1310     1.3310 H     1 <1>   0.0800 
 30 H        1.5070    -0.7530    -2.1080 H     1 <1>   0.0800 
 31 H        1.6510    -2.3810    -1.4400 H     1 <1>   0.0800 
 32 H       -1.1730    -0.9570     0.6470 H     1 <1>   0.0800 
 33 H       -0.7270    -2.4210    -0.2050 H     1 <1>   0.0800 
 34 H       -1.1040    -0.9590    -1.1040 H     1 <1>   0.0800 
 35 H        2.2130     1.9490    -0.3120 H     1 <1>   0.3700 
 36 H        3.5260    -1.8430    -0.2130 H     1 <1>   0.0800 
 37 H        3.7660    -0.5880    -1.4010 H     1 <1>   0.0800 
 38 H        1.3660     4.2770     1.8000 H     1 <1>   0.0800 
 39 H        0.6360     2.7640     1.2960 H     1 <1>   0.0800 
 40 H        0.7390     3.8040    -2.2360 H     1 <1>   0.0800 
 41 H        0.9380     5.4030    -1.5420 H     1 <1>   0.0800 
 42 H        6.7820     2.8000    -0.7780 H     1 <1>   0.1500 
 43 H        6.4350     6.4330     1.4130 H     1 <1>   0.1500 
 44 H       -0.3990     5.5350     0.9950 H     1 <1>   0.0800 
 45 H       -1.3050     4.0720     1.3370 H     1 <1>   0.0800 
 46 H       -1.1610     3.3650    -0.9500 H     1 <1>   0.0800 
 47 H       -1.3630     5.0960    -1.1530 H     1 <1>   0.0800 
 48 H        9.1800     2.8170    -0.4560 H     1 <1>   0.1500 
 49 H        8.8680     6.4600     1.7350 H     1 <1>   0.1500 
 50 H       12.4140     4.0190     0.7570 H     1 <1>   0.0800 
 51 H       11.3710     3.6830    -0.6220 H     1 <1>   0.0800 
 52 H       11.1480     2.8050     0.9030 H     1 <1>   0.0800 
@<TRIPOS>BOND
  1   1   2  2   
  2   2   3  am  
  3   2   4  1   
  4   3   5  1   
  5   3   6  1   
  6   4   7  1   
  7   4   8  1   
  8   4  29  1   
  9   5   8  1   
 10   5  30  1   
 11   5  31  1   
 12   6  32  1   
 13   6  33  1   
 14   6  34  1   
 15   7   9  am  
 16   7  35  1   
 17   8  36  1   
 18   8  37  1   
 19   9  10  2   
 20   9  11  1   
 21  11  12  1   
 22  11  13  2   
 23  12  14  2   
 24  12  15  1   
 25  13  16  1   
 26  13  17  1   
 27  14  16  1   
 28  15  18  1   
 29  15  19  1   
 30  17  20  ar  
 31  17  21  ar  
 32  18  22  1   
 33  18  38  1   
 34  18  39  1   
 35  19  23  1   
 36  19  40  1   
 37  19  41  1   
 38  20  24  ar  
 39  20  42  1   
 40  21  25  ar  
 41  21  43  1   
 42  22  23  1   
 43  22  44  1   
 44  22  45  1   
 45  23  46  1   
 46  23  47  1   
 47  24  26  ar  
 48  24  48  1   
 49  25  26  ar  
 50  25  49  1   
 51  26  27  1   
 52  27  28  1   
 53  28  50  1   
 54  28  51  1   
 55  28  52  1   
@<TRIPOS>SUBSTRUCTURE
  1 ****   9 GROUP 4 **** **** 0

# MOE 2024.06 (io_trps.svl 2023.06)
