@<TRIPOS>MOLECULE
NONAME
47 49 1 0 0 
SMALL
USER_CHARGES


@<TRIPOS>ATOM
  1 S       -2.6880    -3.4320     3.1090 S.3   1 <1>  -0.0800 
  2 C       -3.0240    -3.6530     1.4030 C.2   1 <1>  -0.1100 
  3 C       -2.6400    -1.6890     2.9170 C.2   1 <1>  -0.1100 
  4 C       -3.0970    -2.4650     0.7710 C.2   1 <1>  -0.1810 
  5 C       -2.8710    -1.3430     1.6370 C.2   1 <1>  -0.1500 
  6 C       -3.3980    -2.2890    -0.7020 C.3   1 <1>   0.5240 
  7 N       -4.8360    -2.5750    -0.8960 N.4   1 <1>  -0.9590 
  8 C       -5.2050    -2.8710    -2.3110 C.3   1 <1>   0.3430 
  9 C       -5.7550    -1.6270    -0.2100 C.3   1 <1>   0.3430 
 10 C       -6.5250    -3.6710    -2.4040 C.3   1 <1>   0.1400 
 11 C       -6.8100    -2.3970     0.5930 C.3   1 <1>  -0.1600 
 12 N       -6.9890    -4.2150    -1.0830 N.am  1 <1>  -0.6600 
 13 C       -7.7630    -3.2670    -0.2410 C.3   1 <1>   0.1400 
 14 C       -6.3740    -5.3070    -0.5140 C.2   1 <1>   0.5440 
 15 O       -5.1670    -5.3880    -0.6560 O.2   1 <1>  -0.5700 
 16 C       -7.1010    -6.2690     0.2950 C.ar  1 <1>   0.0860 
 17 C       -6.5020    -6.9600     1.3370 C.ar  1 <1>  -0.1500 
 18 C       -8.4400    -6.5690     0.0880 C.ar  1 <1>  -0.1500 
 19 C       -7.2320    -7.8550     2.0970 C.ar  1 <1>   0.1670 
 20 C       -9.0880    -7.4810     0.8990 C.ar  1 <1>   0.1670 
 21 N       -8.5100    -8.1200     1.8980 N.ar  1 <1>  -0.6200 
 22 C       -6.5750    -8.6050     3.2370 C.3   1 <1>  -0.0970 
 23 C      -10.5490    -7.8060     0.6730 C.3   1 <1>  -0.0970 
 24 H       -3.1370    -4.6680     1.0570 H     1 <1>   0.1500 
 25 H       -2.4350    -1.1030     3.7970 H     1 <1>   0.1500 
 26 H       -2.8830    -0.3290     1.2750 H     1 <1>   0.1500 
 27 H       -2.8070    -2.9930    -1.2650 H     1 <1>   0.0800 
 28 H       -3.1550    -1.2900    -1.0250 H     1 <1>   0.0800 
 29 H       -4.9780    -3.4970    -0.4340 H     1 <1>   0.4500 
 30 H       -4.4300    -3.4730    -2.7570 H     1 <1>   0.0800 
 31 H       -5.2830    -1.9610    -2.8840 H     1 <1>   0.0800 
 32 H       -6.2330    -0.9830    -0.9300 H     1 <1>   0.0800 
 33 H       -5.1960    -1.0070     0.4730 H     1 <1>   0.0800 
 34 H       -6.3800    -4.4910    -3.0870 H     1 <1>   0.0800 
 35 H       -7.2930    -3.0460    -2.8260 H     1 <1>   0.0800 
 36 H       -7.4060    -1.6800     1.1300 H     1 <1>   0.0800 
 37 H       -6.3210    -3.0030     1.3360 H     1 <1>   0.0800 
 38 H       -8.3840    -2.6480    -0.8660 H     1 <1>   0.0800 
 39 H       -8.4130    -3.8150     0.4220 H     1 <1>   0.0800 
 40 H       -5.4620    -6.7950     1.5520 H     1 <1>   0.1500 
 41 H       -8.9730    -6.0920    -0.7130 H     1 <1>   0.1500 
 42 H       -5.5410    -8.3330     3.3400 H     1 <1>   0.0800 
 43 H       -6.6410    -9.6620     3.0540 H     1 <1>   0.0800 
 44 H       -7.0880    -8.3820     4.1550 H     1 <1>   0.0800 
 45 H      -10.9510    -7.2540    -0.1560 H     1 <1>   0.0800 
 46 H      -11.1110    -7.5670     1.5570 H     1 <1>   0.0800 
 47 H      -10.6540    -8.8580     0.4740 H     1 <1>   0.0800 
@<TRIPOS>BOND
  1   1   2  1   
  2   1   3  1   
  3   2   4  2   
  4   2  24  1   
  5   3   5  2   
  6   3  25  1   
  7   4   5  1   
  8   4   6  1   
  9   5  26  1   
 10   6   7  1   
 11   6  27  1   
 12   6  28  1   
 13   7   8  1   
 14   7   9  1   
 15   7  29  1   
 16   8  10  1   
 17   8  30  1   
 18   8  31  1   
 19   9  11  1   
 20   9  32  1   
 21   9  33  1   
 22  10  12  1   
 23  10  34  1   
 24  10  35  1   
 25  11  13  1   
 26  11  36  1   
 27  11  37  1   
 28  12  13  1   
 29  12  14  am  
 30  13  38  1   
 31  13  39  1   
 32  14  15  2   
 33  14  16  1   
 34  16  17  ar  
 35  16  18  ar  
 36  17  19  ar  
 37  17  40  1   
 38  18  20  ar  
 39  18  41  1   
 40  19  21  ar  
 41  19  22  1   
 42  20  21  ar  
 43  20  23  1   
 44  22  42  1   
 45  22  43  1   
 46  22  44  1   
 47  23  45  1   
 48  23  46  1   
 49  23  47  1   
@<TRIPOS>SUBSTRUCTURE
  1 ****  14 GROUP 4 **** **** 0

# MOE 2024.06 (io_trps.svl 2023.06)
