@<TRIPOS>MOLECULE
NONAME
46 48 1 0 0 
SMALL
USER_CHARGES


@<TRIPOS>ATOM
  1 S       -0.5210     0.4390    -0.7790 S.o2  1 <1>   1.4470 
  2 O       -0.5880    -0.4310    -1.9330 O.2   1 <1>  -0.6500 
  3 O       -0.9920     1.8000    -0.8940 O.2   1 <1>  -0.6500 
  4 N       -1.4070    -0.2950     0.4700 N.am  1 <1>  -0.8490 
  5 C        1.1560     0.4550    -0.1250 C.ar  1 <1>  -0.0090 
  6 C       -1.2630    -1.7690     0.5400 C.3   1 <1>   0.1960 
  7 C       -2.8420     0.0560     0.4650 C.3   1 <1>   0.1960 
  8 C        1.3930     1.0200     1.1170 C.ar  1 <1>   0.1600 
  9 C        2.2360    -0.0760    -0.8110 C.ar  1 <1>  -0.1500 
 10 C       -2.1640    -2.5550    -0.4490 C.3   1 <1>   0.3440 
 11 C       -3.6430    -0.7300    -0.6030 C.3   1 <1>   0.2000 
 12 N        2.5730     1.0920     1.7180 N.ar  1 <1>  -0.6200 
 13 C        3.4740    -0.0090    -0.2080 C.ar  1 <1>  -0.1500 
 14 O       -3.4890    -2.1010    -0.3680 O.3   1 <1>  -0.5600 
 15 C       -2.1230    -4.0460    -0.1280 C.ar  1 <1>  -0.1430 
 16 C       -5.1570    -0.4180    -0.6230 C.3   1 <1>  -0.0800 
 17 C        3.5860     0.5770     1.0410 C.ar  1 <1>   0.1600 
 18 C       -2.9260    -4.5910     0.8650 C.ar  1 <1>  -0.1500 
 19 C       -1.2600    -4.8770    -0.8280 C.ar  1 <1>  -0.1500 
 20 C       -5.4350     1.0390    -1.0250 C.3   1 <1>  -0.2400 
 21 C       -5.8750    -0.7350     0.7000 C.3   1 <1>  -0.2400 
 22 C       -2.8640    -5.9430     1.1570 C.ar  1 <1>  -0.1500 
 23 C       -1.1970    -6.2290    -0.5380 C.ar  1 <1>  -0.1500 
 24 C       -1.9980    -6.7630     0.4560 C.ar  1 <1>  -0.1500 
 25 H       -0.2360    -2.0480     0.3800 H     1 <1>   0.0800 
 26 H       -1.5200    -2.0860     1.5360 H     1 <1>   0.0800 
 27 H       -3.2500    -0.1700     1.4340 H     1 <1>   0.0800 
 28 H       -2.9640     1.1140     0.3140 H     1 <1>   0.0800 
 29 H        0.5560     1.4380     1.6520 H     1 <1>   0.1500 
 30 H        2.1110    -0.5230    -1.7840 H     1 <1>   0.1500 
 31 H       -1.8360    -2.4150    -1.4620 H     1 <1>   0.0800 
 32 H       -3.2450    -0.5160    -1.5810 H     1 <1>   0.0800 
 33 H        4.3450    -0.4050    -0.6980 H     1 <1>   0.1500 
 34 H       -5.5870    -1.0440    -1.3880 H     1 <1>   0.0800 
 35 H        4.5570     0.6250     1.5060 H     1 <1>   0.1500 
 36 H       -3.6070    -3.9610     1.4120 H     1 <1>   0.1500 
 37 H       -0.6330    -4.4770    -1.6060 H     1 <1>   0.1500 
 38 H       -5.1000     1.7260    -0.2680 H     1 <1>   0.0800 
 39 H       -6.4910     1.1870    -1.1680 H     1 <1>   0.0800 
 40 H       -4.9370     1.2750    -1.9500 H     1 <1>   0.0800 
 41 H       -5.5400    -0.0900     1.4920 H     1 <1>   0.0800 
 42 H       -5.6950    -1.7570     0.9860 H     1 <1>   0.0800 
 43 H       -6.9360    -0.6050     0.5840 H     1 <1>   0.0800 
 44 H       -3.4920    -6.3560     1.9270 H     1 <1>   0.1500 
 45 H       -0.5260    -6.8660    -1.0870 H     1 <1>   0.1500 
 46 H       -1.9500    -7.8140     0.6810 H     1 <1>   0.1500 
@<TRIPOS>BOND
  1   1   2  2   
  2   1   3  2   
  3   1   4  am  
  4   1   5  1   
  5   4   6  1   
  6   4   7  1   
  7   5   8  ar  
  8   5   9  ar  
  9   6  10  1   
 10   6  25  1   
 11   6  26  1   
 12   7  11  1   
 13   7  27  1   
 14   7  28  1   
 15   8  12  ar  
 16   8  29  1   
 17   9  13  ar  
 18   9  30  1   
 19  10  14  1   
 20  10  15  1   
 21  10  31  1   
 22  11  14  1   
 23  11  16  1   
 24  11  32  1   
 25  12  17  ar  
 26  13  17  ar  
 27  13  33  1   
 28  15  18  ar  
 29  15  19  ar  
 30  16  20  1   
 31  16  21  1   
 32  16  34  1   
 33  17  35  1   
 34  18  22  ar  
 35  18  36  1   
 36  19  23  ar  
 37  19  37  1   
 38  20  38  1   
 39  20  39  1   
 40  20  40  1   
 41  21  41  1   
 42  21  42  1   
 43  21  43  1   
 44  22  24  ar  
 45  22  44  1   
 46  23  24  ar  
 47  23  45  1   
 48  24  46  1   
@<TRIPOS>SUBSTRUCTURE
  1 ****   6 GROUP 4 **** **** 0

# MOE 2024.06 (io_trps.svl 2023.06)
