@<TRIPOS>MOLECULE
NONAME
43 45 1 0 0 
SMALL
USER_CHARGES


@<TRIPOS>ATOM
  1 O       -1.6490    -4.2360     1.2980 O.2   1 <1>  -0.5700 
  2 C       -0.5430    -3.7530     1.2280 C.2   1 <1>   0.5690 
  3 N        0.0320    -3.2740     0.1040 N.am  1 <1>  -0.6600 
  4 C        0.4030    -3.6680     2.3910 C.3   1 <1>  -0.0990 
  5 C        1.4380    -2.8870     0.2980 C.3   1 <1>   0.1400 
  6 C       -0.5840    -3.2840    -1.2650 C.3   1 <1>   0.2010 
  7 C        1.7530    -3.3360     1.7330 C.3   1 <1>  -0.1600 
  8 C       -0.6660    -4.6800    -1.8870 C.2   1 <1>   0.5690 
  9 O       -0.3250    -4.8500    -3.0330 O.2   1 <1>  -0.5700 
 10 N       -1.1270    -5.6950    -1.1190 N.am  1 <1>  -0.7300 
 11 C       -1.2440    -7.1180    -1.4860 C.3   1 <1>   0.2200 
 12 C       -2.4240    -7.7540    -0.7670 C.3   1 <1>  -0.0800 
 13 C       -0.0820    -7.8920    -0.8730 C.3   1 <1>   0.1200 
 14 C       -1.8370    -8.0730     0.6100 C.3   1 <1>   0.1200 
 15 C       -3.7170    -6.9160    -0.7180 C.3   1 <1>  -0.0170 
 16 O       -0.4530    -8.1840     0.4440 O.3   1 <1>  -0.5600 
 17 C       -4.8050    -7.6390     0.0590 C.ar  1 <1>  -0.1440 
 18 C       -5.5500    -8.6580    -0.4970 C.ar  1 <1>  -0.1500 
 19 C       -5.0990    -7.3110     1.3670 C.ar  1 <1>  -0.1500 
 20 C       -6.5230    -9.2860     0.2620 C.ar  1 <1>   0.1600 
 21 C       -6.0930    -8.0020     2.0380 C.ar  1 <1>   0.1600 
 22 N       -6.8120    -8.9840     1.5180 N.ar  1 <1>  -0.6200 
 23 H        0.0820    -2.8780     3.0450 H     1 <1>   0.0800 
 24 H        0.4340    -4.6010     2.9230 H     1 <1>   0.0800 
 25 H        2.0730    -3.3860    -0.4160 H     1 <1>   0.0800 
 26 H        1.5360    -1.8190     0.1960 H     1 <1>   0.0800 
 27 H       -1.5830    -2.8920    -1.1970 H     1 <1>   0.0800 
 28 H       -0.0190    -2.6450    -1.9190 H     1 <1>   0.0800 
 29 H        2.3630    -4.2220     1.6930 H     1 <1>   0.0800 
 30 H        2.2880    -2.5750     2.2730 H     1 <1>   0.0800 
 31 H       -1.3280    -5.4810    -0.1310 H     1 <1>   0.3700 
 32 H       -1.2870    -7.2290    -2.5570 H     1 <1>   0.0800 
 33 H       -2.6440    -8.6910    -1.2480 H     1 <1>   0.0800 
 34 H        0.8350    -7.3290    -0.8750 H     1 <1>   0.0800 
 35 H        0.0610    -8.8270    -1.3850 H     1 <1>   0.0800 
 36 H       -2.2210    -8.9940     1.0120 H     1 <1>   0.0800 
 37 H       -2.0130    -7.2700     1.3050 H     1 <1>   0.0800 
 38 H       -4.0580    -6.7250    -1.7200 H     1 <1>   0.0800 
 39 H       -3.5360    -5.9630    -0.2520 H     1 <1>   0.0800 
 40 H       -5.3830    -8.9700    -1.5120 H     1 <1>   0.1500 
 41 H       -4.5640    -6.5250     1.8700 H     1 <1>   0.1500 
 42 H       -7.0950   -10.0800    -0.1880 H     1 <1>   0.1500 
 43 H       -6.3080    -7.7330     3.0580 H     1 <1>   0.1500 
@<TRIPOS>BOND
  1   1   2  2   
  2   2   3  am  
  3   2   4  1   
  4   3   5  1   
  5   3   6  1   
  6   4   7  1   
  7   4  23  1   
  8   4  24  1   
  9   5   7  1   
 10   5  25  1   
 11   5  26  1   
 12   6   8  1   
 13   6  27  1   
 14   6  28  1   
 15   7  29  1   
 16   7  30  1   
 17   8   9  2   
 18   8  10  am  
 19  10  11  1   
 20  10  31  1   
 21  11  12  1   
 22  11  13  1   
 23  11  32  1   
 24  12  14  1   
 25  12  15  1   
 26  12  33  1   
 27  13  16  1   
 28  13  34  1   
 29  13  35  1   
 30  14  16  1   
 31  14  36  1   
 32  14  37  1   
 33  15  17  1   
 34  15  38  1   
 35  15  39  1   
 36  17  18  ar  
 37  17  19  ar  
 38  18  20  ar  
 39  18  40  1   
 40  19  21  ar  
 41  19  41  1   
 42  20  22  ar  
 43  20  42  1   
 44  21  22  ar  
 45  21  43  1   
@<TRIPOS>SUBSTRUCTURE
  1 ****  10 GROUP 4 **** **** 0

# MOE 2024.06 (io_trps.svl 2023.06)
