@<TRIPOS>MOLECULE
NONAME
54 57 1 0 0 
SMALL
USER_CHARGES


@<TRIPOS>ATOM
  1 O        0.8540     0.2340    -0.0580 O.3   1 <1>  -0.6800 
  2 C        1.7350    -0.3620    -0.9560 C.3   1 <1>   0.2000 
  3 C        2.2880    -1.6300    -0.3100 C.3   1 <1>  -0.0800 
  4 C        2.9760     0.5260    -1.0830 C.3   1 <1>   0.3430 
  5 C        3.4060    -1.1230     0.6150 C.3   1 <1>   0.3430 
  6 C        2.8230    -2.6220    -1.3630 C.3   1 <1>  -0.0170 
  7 N        3.7980     0.2390     0.1360 N.4   1 <1>  -0.9590 
  8 C        3.5680    -3.7700    -0.7000 C.ar  1 <1>  -0.1440 
  9 C        3.5410     1.2600     1.1860 C.3   1 <1>   0.5240 
 10 C        2.9210    -4.6920     0.1000 C.ar  1 <1>  -0.1500 
 11 C        4.9280    -3.9500    -0.8610 C.ar  1 <1>  -0.1500 
 12 C        4.0720     2.5830     0.6810 C.2   1 <1>  -0.1810 
 13 C        3.6480    -5.7070     0.7010 C.ar  1 <1>   0.1600 
 14 C        5.5600    -5.0010    -0.2160 C.ar  1 <1>   0.1600 
 15 C        3.2960     3.6550     0.2500 C.2   1 <1>   0.1080 
 16 C        5.3510     3.0010     0.5370 C.2   1 <1>  -0.3320 
 17 N        4.9530    -5.8730     0.5690 N.ar  1 <1>  -0.6200 
 18 N        4.0210     4.6430    -0.1490 N.2   1 <1>  -0.7070 
 19 C        1.7830     3.7370     0.2190 C.3   1 <1>  -0.0590 
 20 N        5.3100     4.2660     0.0250 N.pl3 1 <1>   0.5930 
 21 C        6.6560     2.2920     0.8800 C.3   1 <1>  -0.0600 
 22 C        6.4110     5.1170    -0.2670 C.ar  1 <1>  -0.0230 
 23 C        6.6140     6.2780     0.4720 C.ar  1 <1>  -0.1500 
 24 C        7.3050     4.8080    -1.2880 C.ar  1 <1>  -0.1500 
 25 C        7.6940     7.1010     0.2100 C.ar  1 <1>  -0.1500 
 26 C        8.3860     5.6310    -1.5510 C.ar  1 <1>  -0.1500 
 27 C        8.5820     6.7770    -0.8010 C.ar  1 <1>  -0.1500 
 28 H       -0.0280    -0.1970    -0.0900 H     1 <1>   0.4000 
 29 H        1.2300    -0.5170    -1.8950 H     1 <1>   0.0800 
 30 H        1.5310    -2.1310     0.2690 H     1 <1>   0.0800 
 31 H        2.7080     1.5650    -1.1700 H     1 <1>   0.0800 
 32 H        3.5270     0.2350    -1.9610 H     1 <1>   0.0800 
 33 H        4.2500    -1.7950     0.6070 H     1 <1>   0.0800 
 34 H        3.0280    -1.0640     1.6230 H     1 <1>   0.0800 
 35 H        3.4820    -2.1260    -2.0550 H     1 <1>   0.0800 
 36 H        2.0020    -3.0240    -1.9330 H     1 <1>   0.0800 
 37 H        4.7960     0.3050    -0.0950 H     1 <1>   0.4500 
 38 H        2.4860     1.3320     1.3930 H     1 <1>   0.0800 
 39 H        4.0550     0.9970     2.0960 H     1 <1>   0.0800 
 40 H        1.8600    -4.6420     0.2640 H     1 <1>   0.1500 
 41 H        5.5100    -3.2960    -1.4830 H     1 <1>   0.1500 
 42 H        3.1300    -6.4190     1.3220 H     1 <1>   0.1500 
 43 H        6.6210    -5.1320    -0.3520 H     1 <1>   0.1500 
 44 H        1.3400     3.1030     0.9630 H     1 <1>   0.0800 
 45 H        1.4210     3.4580    -0.7520 H     1 <1>   0.0800 
 46 H        1.4790     4.7510     0.4140 H     1 <1>   0.0800 
 47 H        6.4740     1.3560     1.3750 H     1 <1>   0.0800 
 48 H        7.2450     2.9090     1.5380 H     1 <1>   0.0800 
 49 H        7.2290     2.1070    -0.0120 H     1 <1>   0.0800 
 50 H        5.9190     6.5360     1.2530 H     1 <1>   0.1500 
 51 H        7.1550     3.9250    -1.8830 H     1 <1>   0.1500 
 52 H        7.8420     7.9960     0.7890 H     1 <1>   0.1500 
 53 H        9.0740     5.3840    -2.3420 H     1 <1>   0.1500 
 54 H        9.4220     7.4180    -1.0060 H     1 <1>   0.1500 
@<TRIPOS>BOND
  1   1   2  1   
  2   1  28  1   
  3   2   3  1   
  4   2   4  1   
  5   2  29  1   
  6   3   5  1   
  7   3   6  1   
  8   3  30  1   
  9   4   7  1   
 10   4  31  1   
 11   4  32  1   
 12   5   7  1   
 13   5  33  1   
 14   5  34  1   
 15   6   8  1   
 16   6  35  1   
 17   6  36  1   
 18   7   9  1   
 19   7  37  1   
 20   8  10  ar  
 21   8  11  ar  
 22   9  12  1   
 23   9  38  1   
 24   9  39  1   
 25  10  13  ar  
 26  10  40  1   
 27  11  14  ar  
 28  11  41  1   
 29  12  15  1   
 30  12  16  2   
 31  13  17  ar  
 32  13  42  1   
 33  14  17  ar  
 34  14  43  1   
 35  15  18  2   
 36  15  19  1   
 37  16  20  1   
 38  16  21  1   
 39  18  20  1   
 40  19  44  1   
 41  19  45  1   
 42  19  46  1   
 43  20  22  1   
 44  21  47  1   
 45  21  48  1   
 46  21  49  1   
 47  22  23  ar  
 48  22  24  ar  
 49  23  25  ar  
 50  23  50  1   
 51  24  26  ar  
 52  24  51  1   
 53  25  27  ar  
 54  25  52  1   
 55  26  27  ar  
 56  26  53  1   
 57  27  54  1   
@<TRIPOS>SUBSTRUCTURE
  1 ****   7 GROUP 4 **** **** 0

# MOE 2024.06 (io_trps.svl 2023.06)
