@<TRIPOS>MOLECULE
NONAME
47 50 1 0 0 
SMALL
USER_CHARGES


@<TRIPOS>ATOM
  1 O       -0.5420     0.7650     1.1630 O.2   1 <1>  -0.5700 
  2 C       -0.5000     1.9610     1.0320 C.2   1 <1>   0.5690 
  3 N       -1.5800     2.7220     1.3120 N.am  1 <1>  -0.7300 
  4 C        0.7740     2.6310     0.5070 C.3   1 <1>   0.1810 
  5 C       -1.5970     4.2010     1.1920 C.3   1 <1>   0.3640 
  6 O        0.8150     4.0220     0.7510 O.3   1 <1>  -0.5600 
  7 C       -2.8890     4.6250     0.5000 C.ar  1 <1>  -0.1440 
  8 C       -0.3670     4.7260     0.4030 C.3   1 <1>   0.2610 
  9 C       -3.5730     5.7490     0.9450 C.ar  1 <1>   0.1600 
 10 C       -3.4010     3.9290    -0.5810 C.ar  1 <1>  -0.1500 
 11 C       -0.1820     6.2420     0.5930 C.2   1 <1>   0.5690 
 12 N       -4.6920     6.2170     0.4140 N.ar  1 <1>  -0.6200 
 13 C       -4.5670     4.4030    -1.1440 C.ar  1 <1>  -0.1500 
 14 O       -0.6680     6.7530     1.5800 O.2   1 <1>  -0.5700 
 15 N        0.4840     6.9940    -0.3470 N.am  1 <1>  -0.5090 
 16 C       -5.1630     5.5340    -0.6150 C.ar  1 <1>   0.1600 
 17 C        0.4940     8.4740    -0.2740 C.3   1 <1>   0.0490 
 18 C        1.4730     6.4260    -1.3020 C.3   1 <1>   0.3210 
 19 C       -0.8090     9.2110    -0.2910 C.3   1 <1>  -0.2000 
 20 C        0.0920     9.2600    -1.4830 C.3   1 <1>  -0.2000 
 21 C        2.8790     6.7050    -0.8120 C.2   1 <1>  -0.1810 
 22 C        3.7110     7.7330    -1.2380 C.2   1 <1>   0.1390 
 23 C        3.6030     6.0470     0.1190 C.2   1 <1>  -0.3020 
 24 N        4.8580     7.7190    -0.6330 N.2   1 <1>  -0.7070 
 25 N        4.7900     6.6770     0.2120 N.pl3 1 <1>   0.3140 
 26 C        5.8970     6.3290     1.1080 C.3   1 <1>   0.0160 
 27 H       -2.4180     2.2700     1.6830 H     1 <1>   0.3700 
 28 H        0.8500     2.4700    -0.5530 H     1 <1>   0.0800 
 29 H        1.6290     2.1900     0.9860 H     1 <1>   0.0800 
 30 H       -1.5790     4.6050     2.1910 H     1 <1>   0.0800 
 31 H       -0.5490     4.5490    -0.6400 H     1 <1>   0.0800 
 32 H       -3.1800     6.3040     1.7830 H     1 <1>   0.1500 
 33 H       -2.9220     3.0480    -0.9760 H     1 <1>   0.1500 
 34 H       -5.0140     3.9020    -1.9830 H     1 <1>   0.1500 
 35 H       -6.0740     5.8960    -1.0610 H     1 <1>   0.1500 
 36 H        1.2820     8.8520     0.3590 H     1 <1>   0.1000 
 37 H        1.3500     5.3650    -1.4050 H     1 <1>   0.0800 
 38 H        1.3310     6.8680    -2.2710 H     1 <1>   0.0800 
 39 H       -1.7200     8.6400    -0.3370 H     1 <1>   0.1000 
 40 H       -0.9040    10.0900     0.3210 H     1 <1>   0.1000 
 41 H        0.5980    10.1860    -1.6930 H     1 <1>   0.1000 
 42 H       -0.2330     8.7520    -2.3730 H     1 <1>   0.1000 
 43 H        3.4480     8.4660    -1.9830 H     1 <1>   0.1500 
 44 H        3.3390     5.1910     0.7130 H     1 <1>   0.1500 
 45 H        6.1830     5.3090     0.9360 H     1 <1>   0.0800 
 46 H        5.5790     6.4560     2.1250 H     1 <1>   0.0800 
 47 H        6.7300     6.9770     0.9060 H     1 <1>   0.0800 
@<TRIPOS>BOND
  1   1   2  2   
  2   2   3  am  
  3   2   4  1   
  4   3   5  1   
  5   3  27  1   
  6   4   6  1   
  7   4  28  1   
  8   4  29  1   
  9   5   7  1   
 10   5   8  1   
 11   5  30  1   
 12   6   8  1   
 13   7   9  ar  
 14   7  10  ar  
 15   8  11  1   
 16   8  31  1   
 17   9  12  ar  
 18   9  32  1   
 19  10  13  ar  
 20  10  33  1   
 21  11  14  2   
 22  11  15  am  
 23  12  16  ar  
 24  13  16  ar  
 25  13  34  1   
 26  15  17  1   
 27  15  18  1   
 28  16  35  1   
 29  17  19  1   
 30  17  20  1   
 31  17  36  1   
 32  18  21  1   
 33  18  37  1   
 34  18  38  1   
 35  19  20  1   
 36  19  39  1   
 37  19  40  1   
 38  20  41  1   
 39  20  42  1   
 40  21  22  1   
 41  21  23  2   
 42  22  24  2   
 43  22  43  1   
 44  23  25  1   
 45  23  44  1   
 46  24  25  1   
 47  25  26  1   
 48  26  45  1   
 49  26  46  1   
 50  26  47  1   
@<TRIPOS>SUBSTRUCTURE
  1 ****  11 GROUP 4 **** **** 0

# MOE 2024.06 (io_trps.svl 2023.06)
