@<TRIPOS>MOLECULE
NONAME
39 40 1 0 0 
SMALL
USER_CHARGES


@<TRIPOS>ATOM
  1 F       -0.7630     0.0870    -1.0830 F     1 <1>  -0.3400 
  2 C       -1.7750     0.9250    -1.2800 C.3   1 <1>   1.1640 
  3 F       -1.8210     1.1500    -2.5870 F     1 <1>  -0.3400 
  4 F       -2.8780     0.2470    -0.9800 F     1 <1>  -0.3400 
  5 C       -1.6280     2.2260    -0.4780 C.ar  1 <1>  -0.1440 
  6 C       -0.3750     2.8090    -0.3100 C.ar  1 <1>  -0.1500 
  7 C       -2.7350     2.8530     0.0870 C.ar  1 <1>  -0.1500 
  8 C       -0.2220     3.9870     0.4060 C.ar  1 <1>  -0.1440 
  9 C       -2.5900     4.0290     0.8010 C.ar  1 <1>  -0.1500 
 10 C       -1.3380     4.5930     0.9590 C.ar  1 <1>  -0.1500 
 11 C        1.1550     4.6140     0.5880 C.3   1 <1>   0.2540 
 12 N        1.1730     6.0150     0.1360 N.3   1 <1>  -0.8100 
 13 C        2.4340     6.6750     0.5170 C.3   1 <1>   0.2480 
 14 C        0.9020     6.1290    -1.3080 C.3   1 <1>   0.0300 
 15 C        2.3600     8.1800     0.3030 C.2   1 <1>  -0.0620 
 16 O        1.5200     8.8180     1.1220 O.3   1 <1>  -0.1530 
 17 C        3.0700     8.8600    -0.6300 C.2   1 <1>  -0.1360 
 18 C        1.3500    10.1440     1.0320 C.2   1 <1>  -0.0730 
 19 C        2.9470    10.2690    -0.7780 C.2   1 <1>   0.5410 
 20 C        2.0210    10.9030     0.1330 C.2   1 <1>   0.0910 
 21 O        3.6050    10.8420    -1.6350 O.2   1 <1>  -0.5700 
 22 O        1.7660    12.2510     0.1330 O.3   1 <1>  -0.3570 
 23 C        2.8090    13.1610    -0.1530 C.3   1 <1>   0.0400 
 24 H        0.4930     2.3410    -0.7430 H     1 <1>   0.1500 
 25 H       -3.7210     2.4340    -0.0260 H     1 <1>   0.1500 
 26 H       -3.4510     4.5080     1.2340 H     1 <1>   0.1500 
 27 H       -1.2250     5.5130     1.5070 H     1 <1>   0.1500 
 28 H        1.8970     4.0490     0.0490 H     1 <1>   0.0800 
 29 H        1.4010     4.5750     1.6350 H     1 <1>   0.0800 
 30 H        3.2450     6.2600    -0.0570 H     1 <1>   0.0800 
 31 H        2.6320     6.4950     1.5600 H     1 <1>   0.0800 
 32 H       -0.0500     5.6850    -1.5430 H     1 <1>   0.0800 
 33 H        1.6690     5.6360    -1.8790 H     1 <1>   0.0800 
 34 H        0.8550     7.1650    -1.5970 H     1 <1>   0.0800 
 35 H        3.7520     8.3760    -1.3020 H     1 <1>   0.1500 
 36 H        0.6400    10.5440     1.7320 H     1 <1>   0.1500 
 37 H        2.5090    14.1340     0.1930 H     1 <1>   0.0800 
 38 H        2.9670    13.1900    -1.2170 H     1 <1>   0.0800 
 39 H        3.7040    12.8490     0.3560 H     1 <1>   0.0800 
@<TRIPOS>BOND
  1   1   2  1   
  2   2   3  1   
  3   2   4  1   
  4   2   5  1   
  5   5   6  ar  
  6   5   7  ar  
  7   6   8  ar  
  8   6  24  1   
  9   7   9  ar  
 10   7  25  1   
 11   8  10  ar  
 12   8  11  1   
 13   9  10  ar  
 14   9  26  1   
 15  10  27  1   
 16  11  12  1   
 17  11  28  1   
 18  11  29  1   
 19  12  13  1   
 20  12  14  1   
 21  13  15  1   
 22  13  30  1   
 23  13  31  1   
 24  14  32  1   
 25  14  33  1   
 26  14  34  1   
 27  15  16  1   
 28  15  17  2   
 29  16  18  1   
 30  17  19  1   
 31  17  35  1   
 32  18  20  2   
 33  18  36  1   
 34  19  20  1   
 35  19  21  2   
 36  20  22  1   
 37  22  23  1   
 38  23  37  1   
 39  23  38  1   
 40  23  39  1   
@<TRIPOS>SUBSTRUCTURE
  1 ****  12 GROUP 4 **** **** 0

# MOE 2024.06 (io_trps.svl 2023.06)
