@<TRIPOS>MOLECULE
NONAME
47 49 1 0 0 
SMALL
USER_CHARGES


@<TRIPOS>ATOM
  1 S        0.1220     0.2180     0.5220 S.3   1 <1>  -0.3320 
  2 C        1.6680     1.1140     0.3080 C.ar  1 <1>   0.1020 
  3 C        0.5040    -1.5850     0.3910 C.3   1 <1>  -0.0100 
  4 C        1.6120     2.4830     0.3700 C.ar  1 <1>  -0.1500 
  5 C        2.8750     0.4530     0.0890 C.ar  1 <1>  -0.1500 
  6 C        2.7700     3.2620     0.2130 C.ar  1 <1>   0.0000 
  7 C        4.0230     1.1930    -0.0680 C.ar  1 <1>  -0.1500 
  8 C        3.9890     2.5930    -0.0080 C.ar  1 <1>   0.3610 
  9 C        2.7920     4.6900     0.2660 C.ar  1 <1>  -0.1440 
 10 N        5.1420     3.3400    -0.1670 N.ar  1 <1>  -0.1790 
 11 C        3.9700     5.3520     0.1010 C.ar  1 <1>  -0.1500 
 12 C        1.5020     5.4660     0.5070 C.3   1 <1>  -0.0970 
 13 C        5.1950     4.6720    -0.1250 C.ar  1 <1>   0.4610 
 14 N        6.3770     5.3020    -0.2970 N.pl3 1 <1>  -0.8380 
 15 C        6.5230     6.7920    -0.3000 C.3   1 <1>   0.2090 
 16 C        7.7260     4.6850    -0.4550 C.3   1 <1>   0.2090 
 17 C        7.9620     7.0740    -0.7230 C.3   1 <1>  -0.0190 
 18 C        8.7170     5.8260    -0.2620 C.3   1 <1>  -0.1600 
 19 C        8.4840     8.3900    -0.1630 C.2   1 <1>   0.5690 
 20 O        7.6930     9.2130     0.2310 O.2   1 <1>  -0.5700 
 21 N        9.8240     8.6100    -0.1380 N.am  1 <1>  -0.7300 
 22 C       10.4710     9.8270     0.3900 C.3   1 <1>   0.1400 
 23 C       11.6030     9.4090     1.3190 C.3   1 <1>  -0.2400 
 24 H       -0.4200    -2.1210     0.5180 H     1 <1>   0.0800 
 25 H        1.1990    -1.8380     1.1710 H     1 <1>   0.0800 
 26 H        0.9170    -1.7700    -0.5840 H     1 <1>   0.0800 
 27 H        0.6580     2.9490     0.5410 H     1 <1>   0.1500 
 28 H        2.9100    -0.6200     0.0420 H     1 <1>   0.1500 
 29 H        4.9540     0.6820    -0.2370 H     1 <1>   0.1500 
 30 H        6.0150     2.8560    -0.3360 H     1 <1>   0.4570 
 31 H        3.9920     6.4250     0.1440 H     1 <1>   0.1500 
 32 H        1.0710     5.1890     1.4540 H     1 <1>   0.0800 
 33 H        0.7900     5.2590    -0.2730 H     1 <1>   0.0800 
 34 H        1.6820     6.5260     0.5210 H     1 <1>   0.0800 
 35 H        6.3480     7.1620     0.6980 H     1 <1>   0.0800 
 36 H        5.8320     7.2600    -0.9810 H     1 <1>   0.0800 
 37 H        7.8230     4.2860    -1.4510 H     1 <1>   0.0800 
 38 H        7.8980     3.9110     0.2740 H     1 <1>   0.0800 
 39 H        7.9880     7.1350    -1.7960 H     1 <1>   0.0800 
 40 H        9.6230     5.6650    -0.8200 H     1 <1>   0.0800 
 41 H        8.9590     5.9080     0.7840 H     1 <1>   0.0800 
 42 H       10.4650     7.9110    -0.5130 H     1 <1>   0.3700 
 43 H        9.7540    10.4250     0.9290 H     1 <1>   0.0800 
 44 H       10.8560    10.4120    -0.4290 H     1 <1>   0.0800 
 45 H       11.2170     8.8270     2.1370 H     1 <1>   0.0800 
 46 H       12.0770    10.2860     1.7230 H     1 <1>   0.0800 
 47 H       12.3420     8.8390     0.7860 H     1 <1>   0.0800 
@<TRIPOS>BOND
  1   1   2  1   
  2   1   3  1   
  3   2   4  ar  
  4   2   5  ar  
  5   3  24  1   
  6   3  25  1   
  7   3  26  1   
  8   4   6  ar  
  9   4  27  1   
 10   5   7  ar  
 11   5  28  1   
 12   6   8  ar  
 13   6   9  ar  
 14   7   8  ar  
 15   7  29  1   
 16   8  10  ar  
 17   9  11  ar  
 18   9  12  1   
 19  10  13  ar  
 20  10  30  1   
 21  11  13  ar  
 22  11  31  1   
 23  12  32  1   
 24  12  33  1   
 25  12  34  1   
 26  13  14  1   
 27  14  15  1   
 28  14  16  1   
 29  15  17  1   
 30  15  35  1   
 31  15  36  1   
 32  16  18  1   
 33  16  37  1   
 34  16  38  1   
 35  17  18  1   
 36  17  19  1   
 37  17  39  1   
 38  18  40  1   
 39  18  41  1   
 40  19  20  2   
 41  19  21  am  
 42  21  22  1   
 43  21  42  1   
 44  22  23  1   
 45  22  43  1   
 46  22  44  1   
 47  23  45  1   
 48  23  46  1   
 49  23  47  1   
@<TRIPOS>SUBSTRUCTURE
  1 ****  13 GROUP 4 **** **** 0

# MOE 2024.06 (io_trps.svl 2023.06)
