@<TRIPOS>MOLECULE
NONAME
45 47 1 0 0 
SMALL
USER_CHARGES


@<TRIPOS>ATOM
  1 CL       0.9430     1.1890     0.3470 Cl    1 <1>  -0.1770 
  2 C        2.2410     0.0290     0.2120 C.ar  1 <1>   0.1770 
  3 C        3.3890     0.3540    -0.5050 C.ar  1 <1>   0.0860 
  4 C        2.1040    -1.1830     0.8610 C.ar  1 <1>  -0.1500 
  5 C        3.5600     1.6400    -1.1370 C.2   1 <1>   0.5440 
  6 C        4.4040    -0.5990    -0.5510 C.ar  1 <1>  -0.1500 
  7 C        3.1370    -2.1030     0.8150 C.ar  1 <1>  -0.1500 
  8 O        3.1110     1.8350    -2.2480 O.2   1 <1>  -0.5700 
  9 N        4.2770     2.6520    -0.5250 N.am  1 <1>  -0.6600 
 10 C        4.2930    -1.8080     0.1100 C.ar  1 <1>  -0.1430 
 11 C        4.7410     2.5380     0.9100 C.3   1 <1>   0.2200 
 12 C        4.6590     3.8570    -1.3270 C.3   1 <1>   0.1400 
 13 C        5.4560    -2.7840     0.0620 C.3   1 <1>  -0.0970 
 14 C        4.4690     3.8120     1.7270 C.3   1 <1>   0.1200 
 15 C        6.2280     2.1320     0.9860 C.3   1 <1>   0.3430 
 16 C        5.8630     4.6560    -0.7920 C.3   1 <1>  -0.0800 
 17 O        5.5120     4.7320     1.5960 O.3   1 <1>  -0.5600 
 18 N        6.9660     2.4130    -0.2960 N.4   1 <1>  -0.9590 
 19 C        5.4960     5.4970     0.4390 C.3   1 <1>   0.1200 
 20 C        7.1700     3.8570    -0.5910 C.3   1 <1>   0.3430 
 21 C        8.2490     1.5960    -0.3390 C.3   1 <1>   0.2370 
 22 C        8.0340     0.0840    -0.2050 C.2   1 <1>   0.9060 
 23 O        7.9350    -0.3910     0.9300 O.co2 1 <1>  -0.9000 
 24 O        7.8160    -0.5640    -1.2290 O.co2 1 <1>  -0.9000 
 25 H        1.2010    -1.4020     1.4030 H     1 <1>   0.1500 
 26 H        5.3020    -0.3910    -1.1090 H     1 <1>   0.1500 
 27 H        3.0440    -3.0460     1.3270 H     1 <1>   0.1500 
 28 H        4.1760     1.7660     1.3990 H     1 <1>   0.0800 
 29 H        4.8860     3.5390    -2.3320 H     1 <1>   0.0800 
 30 H        3.7990     4.5030    -1.3940 H     1 <1>   0.0800 
 31 H        5.1200    -3.7950     0.2020 H     1 <1>   0.0800 
 32 H        6.1670    -2.5400     0.8320 H     1 <1>   0.0800 
 33 H        5.9640    -2.7180    -0.8850 H     1 <1>   0.0800 
 34 H        4.4250     3.5530     2.7710 H     1 <1>   0.0800 
 35 H        3.5320     4.2660     1.4540 H     1 <1>   0.0800 
 36 H        6.2590     1.0750     1.1950 H     1 <1>   0.0800 
 37 H        6.7060     2.6320     1.8110 H     1 <1>   0.0800 
 38 H        6.0820     5.3820    -1.5530 H     1 <1>   0.0800 
 39 H        6.3480     2.0240    -1.0290 H     1 <1>   0.4500 
 40 H        4.5290     5.9600     0.3350 H     1 <1>   0.0800 
 41 H        6.2250     6.2780     0.5760 H     1 <1>   0.0800 
 42 H        7.7430     4.3080     0.2030 H     1 <1>   0.0800 
 43 H        7.7500     3.9340    -1.4960 H     1 <1>   0.0800 
 44 H        8.7530     1.7560    -1.2750 H     1 <1>   0.0800 
 45 H        8.9030     1.8970     0.4590 H     1 <1>   0.0800 
@<TRIPOS>BOND
  1   1   2  1   
  2   2   3  ar  
  3   2   4  ar  
  4   3   5  1   
  5   3   6  ar  
  6   4   7  ar  
  7   4  25  1   
  8   5   8  2   
  9   5   9  am  
 10   6  10  ar  
 11   6  26  1   
 12   7  10  ar  
 13   7  27  1   
 14   9  11  1   
 15   9  12  1   
 16  10  13  1   
 17  11  14  1   
 18  11  15  1   
 19  11  28  1   
 20  12  16  1   
 21  12  29  1   
 22  12  30  1   
 23  13  31  1   
 24  13  32  1   
 25  13  33  1   
 26  14  17  1   
 27  14  34  1   
 28  14  35  1   
 29  15  18  1   
 30  15  36  1   
 31  15  37  1   
 32  16  19  1   
 33  16  20  1   
 34  16  38  1   
 35  17  19  1   
 36  18  20  1   
 37  18  21  1   
 38  18  39  1   
 39  19  40  1   
 40  19  41  1   
 41  20  42  1   
 42  20  43  1   
 43  21  22  1   
 44  21  44  1   
 45  21  45  1   
 46  22  23  ar  
 47  22  24  ar  
@<TRIPOS>SUBSTRUCTURE
  1 ****  11 GROUP 4 **** **** 0

# MOE 2024.06 (io_trps.svl 2023.06)
