@<TRIPOS>MOLECULE
NONAME
44 46 1 0 0 
SMALL
USER_CHARGES


@<TRIPOS>ATOM
  1 O        1.1410    -0.9320     1.3850 O.co2 1 <1>  -0.9000 
  2 C        2.3080    -1.1840     1.0220 C.2   1 <1>   0.9790 
  3 O        2.6710    -2.3800     1.0870 O.co2 1 <1>  -0.9000 
  4 C        3.2470    -0.1550     0.5530 C.ar  1 <1>   0.1310 
  5 N        2.8830     1.1260     0.3000 N.ar  1 <1>  -0.6200 
  6 C        4.5770    -0.5520     0.3690 C.ar  1 <1>   0.1600 
  7 C        3.8750     1.8820    -0.1090 C.ar  1 <1>   0.1600 
  8 N        5.5790     0.2150    -0.0360 N.ar  1 <1>  -0.6200 
  9 C        5.2020     1.4630    -0.2740 C.ar  1 <1>   0.4100 
 10 N        6.1870     2.3510    -0.6760 N.pl3 1 <1>  -0.8380 
 11 C        6.5800     3.4160     0.2790 C.3   1 <1>   0.2090 
 12 C        7.3060     1.8460    -1.5130 C.3   1 <1>   0.2090 
 13 C        7.1770     4.6100    -0.4790 C.3   1 <1>  -0.0800 
 14 C        7.9170     3.0100    -2.2990 C.3   1 <1>  -0.1600 
 15 C        8.3490     4.1600    -1.3760 C.3   1 <1>  -0.1600 
 16 C        7.6080     5.6910     0.5210 C.3   1 <1>   0.1200 
 17 O        8.0970     6.8100    -0.1850 O.3   1 <1>  -0.3630 
 18 C        8.5830     7.9050     0.4580 C.ar  1 <1>   0.0830 
 19 C        9.0980     8.9350    -0.3260 C.ar  1 <1>  -0.1430 
 20 C        8.5830     8.0300     1.8460 C.ar  1 <1>  -0.1500 
 21 C        9.6060    10.0720     0.2830 C.ar  1 <1>  -0.1500 
 22 C        9.1080     8.8210    -1.8430 C.3   1 <1>  -0.0970 
 23 C        9.0930     9.1690     2.4420 C.ar  1 <1>  -0.1500 
 24 C        9.6040    10.1900     1.6620 C.ar  1 <1>  -0.1500 
 25 H        4.8220    -1.5800     0.5770 H     1 <1>   0.1500 
 26 H        3.6540     2.9050    -0.3390 H     1 <1>   0.1500 
 27 H        7.3060     3.0120     0.9650 H     1 <1>   0.0800 
 28 H        5.7210     3.7320     0.8450 H     1 <1>   0.0800 
 29 H        6.9380     1.0970    -2.1940 H     1 <1>   0.0800 
 30 H        8.0470     1.3920    -0.8780 H     1 <1>   0.0800 
 31 H        6.3980     5.0220    -1.0970 H     1 <1>   0.0800 
 32 H        7.1850     3.3670    -3.0030 H     1 <1>   0.0800 
 33 H        8.7640     2.6550    -2.8580 H     1 <1>   0.0800 
 34 H        9.1690     3.8310    -0.7610 H     1 <1>   0.0800 
 35 H        8.6930     4.9860    -1.9740 H     1 <1>   0.0800 
 36 H        8.3950     5.3260     1.1580 H     1 <1>   0.0800 
 37 H        6.7690     6.0130     1.1130 H     1 <1>   0.0800 
 38 H        8.1920     7.2570     2.4780 H     1 <1>   0.1500 
 39 H       10.0060    10.8730    -0.3130 H     1 <1>   0.1500 
 40 H        9.6860     7.9640    -2.1390 H     1 <1>   0.0800 
 41 H        9.5330     9.6970    -2.2970 H     1 <1>   0.0800 
 42 H        8.1020     8.6990    -2.2050 H     1 <1>   0.0800 
 43 H        9.0920     9.2630     3.5140 H     1 <1>   0.1500 
 44 H       10.0010    11.0760     2.1250 H     1 <1>   0.1500 
@<TRIPOS>BOND
  1   1   2  ar  
  2   2   3  ar  
  3   2   4  1   
  4   4   5  ar  
  5   4   6  ar  
  6   5   7  ar  
  7   6   8  ar  
  8   6  25  1   
  9   7   9  ar  
 10   7  26  1   
 11   8   9  ar  
 12   9  10  1   
 13  10  11  1   
 14  10  12  1   
 15  11  13  1   
 16  11  27  1   
 17  11  28  1   
 18  12  14  1   
 19  12  29  1   
 20  12  30  1   
 21  13  15  1   
 22  13  16  1   
 23  13  31  1   
 24  14  15  1   
 25  14  32  1   
 26  14  33  1   
 27  15  34  1   
 28  15  35  1   
 29  16  17  1   
 30  16  36  1   
 31  16  37  1   
 32  17  18  1   
 33  18  19  ar  
 34  18  20  ar  
 35  19  21  ar  
 36  19  22  1   
 37  20  23  ar  
 38  20  38  1   
 39  21  24  ar  
 40  21  39  1   
 41  22  40  1   
 42  22  41  1   
 43  22  42  1   
 44  23  24  ar  
 45  23  43  1   
 46  24  44  1   
@<TRIPOS>SUBSTRUCTURE
  1 ****  11 GROUP 4 **** **** 0

# MOE 2024.06 (io_trps.svl 2023.06)
