@<TRIPOS>MOLECULE
NONAME
38 38 1 0 0 
SMALL
USER_CHARGES


@<TRIPOS>ATOM
  1 SI       0.1910    -0.0450     0.6440 Si    1 <1>   0.5390 
  2 O       -1.2120    -0.7540     0.1650 O.3   1 <1>  -0.5770 
  3 C        0.8470     1.1040    -0.6450 C.3   1 <1>  -0.0810 
  4 C        1.3570    -1.3860     0.9530 C.3   1 <1>  -0.3200 
  5 C       -0.1100     0.8160     2.2030 C.3   1 <1>  -0.3200 
  6 C       -2.3950    -0.0730    -0.0820 C.3   1 <1>   0.2150 
  7 C        2.3160     1.4880    -0.3780 C.3   1 <1>  -0.2400 
  8 C        0.8080     0.4710    -2.0480 C.3   1 <1>  -0.2400 
  9 C        0.0730     2.4350    -0.7320 C.3   1 <1>  -0.2400 
 10 C       -3.5530    -1.0650    -0.3130 C.3   1 <1>  -0.1900 
 11 C       -3.2960    -2.3620    -1.0160 C.3   1 <1>  -0.2000 
 12 C       -3.6190    -2.3480     0.4570 C.3   1 <1>  -0.2000 
 13 C       -4.8610    -0.3300    -0.6230 C.3   1 <1>   0.2150 
 14 O       -5.2270     0.3850     0.5000 O.3   1 <1>  -0.6800 
 15 H        1.5720    -1.9430     0.0600 H     1 <1>   0.0800 
 16 H        0.9690    -2.0900     1.6650 H     1 <1>   0.0800 
 17 H        2.2950    -1.0380     1.3410 H     1 <1>   0.0800 
 18 H       -0.8300     1.6060     2.1010 H     1 <1>   0.0800 
 19 H        0.7840     1.2580     2.5990 H     1 <1>   0.0800 
 20 H       -0.4890     0.1500     2.9550 H     1 <1>   0.0800 
 21 H       -2.2580     0.5340    -0.9570 H     1 <1>   0.0800 
 22 H       -2.6090     0.5570     0.7650 H     1 <1>   0.0800 
 23 H        2.9470     0.6170    -0.3930 H     1 <1>   0.0800 
 24 H        2.4150     1.9610     0.5830 H     1 <1>   0.0800 
 25 H        2.6800     2.1700    -1.1270 H     1 <1>   0.0800 
 26 H        1.3900    -0.4330    -2.0710 H     1 <1>   0.0800 
 27 H        1.2010     1.1430    -2.7910 H     1 <1>   0.0800 
 28 H       -0.2020     0.2210    -2.3210 H     1 <1>   0.0800 
 29 H        0.1140     2.9600     0.2060 H     1 <1>   0.0800 
 30 H       -0.9580     2.2720    -0.9810 H     1 <1>   0.0800 
 31 H        0.4940     3.0760    -1.4880 H     1 <1>   0.0800 
 32 H       -2.2910    -2.6090    -1.3120 H     1 <1>   0.1000 
 33 H       -4.0300    -2.7530    -1.6990 H     1 <1>   0.1000 
 34 H       -4.5720    -2.7350     0.7730 H     1 <1>   0.1000 
 35 H       -2.8300    -2.5840     1.1510 H     1 <1>   0.1000 
 36 H       -5.6520    -1.0240    -0.8510 H     1 <1>   0.0800 
 37 H       -4.7430     0.3580    -1.4420 H     1 <1>   0.0800 
 38 H       -5.1890    -0.2080     1.2760 H     1 <1>   0.4000 
@<TRIPOS>BOND
  1   1   2  1   
  2   1   3  1   
  3   1   4  1   
  4   1   5  1   
  5   2   6  1   
  6   3   7  1   
  7   3   8  1   
  8   3   9  1   
  9   4  15  1   
 10   4  16  1   
 11   4  17  1   
 12   5  18  1   
 13   5  19  1   
 14   5  20  1   
 15   6  10  1   
 16   6  21  1   
 17   6  22  1   
 18   7  23  1   
 19   7  24  1   
 20   7  25  1   
 21   8  26  1   
 22   8  27  1   
 23   8  28  1   
 24   9  29  1   
 25   9  30  1   
 26   9  31  1   
 27  10  11  1   
 28  10  12  1   
 29  10  13  1   
 30  11  12  1   
 31  11  32  1   
 32  11  33  1   
 33  12  34  1   
 34  12  35  1   
 35  13  14  1   
 36  13  36  1   
 37  13  37  1   
 38  14  38  1   
@<TRIPOS>SUBSTRUCTURE
  1 ****   2 GROUP 4 **** **** 0

# MOE 2024.06 (io_trps.svl 2023.06)
