@<TRIPOS>MOLECULE
NONAME
51 53 1 0 0 
SMALL
USER_CHARGES


@<TRIPOS>ATOM
  1 O       -2.8540     0.1880     1.0650 O.2   1 <1>  -0.5700 
  2 C       -2.6650     0.9580     0.1530 C.2   1 <1>   0.5690 
  3 N       -3.0840     0.6340    -1.1030 N.am  1 <1>  -0.6600 
  4 C       -2.0420     2.3110     0.4210 C.3   1 <1>  -0.0990 
  5 C       -4.4100     1.1750    -1.5320 C.3   1 <1>   0.1400 
  6 C       -2.8890    -0.7820    -1.5600 C.3   1 <1>   0.1400 
  7 C       -0.5700     2.1750     0.8280 C.3   1 <1>  -0.0160 
  8 C       -5.5740     0.3340    -0.9330 C.3   1 <1>   0.4230 
  9 C       -4.1240    -1.6680    -1.2610 C.3   1 <1>   0.3430 
 10 C        0.0290     3.5450     1.0910 C.ar  1 <1>  -0.1440 
 11 N       -5.0830    -0.9700    -0.3340 N.4   1 <1>  -0.9590 
 12 C       -6.6810     0.0770    -1.9800 C.3   1 <1>   0.1200 
 13 C       -0.0250     4.1340     2.3380 C.ar  1 <1>  -0.1500 
 14 C        0.6530     4.2730     0.0990 C.ar  1 <1>  -0.1500 
 15 C       -6.2360    -1.7860     0.1680 C.3   1 <1>   0.4230 
 16 O       -7.7060    -0.7040    -1.4340 O.3   1 <1>  -0.5600 
 17 C        0.5290     5.3890     2.5260 C.ar  1 <1>   0.1600 
 18 C        1.1760     5.5220     0.3930 C.ar  1 <1>   0.1600 
 19 C       -7.3110    -1.9530    -0.9330 C.3   1 <1>   0.1200 
 20 C       -5.7440    -3.1250     0.7400 C.3   1 <1>  -0.1600 
 21 N        1.1270     6.0990     1.5820 N.ar  1 <1>  -0.6200 
 22 C       -6.8180    -3.8330     1.5810 C.3   1 <1>  -0.1600 
 23 C       -6.2650    -5.1200     2.1990 C.3   1 <1>  -0.2400 
 24 H       -2.1120     2.9240    -0.4580 H     1 <1>   0.0800 
 25 H       -2.5880     2.7910     1.2120 H     1 <1>   0.0800 
 26 H       -4.5120     2.1990    -1.2150 H     1 <1>   0.0800 
 27 H       -4.4560     1.1700    -2.6080 H     1 <1>   0.0800 
 28 H       -2.6770    -0.7970    -2.6150 H     1 <1>   0.0800 
 29 H       -2.0330    -1.2020    -1.0580 H     1 <1>   0.0800 
 30 H       -0.0180     1.6820     0.0460 H     1 <1>   0.0800 
 31 H       -0.4910     1.5700     1.7150 H     1 <1>   0.0800 
 32 H       -6.0200     0.9200    -0.1460 H     1 <1>   0.0800 
 33 H       -3.7830    -2.5900    -0.8210 H     1 <1>   0.0800 
 34 H       -4.6210    -1.9100    -2.1850 H     1 <1>   0.0800 
 35 H       -4.4910    -0.6910     0.4760 H     1 <1>   0.4500 
 36 H       -6.2930    -0.4260    -2.8480 H     1 <1>   0.0800 
 37 H       -7.1200     1.0090    -2.2930 H     1 <1>   0.0800 
 38 H       -0.4920     3.6310     3.1650 H     1 <1>   0.1500 
 39 H        0.7410     3.8850    -0.8990 H     1 <1>   0.1500 
 40 H       -6.6990    -1.2450     0.9770 H     1 <1>   0.0800 
 41 H        0.4780     5.8340     3.5060 H     1 <1>   0.1500 
 42 H        1.6600     6.0760    -0.3930 H     1 <1>   0.1500 
 43 H       -8.1900    -2.4230    -0.5270 H     1 <1>   0.0800 
 44 H       -6.9490    -2.5560    -1.7470 H     1 <1>   0.0800 
 45 H       -5.4430    -3.7840    -0.0550 H     1 <1>   0.0800 
 46 H       -4.8950    -2.9400     1.3760 H     1 <1>   0.0800 
 47 H       -7.1530    -3.1840     2.3740 H     1 <1>   0.0800 
 48 H       -7.6710    -4.0860     0.9750 H     1 <1>   0.0800 
 49 H       -5.4310    -4.9060     2.8450 H     1 <1>   0.0800 
 50 H       -5.9440    -5.8050     1.4340 H     1 <1>   0.0800 
 51 H       -7.0280    -5.6040     2.7850 H     1 <1>   0.0800 
@<TRIPOS>BOND
  1   1   2  2   
  2   2   3  am  
  3   2   4  1   
  4   3   5  1   
  5   3   6  1   
  6   4   7  1   
  7   4  24  1   
  8   4  25  1   
  9   5   8  1   
 10   5  26  1   
 11   5  27  1   
 12   6   9  1   
 13   6  28  1   
 14   6  29  1   
 15   7  10  1   
 16   7  30  1   
 17   7  31  1   
 18   8  11  1   
 19   8  12  1   
 20   8  32  1   
 21   9  11  1   
 22   9  33  1   
 23   9  34  1   
 24  10  13  ar  
 25  10  14  ar  
 26  11  15  1   
 27  11  35  1   
 28  12  16  1   
 29  12  36  1   
 30  12  37  1   
 31  13  17  ar  
 32  13  38  1   
 33  14  18  ar  
 34  14  39  1   
 35  15  19  1   
 36  15  20  1   
 37  15  40  1   
 38  16  19  1   
 39  17  21  ar  
 40  17  41  1   
 41  18  21  ar  
 42  18  42  1   
 43  19  43  1   
 44  19  44  1   
 45  20  22  1   
 46  20  45  1   
 47  20  46  1   
 48  22  23  1   
 49  22  47  1   
 50  22  48  1   
 51  23  49  1   
 52  23  50  1   
 53  23  51  1   
@<TRIPOS>SUBSTRUCTURE
  1 ****   2 GROUP 4 **** **** 0

# MOE 2024.06 (io_trps.svl 2023.06)
