@<TRIPOS>MOLECULE
NONAME
59 61 1 0 0 
SMALL
USER_CHARGES


@<TRIPOS>ATOM
  1 O       -0.6260     0.2970    -1.0450 O.2   1 <1>  -0.5700 
  2 C       -0.4850     1.4200    -0.6200 C.2   1 <1>   0.5690 
  3 N       -1.5470     2.2280    -0.3140 N.am  1 <1>  -0.6600 
  4 C        0.9410     1.9470    -0.4600 C.3   1 <1>   0.1810 
  5 C       -1.3520     3.6160     0.2190 C.3   1 <1>   0.3640 
  6 C       -2.9570     1.7430    -0.3840 C.3   1 <1>   0.0600 
  7 O        1.0440     3.0350     0.4290 O.3   1 <1>  -0.5600 
  8 C       -2.2170     4.5910    -0.5990 C.ar  1 <1>  -0.1430 
  9 C        0.1310     4.0870     0.1820 C.3   1 <1>   0.2610 
 10 C       -3.2120     5.3890    -0.0300 C.ar  1 <1>  -0.1430 
 11 C       -1.9990     4.6710    -1.9710 C.ar  1 <1>  -0.1500 
 12 C        0.4030     5.2530     1.1510 C.2   1 <1>   0.5690 
 13 C       -3.9240     6.2690    -0.8320 C.ar  1 <1>  -0.1500 
 14 C       -3.5780     5.3390     1.4490 C.3   1 <1>  -0.0960 
 15 C       -2.7180     5.5460    -2.7620 C.ar  1 <1>  -0.1500 
 16 O       -0.3660     5.4500     2.0630 O.2   1 <1>  -0.5700 
 17 N        1.5080     6.0700     1.0070 N.am  1 <1>  -0.6600 
 18 C       -3.6800     6.3530    -2.1890 C.ar  1 <1>  -0.1500 
 19 C        2.6320     5.8340     0.0490 C.3   1 <1>   0.1400 
 20 C        1.7430     7.2020     1.9600 C.3   1 <1>   0.1400 
 21 C        3.0290     7.1400    -0.6730 C.3   1 <1>   0.3430 
 22 C        2.1370     8.4870     1.2120 C.3   1 <1>   0.3430 
 23 N        3.3090     8.2670     0.2860 N.4   1 <1>  -0.9590 
 24 C        3.6760     9.5060    -0.4560 C.3   1 <1>   0.3430 
 25 C        4.3120    10.5270     0.4890 C.3   1 <1>  -0.1600 
 26 C        4.7960    11.7570    -0.2890 C.3   1 <1>  -0.1600 
 27 C        5.4350    12.7830     0.6510 C.3   1 <1>  -0.2400 
 28 H        1.3160     2.2510    -1.4190 H     1 <1>   0.0800 
 29 H        1.5640     1.1580    -0.0800 H     1 <1>   0.0800 
 30 H       -1.6700     3.5990     1.2450 H     1 <1>   0.0800 
 31 H       -3.4520     1.9180     0.5550 H     1 <1>   0.0800 
 32 H       -2.9880     0.6880    -0.5970 H     1 <1>   0.0800 
 33 H       -3.4860     2.2650    -1.1630 H     1 <1>   0.0800 
 34 H        0.3340     4.4430    -0.8090 H     1 <1>   0.0800 
 35 H       -1.2680     4.0380    -2.4420 H     1 <1>   0.1500 
 36 H       -4.6850     6.8980    -0.4030 H     1 <1>   0.1500 
 37 H       -4.5270     5.8120     1.6230 H     1 <1>   0.0800 
 38 H       -2.8410     5.8540     2.0360 H     1 <1>   0.0800 
 39 H       -3.6580     4.3240     1.7900 H     1 <1>   0.0800 
 40 H       -2.5370     5.5950    -3.8220 H     1 <1>   0.1500 
 41 H       -4.2430     7.0390    -2.7980 H     1 <1>   0.1500 
 42 H        3.4790     5.4510     0.5930 H     1 <1>   0.0800 
 43 H        2.3680     5.0970    -0.6870 H     1 <1>   0.0800 
 44 H        0.8560     7.4050     2.5370 H     1 <1>   0.0800 
 45 H        2.5200     6.9270     2.6520 H     1 <1>   0.0800 
 46 H        2.2240     7.4200    -1.3320 H     1 <1>   0.0800 
 47 H        3.9000     6.9530    -1.2800 H     1 <1>   0.0800 
 48 H        2.3750     9.2480     1.9350 H     1 <1>   0.0800 
 49 H        1.2850     8.8250     0.6460 H     1 <1>   0.0800 
 50 H        4.1150     7.9950     0.8640 H     1 <1>   0.4500 
 51 H        4.3880     9.2660    -1.2290 H     1 <1>   0.0800 
 52 H        2.8030     9.9330    -0.9240 H     1 <1>   0.0800 
 53 H        3.5980    10.8510     1.2260 H     1 <1>   0.0800 
 54 H        5.1550    10.0830     0.9900 H     1 <1>   0.0800 
 55 H        5.5220    11.4660    -1.0300 H     1 <1>   0.0800 
 56 H        3.9680    12.2220    -0.7990 H     1 <1>   0.0800 
 57 H        6.2860    12.3600     1.1560 H     1 <1>   0.0800 
 58 H        4.7270    13.1210     1.3870 H     1 <1>   0.0800 
 59 H        5.7690    13.6380     0.0890 H     1 <1>   0.0800 
@<TRIPOS>BOND
  1   1   2  2   
  2   2   3  am  
  3   2   4  1   
  4   3   5  1   
  5   3   6  1   
  6   4   7  1   
  7   4  28  1   
  8   4  29  1   
  9   5   8  1   
 10   5   9  1   
 11   5  30  1   
 12   6  31  1   
 13   6  32  1   
 14   6  33  1   
 15   7   9  1   
 16   8  10  ar  
 17   8  11  ar  
 18   9  12  1   
 19   9  34  1   
 20  10  13  ar  
 21  10  14  1   
 22  11  15  ar  
 23  11  35  1   
 24  12  16  2   
 25  12  17  am  
 26  13  18  ar  
 27  13  36  1   
 28  14  37  1   
 29  14  38  1   
 30  14  39  1   
 31  15  18  ar  
 32  15  40  1   
 33  17  19  1   
 34  17  20  1   
 35  18  41  1   
 36  19  21  1   
 37  19  42  1   
 38  19  43  1   
 39  20  22  1   
 40  20  44  1   
 41  20  45  1   
 42  21  23  1   
 43  21  46  1   
 44  21  47  1   
 45  22  23  1   
 46  22  48  1   
 47  22  49  1   
 48  23  24  1   
 49  23  50  1   
 50  24  25  1   
 51  24  51  1   
 52  24  52  1   
 53  25  26  1   
 54  25  53  1   
 55  25  54  1   
 56  26  27  1   
 57  26  55  1   
 58  26  56  1   
 59  27  57  1   
 60  27  58  1   
 61  27  59  1   
@<TRIPOS>SUBSTRUCTURE
  1 ****  12 GROUP 4 **** **** 0

# MOE 2024.06 (io_trps.svl 2023.06)
