@<TRIPOS>MOLECULE
NONAME
48 51 1 0 0 
SMALL
USER_CHARGES


@<TRIPOS>ATOM
  1 O       -0.8990    -2.1930    -1.2320 O.3   1 <1>  -0.6800 
  2 C       -0.5450    -1.7880     0.0550 C.3   1 <1>   0.1200 
  3 C        1.0510    -1.8410     0.2090 C.3   1 <1>   0.0000 
  4 C        2.6380    -1.8170     0.4110 C.3   1 <1>   0.4230 
  5 C        1.0960    -0.2700    -0.2180 C.3   1 <1>  -0.1600 
  6 C        0.9350    -3.4190     0.5650 C.3   1 <1>  -0.1600 
  7 N        3.3520    -2.8170     1.3040 N.4   1 <1>  -0.9590 
  8 C        3.3180    -1.6490    -0.9680 C.3   1 <1>   0.2090 
  9 C        2.3280     0.5970    -0.6210 C.3   1 <1>   0.2090 
 10 C        2.0210    -4.4000     0.0600 C.3   1 <1>  -0.1600 
 11 C        3.3800    -4.1600     0.6950 C.3   1 <1>   0.3430 
 12 C        4.7220    -2.3430     1.6770 C.3   1 <1>   0.2630 
 13 N        3.4200    -0.1980    -1.2400 N.pl3 1 <1>  -0.8380 
 14 C        4.6770     0.3640    -1.1560 C.ar  1 <1>   0.4100 
 15 N        5.3420     0.1680    -0.0490 N.ar  1 <1>  -0.6200 
 16 C        5.1850     1.1290    -2.2430 C.ar  1 <1>   0.1600 
 17 C        6.5570     0.7810    -0.0290 C.ar  1 <1>   0.3100 
 18 N        6.3400     1.7120    -2.2620 N.ar  1 <1>  -0.6200 
 19 C        7.0570     1.5380    -1.1210 C.ar  1 <1>   0.3100 
 20 C        7.3560     0.6630     1.1210 C.ar  1 <1>  -0.1500 
 21 C        8.3260     2.1230    -1.0170 C.ar  1 <1>  -0.1500 
 22 C        8.5940     1.2480     1.1970 C.ar  1 <1>  -0.1500 
 23 C        9.0850     1.9830     0.1170 C.ar  1 <1>  -0.1500 
 24 H       -1.8690    -2.1630    -1.3610 H     1 <1>   0.4000 
 25 H       -1.0150    -0.8290     0.2090 H     1 <1>   0.0800 
 26 H       -1.0810    -2.4030     0.7620 H     1 <1>   0.0800 
 27 H        2.8410    -0.9010     0.9390 H     1 <1>   0.0800 
 28 H        0.6380     0.3080     0.5690 H     1 <1>   0.0800 
 29 H        0.4930    -0.1250    -1.1020 H     1 <1>   0.0800 
 30 H        0.8450    -3.5200     1.6340 H     1 <1>   0.0800 
 31 H        0.0640    -3.9280     0.1770 H     1 <1>   0.0800 
 32 H        2.7870    -2.8800     2.1600 H     1 <1>   0.4500 
 33 H        2.7210    -2.1060    -1.7400 H     1 <1>   0.0800 
 34 H        4.2980    -2.0910    -0.9900 H     1 <1>   0.0800 
 35 H        2.7150     1.0940     0.2560 H     1 <1>   0.0800 
 36 H        2.0220     1.3680    -1.3100 H     1 <1>   0.0800 
 37 H        2.1040    -4.3260    -1.0110 H     1 <1>   0.0800 
 38 H        1.7250    -5.4140     0.2720 H     1 <1>   0.0800 
 39 H        4.1510    -4.2250    -0.0570 H     1 <1>   0.0800 
 40 H        3.5730    -4.9020     1.4530 H     1 <1>   0.0800 
 41 H        5.3520    -2.2830     0.8040 H     1 <1>   0.0800 
 42 H        5.1750    -3.0160     2.3850 H     1 <1>   0.0800 
 43 H        4.6690    -1.3600     2.1170 H     1 <1>   0.0800 
 44 H        4.5470     1.2140    -3.1020 H     1 <1>   0.1500 
 45 H        6.9700     0.1020     1.9500 H     1 <1>   0.1500 
 46 H        8.6860     2.6880    -1.8580 H     1 <1>   0.1500 
 47 H        9.1990     1.1510     2.0830 H     1 <1>   0.1500 
 48 H       10.0600     2.4380     0.1860 H     1 <1>   0.1500 
@<TRIPOS>BOND
  1   1   2  1   
  2   1  24  1   
  3   2   3  1   
  4   2  25  1   
  5   2  26  1   
  6   3   4  1   
  7   3   5  1   
  8   3   6  1   
  9   4   7  1   
 10   4   8  1   
 11   4  27  1   
 12   5   9  1   
 13   5  28  1   
 14   5  29  1   
 15   6  10  1   
 16   6  30  1   
 17   6  31  1   
 18   7  11  1   
 19   7  12  1   
 20   7  32  1   
 21   8  13  1   
 22   8  33  1   
 23   8  34  1   
 24   9  13  1   
 25   9  35  1   
 26   9  36  1   
 27  10  11  1   
 28  10  37  1   
 29  10  38  1   
 30  11  39  1   
 31  11  40  1   
 32  12  41  1   
 33  12  42  1   
 34  12  43  1   
 35  13  14  1   
 36  14  15  ar  
 37  14  16  ar  
 38  15  17  ar  
 39  16  18  ar  
 40  16  44  1   
 41  17  19  ar  
 42  17  20  ar  
 43  18  19  ar  
 44  19  21  ar  
 45  20  22  ar  
 46  20  45  1   
 47  21  23  ar  
 48  21  46  1   
 49  22  23  ar  
 50  22  47  1   
 51  23  48  1   
@<TRIPOS>SUBSTRUCTURE
  1 ****  13 GROUP 4 **** **** 0

# MOE 2024.06 (io_trps.svl 2023.06)
