@<TRIPOS>MOLECULE
NONAME
55 59 1 0 0 
SMALL
USER_CHARGES


@<TRIPOS>ATOM
  1 S        0.5510    -3.2260    -1.1550 S.3   1 <1>  -0.0800 
  2 C       -0.0170    -2.7860    -2.7470 C.2   1 <1>   0.2280 
  3 C       -0.9040    -2.5470    -0.4870 C.2   1 <1>  -0.1100 
  4 N       -1.1510    -2.2080    -2.7640 N.2   1 <1>  -0.5650 
  5 C       -1.6670    -2.0640    -1.4840 C.2   1 <1>   0.0460 
  6 C       -3.0230    -1.3740    -1.4280 C.3   1 <1>   0.0210 
  7 C       -3.7310    -1.2600    -0.0500 C.3   1 <1>   0.0610 
  8 C       -3.9670    -2.6740     0.5040 C.2   1 <1>   0.5690 
  9 C       -2.9490    -0.3130     0.8980 C.3   1 <1>   0.2200 
 10 C       -5.0580    -0.4530    -0.2290 C.3   1 <1>  -0.1600 
 11 O       -3.2860    -3.0980     1.4070 O.2   1 <1>  -0.5700 
 12 N       -4.9390    -3.4480    -0.0590 N.am  1 <1>  -0.7300 
 13 N       -3.3540     0.9800     0.3560 N.am  1 <1>  -0.6600 
 14 C       -3.5930    -0.1860     2.2940 C.3   1 <1>  -0.1600 
 15 C       -4.7940     0.8680     0.5110 C.3   1 <1>   0.2200 
 16 C       -5.2530    -4.8460     0.3340 C.3   1 <1>   0.0600 
 17 C       -2.5460     1.9800    -0.0840 C.2   1 <1>   0.5690 
 18 C       -4.8790     0.6140     2.0180 C.3   1 <1>  -0.1600 
 19 O       -1.3440     1.8680    -0.0820 O.2   1 <1>  -0.5700 
 20 C       -3.1700     3.2610    -0.5970 C.3   1 <1>  -0.0990 
 21 C       -2.1170     4.2530    -1.1110 C.3   1 <1>   0.0960 
 22 N       -2.7750     5.4650    -1.6300 N.pl3 1 <1>   0.0480 
 23 C       -3.2930     6.4910    -0.9040 C.ar  1 <1>  -0.1520 
 24 C       -3.0740     5.7520    -2.9230 C.2   1 <1>   0.0360 
 25 C       -3.8800     7.3370    -1.8270 C.ar  1 <1>   0.2270 
 26 C       -3.3200     6.7850     0.4630 C.ar  1 <1>  -0.1500 
 27 N       -3.7280     6.8480    -3.0890 N.2   1 <1>  -0.5650 
 28 C       -4.5150     8.5020    -1.4000 C.ar  1 <1>  -0.1500 
 29 C       -3.9510     7.9380     0.8760 C.ar  1 <1>  -0.1500 
 30 C       -4.5490     8.7970    -0.0550 C.ar  1 <1>  -0.1500 
 31 H        0.6200    -3.0310    -3.5790 H     1 <1>   0.1500 
 32 H       -1.0170    -2.5910     0.5800 H     1 <1>   0.1500 
 33 H       -2.8900    -0.3930    -1.8490 H     1 <1>   0.0800 
 34 H       -3.6710    -1.9090    -2.0980 H     1 <1>   0.0800 
 35 H       -1.8820    -0.4570     0.9180 H     1 <1>   0.0800 
 36 H       -5.9100    -0.9530     0.1960 H     1 <1>   0.0800 
 37 H       -5.2690    -0.2480    -1.2640 H     1 <1>   0.0800 
 38 H       -5.4670    -3.0900    -0.8560 H     1 <1>   0.3700 
 39 H       -3.7940    -1.1290     2.7660 H     1 <1>   0.0800 
 40 H       -2.9340     0.3740     2.9350 H     1 <1>   0.0800 
 41 H       -5.3600     1.7140     0.1600 H     1 <1>   0.0800 
 42 H       -4.6520    -5.1440     1.1770 H     1 <1>   0.0800 
 43 H       -5.0490    -5.5090    -0.4880 H     1 <1>   0.0800 
 44 H       -6.2910    -4.9240     0.6060 H     1 <1>   0.0800 
 45 H       -4.8650     1.5470     2.5520 H     1 <1>   0.0800 
 46 H       -5.7660     0.0680     2.2870 H     1 <1>   0.0800 
 47 H       -3.8430     3.0120    -1.3960 H     1 <1>   0.0800 
 48 H       -3.7260     3.7100     0.2040 H     1 <1>   0.0800 
 49 H       -1.5390     3.8030    -1.8990 H     1 <1>   0.0800 
 50 H       -1.4480     4.5310    -0.3160 H     1 <1>   0.0800 
 51 H       -2.7800     5.1000    -3.7270 H     1 <1>   0.1500 
 52 H       -2.8550     6.1230     1.1720 H     1 <1>   0.1500 
 53 H       -4.9640     9.1410    -2.1370 H     1 <1>   0.1500 
 54 H       -3.9880     8.1920     1.9210 H     1 <1>   0.1500 
 55 H       -5.0350     9.6920     0.2920 H     1 <1>   0.1500 
@<TRIPOS>BOND
  1   1   2  1   
  2   1   3  1   
  3   2   4  2   
  4   2  31  1   
  5   3   5  2   
  6   3  32  1   
  7   4   5  1   
  8   5   6  1   
  9   6   7  1   
 10   6  33  1   
 11   6  34  1   
 12   7   8  1   
 13   7   9  1   
 14   7  10  1   
 15   8  11  2   
 16   8  12  am  
 17   9  13  1   
 18   9  14  1   
 19   9  35  1   
 20  10  15  1   
 21  10  36  1   
 22  10  37  1   
 23  12  16  1   
 24  12  38  1   
 25  13  15  1   
 26  13  17  am  
 27  14  18  1   
 28  14  39  1   
 29  14  40  1   
 30  15  18  1   
 31  15  41  1   
 32  16  42  1   
 33  16  43  1   
 34  16  44  1   
 35  17  19  2   
 36  17  20  1   
 37  18  45  1   
 38  18  46  1   
 39  20  21  1   
 40  20  47  1   
 41  20  48  1   
 42  21  22  1   
 43  21  49  1   
 44  21  50  1   
 45  22  23  1   
 46  22  24  1   
 47  23  25  ar  
 48  23  26  ar  
 49  24  27  2   
 50  24  51  1   
 51  25  27  1   
 52  25  28  ar  
 53  26  29  ar  
 54  26  52  1   
 55  28  30  ar  
 56  28  53  1   
 57  29  30  ar  
 58  29  54  1   
 59  30  55  1   
@<TRIPOS>SUBSTRUCTURE
  1 ****  17 GROUP 4 **** **** 0

# MOE 2024.06 (io_trps.svl 2023.06)
