@<TRIPOS>MOLECULE
NONAME
37 39 1 0 0 
SMALL
USER_CHARGES


@<TRIPOS>ATOM
  1 O        0.4710    -0.0820     0.3760 O.3   1 <1>  -0.6800 
  2 C        1.7460    -0.1460    -0.1730 C.3   1 <1>   0.2000 
  3 C        2.4220    -1.4640     0.1950 C.3   1 <1>  -0.0800 
  4 C        2.6650     0.9310     0.4020 C.3   1 <1>   0.2090 
  5 C        3.9170    -1.1400     0.1180 C.3   1 <1>   0.2090 
  6 C        1.9960    -2.6440    -0.6950 C.3   1 <1>  -0.0170 
  7 N        4.0230     0.3140     0.3930 N.pl3 1 <1>  -0.8380 
  8 C        2.7000    -3.9340    -0.3010 C.ar  1 <1>   0.1660 
  9 C        5.1770     1.0520     0.2120 C.ar  1 <1>   0.4100 
 10 N        3.9050    -4.1300    -0.8130 N.ar  1 <1>  -0.6200 
 11 C        2.0710    -4.8370     0.5550 C.ar  1 <1>   0.1600 
 12 N        5.0630     2.3650     0.1450 N.ar  1 <1>  -0.6200 
 13 C        6.4210     0.4550     0.1100 C.ar  1 <1>  -0.1500 
 14 C        4.4290    -5.2800    -0.4210 C.ar  1 <1>   0.1600 
 15 N        2.5960    -5.9850     0.9500 N.ar  1 <1>  -0.6200 
 16 C        6.1800     3.0430    -0.0270 C.ar  1 <1>   0.4770 
 17 C        7.5110     1.2610    -0.0690 C.ar  1 <1>   0.1600 
 18 C        3.7960    -6.1770     0.4310 C.ar  1 <1>   0.1600 
 19 N        7.4090     2.5720    -0.1420 N.ar  1 <1>  -0.6200 
 20 C        6.0470     4.5450    -0.1020 C.3   1 <1>  -0.0970 
 21 H       -0.1400    -0.6810    -0.0920 H     1 <1>   0.4000 
 22 H        1.6750    -0.0190    -1.2400 H     1 <1>   0.0800 
 23 H        2.2020    -1.6890     1.2250 H     1 <1>   0.0800 
 24 H        2.3920     1.1620     1.4160 H     1 <1>   0.0800 
 25 H        2.6300     1.8200    -0.2030 H     1 <1>   0.0800 
 26 H        4.3000    -1.3420    -0.8690 H     1 <1>   0.0800 
 27 H        4.4720    -1.7100     0.8430 H     1 <1>   0.0800 
 28 H        2.2190    -2.4260    -1.7250 H     1 <1>   0.0800 
 29 H        0.9330    -2.7820    -0.6170 H     1 <1>   0.0800 
 30 H        1.0920    -4.6010     0.9310 H     1 <1>   0.1500 
 31 H        6.5290    -0.6070     0.1730 H     1 <1>   0.1500 
 32 H        5.4080    -5.5270    -0.7930 H     1 <1>   0.1500 
 33 H        8.4950     0.8320    -0.1540 H     1 <1>   0.1500 
 34 H        4.3040    -7.0890     0.6920 H     1 <1>   0.1500 
 35 H        6.6160     4.9930     0.6900 H     1 <1>   0.0800 
 36 H        5.0180     4.8380    -0.0040 H     1 <1>   0.0800 
 37 H        6.4220     4.8900    -1.0460 H     1 <1>   0.0800 
@<TRIPOS>BOND
  1   1   2  1   
  2   1  21  1   
  3   2   3  1   
  4   2   4  1   
  5   2  22  1   
  6   3   5  1   
  7   3   6  1   
  8   3  23  1   
  9   4   7  1   
 10   4  24  1   
 11   4  25  1   
 12   5   7  1   
 13   5  26  1   
 14   5  27  1   
 15   6   8  1   
 16   6  28  1   
 17   6  29  1   
 18   7   9  1   
 19   8  10  ar  
 20   8  11  ar  
 21   9  12  ar  
 22   9  13  ar  
 23  10  14  ar  
 24  11  15  ar  
 25  11  30  1   
 26  12  16  ar  
 27  13  17  ar  
 28  13  31  1   
 29  14  18  ar  
 30  14  32  1   
 31  15  18  ar  
 32  16  19  ar  
 33  16  20  1   
 34  17  19  ar  
 35  17  33  1   
 36  18  34  1   
 37  20  35  1   
 38  20  36  1   
 39  20  37  1   
@<TRIPOS>SUBSTRUCTURE
  1 ****   5 GROUP 4 **** **** 0

# MOE 2024.06 (io_trps.svl 2023.06)
