@<TRIPOS>MOLECULE
NONAME
42 44 1 0 0 
SMALL
USER_CHARGES


@<TRIPOS>ATOM
  1 O       -1.3970    -0.9370     0.1350 O.3   1 <1>  -0.2800 
  2 C       -1.1960    -1.8630     1.0560 C.2   1 <1>  -0.0400 
  3 C       -0.8230     0.1730     0.5510 C.2   1 <1>  -0.0400 
  4 C       -0.4850    -1.3550     2.0860 C.2   1 <1>  -0.1500 
  5 C       -1.7530    -3.2580     0.8390 C.3   1 <1>   0.5230 
  6 C       -0.2410    -0.0170     1.7530 C.2   1 <1>  -0.1500 
  7 C       -0.8940     1.4070    -0.3240 C.3   1 <1>  -0.0600 
  8 N       -3.2480    -3.1970     0.7980 N.4   1 <1>  -0.9590 
  9 C       -3.7410    -2.5820    -0.4810 C.3   1 <1>   0.3430 
 10 C       -3.8350    -4.5650     0.8870 C.3   1 <1>   0.3430 
 11 C       -4.7030    -3.6000    -1.1130 C.3   1 <1>   0.2000 
 12 C       -4.2610    -4.9400    -0.5350 C.3   1 <1>  -0.0800 
 13 O       -6.0060    -3.3400    -0.7020 O.3   1 <1>  -0.6800 
 14 C       -3.1110    -5.5410    -1.3760 C.3   1 <1>   0.0210 
 15 C       -2.2880    -6.5530    -0.6040 C.2   1 <1>   0.1080 
 16 N       -1.3410    -6.2060     0.2160 N.2   1 <1>  -0.7070 
 17 C       -2.4390    -7.9310    -0.6870 C.2   1 <1>  -0.1500 
 18 N       -0.8410    -7.3810     0.6650 N.pl3 1 <1>   0.3000 
 19 C       -1.4990    -8.4340     0.1390 C.2   1 <1>  -0.3320 
 20 C       -1.1770    -9.8840     0.4540 C.3   1 <1>  -0.0600 
 21 H       -0.1470    -1.8310     2.9910 H     1 <1>   0.1500 
 22 H       -1.4340    -3.8940     1.6480 H     1 <1>   0.0800 
 23 H       -1.3650    -3.6700    -0.0780 H     1 <1>   0.0800 
 24 H        0.3060     0.6880     2.3550 H     1 <1>   0.1500 
 25 H       -0.3780     2.2240     0.1460 H     1 <1>   0.0800 
 26 H       -1.9190     1.6860    -0.4810 H     1 <1>   0.0800 
 27 H       -0.4340     1.2060    -1.2740 H     1 <1>   0.0800 
 28 H       -3.5340    -2.6130     1.5930 H     1 <1>   0.4500 
 29 H       -4.2350    -1.6390    -0.3100 H     1 <1>   0.0800 
 30 H       -2.9100    -2.4200    -1.1480 H     1 <1>   0.0800 
 31 H       -3.1480    -5.2760     1.3160 H     1 <1>   0.0800 
 32 H       -4.7130    -4.5330     1.5110 H     1 <1>   0.0800 
 33 H       -4.6870    -3.5670    -2.1900 H     1 <1>   0.0800 
 34 H       -5.0680    -5.6520    -0.5090 H     1 <1>   0.0800 
 35 H       -6.1150    -3.3420     0.2680 H     1 <1>   0.4000 
 36 H       -2.4400    -4.7740    -1.7180 H     1 <1>   0.0800 
 37 H       -3.5200    -6.0150    -2.2520 H     1 <1>   0.0800 
 38 H       -3.1530    -8.4630    -1.2920 H     1 <1>   0.1500 
 39 H       -0.0490    -7.4400     1.3190 H     1 <1>   0.2700 
 40 H       -1.8350   -10.5370    -0.0910 H     1 <1>   0.0800 
 41 H       -1.3000   -10.0760     1.5050 H     1 <1>   0.0800 
 42 H       -0.1640   -10.1110     0.1730 H     1 <1>   0.0800 
@<TRIPOS>BOND
  1   1   2  1   
  2   1   3  1   
  3   2   4  2   
  4   2   5  1   
  5   3   6  2   
  6   3   7  1   
  7   4   6  1   
  8   4  21  1   
  9   5   8  1   
 10   5  22  1   
 11   5  23  1   
 12   6  24  1   
 13   7  25  1   
 14   7  26  1   
 15   7  27  1   
 16   8   9  1   
 17   8  10  1   
 18   8  28  1   
 19   9  11  1   
 20   9  29  1   
 21   9  30  1   
 22  10  12  1   
 23  10  31  1   
 24  10  32  1   
 25  11  12  1   
 26  11  13  1   
 27  11  33  1   
 28  12  14  1   
 29  12  34  1   
 30  13  35  1   
 31  14  15  1   
 32  14  36  1   
 33  14  37  1   
 34  15  16  2   
 35  15  17  1   
 36  16  18  1   
 37  17  19  2   
 38  17  38  1   
 39  18  19  1   
 40  18  39  1   
 41  19  20  1   
 42  20  40  1   
 43  20  41  1   
 44  20  42  1   
@<TRIPOS>SUBSTRUCTURE
  1 ****   5 GROUP 4 **** **** 0

# MOE 2024.06 (io_trps.svl 2023.06)
