@<TRIPOS>MOLECULE
NONAME
51 53 1 0 0 
SMALL
USER_CHARGES


@<TRIPOS>ATOM
  1 CL      -3.8670    -1.7630     0.1960 Cl    1 <1>  -0.1770 
  2 C       -3.2470    -0.1570     0.5360 C.ar  1 <1>   0.1770 
  3 C       -2.5730     0.0940     1.7250 C.ar  1 <1>   0.0830 
  4 C       -3.4500     0.8460    -0.3990 C.ar  1 <1>  -0.1440 
  5 O       -2.3950    -0.8800     2.6360 O.3   1 <1>  -0.5320 
  6 C       -2.0840     1.3660     1.9750 C.ar  1 <1>  -0.1500 
  7 C       -2.9520     2.1170    -0.1420 C.ar  1 <1>  -0.1500 
  8 C       -4.2130     0.5290    -1.6650 C.3   1 <1>   0.4860 
  9 C       -2.2730     2.3710     1.0400 C.ar  1 <1>  -0.1500 
 10 N       -5.6480     0.4280    -1.2980 N.4   1 <1>  -0.9590 
 11 C       -6.3920    -0.5940    -2.0970 C.3   1 <1>   0.3430 
 12 C       -6.3310     1.7460    -1.2610 C.3   1 <1>   0.3430 
 13 C       -7.3520    -1.4130    -1.2080 C.3   1 <1>   0.1400 
 14 C       -7.3770     1.7800    -0.1470 C.3   1 <1>  -0.1600 
 15 N       -7.7870    -0.6710     0.0200 N.am  1 <1>  -0.6600 
 16 C       -8.4240     0.6600    -0.1900 C.3   1 <1>   0.1400 
 17 C       -7.6280    -1.1720     1.2990 C.2   1 <1>   0.7160 
 18 O       -7.5640    -0.3760     2.2140 O.2   1 <1>  -0.5700 
 19 C       -7.4930    -2.5810     1.5610 C.2   1 <1>  -0.0860 
 20 C       -8.3210    -3.6230     1.1620 C.2   1 <1>   0.1080 
 21 C       -6.5570    -3.2490     2.2700 C.2   1 <1>  -0.0400 
 22 N       -7.8560    -4.7420     1.5710 N.2   1 <1>  -0.4100 
 23 C       -9.6350    -3.5100     0.4000 C.3   1 <1>   0.0210 
 24 O       -6.7560    -4.5440     2.2590 O.3   1 <1>  -0.0190 
 25 C       -5.3680    -2.7250     3.0520 C.3   1 <1>  -0.0600 
 26 C       -9.6170    -4.3160    -0.9050 C.3   1 <1>  -0.2400 
 27 H       -1.8780    -0.6020     3.4150 H     1 <1>   0.4500 
 28 H       -1.5570     1.5810     2.8890 H     1 <1>   0.1500 
 29 H       -3.0800     2.9190    -0.8500 H     1 <1>   0.1500 
 30 H       -3.8600    -0.4110    -2.0580 H     1 <1>   0.0800 
 31 H       -4.0600     1.2940    -2.4090 H     1 <1>   0.0800 
 32 H       -1.8870     3.3590     1.2360 H     1 <1>   0.1500 
 33 H       -5.6730     0.0780    -0.3240 H     1 <1>   0.4500 
 34 H       -5.7040    -1.2760    -2.5690 H     1 <1>   0.0800 
 35 H       -6.9550    -0.1080    -2.8770 H     1 <1>   0.0800 
 36 H       -6.7960     1.9480    -2.2130 H     1 <1>   0.0800 
 37 H       -5.6100     2.5250    -1.0680 H     1 <1>   0.0800 
 38 H       -6.8470    -2.3220    -0.9240 H     1 <1>   0.0800 
 39 H       -8.2160    -1.6950    -1.7840 H     1 <1>   0.0800 
 40 H       -7.8950     2.7200    -0.2120 H     1 <1>   0.0800 
 41 H       -6.8840     1.7720     0.8100 H     1 <1>   0.0800 
 42 H       -8.9570     0.6720    -1.1270 H     1 <1>   0.0800 
 43 H       -9.1460     0.8290     0.5940 H     1 <1>   0.0800 
 44 H       -9.8610    -2.4820     0.1900 H     1 <1>   0.0800 
 45 H      -10.4200    -3.8880     1.0320 H     1 <1>   0.0800 
 46 H       -5.2880    -1.6570     2.9630 H     1 <1>   0.0800 
 47 H       -4.4610    -3.1730     2.6890 H     1 <1>   0.0800 
 48 H       -5.4830    -2.9740     4.0910 H     1 <1>   0.0800 
 49 H       -8.8130    -3.9990    -1.5410 H     1 <1>   0.0800 
 50 H      -10.5490    -4.1970    -1.4280 H     1 <1>   0.0800 
 51 H       -9.4820    -5.3620    -0.6850 H     1 <1>   0.0800 
@<TRIPOS>BOND
  1   1   2  1   
  2   2   3  ar  
  3   2   4  ar  
  4   3   5  1   
  5   3   6  ar  
  6   4   7  ar  
  7   4   8  1   
  8   5  27  1   
  9   6   9  ar  
 10   6  28  1   
 11   7   9  ar  
 12   7  29  1   
 13   8  10  1   
 14   8  30  1   
 15   8  31  1   
 16   9  32  1   
 17  10  11  1   
 18  10  12  1   
 19  10  33  1   
 20  11  13  1   
 21  11  34  1   
 22  11  35  1   
 23  12  14  1   
 24  12  36  1   
 25  12  37  1   
 26  13  15  1   
 27  13  38  1   
 28  13  39  1   
 29  14  16  1   
 30  14  40  1   
 31  14  41  1   
 32  15  16  1   
 33  15  17  am  
 34  16  42  1   
 35  16  43  1   
 36  17  18  2   
 37  17  19  1   
 38  19  20  1   
 39  19  21  2   
 40  20  22  2   
 41  20  23  1   
 42  21  24  1   
 43  21  25  1   
 44  22  24  1   
 45  23  26  1   
 46  23  44  1   
 47  23  45  1   
 48  25  46  1   
 49  25  47  1   
 50  25  48  1   
 51  26  49  1   
 52  26  50  1   
 53  26  51  1   
@<TRIPOS>SUBSTRUCTURE
  1 ****  17 GROUP 4 **** **** 0

# MOE 2024.06 (io_trps.svl 2023.06)
