@<TRIPOS>MOLECULE
NONAME
14 13 1 0 0 
SMALL
USER_CHARGES


@<TRIPOS>ATOM
  1 O        0.5610    -0.5310     1.6050 O.co2 1 <1>  -0.9000 
  2 C        0.2940    -1.6240     1.0690 C.2   1 <1>   0.9060 
  3 O       -0.7760    -2.1930     1.3440 O.co2 1 <1>  -0.9000 
  4 C        1.2180    -2.1830    -0.0570 C.3   1 <1>   0.0940 
  5 O        1.3550    -3.5890    -0.0750 O.3   1 <1>  -0.6800 
  6 C        2.6440    -1.5770    -0.0610 C.3   1 <1>   0.0940 
  7 O        2.5070    -0.1710    -0.0990 O.3   1 <1>  -0.6800 
  8 C        3.5670    -2.1200     1.0740 C.2   1 <1>   0.9060 
  9 O        4.6360    -1.5480     1.3420 O.co2 1 <1>  -0.9000 
 10 O        3.2990    -3.2060     1.6260 O.co2 1 <1>  -0.9000 
 11 H        0.7440    -1.9230    -0.9830 H     1 <1>   0.0800 
 12 H        1.9650    -3.7940     0.6940 H     1 <1>   0.4000 
 13 H        3.1190    -1.8500    -0.9820 H     1 <1>   0.0800 
 14 H        1.8960     0.0450     0.6660 H     1 <1>   0.4000 
@<TRIPOS>BOND
  1   1   2  ar  
  2   2   3  ar  
  3   2   4  1   
  4   4   5  1   
  5   4   6  1   
  6   4  11  1   
  7   5  12  1   
  8   6   7  1   
  9   6   8  1   
 10   6  13  1   
 11   7  14  1   
 12   8   9  ar  
 13   8  10  ar  
@<TRIPOS>SUBSTRUCTURE
  1 ****   4 GROUP 4 **** **** 0

# MOE 2024.06 (io_trps.svl 2023.06)
