@<TRIPOS>MOLECULE
NONAME
55 58 1 0 0 
SMALL
USER_CHARGES


@<TRIPOS>ATOM
  1 O        0.6190     0.1270     0.0100 O.3   1 <1>  -0.6800 
  2 C        1.8360    -0.1550    -0.5970 C.3   1 <1>   0.2000 
  3 C        2.5340    -1.3140     0.1090 C.3   1 <1>  -0.0800 
  4 C        2.8010     1.0220    -0.4700 C.3   1 <1>   0.2090 
  5 C        4.0240    -1.0550    -0.1150 C.3   1 <1>   0.2090 
  6 C        2.0810    -2.6980    -0.3900 C.3   1 <1>   0.0210 
  7 N        4.1570     0.4100    -0.3400 N.pl3 1 <1>  -0.8380 
  8 C        2.9410    -3.8250     0.1570 C.2   1 <1>   0.1080 
  9 C        5.3020     1.1360    -0.2990 C.ar  1 <1>   0.4100 
 10 N        3.4130    -3.8450     1.3650 N.2   1 <1>  -0.7070 
 11 C        3.3120    -4.9520    -0.5680 C.2   1 <1>  -0.1500 
 12 N        5.1970     2.4460    -0.4120 N.ar  1 <1>  -0.6200 
 13 C        6.5550     0.5140    -0.1410 C.ar  1 <1>  -0.1500 
 14 N        4.0950    -5.0040     1.4470 N.pl3 1 <1>   0.3000 
 15 C        4.0520    -5.6900     0.2860 C.2   1 <1>  -0.3320 
 16 C        6.2980     3.1800    -0.3620 C.ar  1 <1>   0.7710 
 17 C        7.6710     1.2780    -0.0870 C.ar  1 <1>   0.2180 
 18 C        4.7250    -7.0310     0.0630 C.3   1 <1>  -0.0600 
 19 N        7.5070     2.6170    -0.1960 N.ar  1 <1>  -0.1790 
 20 N        6.2120     4.5350    -0.4720 N.pl3 1 <1>  -0.8380 
 21 C        9.0710     0.7160     0.0900 C.3   1 <1>  -0.0970 
 22 C        7.3410     5.5060    -0.6120 C.3   1 <1>   0.2090 
 23 C        4.8880     5.2430    -0.4470 C.3   1 <1>   0.2090 
 24 C        7.3580     6.4340     0.6070 C.3   1 <1>  -0.1600 
 25 C        4.8470     6.1820     0.7630 C.3   1 <1>  -0.1600 
 26 C        6.0210     7.1730     0.7620 C.3   1 <1>  -0.1600 
 27 H        0.0600    -0.6720     0.0520 H     1 <1>   0.4000 
 28 H        1.6640    -0.3690    -1.6380 H     1 <1>   0.0800 
 29 H        2.3600    -1.2420     1.1690 H     1 <1>   0.0800 
 30 H        2.5840     1.5900     0.4190 H     1 <1>   0.0800 
 31 H        2.7510     1.6570    -1.3370 H     1 <1>   0.0800 
 32 H        4.3730    -1.5780    -0.9890 H     1 <1>   0.0800 
 33 H        4.5890    -1.3720     0.7460 H     1 <1>   0.0800 
 34 H        2.1200    -2.7270    -1.4640 H     1 <1>   0.0800 
 35 H        1.0650    -2.8720    -0.0880 H     1 <1>   0.0800 
 36 H        3.0480    -5.1690    -1.5880 H     1 <1>   0.1500 
 37 H        6.6020    -0.5550    -0.0660 H     1 <1>   0.1500 
 38 H        4.5710    -5.2990     2.3080 H     1 <1>   0.2700 
 39 H        4.5430    -7.3750    -0.9400 H     1 <1>   0.0800 
 40 H        4.3360    -7.7620     0.7500 H     1 <1>   0.0800 
 41 H        5.7870    -6.9450     0.2070 H     1 <1>   0.0800 
 42 H        8.2790     3.2630    -0.1340 H     1 <1>   0.4570 
 43 H        9.0380    -0.3570     0.1610 H     1 <1>   0.0800 
 44 H        9.5190     1.0980     0.9900 H     1 <1>   0.0800 
 45 H        9.6900     0.9770    -0.7500 H     1 <1>   0.0800 
 46 H        8.2910     5.0150    -0.7100 H     1 <1>   0.0800 
 47 H        7.1880     6.0950    -1.5030 H     1 <1>   0.0800 
 48 H        4.7710     5.8110    -1.3540 H     1 <1>   0.0800 
 49 H        4.0590     4.5580    -0.3850 H     1 <1>   0.0800 
 50 H        7.5570     5.8580     1.4940 H     1 <1>   0.0800 
 51 H        8.1500     7.1540     0.4980 H     1 <1>   0.0800 
 52 H        3.9190     6.7260     0.7560 H     1 <1>   0.0800 
 53 H        4.8690     5.5910     1.6610 H     1 <1>   0.0800 
 54 H        5.8990     7.8650    -0.0550 H     1 <1>   0.0800 
 55 H        6.0190     7.7410     1.6770 H     1 <1>   0.0800 
@<TRIPOS>BOND
  1   1   2  1   
  2   1  27  1   
  3   2   3  1   
  4   2   4  1   
  5   2  28  1   
  6   3   5  1   
  7   3   6  1   
  8   3  29  1   
  9   4   7  1   
 10   4  30  1   
 11   4  31  1   
 12   5   7  1   
 13   5  32  1   
 14   5  33  1   
 15   6   8  1   
 16   6  34  1   
 17   6  35  1   
 18   7   9  1   
 19   8  10  2   
 20   8  11  1   
 21   9  12  ar  
 22   9  13  ar  
 23  10  14  1   
 24  11  15  2   
 25  11  36  1   
 26  12  16  ar  
 27  13  17  ar  
 28  13  37  1   
 29  14  15  1   
 30  14  38  1   
 31  15  18  1   
 32  16  19  ar  
 33  16  20  1   
 34  17  19  ar  
 35  17  21  1   
 36  18  39  1   
 37  18  40  1   
 38  18  41  1   
 39  19  42  1   
 40  20  22  1   
 41  20  23  1   
 42  21  43  1   
 43  21  44  1   
 44  21  45  1   
 45  22  24  1   
 46  22  46  1   
 47  22  47  1   
 48  23  25  1   
 49  23  48  1   
 50  23  49  1   
 51  24  26  1   
 52  24  50  1   
 53  24  51  1   
 54  25  26  1   
 55  25  52  1   
 56  25  53  1   
 57  26  54  1   
 58  26  55  1   
@<TRIPOS>SUBSTRUCTURE
  1 ****   7 GROUP 4 **** **** 0

# MOE 2024.06 (io_trps.svl 2023.06)
