@<TRIPOS>MOLECULE
NONAME
42 43 1 0 0 
SMALL
USER_CHARGES


@<TRIPOS>ATOM
  1 S        0.5200    -0.0680     0.7580 S.o2  1 <1>   1.3330 
  2 O        1.9530    -0.2450     0.8300 O.2   1 <1>  -0.6500 
  3 O       -0.2340     0.1450     1.9720 O.2   1 <1>  -0.6500 
  4 N       -0.1260    -1.4210    -0.0400 N.am  1 <1>  -0.8490 
  5 C        0.1460     1.2720    -0.3730 C.3   1 <1>  -0.0550 
  6 C       -0.5840    -2.4540     0.8950 C.3   1 <1>   0.1160 
  7 C        0.7860    -2.0100    -1.0260 C.3   1 <1>   0.1160 
  8 C        0.5280     2.6600     0.1690 C.3   1 <1>  -0.0800 
  9 C        0.1760     3.7760    -0.8220 C.3   1 <1>   0.2000 
 10 C        2.0390     2.8180     0.4180 C.3   1 <1>   0.1100 
 11 O       -0.7010     4.6680    -0.2240 O.3   1 <1>  -0.6800 
 12 C        1.5090     4.4690    -1.0990 C.3   1 <1>   0.1100 
 13 N        2.3710     4.2030     0.0700 N.3   1 <1>  -0.8100 
 14 C        2.0870     5.0830     1.2330 C.3   1 <1>   0.2900 
 15 C        2.0050     6.5450     0.8370 C.2   1 <1>   0.0060 
 16 N        3.0660     7.2100     0.3370 N.pl3 1 <1>   0.0330 
 17 N        0.9280     7.2610     0.9100 N.2   1 <1>  -0.5650 
 18 C        2.6180     8.4520     0.0810 C.2   1 <1>  -0.3320 
 19 C        1.3140     8.4630     0.4390 C.2   1 <1>   0.0770 
 20 C        3.4830     9.5550    -0.5000 C.3   1 <1>  -0.0600 
 21 H        0.6520     1.1030    -1.3030 H     1 <1>   0.0800 
 22 H       -0.9090     1.2660    -0.5680 H     1 <1>   0.0800 
 23 H       -1.0000    -3.2880     0.3560 H     1 <1>   0.0800 
 24 H       -1.3500    -2.0560     1.5390 H     1 <1>   0.0800 
 25 H        0.2360    -2.7980     1.5040 H     1 <1>   0.0800 
 26 H        0.2910    -2.8010    -1.5630 H     1 <1>   0.0800 
 27 H        1.6600    -2.4120    -0.5380 H     1 <1>   0.0800 
 28 H        1.1000    -1.2640    -1.7350 H     1 <1>   0.0800 
 29 H        0.0060     2.8160     1.0990 H     1 <1>   0.0800 
 30 H       -0.2830     3.4170    -1.7270 H     1 <1>   0.0800 
 31 H        2.5940     2.1650    -0.2370 H     1 <1>   0.0800 
 32 H        2.3090     2.5810     1.4350 H     1 <1>   0.0800 
 33 H       -0.2030     5.4190     0.1790 H     1 <1>   0.4000 
 34 H        1.3870     5.5140    -1.3260 H     1 <1>   0.0800 
 35 H        1.9630     4.0020    -1.9550 H     1 <1>   0.0800 
 36 H        1.1560     4.8110     1.7000 H     1 <1>   0.0800 
 37 H        2.8640     4.9580     1.9660 H     1 <1>   0.0800 
 38 H        3.9950     6.8140     0.1660 H     1 <1>   0.2700 
 39 H        0.6200     9.2850     0.3810 H     1 <1>   0.1500 
 40 H        2.9050    10.4550    -0.6170 H     1 <1>   0.0800 
 41 H        3.8600     9.2620    -1.4630 H     1 <1>   0.0800 
 42 H        4.3110     9.7610     0.1540 H     1 <1>   0.0800 
@<TRIPOS>BOND
  1   1   2  2   
  2   1   3  2   
  3   1   4  am  
  4   1   5  1   
  5   4   6  1   
  6   4   7  1   
  7   5   8  1   
  8   5  21  1   
  9   5  22  1   
 10   6  23  1   
 11   6  24  1   
 12   6  25  1   
 13   7  26  1   
 14   7  27  1   
 15   7  28  1   
 16   8   9  1   
 17   8  10  1   
 18   8  29  1   
 19   9  11  1   
 20   9  12  1   
 21   9  30  1   
 22  10  13  1   
 23  10  31  1   
 24  10  32  1   
 25  11  33  1   
 26  12  13  1   
 27  12  34  1   
 28  12  35  1   
 29  13  14  1   
 30  14  15  1   
 31  14  36  1   
 32  14  37  1   
 33  15  16  1   
 34  15  17  2   
 35  16  18  1   
 36  16  38  1   
 37  17  19  1   
 38  18  19  2   
 39  18  20  1   
 40  19  39  1   
 41  20  40  1   
 42  20  41  1   
 43  20  42  1   
@<TRIPOS>SUBSTRUCTURE
  1 ****   8 GROUP 4 **** **** 0

# MOE 2024.06 (io_trps.svl 2023.06)
