@<TRIPOS>MOLECULE
NONAME
45 47 1 0 0 
SMALL
USER_CHARGES


@<TRIPOS>ATOM
  1 F        0.8750    -1.2790     1.8620 F     1 <1>  -0.1900 
  2 C        0.5810    -2.4260     1.3110 C.ar  1 <1>   0.1900 
  3 C        0.8440    -3.5880     2.0100 C.ar  1 <1>  -0.1500 
  4 C        0.0170    -2.4350     0.0500 C.ar  1 <1>  -0.1500 
  5 C        0.5290    -4.8020     1.4200 C.ar  1 <1>  -0.1500 
  6 C       -0.2930    -3.6550    -0.5280 C.ar  1 <1>  -0.1500 
  7 C       -0.0390    -4.8390     0.1530 C.ar  1 <1>  -0.1430 
  8 C       -0.3870    -6.1710    -0.4920 C.3   1 <1>  -0.0160 
  9 C       -1.8520    -6.5300    -0.2230 C.3   1 <1>  -0.0990 
 10 C       -2.2080    -7.8580    -0.8510 C.2   1 <1>   0.5690 
 11 O       -2.4570    -7.9020    -2.0290 O.2   1 <1>  -0.5700 
 12 N       -2.2320    -8.9640    -0.0700 N.am  1 <1>  -0.7300 
 13 C       -2.5420   -10.3280    -0.5510 C.3   1 <1>   0.2200 
 14 C       -3.9270   -10.7250    -0.0670 C.3   1 <1>  -0.0800 
 15 C       -1.6610   -11.3360     0.1750 C.3   1 <1>   0.1200 
 16 C       -3.6430   -11.2550     1.3450 C.3   1 <1>   0.1200 
 17 C       -4.5570   -11.7950    -0.9780 C.3   1 <1>  -0.0170 
 18 O       -2.2780   -11.5620     1.4060 O.3   1 <1>  -0.5600 
 19 C       -5.9540   -12.1740    -0.5090 C.ar  1 <1>  -0.1430 
 20 C       -7.0350   -11.3380    -0.7010 C.ar  1 <1>  -0.1500 
 21 C       -6.2150   -13.3700     0.1310 C.ar  1 <1>  -0.1500 
 22 C       -8.2870   -11.7240    -0.2530 C.ar  1 <1>   0.1600 
 23 C       -7.5060   -13.6600     0.5400 C.ar  1 <1>   0.1600 
 24 N       -8.5490   -12.8640     0.3650 N.ar  1 <1>  -0.6200 
 25 H        1.2840    -3.5400     2.9890 H     1 <1>   0.1500 
 26 H       -0.1730    -1.5100    -0.4630 H     1 <1>   0.1500 
 27 H        0.7290    -5.7150     1.9530 H     1 <1>   0.1500 
 28 H       -0.7330    -3.6790    -1.5110 H     1 <1>   0.1500 
 29 H       -0.2210    -6.1140    -1.5540 H     1 <1>   0.0800 
 30 H        0.2540    -6.9430    -0.1050 H     1 <1>   0.0800 
 31 H       -2.4900    -5.7730    -0.6410 H     1 <1>   0.0800 
 32 H       -2.0310    -6.5670     0.8360 H     1 <1>   0.0800 
 33 H       -2.0350    -8.9080     0.9310 H     1 <1>   0.3700 
 34 H       -2.4320   -10.3840    -1.6220 H     1 <1>   0.0800 
 35 H       -4.5830    -9.8730    -0.0330 H     1 <1>   0.0800 
 36 H       -0.6590   -10.9770     0.3310 H     1 <1>   0.0800 
 37 H       -1.6340   -12.2720    -0.3540 H     1 <1>   0.0800 
 38 H       -4.2080   -12.1380     1.5850 H     1 <1>   0.0800 
 39 H       -3.8380   -10.4970     2.0830 H     1 <1>   0.0800 
 40 H       -3.9360   -12.6730    -1.0100 H     1 <1>   0.0800 
 41 H       -4.6270   -11.4110    -1.9820 H     1 <1>   0.0800 
 42 H       -6.9150   -10.3910    -1.1950 H     1 <1>   0.1500 
 43 H       -5.4290   -14.0790     0.3160 H     1 <1>   0.1500 
 44 H       -9.1190   -11.0590    -0.4120 H     1 <1>   0.1500 
 45 H       -7.6900   -14.5970     1.0380 H     1 <1>   0.1500 
@<TRIPOS>BOND
  1   1   2  1   
  2   2   3  ar  
  3   2   4  ar  
  4   3   5  ar  
  5   3  25  1   
  6   4   6  ar  
  7   4  26  1   
  8   5   7  ar  
  9   5  27  1   
 10   6   7  ar  
 11   6  28  1   
 12   7   8  1   
 13   8   9  1   
 14   8  29  1   
 15   8  30  1   
 16   9  10  1   
 17   9  31  1   
 18   9  32  1   
 19  10  11  2   
 20  10  12  am  
 21  12  13  1   
 22  12  33  1   
 23  13  14  1   
 24  13  15  1   
 25  13  34  1   
 26  14  16  1   
 27  14  17  1   
 28  14  35  1   
 29  15  18  1   
 30  15  36  1   
 31  15  37  1   
 32  16  18  1   
 33  16  38  1   
 34  16  39  1   
 35  17  19  1   
 36  17  40  1   
 37  17  41  1   
 38  19  20  ar  
 39  19  21  ar  
 40  20  22  ar  
 41  20  42  1   
 42  21  23  ar  
 43  21  43  1   
 44  22  24  ar  
 45  22  44  1   
 46  23  24  ar  
 47  23  45  1   
@<TRIPOS>SUBSTRUCTURE
  1 ****  12 GROUP 4 **** **** 0

# MOE 2024.06 (io_trps.svl 2023.06)
