@<TRIPOS>MOLECULE
NONAME
55 58 1 0 0 
SMALL
USER_CHARGES


@<TRIPOS>ATOM
  1 F        0.4510     0.8540    -0.1880 F     1 <1>  -0.1900 
  2 C        1.0580     2.0120    -0.1240 C.ar  1 <1>   0.1900 
  3 C        0.7830     2.8510     0.9390 C.ar  1 <1>  -0.1500 
  4 C        1.9500     2.3530    -1.1230 C.ar  1 <1>  -0.1500 
  5 C        1.4290     4.0740     1.0000 C.ar  1 <1>  -0.1500 
  6 C        2.5890     3.5780    -1.0480 C.ar  1 <1>  -0.1500 
  7 C        2.3380     4.4470     0.0110 C.ar  1 <1>   0.1000 
  8 N        2.9950     5.6720     0.0630 N.pl3 1 <1>  -0.8380 
  9 C        3.9350     5.8690     1.2010 C.3   1 <1>   0.2090 
 10 C        2.1680     6.8460    -0.3100 C.3   1 <1>   0.2090 
 11 C        5.3330     6.2370     0.6680 C.3   1 <1>   0.3430 
 12 C        3.0430     8.0500    -0.6710 C.3   1 <1>  -0.1600 
 13 N        5.4060     7.5580    -0.0590 N.4   1 <1>  -0.9590 
 14 C        4.4300     7.6690    -1.1930 C.3   1 <1>   0.3430 
 15 C        6.7940     7.8310    -0.5310 C.3   1 <1>   0.5230 
 16 C        7.0220     9.3270    -0.5700 C.2   1 <1>  -0.0400 
 17 O        6.2950    10.0680    -1.3600 O.3   1 <1>  -0.0190 
 18 C        7.8710    10.1360     0.0850 C.2   1 <1>  -0.1500 
 19 N        6.5980    11.3240    -1.2620 N.2   1 <1>  -0.4100 
 20 C        7.5530    11.4030    -0.4010 C.2   1 <1>   0.1080 
 21 C        8.2370    12.6960     0.0320 C.3   1 <1>   0.1010 
 22 C        7.2410    13.6350     0.7360 C.3   1 <1>  -0.1600 
 23 C        8.8950    13.4020    -1.1660 C.3   1 <1>  -0.1600 
 24 C        7.9090    14.9520     1.1590 C.3   1 <1>  -0.1600 
 25 C        9.5660    14.7190    -0.7470 C.3   1 <1>  -0.1600 
 26 C        8.5690    15.6470    -0.0400 C.3   1 <1>  -0.1600 
 27 H        0.0790     2.5500     1.6940 H     1 <1>   0.1500 
 28 H        2.1350     1.6720    -1.9340 H     1 <1>   0.1500 
 29 H        1.2260     4.7440     1.8150 H     1 <1>   0.1500 
 30 H        3.2840     3.8710    -1.8120 H     1 <1>   0.1500 
 31 H        4.0140     4.9510     1.7590 H     1 <1>   0.0800 
 32 H        3.5710     6.6300     1.8690 H     1 <1>   0.0800 
 33 H        1.4950     7.0960     0.4940 H     1 <1>   0.0800 
 34 H        1.5680     6.5760    -1.1650 H     1 <1>   0.0800 
 35 H        5.6460     5.4450     0.0080 H     1 <1>   0.0800 
 36 H        6.0150     6.2540     1.5020 H     1 <1>   0.0800 
 37 H        3.1230     8.7170     0.1680 H     1 <1>   0.0800 
 38 H        2.5290     8.5940    -1.4430 H     1 <1>   0.0800 
 39 H        5.1760     8.3150     0.5970 H     1 <1>   0.4500 
 40 H        4.7520     8.4390    -1.8740 H     1 <1>   0.0800 
 41 H        4.3760     6.7410    -1.7410 H     1 <1>   0.0800 
 42 H        6.9500     7.4060    -1.5090 H     1 <1>   0.0800 
 43 H        7.5070     7.3950     0.1490 H     1 <1>   0.0800 
 44 H        8.6300     9.9170     0.8160 H     1 <1>   0.1500 
 45 H        9.0120    12.4460     0.7360 H     1 <1>   0.0800 
 46 H        6.8320    13.1450     1.6020 H     1 <1>   0.0800 
 47 H        6.4270    13.8520     0.0660 H     1 <1>   0.0800 
 48 H        8.1450    13.6110    -1.9100 H     1 <1>   0.0800 
 49 H        9.6260    12.7510    -1.6120 H     1 <1>   0.0800 
 50 H        8.6540    14.7520     1.9100 H     1 <1>   0.0800 
 51 H        7.1720    15.6060     1.5910 H     1 <1>   0.0800 
 52 H        9.9620    15.2140    -1.6170 H     1 <1>   0.0800 
 53 H       10.3880    14.5080    -0.0840 H     1 <1>   0.0800 
 54 H        9.0770    16.5350     0.2940 H     1 <1>   0.0800 
 55 H        7.8070    15.9480    -0.7390 H     1 <1>   0.0800 
@<TRIPOS>BOND
  1   1   2  1   
  2   2   3  ar  
  3   2   4  ar  
  4   3   5  ar  
  5   3  27  1   
  6   4   6  ar  
  7   4  28  1   
  8   5   7  ar  
  9   5  29  1   
 10   6   7  ar  
 11   6  30  1   
 12   7   8  1   
 13   8   9  1   
 14   8  10  1   
 15   9  11  1   
 16   9  31  1   
 17   9  32  1   
 18  10  12  1   
 19  10  33  1   
 20  10  34  1   
 21  11  13  1   
 22  11  35  1   
 23  11  36  1   
 24  12  14  1   
 25  12  37  1   
 26  12  38  1   
 27  13  14  1   
 28  13  15  1   
 29  13  39  1   
 30  14  40  1   
 31  14  41  1   
 32  15  16  1   
 33  15  42  1   
 34  15  43  1   
 35  16  17  1   
 36  16  18  2   
 37  17  19  1   
 38  18  20  1   
 39  18  44  1   
 40  19  20  2   
 41  20  21  1   
 42  21  22  1   
 43  21  23  1   
 44  21  45  1   
 45  22  24  1   
 46  22  46  1   
 47  22  47  1   
 48  23  25  1   
 49  23  48  1   
 50  23  49  1   
 51  24  26  1   
 52  24  50  1   
 53  24  51  1   
 54  25  26  1   
 55  25  52  1   
 56  25  53  1   
 57  26  54  1   
 58  26  55  1   
@<TRIPOS>SUBSTRUCTURE
  1 ****  13 GROUP 4 **** **** 0

# MOE 2024.06 (io_trps.svl 2023.06)
