@<TRIPOS>MOLECULE
NONAME
47 49 1 0 0 
SMALL
USER_CHARGES


@<TRIPOS>ATOM
  1 O        3.8340    -1.4680    -2.2990 O.2   1 <1>  -0.5700 
  2 C        3.0360    -1.4230    -1.3790 C.2   1 <1>   0.5440 
  3 N        2.9700    -0.2310    -0.7020 N.am  1 <1>  -0.6600 
  4 C        2.3300    -2.6120    -0.9290 C.ar  1 <1>   0.0860 
  5 C        3.5970    -0.2010     0.6640 C.3   1 <1>   0.2200 
  6 C        2.8820     1.0430    -1.4860 C.3   1 <1>   0.1400 
  7 C        0.9850    -2.6200    -0.5220 C.ar  1 <1>  -0.1440 
  8 C        3.0250    -3.8220    -0.8800 C.ar  1 <1>  -0.1500 
  9 C        3.1080     0.9700     1.5320 C.3   1 <1>   0.1200 
 10 C        5.1450    -0.1960     0.5500 C.3   1 <1>   0.3430 
 11 C        3.9240     2.1150    -1.1090 C.3   1 <1>  -0.0800 
 12 C        0.4000    -3.7870    -0.0540 C.ar  1 <1>  -0.1500 
 13 C        0.1160    -1.3690    -0.5940 C.3   1 <1>  -0.0970 
 14 C        2.4370    -4.9810    -0.4170 C.ar  1 <1>  -0.1500 
 15 O        3.8840     2.1080     1.3070 O.3   1 <1>  -0.5600 
 16 N        5.6310     0.2190    -0.8150 N.4   1 <1>  -0.9590 
 17 C        3.5530     2.8540     0.1860 C.3   1 <1>   0.1200 
 18 C        5.4010     1.6640    -1.1270 C.3   1 <1>   0.3430 
 19 C        1.1210    -4.9740     0.0080 C.ar  1 <1>   0.0830 
 20 C        7.0460    -0.1790    -1.0480 C.3   1 <1>   0.2630 
 21 O        0.6160    -6.1450     0.4560 O.3   1 <1>  -0.3620 
 22 C       -0.7290    -6.2740     0.8590 C.3   1 <1>   0.0400 
 23 H        3.3050    -1.1000     1.1800 H     1 <1>   0.0800 
 24 H        2.9830     0.8200    -2.5360 H     1 <1>   0.0800 
 25 H        1.8940     1.4510    -1.3550 H     1 <1>   0.0800 
 26 H        4.0470    -3.8550    -1.2140 H     1 <1>   0.1500 
 27 H        3.2370     0.7160     2.5700 H     1 <1>   0.0800 
 28 H        2.0660     1.1870     1.3670 H     1 <1>   0.0800 
 29 H        5.4900    -1.1960     0.7530 H     1 <1>   0.0800 
 30 H        5.5630     0.4480     1.3060 H     1 <1>   0.0800 
 31 H        3.8430     2.8680    -1.8730 H     1 <1>   0.0800 
 32 H       -0.6270    -3.7680     0.2590 H     1 <1>   0.1500 
 33 H       -0.9270    -1.6190    -0.5190 H     1 <1>   0.0800 
 34 H        0.2650    -0.8640    -1.5310 H     1 <1>   0.0800 
 35 H        0.3610    -0.7000     0.2100 H     1 <1>   0.0800 
 36 H        2.9900    -5.9040    -0.3830 H     1 <1>   0.1500 
 37 H        5.0250    -0.3170    -1.4800 H     1 <1>   0.4500 
 38 H        2.5040     3.0980     0.2220 H     1 <1>   0.0800 
 39 H        4.1090     3.7750     0.2510 H     1 <1>   0.0800 
 40 H        5.9590     2.2750    -0.4360 H     1 <1>   0.0800 
 41 H        5.7890     1.8580    -2.1140 H     1 <1>   0.0800 
 42 H        7.7000     0.3440    -0.3690 H     1 <1>   0.0800 
 43 H        7.3370     0.0540    -2.0600 H     1 <1>   0.0800 
 44 H        7.1630    -1.2400    -0.8970 H     1 <1>   0.0800 
 45 H       -0.8920    -7.2950     1.1550 H     1 <1>   0.0800 
 46 H       -1.3680    -6.0280     0.0290 H     1 <1>   0.0800 
 47 H       -0.9080    -5.6190     1.6930 H     1 <1>   0.0800 
@<TRIPOS>BOND
  1   1   2  2   
  2   2   3  am  
  3   2   4  1   
  4   3   5  1   
  5   3   6  1   
  6   4   7  ar  
  7   4   8  ar  
  8   5   9  1   
  9   5  10  1   
 10   5  23  1   
 11   6  11  1   
 12   6  24  1   
 13   6  25  1   
 14   7  12  ar  
 15   7  13  1   
 16   8  14  ar  
 17   8  26  1   
 18   9  15  1   
 19   9  27  1   
 20   9  28  1   
 21  10  16  1   
 22  10  29  1   
 23  10  30  1   
 24  11  17  1   
 25  11  18  1   
 26  11  31  1   
 27  12  19  ar  
 28  12  32  1   
 29  13  33  1   
 30  13  34  1   
 31  13  35  1   
 32  14  19  ar  
 33  14  36  1   
 34  15  17  1   
 35  16  18  1   
 36  16  20  1   
 37  16  37  1   
 38  17  38  1   
 39  17  39  1   
 40  18  40  1   
 41  18  41  1   
 42  19  21  1   
 43  20  42  1   
 44  20  43  1   
 45  20  44  1   
 46  21  22  1   
 47  22  45  1   
 48  22  46  1   
 49  22  47  1   
@<TRIPOS>SUBSTRUCTURE
  1 ****   2 GROUP 4 **** **** 0

# MOE 2024.06 (io_trps.svl 2023.06)
