@<TRIPOS>MOLECULE
NONAME
49 51 1 0 0 
SMALL
USER_CHARGES


@<TRIPOS>ATOM
  1 O        0.2990     0.4170    -0.0990 O.2   1 <1>  -0.5700 
  2 C       -0.3570     1.3970    -0.3660 C.2   1 <1>   0.5690 
  3 N       -1.7150     1.4380    -0.1480 N.am  1 <1>  -0.6600 
  4 C        0.3980     2.5870    -0.9710 C.3   1 <1>   0.2010 
  5 C       -2.5900     2.6280    -0.4060 C.3   1 <1>   0.1400 
  6 C       -2.4580     0.2350     0.3310 C.3   1 <1>   0.1400 
  7 N        0.6020     3.7110    -0.0030 N.am  1 <1>  -0.7300 
  8 C       -3.4230     3.0060     0.8350 C.3   1 <1>   0.1430 
  9 C       -3.2850     0.5760     1.5760 C.3   1 <1>  -0.1600 
 10 C        0.4360     5.0380    -0.1810 C.2   1 <1>   0.5690 
 11 C       -4.3350     4.1550     0.4520 C.ar  1 <1>   0.1670 
 12 C       -4.2140     1.7770     1.3280 C.3   1 <1>  -0.1600 
 13 C       -2.5480     3.6210     1.9640 C.3   1 <1>  -0.1600 
 14 O        0.5740     5.7880     0.7480 O.2   1 <1>  -0.5700 
 15 C        0.0630     5.6020    -1.5300 C.3   1 <1>  -0.1790 
 16 N       -5.3470     4.0690    -0.3760 N.ar  1 <1>  -0.6200 
 17 C       -3.9650     5.3190     1.0530 C.ar  1 <1>  -0.1440 
 18 C       -2.7550     5.1460     1.9340 C.3   1 <1>  -0.0170 
 19 C       -6.0130     5.2090    -0.5830 C.ar  1 <1>   0.7200 
 20 C       -4.7030     6.4410     0.7770 C.ar  1 <1>   0.1600 
 21 N       -5.7300     6.3970    -0.0390 N.ar  1 <1>  -0.6200 
 22 N       -7.0920     5.1540    -1.4440 N.pl3 1 <1>  -0.8380 
 23 C       -8.0840     6.2610    -1.5350 C.3   1 <1>   0.1290 
 24 C       -7.3730     3.9620    -2.2910 C.3   1 <1>   0.1290 
 25 H       -0.1340     2.9290    -1.8390 H     1 <1>   0.0800 
 26 H        1.3620     2.2390    -1.2950 H     1 <1>   0.0800 
 27 H       -3.2620     2.3890    -1.2130 H     1 <1>   0.0800 
 28 H       -2.0130     3.4800    -0.7060 H     1 <1>   0.0800 
 29 H       -1.7770    -0.5670     0.5640 H     1 <1>   0.0800 
 30 H       -3.1100    -0.1050    -0.4550 H     1 <1>   0.0800 
 31 H        0.8980     3.4230     0.9340 H     1 <1>   0.3700 
 32 H       -2.6150     0.7840     2.3920 H     1 <1>   0.0800 
 33 H       -3.8730    -0.2810     1.8520 H     1 <1>   0.0800 
 34 H       -4.9390     1.5050     0.5800 H     1 <1>   0.0800 
 35 H       -4.7560     2.0210     2.2250 H     1 <1>   0.0800 
 36 H       -1.5090     3.3660     1.8590 H     1 <1>   0.0800 
 37 H       -2.8820     3.2600     2.9200 H     1 <1>   0.0800 
 38 H        0.7280     5.2260    -2.2830 H     1 <1>   0.0800 
 39 H        0.1410     6.6730    -1.5050 H     1 <1>   0.0800 
 40 H       -0.9490     5.3370    -1.7710 H     1 <1>   0.0800 
 41 H       -1.9100     5.6430     1.4910 H     1 <1>   0.0800 
 42 H       -2.9270     5.5390     2.9210 H     1 <1>   0.0800 
 43 H       -4.4470     7.3850     1.2270 H     1 <1>   0.1500 
 44 H       -8.1560     6.7820    -0.5960 H     1 <1>   0.0800 
 45 H       -9.0560     5.8700    -1.7790 H     1 <1>   0.0800 
 46 H       -7.7770     6.9550    -2.2970 H     1 <1>   0.0800 
 47 H       -6.4560     3.4710    -2.5670 H     1 <1>   0.0800 
 48 H       -7.8820     4.2590    -3.1910 H     1 <1>   0.0800 
 49 H       -7.9900     3.2710    -1.7440 H     1 <1>   0.0800 
@<TRIPOS>BOND
  1   1   2  2   
  2   2   3  am  
  3   2   4  1   
  4   3   5  1   
  5   3   6  1   
  6   4   7  1   
  7   4  25  1   
  8   4  26  1   
  9   5   8  1   
 10   5  27  1   
 11   5  28  1   
 12   6   9  1   
 13   6  29  1   
 14   6  30  1   
 15   7  10  am  
 16   7  31  1   
 17   8  11  1   
 18   8  12  1   
 19   8  13  1   
 20   9  12  1   
 21   9  32  1   
 22   9  33  1   
 23  10  14  2   
 24  10  15  1   
 25  11  16  ar  
 26  11  17  ar  
 27  12  34  1   
 28  12  35  1   
 29  13  18  1   
 30  13  36  1   
 31  13  37  1   
 32  15  38  1   
 33  15  39  1   
 34  15  40  1   
 35  16  19  ar  
 36  17  18  1   
 37  17  20  ar  
 38  18  41  1   
 39  18  42  1   
 40  19  21  ar  
 41  19  22  1   
 42  20  21  ar  
 43  20  43  1   
 44  22  23  1   
 45  22  24  1   
 46  23  44  1   
 47  23  45  1   
 48  23  46  1   
 49  24  47  1   
 50  24  48  1   
 51  24  49  1   
@<TRIPOS>SUBSTRUCTURE
  1 ****   8 GROUP 4 **** **** 0

# MOE 2024.06 (io_trps.svl 2023.06)
