@<TRIPOS>MOLECULE
NONAME
48 49 1 0 0 
SMALL
USER_CHARGES


@<TRIPOS>ATOM
  1 S        1.5230     1.0860    -1.7040 S.o2  1 <1>   1.3330 
  2 O        1.5460     1.9210    -2.8830 O.2   1 <1>  -0.6500 
  3 O        0.8750    -0.2060    -1.7610 O.2   1 <1>  -0.6500 
  4 N        0.7940     1.9750    -0.4560 N.am  1 <1>  -0.8490 
  5 C        3.2070     0.8380    -1.1330 C.3   1 <1>  -0.0550 
  6 C       -0.6670     1.8810    -0.4970 C.3   1 <1>   0.1160 
  7 C        1.2000     3.3860    -0.4420 C.3   1 <1>   0.1160 
  8 C        3.3160     0.1090     0.2210 C.3   1 <1>  -0.0800 
  9 C        4.7400     0.0850     0.7530 C.3   1 <1>   0.2890 
 10 C        2.9290    -1.3740     0.1650 C.3   1 <1>   0.1200 
 11 N        5.0010     1.2390     1.6430 N.pl3 1 <1>  -0.8690 
 12 C        4.7950    -1.2430     1.4900 C.3   1 <1>   0.1200 
 13 O        3.9680    -2.0920     0.7600 O.3   1 <1>  -0.5600 
 14 C        5.2280     2.4660     1.1050 C.ar  1 <1>   0.4100 
 15 N        4.3190     3.3560     1.3760 N.ar  1 <1>  -0.6200 
 16 C        6.3220     2.7400     0.3160 C.ar  1 <1>  -0.1500 
 17 C        4.4910     4.5470     0.8230 C.ar  1 <1>   0.7200 
 18 C        6.4340     4.0000    -0.2200 C.ar  1 <1>   0.1670 
 19 N        5.4970     4.9080     0.0320 N.ar  1 <1>  -0.6200 
 20 N        3.5190     5.4970     1.0810 N.pl3 1 <1>  -0.8380 
 21 C        7.6440     4.3710    -1.1190 C.3   1 <1>   1.1630 
 22 C        3.5930     6.8560     0.4680 C.3   1 <1>   0.1290 
 23 C        2.7210     5.4260     2.3390 C.3   1 <1>   0.1290 
 24 F        8.3580     5.3840    -0.6380 F     1 <1>  -0.3400 
 25 F        7.2810     4.7190    -2.3500 F     1 <1>  -0.3400 
 26 F        8.5030     3.3650    -1.2710 F     1 <1>  -0.3400 
 27 H        3.7500     0.2860    -1.8750 H     1 <1>   0.0800 
 28 H        3.6740     1.7990    -1.0440 H     1 <1>   0.0800 
 29 H       -1.0990     2.4390     0.3150 H     1 <1>   0.0800 
 30 H       -0.9720     0.8530    -0.4010 H     1 <1>   0.0800 
 31 H       -1.0400     2.2670    -1.4320 H     1 <1>   0.0800 
 32 H        0.7980     3.8810     0.4250 H     1 <1>   0.0800 
 33 H        0.8510     3.8900    -1.3290 H     1 <1>   0.0800 
 34 H        2.2710     3.4670    -0.4050 H     1 <1>   0.0800 
 35 H        2.6720     0.5890     0.9390 H     1 <1>   0.0800 
 36 H        5.4530     0.0590    -0.0530 H     1 <1>   0.0800 
 37 H        2.8170    -1.7350    -0.8440 H     1 <1>   0.0800 
 38 H        2.0220    -1.5640     0.7140 H     1 <1>   0.0800 
 39 H        4.2830     1.3120     2.3700 H     1 <1>   0.4000 
 40 H        4.3890    -1.1580     2.4820 H     1 <1>   0.0800 
 41 H        5.7870    -1.6560     1.5170 H     1 <1>   0.0800 
 42 H        7.0480     1.9670     0.1500 H     1 <1>   0.1500 
 43 H        2.6340     7.3420     0.5200 H     1 <1>   0.0800 
 44 H        3.8770     6.7850    -0.5680 H     1 <1>   0.0800 
 45 H        4.3220     7.4510     0.9900 H     1 <1>   0.0800 
 46 H        1.9160     6.1380     2.3150 H     1 <1>   0.0800 
 47 H        3.3570     5.6390     3.1810 H     1 <1>   0.0800 
 48 H        2.3000     4.4430     2.4600 H     1 <1>   0.0800 
@<TRIPOS>BOND
  1   1   2  2   
  2   1   3  2   
  3   1   4  am  
  4   1   5  1   
  5   4   6  1   
  6   4   7  1   
  7   5   8  1   
  8   5  27  1   
  9   5  28  1   
 10   6  29  1   
 11   6  30  1   
 12   6  31  1   
 13   7  32  1   
 14   7  33  1   
 15   7  34  1   
 16   8   9  1   
 17   8  10  1   
 18   8  35  1   
 19   9  11  1   
 20   9  12  1   
 21   9  36  1   
 22  10  13  1   
 23  10  37  1   
 24  10  38  1   
 25  11  14  1   
 26  11  39  1   
 27  12  13  1   
 28  12  40  1   
 29  12  41  1   
 30  14  15  ar  
 31  14  16  ar  
 32  15  17  ar  
 33  16  18  ar  
 34  16  42  1   
 35  17  19  ar  
 36  17  20  1   
 37  18  19  ar  
 38  18  21  1   
 39  20  22  1   
 40  20  23  1   
 41  21  24  1   
 42  21  25  1   
 43  21  26  1   
 44  22  43  1   
 45  22  44  1   
 46  22  45  1   
 47  23  46  1   
 48  23  47  1   
 49  23  48  1   
@<TRIPOS>SUBSTRUCTURE
  1 ****  14 GROUP 4 **** **** 0

# MOE 2024.06 (io_trps.svl 2023.06)
