@<TRIPOS>MOLECULE
NONAME
48 50 1 0 0 
SMALL
USER_CHARGES


@<TRIPOS>ATOM
  1 O       -0.6460     1.0510    -1.5010 O.2   1 <1>  -0.5700 
  2 C       -1.7410     1.3110    -1.0520 C.2   1 <1>   0.5690 
  3 N       -2.8450     0.5540    -1.3680 N.am  1 <1>  -0.6600 
  4 C       -1.8620     2.5180    -0.1080 C.3   1 <1>   0.2010 
  5 C       -4.2330     0.7920    -0.8820 C.3   1 <1>   0.1400 
  6 C       -2.7350    -0.6520    -2.2370 C.3   1 <1>   0.1400 
  7 N       -0.5440     3.0510     0.3440 N.am  1 <1>  -0.7300 
  8 C       -4.6770    -0.4130    -0.0510 C.3   1 <1>  -0.1600 
  9 C       -3.1730    -1.8840    -1.4400 C.3   1 <1>  -0.1600 
 10 C       -0.2670     3.8970     1.3570 C.2   1 <1>   0.5690 
 11 C       -4.5850    -1.7220    -0.8570 C.3   1 <1>   0.4240 
 12 O        0.8700     4.1650     1.6370 O.2   1 <1>  -0.5700 
 13 C       -1.3860     4.5180     2.1560 C.3   1 <1>  -0.1790 
 14 O       -5.4330    -1.5980    -1.9750 O.3   1 <1>  -0.5600 
 15 C       -4.9510    -2.9430     0.0140 C.ar  1 <1>  -0.1430 
 16 C       -6.7820    -1.9040    -1.8010 C.3   1 <1>   0.1200 
 17 C       -6.0550    -3.7360    -0.2840 C.ar  1 <1>  -0.1430 
 18 C       -4.1800    -3.2730     1.1240 C.ar  1 <1>  -0.1500 
 19 C       -6.9150    -3.3900    -1.4830 C.3   1 <1>  -0.0170 
 20 C       -6.3740    -4.8320     0.5010 C.ar  1 <1>  -0.1500 
 21 C       -4.4990    -4.3640     1.9110 C.ar  1 <1>  -0.1500 
 22 C       -5.5940    -5.1520     1.6070 C.ar  1 <1>   0.0830 
 23 O       -5.8370    -6.2050     2.4270 O.3   1 <1>  -0.3630 
 24 C       -6.9160    -7.0830     2.1940 C.3   1 <1>   0.0400 
 25 H       -2.4260     2.2230     0.7570 H     1 <1>   0.0800 
 26 H       -2.3930     3.2970    -0.6240 H     1 <1>   0.0800 
 27 H       -4.8850     0.9100    -1.7320 H     1 <1>   0.0800 
 28 H       -4.2990     1.6870    -0.2910 H     1 <1>   0.0800 
 29 H       -1.7250    -0.7880    -2.5840 H     1 <1>   0.0800 
 30 H       -3.3670    -0.5270    -3.1000 H     1 <1>   0.0800 
 31 H        0.2550     2.6450    -0.1600 H     1 <1>   0.3700 
 32 H       -5.6800    -0.2710     0.3020 H     1 <1>   0.0800 
 33 H       -4.0450    -0.4800     0.8150 H     1 <1>   0.0800 
 34 H       -2.4590    -2.0400    -0.6540 H     1 <1>   0.0800 
 35 H       -3.1510    -2.7530    -2.0720 H     1 <1>   0.0800 
 36 H       -2.0770     5.0100     1.4980 H     1 <1>   0.0800 
 37 H       -0.9810     5.2420     2.8380 H     1 <1>   0.0800 
 38 H       -1.8950     3.7580     2.7190 H     1 <1>   0.0800 
 39 H       -7.2940    -1.6680    -2.7170 H     1 <1>   0.0800 
 40 H       -7.1840    -1.3010    -1.0060 H     1 <1>   0.0800 
 41 H       -3.3210    -2.6830     1.3900 H     1 <1>   0.1500 
 42 H       -6.6010    -3.9680    -2.3340 H     1 <1>   0.0800 
 43 H       -7.9460    -3.6170    -1.2810 H     1 <1>   0.0800 
 44 H       -7.2290    -5.4250     0.2420 H     1 <1>   0.1500 
 45 H       -3.8980    -4.6140     2.7660 H     1 <1>   0.1500 
 46 H       -6.9040    -7.8370     2.9600 H     1 <1>   0.0800 
 47 H       -6.7910    -7.5400     1.2290 H     1 <1>   0.0800 
 48 H       -7.8350    -6.5260     2.2440 H     1 <1>   0.0800 
@<TRIPOS>BOND
  1   1   2  2   
  2   2   3  am  
  3   2   4  1   
  4   3   5  1   
  5   3   6  1   
  6   4   7  1   
  7   4  25  1   
  8   4  26  1   
  9   5   8  1   
 10   5  27  1   
 11   5  28  1   
 12   6   9  1   
 13   6  29  1   
 14   6  30  1   
 15   7  10  am  
 16   7  31  1   
 17   8  11  1   
 18   8  32  1   
 19   8  33  1   
 20   9  11  1   
 21   9  34  1   
 22   9  35  1   
 23  10  12  2   
 24  10  13  1   
 25  11  14  1   
 26  11  15  1   
 27  13  36  1   
 28  13  37  1   
 29  13  38  1   
 30  14  16  1   
 31  15  17  ar  
 32  15  18  ar  
 33  16  19  1   
 34  16  39  1   
 35  16  40  1   
 36  17  19  1   
 37  17  20  ar  
 38  18  21  ar  
 39  18  41  1   
 40  19  42  1   
 41  19  43  1   
 42  20  22  ar  
 43  20  44  1   
 44  21  22  ar  
 45  21  45  1   
 46  22  23  1   
 47  23  24  1   
 48  24  46  1   
 49  24  47  1   
 50  24  48  1   
@<TRIPOS>SUBSTRUCTURE
  1 ****   8 GROUP 4 **** **** 0

# MOE 2024.06 (io_trps.svl 2023.06)
