@<TRIPOS>MOLECULE
NONAME
51 54 1 0 0 
SMALL
USER_CHARGES


@<TRIPOS>ATOM
  1 O        1.6720     1.0520    -1.1450 O.3   1 <1>  -0.6800 
  2 C        1.5230     0.2650    -0.0190 C.3   1 <1>   0.2800 
  3 C        2.9020     0.0610     0.6820 C.3   1 <1>  -0.0800 
  4 C        0.9660    -1.0860    -0.5030 C.3   1 <1>  -0.1600 
  5 C        0.4890     0.9690     0.8880 C.3   1 <1>  -0.1600 
  6 C        3.6330    -1.2410     0.3150 C.3   1 <1>  -0.0800 
  7 C        3.9470     1.1590     0.4430 C.3   1 <1>   0.2090 
  8 C        1.9140    -1.8370    -1.4630 C.3   1 <1>  -0.1600 
  9 C        0.8790     2.3750     1.3760 C.3   1 <1>  -0.2400 
 10 C        3.4060    -1.5980    -1.1630 C.3   1 <1>  -0.1600 
 11 C        5.1030    -0.9740     0.6440 C.3   1 <1>   0.2090 
 12 N        5.2800     0.5060     0.6050 N.pl3 1 <1>  -0.8380 
 13 C        6.4580     1.1940     0.4950 C.ar  1 <1>   0.4610 
 14 N        7.6060     0.5680     0.7990 N.ar  1 <1>  -0.1790 
 15 C        6.5740     2.5070     0.1050 C.ar  1 <1>  -0.1500 
 16 C        8.7970     1.1920     0.7250 C.ar  1 <1>   0.7710 
 17 C        7.8260     3.1010     0.0400 C.ar  1 <1>   0.4100 
 18 N        8.9360     2.4320     0.3540 N.ar  1 <1>  -0.6200 
 19 N        9.9150     0.5330     1.0460 N.pl3 1 <1>  -0.9000 
 20 N        7.9450     4.3960    -0.3520 N.pl3 1 <1>  -0.6690 
 21 C        9.1860     5.1800    -0.4700 C.3   1 <1>   0.0690 
 22 C        9.1120     6.6390    -0.1710 C.3   1 <1>  -0.2000 
 23 C        9.2770     6.1670    -1.5840 C.3   1 <1>  -0.2000 
 24 H        0.8190     1.1040    -1.6140 H     1 <1>   0.4000 
 25 H        2.7290     0.0160     1.7420 H     1 <1>   0.0800 
 26 H        0.8020    -1.7060     0.3610 H     1 <1>   0.0800 
 27 H        0.0070    -0.9540    -0.9730 H     1 <1>   0.0800 
 28 H       -0.4460     1.0380     0.3600 H     1 <1>   0.0800 
 29 H        0.3090     0.3510     1.7500 H     1 <1>   0.0800 
 30 H        3.2750    -2.0580     0.9180 H     1 <1>   0.0800 
 31 H        3.8240     1.9670     1.1440 H     1 <1>   0.0800 
 32 H        3.8880     1.5490    -0.5580 H     1 <1>   0.0800 
 33 H        1.6970    -2.8900    -1.4050 H     1 <1>   0.0800 
 34 H        1.7170    -1.5260    -2.4750 H     1 <1>   0.0800 
 35 H        1.1100     3.0190     0.5450 H     1 <1>   0.0800 
 36 H        1.7260     2.3340     2.0350 H     1 <1>   0.0800 
 37 H        0.0580     2.8100     1.9180 H     1 <1>   0.0800 
 38 H        3.7560    -0.7850    -1.7780 H     1 <1>   0.0800 
 39 H        3.9680    -2.4760    -1.4330 H     1 <1>   0.0800 
 40 H        5.7490    -1.4670    -0.0630 H     1 <1>   0.0800 
 41 H        5.3110    -1.3300     1.6390 H     1 <1>   0.0800 
 42 H        7.5670    -0.3810     1.1300 H     1 <1>   0.4570 
 43 H        5.7090     3.0820    -0.1570 H     1 <1>   0.1500 
 44 H       10.0240    -0.4360     1.3460 H     1 <1>   0.4000 
 45 H       10.7970     1.0520     0.9770 H     1 <1>   0.4000 
 46 H        7.1140     4.9300    -0.6160 H     1 <1>   0.4000 
 47 H       10.0760     4.6420    -0.1860 H     1 <1>   0.1000 
 48 H        8.1720     7.0640     0.1340 H     1 <1>   0.1000 
 49 H        9.9530     7.1100     0.3080 H     1 <1>   0.1000 
 50 H       10.2290     6.3190    -2.0610 H     1 <1>   0.1000 
 51 H        8.4520     6.2600    -2.2680 H     1 <1>   0.1000 
@<TRIPOS>BOND
  1   1   2  1   
  2   1  24  1   
  3   2   3  1   
  4   2   4  1   
  5   2   5  1   
  6   3   6  1   
  7   3   7  1   
  8   3  25  1   
  9   4   8  1   
 10   4  26  1   
 11   4  27  1   
 12   5   9  1   
 13   5  28  1   
 14   5  29  1   
 15   6  10  1   
 16   6  11  1   
 17   6  30  1   
 18   7  12  1   
 19   7  31  1   
 20   7  32  1   
 21   8  10  1   
 22   8  33  1   
 23   8  34  1   
 24   9  35  1   
 25   9  36  1   
 26   9  37  1   
 27  10  38  1   
 28  10  39  1   
 29  11  12  1   
 30  11  40  1   
 31  11  41  1   
 32  12  13  1   
 33  13  14  ar  
 34  13  15  ar  
 35  14  16  ar  
 36  14  42  1   
 37  15  17  ar  
 38  15  43  1   
 39  16  18  ar  
 40  16  19  1   
 41  17  18  ar  
 42  17  20  1   
 43  19  44  1   
 44  19  45  1   
 45  20  21  1   
 46  20  46  1   
 47  21  22  1   
 48  21  23  1   
 49  21  47  1   
 50  22  23  1   
 51  22  48  1   
 52  22  49  1   
 53  23  50  1   
 54  23  51  1   
@<TRIPOS>SUBSTRUCTURE
  1 ****  12 GROUP 4 **** **** 0

# MOE 2024.06 (io_trps.svl 2023.06)
