@<TRIPOS>MOLECULE
NONAME
49 51 1 0 0 
SMALL
USER_CHARGES


@<TRIPOS>ATOM
  1 O       -0.7790     0.8530     0.6710 O.2   1 <1>  -0.5700 
  2 C       -0.5940     2.0330     0.4860 C.2   1 <1>   0.5690 
  3 N       -1.4950     2.9880     0.8730 N.am  1 <1>  -0.6600 
  4 C        0.6910     2.4580    -0.2260 C.3   1 <1>   0.1810 
  5 C       -1.2560     4.4420     0.5930 C.3   1 <1>   0.3640 
  6 C       -2.7220     2.6590     1.6550 C.3   1 <1>   0.0600 
  7 O        1.0540     3.7870     0.0600 O.3   1 <1>  -0.5600 
  8 C       -2.4860     5.0940    -0.0610 C.ar  1 <1>  -0.1430 
  9 C        0.0330     4.7330    -0.2200 C.3   1 <1>   0.2610 
 10 C       -3.1360     4.6050    -1.1990 C.ar  1 <1>  -0.1430 
 11 C       -2.9670     6.2530     0.5380 C.ar  1 <1>  -0.1500 
 12 C        0.5250     6.1470     0.1010 C.2   1 <1>   0.5690 
 13 C       -4.2400     5.2830    -1.6970 C.ar  1 <1>  -0.1500 
 14 C       -2.7130     3.3410    -1.9410 C.3   1 <1>  -0.0960 
 15 C       -4.0660     6.9190     0.0330 C.ar  1 <1>  -0.1500 
 16 O        0.0150     7.1010    -0.4390 O.2   1 <1>  -0.5700 
 17 N        1.5430     6.3110     0.9910 N.am  1 <1>  -0.7300 
 18 C       -4.7050     6.4330    -1.0890 C.ar  1 <1>  -0.1500 
 19 C        2.0870     7.6220     1.4140 C.3   1 <1>   0.1400 
 20 C        3.0480     8.1690     0.3550 C.3   1 <1>   0.0200 
 21 C        3.0980     9.6820     0.4390 C.2   1 <1>   0.0060 
 22 N        4.0270    10.3430     1.0380 N.2   1 <1>  -0.3380 
 23 N        2.1760    10.4940    -0.0910 N.pl3 1 <1>   0.0480 
 24 N        3.7290    11.6370     0.9120 N.2   1 <1>  -0.3380 
 25 C        2.6310    11.7030     0.2410 C.2   1 <1>   0.0360 
 26 C        0.9480    10.1610    -0.8420 C.3   1 <1>   0.0160 
 27 H        0.5680     2.3540    -1.2890 H     1 <1>   0.0800 
 28 H        1.4980     1.8230     0.0930 H     1 <1>   0.0800 
 29 H       -1.1150     4.9040     1.5540 H     1 <1>   0.0800 
 30 H       -2.7440     3.2350     2.5630 H     1 <1>   0.0800 
 31 H       -2.7410     1.6130     1.9120 H     1 <1>   0.0800 
 32 H       -3.6000     2.8840     1.0750 H     1 <1>   0.0800 
 33 H       -0.1750     4.6930    -1.2720 H     1 <1>   0.0800 
 34 H       -2.4840     6.6580     1.4100 H     1 <1>   0.1500 
 35 H       -4.7530     4.9180    -2.5690 H     1 <1>   0.1500 
 36 H       -3.1960     3.2780    -2.8990 H     1 <1>   0.0800 
 37 H       -2.9930     2.4710    -1.3740 H     1 <1>   0.0800 
 38 H       -1.6560     3.3220    -2.1120 H     1 <1>   0.0800 
 39 H       -4.4230     7.8160     0.5100 H     1 <1>   0.1500 
 40 H        2.0330     5.4680     1.3110 H     1 <1>   0.3700 
 41 H       -5.5620     6.9460    -1.4880 H     1 <1>   0.1500 
 42 H        1.2650     8.3060     1.5420 H     1 <1>   0.0800 
 43 H        2.5910     7.5310     2.3610 H     1 <1>   0.0800 
 44 H        2.7280     7.8860    -0.6310 H     1 <1>   0.0800 
 45 H        4.0310     7.7670     0.5210 H     1 <1>   0.0800 
 46 H        2.1310    12.6150    -0.0250 H     1 <1>   0.1500 
 47 H        0.5520    11.0470    -1.3030 H     1 <1>   0.0800 
 48 H        0.2170     9.7520    -0.1680 H     1 <1>   0.0800 
 49 H        1.1740     9.4350    -1.6010 H     1 <1>   0.0800 
@<TRIPOS>BOND
  1   1   2  2   
  2   2   3  am  
  3   2   4  1   
  4   3   5  1   
  5   3   6  1   
  6   4   7  1   
  7   4  27  1   
  8   4  28  1   
  9   5   8  1   
 10   5   9  1   
 11   5  29  1   
 12   6  30  1   
 13   6  31  1   
 14   6  32  1   
 15   7   9  1   
 16   8  10  ar  
 17   8  11  ar  
 18   9  12  1   
 19   9  33  1   
 20  10  13  ar  
 21  10  14  1   
 22  11  15  ar  
 23  11  34  1   
 24  12  16  2   
 25  12  17  am  
 26  13  18  ar  
 27  13  35  1   
 28  14  36  1   
 29  14  37  1   
 30  14  38  1   
 31  15  18  ar  
 32  15  39  1   
 33  17  19  1   
 34  17  40  1   
 35  18  41  1   
 36  19  20  1   
 37  19  42  1   
 38  19  43  1   
 39  20  21  1   
 40  20  44  1   
 41  20  45  1   
 42  21  22  2   
 43  21  23  1   
 44  22  24  1   
 45  23  25  1   
 46  23  26  1   
 47  24  25  2   
 48  25  46  1   
 49  26  47  1   
 50  26  48  1   
 51  26  49  1   
@<TRIPOS>SUBSTRUCTURE
  1 ****  12 GROUP 4 **** **** 0

# MOE 2024.06 (io_trps.svl 2023.06)
