@<TRIPOS>MOLECULE
NONAME
37 38 1 0 0 
SMALL
USER_CHARGES


@<TRIPOS>ATOM
  1 O        1.1940    -1.0790     1.3800 O.co2 1 <1>  -0.9000 
  2 C        2.0890    -1.0050     0.5420 C.2   1 <1>   0.9060 
  3 O        2.5310    -1.9760    -0.0850 O.co2 1 <1>  -0.9000 
  4 C        2.7070     0.3480     0.2700 C.3   1 <1>  -0.1860 
  5 C        4.2270     0.2650     0.4440 C.3   1 <1>   0.2000 
  6 C        2.3050     0.9100    -1.1190 C.3   1 <1>  -0.1600 
  7 O        4.7270    -0.6200    -0.4970 O.3   1 <1>  -0.6800 
  8 C        4.8780     1.6420     0.2090 C.3   1 <1>   0.3430 
  9 C        3.4480     1.6310    -1.8390 C.3   1 <1>   0.3430 
 10 N        4.2000     2.4720    -0.8660 N.4   1 <1>  -0.9590 
 11 C        5.1740     3.3570    -1.5460 C.3   1 <1>   0.4860 
 12 C        5.7400     4.3290    -0.5300 C.ar  1 <1>  -0.1440 
 13 C        7.0170     4.1390    -0.0210 C.ar  1 <1>  -0.1500 
 14 C        4.9860     5.4110    -0.0980 C.ar  1 <1>  -0.1500 
 15 C        7.5370     5.0130     0.9190 C.ar  1 <1>  -0.1440 
 16 C        5.5020     6.2850     0.8410 C.ar  1 <1>  -0.1500 
 17 C        6.7730     6.0840     1.3490 C.ar  1 <1>  -0.1500 
 18 C        8.9340     4.8090     1.4790 C.3   1 <1>  -0.0970 
 19 H        2.3290     1.0110     1.0270 H     1 <1>   0.0800 
 20 H        4.4830    -0.1210     1.4170 H     1 <1>   0.0800 
 21 H        1.4580     1.5640    -1.0100 H     1 <1>   0.0800 
 22 H        1.9890     0.0970    -1.7510 H     1 <1>   0.0800 
 23 H        4.0900    -1.4020    -0.4970 H     1 <1>   0.4000 
 24 H        5.9100     1.4730    -0.0450 H     1 <1>   0.0800 
 25 H        4.8560     2.1950     1.1330 H     1 <1>   0.0800 
 26 H        3.0480     2.2320    -2.6400 H     1 <1>   0.0800 
 27 H        4.1130     0.8950    -2.2640 H     1 <1>   0.0800 
 28 H        3.5170     3.0650    -0.3840 H     1 <1>   0.4500 
 29 H        5.9680     2.7700    -1.9780 H     1 <1>   0.0800 
 30 H        4.6880     3.9090    -2.3340 H     1 <1>   0.0800 
 31 H        7.6190     3.3100    -0.3530 H     1 <1>   0.1500 
 32 H        3.9970     5.5890    -0.4840 H     1 <1>   0.1500 
 33 H        4.9200     7.1270     1.1780 H     1 <1>   0.1500 
 34 H        7.1660     6.7700     2.0800 H     1 <1>   0.1500 
 35 H        9.4250     5.7580     1.6060 H     1 <1>   0.0800 
 36 H        9.5300     4.2090     0.8150 H     1 <1>   0.0800 
 37 H        8.8790     4.3200     2.4340 H     1 <1>   0.0800 
@<TRIPOS>BOND
  1   1   2  ar  
  2   2   3  ar  
  3   2   4  1   
  4   4   5  1   
  5   4   6  1   
  6   4  19  1   
  7   5   7  1   
  8   5   8  1   
  9   5  20  1   
 10   6   9  1   
 11   6  21  1   
 12   6  22  1   
 13   7  23  1   
 14   8  10  1   
 15   8  24  1   
 16   8  25  1   
 17   9  10  1   
 18   9  26  1   
 19   9  27  1   
 20  10  11  1   
 21  10  28  1   
 22  11  12  1   
 23  11  29  1   
 24  11  30  1   
 25  12  13  ar  
 26  12  14  ar  
 27  13  15  ar  
 28  13  31  1   
 29  14  16  ar  
 30  14  32  1   
 31  15  17  ar  
 32  15  18  1   
 33  16  17  ar  
 34  16  33  1   
 35  17  34  1   
 36  18  35  1   
 37  18  36  1   
 38  18  37  1   
@<TRIPOS>SUBSTRUCTURE
  1 ****   8 GROUP 4 **** **** 0

# MOE 2024.06 (io_trps.svl 2023.06)
