@<TRIPOS>MOLECULE
NONAME
46 49 1 0 0 
SMALL
USER_CHARGES


@<TRIPOS>ATOM
  1 O        0.8450     0.0780     1.3020 O.3   1 <1>  -0.3630 
  2 C        1.4990    -0.7040     0.4090 C.ar  1 <1>   0.0820 
  3 C        0.0620     1.1080     0.7410 C.3   1 <1>   0.1200 
  4 C        0.8390    -1.7390    -0.2580 C.ar  1 <1>   0.0820 
  5 C        2.8380    -0.4340     0.1640 C.ar  1 <1>  -0.1440 
  6 C        0.9140     2.0890    -0.0860 C.3   1 <1>  -0.1600 
  7 O       -0.4750    -1.9660     0.0340 O.3   1 <1>  -0.3620 
  8 C        1.5430    -2.4910    -1.1950 C.ar  1 <1>  -0.1500 
  9 C        3.5180    -1.1890    -0.7790 C.ar  1 <1>  -0.1500 
 10 C        3.5520     0.6700     0.9290 C.3   1 <1>   0.2530 
 11 C        2.1290     2.6590     0.6580 C.3   1 <1>   0.1100 
 12 C       -1.1690    -3.0670    -0.5060 C.3   1 <1>   0.0400 
 13 C        2.8750    -2.2120    -1.4530 C.ar  1 <1>  -0.1500 
 14 N        3.3920     1.9870     0.2760 N.3   1 <1>  -0.8100 
 15 C        4.5680     2.8490     0.5570 C.3   1 <1>   0.2900 
 16 C        4.6540     4.1520    -0.2470 C.2   1 <1>   0.2980 
 17 O        5.4080     5.1010     0.2300 O.3   1 <1>  -0.2800 
 18 N        4.0790     4.4370    -1.3510 N.2   1 <1>  -0.3380 
 19 C        5.2450     6.0240    -0.6900 C.2   1 <1>   0.4250 
 20 N        4.4590     5.6590    -1.6420 N.2   1 <1>  -0.3380 
 21 C        5.9180     7.2970    -0.5670 C.ar  1 <1>   0.0530 
 22 C        6.7460     7.5830     0.5200 C.ar  1 <1>   0.1600 
 23 C        5.7740     8.2970    -1.5210 C.ar  1 <1>  -0.1500 
 24 N        7.4020     8.7150     0.7230 N.ar  1 <1>  -0.6200 
 25 C        6.4470     9.4830    -1.3310 C.ar  1 <1>  -0.1500 
 26 C        7.2390     9.6410    -0.2070 C.ar  1 <1>   0.1600 
 27 H       -0.4120     1.6220     1.5570 H     1 <1>   0.0800 
 28 H       -0.6990     0.6570     0.1280 H     1 <1>   0.0800 
 29 H        0.2730     2.9100    -0.3500 H     1 <1>   0.0800 
 30 H        1.2240     1.6360    -1.0110 H     1 <1>   0.0800 
 31 H        1.0770    -3.2920    -1.7340 H     1 <1>   0.1500 
 32 H        4.5510    -0.9790    -0.9920 H     1 <1>   0.1500 
 33 H        4.5950     0.4060     0.9700 H     1 <1>   0.0800 
 34 H        3.1950     0.7100     1.9440 H     1 <1>   0.0800 
 35 H        1.9790     2.6090     1.7240 H     1 <1>   0.0800 
 36 H        2.1890     3.7010     0.3930 H     1 <1>   0.0800 
 37 H       -2.1620    -3.0690    -0.0940 H     1 <1>   0.0800 
 38 H       -0.6570    -3.9720    -0.2290 H     1 <1>   0.0800 
 39 H       -1.2160    -2.9600    -1.5750 H     1 <1>   0.0800 
 40 H        3.4130    -2.7900    -2.1840 H     1 <1>   0.1500 
 41 H        5.4650     2.2970     0.3410 H     1 <1>   0.0800 
 42 H        4.5770     3.0950     1.6040 H     1 <1>   0.0800 
 43 H        6.8750     6.8260     1.2740 H     1 <1>   0.1500 
 44 H        5.1510     8.1470    -2.3880 H     1 <1>   0.1500 
 45 H        6.3630    10.2820    -2.0460 H     1 <1>   0.1500 
 46 H        7.7620    10.5720    -0.0660 H     1 <1>   0.1500 
@<TRIPOS>BOND
  1   1   2  1   
  2   1   3  1   
  3   2   4  ar  
  4   2   5  ar  
  5   3   6  1   
  6   3  27  1   
  7   3  28  1   
  8   4   7  1   
  9   4   8  ar  
 10   5   9  ar  
 11   5  10  1   
 12   6  11  1   
 13   6  29  1   
 14   6  30  1   
 15   7  12  1   
 16   8  13  ar  
 17   8  31  1   
 18   9  13  ar  
 19   9  32  1   
 20  10  14  1   
 21  10  33  1   
 22  10  34  1   
 23  11  14  1   
 24  11  35  1   
 25  11  36  1   
 26  12  37  1   
 27  12  38  1   
 28  12  39  1   
 29  13  40  1   
 30  14  15  1   
 31  15  16  1   
 32  15  41  1   
 33  15  42  1   
 34  16  17  1   
 35  16  18  2   
 36  17  19  1   
 37  18  20  1   
 38  19  20  2   
 39  19  21  1   
 40  21  22  ar  
 41  21  23  ar  
 42  22  24  ar  
 43  22  43  1   
 44  23  25  ar  
 45  23  44  1   
 46  24  26  ar  
 47  25  26  ar  
 48  25  45  1   
 49  26  46  1   
@<TRIPOS>SUBSTRUCTURE
  1 ****  14 GROUP 4 **** **** 0

# MOE 2024.06 (io_trps.svl 2023.06)
