@<TRIPOS>MOLECULE
NONAME
55 58 1 0 0 
SMALL
USER_CHARGES


@<TRIPOS>ATOM
  1 O        2.5060    -0.5720    -1.6680 O.2   1 <1>  -0.5700 
  2 C        1.6600    -1.0940    -0.9570 C.2   1 <1>   0.5440 
  3 N        0.7050    -0.2590    -0.3840 N.am  1 <1>  -0.6600 
  4 C        1.7230    -2.5450    -0.7330 C.ar  1 <1>   0.3960 
  5 C        0.5440     1.1620    -0.8010 C.3   1 <1>   0.0600 
  6 C       -0.2260    -0.6970     0.6920 C.3   1 <1>   0.0600 
  7 N        0.5940    -3.2620    -0.6010 N.ar  1 <1>  -0.6200 
  8 C        2.9780    -3.1520    -0.6700 C.ar  1 <1>  -0.1500 
  9 C        0.7150    -4.5640    -0.3980 C.ar  1 <1>   0.4100 
 10 C        3.1060    -4.5080    -0.4650 C.ar  1 <1>  -0.1500 
 11 N       -0.4470    -5.2900    -0.2440 N.pl3 1 <1>  -0.8380 
 12 C        1.9400    -5.2180    -0.3280 C.ar  1 <1>  -0.1500 
 13 C       -1.6760    -4.8570    -0.9590 C.3   1 <1>   0.2090 
 14 C       -0.7310    -5.8800     1.0880 C.3   1 <1>   0.2090 
 15 C       -2.5760    -6.0710    -1.1820 C.3   1 <1>  -0.1600 
 16 C       -1.6110    -7.1170     0.9080 C.3   1 <1>  -0.1600 
 17 C       -2.9040    -6.7920     0.1410 C.3   1 <1>   0.4240 
 18 O       -3.5570    -5.8520     0.9700 O.3   1 <1>  -0.5600 
 19 C       -3.7770    -8.0640    -0.0730 C.ar  1 <1>  -0.1430 
 20 C       -4.9240    -5.6740     0.8010 C.3   1 <1>   0.1200 
 21 C       -3.3200    -9.1690    -0.8050 C.ar  1 <1>   0.0830 
 22 C       -5.0600    -8.1250     0.4710 C.ar  1 <1>  -0.1430 
 23 C       -5.6210    -6.9500     1.2450 C.3   1 <1>  -0.0170 
 24 O       -2.0830    -9.1220    -1.3670 O.3   1 <1>  -0.3630 
 25 C       -4.1290   -10.2950    -0.9560 C.ar  1 <1>  -0.1500 
 26 C       -5.8540    -9.2490     0.3150 C.ar  1 <1>  -0.1500 
 27 C       -1.5560   -10.1660    -2.1540 C.3   1 <1>   0.0400 
 28 C       -5.3890   -10.3350    -0.3960 C.ar  1 <1>  -0.1500 
 29 H        1.0830     1.3580    -1.7110 H     1 <1>   0.0800 
 30 H        0.9200     1.8090    -0.0290 H     1 <1>   0.0800 
 31 H       -0.4970     1.3760    -0.9700 H     1 <1>   0.0800 
 32 H        0.2300    -1.4620     1.2950 H     1 <1>   0.0800 
 33 H       -1.1250    -1.0900     0.2510 H     1 <1>   0.0800 
 34 H       -0.4760     0.1340     1.3290 H     1 <1>   0.0800 
 35 H        3.8570    -2.5440    -0.7890 H     1 <1>   0.1500 
 36 H        4.0710    -4.9840    -0.4180 H     1 <1>   0.1500 
 37 H        1.9500    -6.2790    -0.1740 H     1 <1>   0.1500 
 38 H       -1.4090    -4.4230    -1.9080 H     1 <1>   0.0800 
 39 H       -2.1860    -4.1100    -0.3750 H     1 <1>   0.0800 
 40 H       -1.2350    -5.1510     1.6990 H     1 <1>   0.0800 
 41 H        0.1870    -6.1540     1.5780 H     1 <1>   0.0800 
 42 H       -2.0570    -6.7330    -1.8460 H     1 <1>   0.0800 
 43 H       -3.4790    -5.7760    -1.6790 H     1 <1>   0.0800 
 44 H       -1.8650    -7.5290     1.8660 H     1 <1>   0.0800 
 45 H       -1.0300    -7.8510     0.3870 H     1 <1>   0.0800 
 46 H       -5.1330    -5.4520    -0.2300 H     1 <1>   0.0800 
 47 H       -5.2280    -4.8440     1.4130 H     1 <1>   0.0800 
 48 H       -6.6770    -6.8540     1.0680 H     1 <1>   0.0800 
 49 H       -5.4640    -7.0990     2.2980 H     1 <1>   0.0800 
 50 H       -3.7980   -11.1540    -1.5060 H     1 <1>   0.1500 
 51 H       -6.8390    -9.2830     0.7470 H     1 <1>   0.1500 
 52 H       -0.5790    -9.8700    -2.4890 H     1 <1>   0.0800 
 53 H       -2.2000   -10.3240    -3.0010 H     1 <1>   0.0800 
 54 H       -1.4820   -11.0540    -1.5520 H     1 <1>   0.0800 
 55 H       -6.0070   -11.2070    -0.5150 H     1 <1>   0.1500 
@<TRIPOS>BOND
  1   1   2  2   
  2   2   3  am  
  3   2   4  1   
  4   3   5  1   
  5   3   6  1   
  6   4   7  ar  
  7   4   8  ar  
  8   5  29  1   
  9   5  30  1   
 10   5  31  1   
 11   6  32  1   
 12   6  33  1   
 13   6  34  1   
 14   7   9  ar  
 15   8  10  ar  
 16   8  35  1   
 17   9  11  1   
 18   9  12  ar  
 19  10  12  ar  
 20  10  36  1   
 21  11  13  1   
 22  11  14  1   
 23  12  37  1   
 24  13  15  1   
 25  13  38  1   
 26  13  39  1   
 27  14  16  1   
 28  14  40  1   
 29  14  41  1   
 30  15  17  1   
 31  15  42  1   
 32  15  43  1   
 33  16  17  1   
 34  16  44  1   
 35  16  45  1   
 36  17  18  1   
 37  17  19  1   
 38  18  20  1   
 39  19  21  ar  
 40  19  22  ar  
 41  20  23  1   
 42  20  46  1   
 43  20  47  1   
 44  21  24  1   
 45  21  25  ar  
 46  22  23  1   
 47  22  26  ar  
 48  23  48  1   
 49  23  49  1   
 50  24  27  1   
 51  25  28  ar  
 52  25  50  1   
 53  26  28  ar  
 54  26  51  1   
 55  27  52  1   
 56  27  53  1   
 57  27  54  1   
 58  28  55  1   
@<TRIPOS>SUBSTRUCTURE
  1 ****  13 GROUP 4 **** **** 0

# MOE 2024.06 (io_trps.svl 2023.06)
