@<TRIPOS>MOLECULE
NONAME
53 55 1 0 0 
SMALL
USER_CHARGES


@<TRIPOS>ATOM
  1 O       -0.8010    -0.3600     0.8890 O.2   1 <1>  -0.5700 
  2 C       -1.4070     0.5840     0.4150 C.2   1 <1>   0.5440 
  3 N       -2.6200     0.3340    -0.1900 N.am  1 <1>  -0.6600 
  4 C       -0.9070     1.9400     0.5760 C.ar  1 <1>   0.0860 
  5 C       -3.0230    -1.0460    -0.5460 C.3   1 <1>   0.1400 
  6 C       -3.7730     1.2420     0.0750 C.3   1 <1>   0.1400 
  7 C       -0.7230     2.8310    -0.4920 C.ar  1 <1>  -0.1440 
  8 C       -0.6150     2.3880     1.8640 C.ar  1 <1>  -0.1500 
  9 C       -4.2210    -1.3470     0.3750 C.3   1 <1>   0.4230 
 10 C       -5.1350     0.6030    -0.3520 C.3   1 <1>  -0.1600 
 11 C       -0.3180     4.1420    -0.2490 C.ar  1 <1>   0.0820 
 12 C       -0.9480     2.3800    -1.9380 C.3   1 <1>  -0.0960 
 13 C       -0.1940     3.6790     2.1040 C.ar  1 <1>  -0.1500 
 14 N       -3.9930    -2.5420     1.2630 N.4   1 <1>  -0.9590 
 15 C       -5.5650    -0.9750    -0.3970 C.3   1 <1>   0.0000 
 16 O       -0.1980     4.9800    -1.3140 O.3   1 <1>  -0.3620 
 17 C       -0.0530     4.5610     1.0520 C.ar  1 <1>  -0.1500 
 18 C       -4.1280    -3.7800     0.5200 C.3   1 <1>   0.3430 
 19 C       -2.6990    -2.4650     2.0220 C.3   1 <1>   0.2630 
 20 C       -6.0530    -2.5160    -0.5510 C.3   1 <1>  -0.1600 
 21 C       -6.9300    -0.5170    -1.1230 C.3   1 <1>   0.1200 
 22 C        0.2810     6.3000    -1.1820 C.3   1 <1>   0.0400 
 23 C       -5.5920    -3.7830     0.2000 C.3   1 <1>  -0.1600 
 24 O       -7.9010    -0.3340    -0.1400 O.3   1 <1>  -0.6800 
 25 H       -3.3210    -1.0690    -1.5790 H     1 <1>   0.0800 
 26 H       -2.2110    -1.7380    -0.4260 H     1 <1>   0.0800 
 27 H       -3.7990     1.4660     1.1300 H     1 <1>   0.0800 
 28 H       -3.6230     2.1750    -0.4440 H     1 <1>   0.0800 
 29 H       -0.7210     1.7060     2.6890 H     1 <1>   0.1500 
 30 H       -4.1770    -0.5970     1.1420 H     1 <1>   0.0800 
 31 H       -5.8750     1.1690     0.1950 H     1 <1>   0.0800 
 32 H       -5.1390     0.9710    -1.3670 H     1 <1>   0.0800 
 33 H       -0.8150     1.3190    -2.0490 H     1 <1>   0.0800 
 34 H       -0.2430     2.8530    -2.5980 H     1 <1>   0.0800 
 35 H       -1.9400     2.6450    -2.2550 H     1 <1>   0.0800 
 36 H        0.0230     4.0000     3.1090 H     1 <1>   0.1500 
 37 H       -4.7620    -2.5230     1.9470 H     1 <1>   0.4500 
 38 H        0.2670     5.5630     1.2660 H     1 <1>   0.1500 
 39 H       -3.5250    -3.7700    -0.3730 H     1 <1>   0.0800 
 40 H       -3.8710    -4.6320     1.1300 H     1 <1>   0.0800 
 41 H       -1.8560    -2.5570     1.3560 H     1 <1>   0.0800 
 42 H       -2.6430    -3.2540     2.7540 H     1 <1>   0.0800 
 43 H       -2.6180    -1.5170     2.5290 H     1 <1>   0.0800 
 44 H       -7.1190    -2.6280    -0.4010 H     1 <1>   0.0800 
 45 H       -5.8730    -2.7590    -1.5870 H     1 <1>   0.0800 
 46 H       -7.3270    -1.2140    -1.8460 H     1 <1>   0.0800 
 47 H       -6.9300     0.3950    -1.6970 H     1 <1>   0.0800 
 48 H        0.3150     6.7420    -2.1610 H     1 <1>   0.0800 
 49 H        1.2700     6.2720    -0.7600 H     1 <1>   0.0800 
 50 H       -0.3930     6.8560    -0.5540 H     1 <1>   0.0800 
 51 H       -5.8170    -4.6530    -0.3940 H     1 <1>   0.0800 
 52 H       -6.1500    -3.8860     1.1160 H     1 <1>   0.0800 
 53 H       -8.7570    -0.0650    -0.5330 H     1 <1>   0.4000 
@<TRIPOS>BOND
  1   1   2  2   
  2   2   3  am  
  3   2   4  1   
  4   3   5  1   
  5   3   6  1   
  6   4   7  ar  
  7   4   8  ar  
  8   5   9  1   
  9   5  25  1   
 10   5  26  1   
 11   6  10  1   
 12   6  27  1   
 13   6  28  1   
 14   7  11  ar  
 15   7  12  1   
 16   8  13  ar  
 17   8  29  1   
 18   9  14  1   
 19   9  15  1   
 20   9  30  1   
 21  10  15  1   
 22  10  31  1   
 23  10  32  1   
 24  11  16  1   
 25  11  17  ar  
 26  12  33  1   
 27  12  34  1   
 28  12  35  1   
 29  13  17  ar  
 30  13  36  1   
 31  14  18  1   
 32  14  19  1   
 33  14  37  1   
 34  15  20  1   
 35  15  21  1   
 36  16  22  1   
 37  17  38  1   
 38  18  23  1   
 39  18  39  1   
 40  18  40  1   
 41  19  41  1   
 42  19  42  1   
 43  19  43  1   
 44  20  23  1   
 45  20  44  1   
 46  20  45  1   
 47  21  24  1   
 48  21  46  1   
 49  21  47  1   
 50  22  48  1   
 51  22  49  1   
 52  22  50  1   
 53  23  51  1   
 54  23  52  1   
 55  24  53  1   
@<TRIPOS>SUBSTRUCTURE
  1 ****   3 GROUP 4 **** **** 0

# MOE 2024.06 (io_trps.svl 2023.06)
