@<TRIPOS>MOLECULE
NONAME
44 45 1 0 0 
SMALL
USER_CHARGES


@<TRIPOS>ATOM
  1 O        0.2400    -1.1600    -1.5670 O.2   1 <1>  -0.5700 
  2 C        1.2940    -1.3170    -1.0030 C.2   1 <1>   0.5690 
  3 N        1.4800    -2.2750    -0.0580 N.am  1 <1>  -0.7300 
  4 C        2.4530    -0.4100    -1.3590 C.3   1 <1>  -0.0990 
  5 C        0.4460    -3.2380     0.3960 C.3   1 <1>   0.0600 
  6 C        2.3340     0.9680    -0.6860 C.3   1 <1>  -0.0800 
  7 C        3.4730     1.9150    -1.0650 C.3   1 <1>   0.2090 
  8 C        2.3870     0.9080     0.8390 C.3   1 <1>  -0.1600 
  9 N        3.7380     2.7400     0.1380 N.pl3 1 <1>  -0.8380 
 10 C        2.8720     2.2890     1.2510 C.3   1 <1>   0.2090 
 11 C        5.0550     3.0150     0.4310 C.ar  1 <1>   0.4100 
 12 N        5.7890     2.0090     0.8620 N.ar  1 <1>  -0.6200 
 13 C        5.5810     4.2910     0.2750 C.ar  1 <1>  -0.1430 
 14 C        7.0450     2.2910     1.1350 C.ar  1 <1>   0.4770 
 15 C        6.9080     4.4460     0.5930 C.ar  1 <1>   0.1600 
 16 C        4.6820     5.4240    -0.2280 C.3   1 <1>  -0.0170 
 17 N        7.6590     3.4530     1.0260 N.ar  1 <1>  -0.6200 
 18 C        7.8920     1.1430     1.6270 C.3   1 <1>  -0.0970 
 19 C        5.3610     6.7970    -0.3490 C.3   1 <1>  -0.1600 
 20 C        4.3800     7.8610    -0.8540 C.3   1 <1>  -0.2400 
 21 H        2.3920    -2.3530     0.3960 H     1 <1>   0.3700 
 22 H        2.4560    -0.2840    -2.4270 H     1 <1>   0.0800 
 23 H        3.3780    -0.8790    -1.0810 H     1 <1>   0.0800 
 24 H       -0.4770    -3.0750    -0.1370 H     1 <1>   0.0800 
 25 H        0.2650    -3.1090     1.4490 H     1 <1>   0.0800 
 26 H        0.7780    -4.2450     0.2120 H     1 <1>   0.0800 
 27 H        1.4070     1.4290    -0.9840 H     1 <1>   0.0800 
 28 H        3.1940     2.5420    -1.8940 H     1 <1>   0.0800 
 29 H        4.3600     1.3600    -1.3240 H     1 <1>   0.0800 
 30 H        3.1160     0.1870     1.1640 H     1 <1>   0.0800 
 31 H        1.4330     0.6730     1.2760 H     1 <1>   0.0800 
 32 H        3.4100     2.2560     2.1840 H     1 <1>   0.0800 
 33 H        2.0410     2.9680     1.3420 H     1 <1>   0.0800 
 34 H        7.3910     5.4020     0.4990 H     1 <1>   0.1500 
 35 H        3.8440     5.5080     0.4420 H     1 <1>   0.0800 
 36 H        4.2940     5.1410    -1.1910 H     1 <1>   0.0800 
 37 H        7.2730     0.3920     2.0810 H     1 <1>   0.0800 
 38 H        8.6000     1.4960     2.3530 H     1 <1>   0.0800 
 39 H        8.4210     0.7130     0.7980 H     1 <1>   0.0800 
 40 H        6.1880     6.7320    -1.0350 H     1 <1>   0.0800 
 41 H        5.7370     7.0990     0.6140 H     1 <1>   0.0800 
 42 H        4.0020     7.5940    -1.8260 H     1 <1>   0.0800 
 43 H        4.8760     8.8120    -0.9300 H     1 <1>   0.0800 
 44 H        3.5510     7.9620    -0.1750 H     1 <1>   0.0800 
@<TRIPOS>BOND
  1   1   2  2   
  2   2   3  am  
  3   2   4  1   
  4   3   5  1   
  5   3  21  1   
  6   4   6  1   
  7   4  22  1   
  8   4  23  1   
  9   5  24  1   
 10   5  25  1   
 11   5  26  1   
 12   6   7  1   
 13   6   8  1   
 14   6  27  1   
 15   7   9  1   
 16   7  28  1   
 17   7  29  1   
 18   8  10  1   
 19   8  30  1   
 20   8  31  1   
 21   9  10  1   
 22   9  11  1   
 23  10  32  1   
 24  10  33  1   
 25  11  12  ar  
 26  11  13  ar  
 27  12  14  ar  
 28  13  15  ar  
 29  13  16  1   
 30  14  17  ar  
 31  14  18  1   
 32  15  17  ar  
 33  15  34  1   
 34  16  19  1   
 35  16  35  1   
 36  16  36  1   
 37  18  37  1   
 38  18  38  1   
 39  18  39  1   
 40  19  20  1   
 41  19  40  1   
 42  19  41  1   
 43  20  42  1   
 44  20  43  1   
 45  20  44  1   
@<TRIPOS>SUBSTRUCTURE
  1 ****   9 GROUP 4 **** **** 0

# MOE 2024.06 (io_trps.svl 2023.06)
