@<TRIPOS>MOLECULE
NONAME
52 54 1 0 0 
SMALL
USER_CHARGES


@<TRIPOS>ATOM
  1 O        1.2890    -0.4660    -2.3880 O.2   1 <1>  -0.5700 
  2 C        1.6860    -0.9030    -1.3360 C.2   1 <1>   0.5690 
  3 N        2.2670    -0.0680    -0.4190 N.am  1 <1>  -0.6600 
  4 C        1.4930    -2.3800    -1.0670 C.3   1 <1>  -0.0990 
  5 C        2.7890    -0.4240     0.9260 C.3   1 <1>   0.1400 
  6 C        2.0960     1.4030    -0.5300 C.3   1 <1>   0.1400 
  7 C        0.0340    -2.6670    -0.6760 C.3   1 <1>   0.2070 
  8 C        2.8610     0.8990     1.7000 C.3   1 <1>   0.2000 
  9 C        2.8810     2.0200     0.6370 C.3   1 <1>   0.4230 
 10 C       -0.3470    -1.8700     0.5760 C.ar  1 <1>  -0.1440 
 11 C       -0.2910    -4.1570    -0.4990 C.ar  1 <1>  -0.1440 
 12 O        1.7130     1.0510     2.4690 O.3   1 <1>  -0.6800 
 13 N        4.2700     2.4780     0.2180 N.4   1 <1>  -0.9590 
 14 C       -0.9520    -0.6270     0.4480 C.ar  1 <1>  -0.1500 
 15 C       -0.0960    -2.3650     1.8490 C.ar  1 <1>  -0.1500 
 16 C        0.6680    -5.1650    -0.4720 C.ar  1 <1>  -0.1500 
 17 C       -1.6260    -4.5130    -0.3550 C.ar  1 <1>  -0.1500 
 18 C        5.1260     1.4020    -0.3830 C.3   1 <1>   0.2630 
 19 C        4.9800     3.1670     1.3430 C.3   1 <1>   0.2630 
 20 C       -1.2920     0.1120     1.5680 C.ar  1 <1>  -0.1500 
 21 C       -0.4330    -1.6270     2.9700 C.ar  1 <1>  -0.1500 
 22 C        0.2980    -6.4890    -0.3070 C.ar  1 <1>  -0.1500 
 23 C       -1.9980    -5.8350    -0.1900 C.ar  1 <1>  -0.1500 
 24 C       -1.0310    -0.3870     2.8310 C.ar  1 <1>  -0.1500 
 25 C       -1.0350    -6.8260    -0.1660 C.ar  1 <1>  -0.1500 
 26 H        1.7270    -2.9160    -1.9680 H     1 <1>   0.0800 
 27 H        2.1580    -2.7150    -0.2960 H     1 <1>   0.0800 
 28 H        2.1630    -1.1370     1.4300 H     1 <1>   0.0800 
 29 H        3.7740    -0.8430     0.8160 H     1 <1>   0.0800 
 30 H        2.4260     1.7640    -1.4890 H     1 <1>   0.0800 
 31 H        1.0490     1.6290    -0.4150 H     1 <1>   0.0800 
 32 H       -0.5820    -2.3220    -1.4900 H     1 <1>   0.0800 
 33 H        3.6990     0.9360     2.3720 H     1 <1>   0.0800 
 34 H        2.3430     2.8720     1.0180 H     1 <1>   0.0800 
 35 H        0.9800     0.4640     2.1600 H     1 <1>   0.4000 
 36 H        4.1240     3.1840    -0.5200 H     1 <1>   0.4500 
 37 H       -1.1650    -0.2280    -0.5310 H     1 <1>   0.1500 
 38 H        0.3560    -3.3350     1.9750 H     1 <1>   0.1500 
 39 H        1.7150    -4.9500    -0.5790 H     1 <1>   0.1500 
 40 H       -2.3880    -3.7530    -0.3660 H     1 <1>   0.1500 
 41 H        5.3650     0.6530     0.3540 H     1 <1>   0.0800 
 42 H        6.0470     1.8200    -0.7560 H     1 <1>   0.0800 
 43 H        4.6120     0.9240    -1.2030 H     1 <1>   0.0800 
 44 H        5.1860     2.4740     2.1430 H     1 <1>   0.0800 
 45 H        4.3750     3.9700     1.7330 H     1 <1>   0.0800 
 46 H        5.9150     3.5800     0.9990 H     1 <1>   0.0800 
 47 H       -1.7690     1.0710     1.4570 H     1 <1>   0.1500 
 48 H       -0.2380    -2.0220     3.9530 H     1 <1>   0.1500 
 49 H        1.0490    -7.2590    -0.2890 H     1 <1>   0.1500 
 50 H       -3.0370    -6.0910    -0.0790 H     1 <1>   0.1500 
 51 H       -1.2990     0.1820     3.7050 H     1 <1>   0.1500 
 52 H       -1.3220    -7.8550    -0.0380 H     1 <1>   0.1500 
@<TRIPOS>BOND
  1   1   2  2   
  2   2   3  am  
  3   2   4  1   
  4   3   5  1   
  5   3   6  1   
  6   4   7  1   
  7   4  26  1   
  8   4  27  1   
  9   5   8  1   
 10   5  28  1   
 11   5  29  1   
 12   6   9  1   
 13   6  30  1   
 14   6  31  1   
 15   7  10  1   
 16   7  11  1   
 17   7  32  1   
 18   8   9  1   
 19   8  12  1   
 20   8  33  1   
 21   9  13  1   
 22   9  34  1   
 23  10  14  ar  
 24  10  15  ar  
 25  11  16  ar  
 26  11  17  ar  
 27  12  35  1   
 28  13  18  1   
 29  13  19  1   
 30  13  36  1   
 31  14  20  ar  
 32  14  37  1   
 33  15  21  ar  
 34  15  38  1   
 35  16  22  ar  
 36  16  39  1   
 37  17  23  ar  
 38  17  40  1   
 39  18  41  1   
 40  18  42  1   
 41  18  43  1   
 42  19  44  1   
 43  19  45  1   
 44  19  46  1   
 45  20  24  ar  
 46  20  47  1   
 47  21  24  ar  
 48  21  48  1   
 49  22  25  ar  
 50  22  49  1   
 51  23  25  ar  
 52  23  50  1   
 53  24  51  1   
 54  25  52  1   
@<TRIPOS>SUBSTRUCTURE
  1 ****  10 GROUP 4 **** **** 0

# MOE 2024.06 (io_trps.svl 2023.06)
