@<TRIPOS>MOLECULE
NONAME
61 64 1 0 0 
SMALL
USER_CHARGES


@<TRIPOS>ATOM
  1 O       -8.1480    -0.6460    -1.1520 O.co2 1 <1>  -0.9000 
  2 C       -7.3030    -0.0500    -0.4640 C.2   1 <1>   0.9060 
  3 O       -7.6550     0.5620     0.5520 O.co2 1 <1>  -0.9000 
  4 C       -5.8180    -0.0870    -0.8650 C.3   1 <1>   0.0140 
  5 O       -5.0110    -1.0610    -0.1750 O.3   1 <1>  -0.3630 
  6 C       -5.6760    -2.2010     0.1100 C.ar  1 <1>   0.0830 
  7 C       -5.9320    -3.1840    -0.8530 C.ar  1 <1>   0.0830 
  8 C       -6.2770    -2.2610     1.3550 C.ar  1 <1>  -0.1500 
  9 O       -5.2730    -3.3300    -2.0360 O.3   1 <1>  -0.3630 
 10 C       -6.9730    -4.0650    -0.6270 C.ar  1 <1>  -0.1500 
 11 C       -7.2980    -3.1620     1.5790 C.ar  1 <1>  -0.1500 
 12 C       -3.9500    -2.8560    -2.1690 C.3   1 <1>   0.0400 
 13 C       -7.7020    -4.0010     0.5520 C.ar  1 <1>  -0.1430 
 14 C       -9.0230    -4.7180     0.6640 C.3   1 <1>   0.4860 
 15 N       -9.9810    -4.0470    -0.2700 N.4   1 <1>  -0.9590 
 16 C      -10.0220    -2.5270    -0.1320 C.3   1 <1>   0.3430 
 17 C      -11.3470    -4.6290    -0.2140 C.3   1 <1>   0.3430 
 18 C      -11.1580    -1.9690     0.7560 C.3   1 <1>   0.1440 
 19 C      -11.9960    -4.3740     1.1580 C.3   1 <1>  -0.1600 
 20 C      -12.2610    -1.4590    -0.1610 C.ar  1 <1>   0.1670 
 21 C      -11.6380    -3.0100     1.7920 C.3   1 <1>  -0.1600 
 22 C      -10.6900    -0.6620     1.4410 C.3   1 <1>  -0.1600 
 23 N      -13.1760    -2.1900    -0.7520 N.ar  1 <1>  -0.6200 
 24 C      -12.1760    -0.1090    -0.3230 C.ar  1 <1>  -0.1430 
 25 C      -11.0420     0.4820     0.4760 C.3   1 <1>  -0.0170 
 26 C      -14.0220    -1.5170    -1.5350 C.ar  1 <1>   0.7200 
 27 C      -13.0840     0.4950    -1.1550 C.ar  1 <1>   0.1600 
 28 N      -14.0130    -0.2020    -1.7680 N.ar  1 <1>  -0.6200 
 29 N      -14.9970    -2.2600    -2.1680 N.pl3 1 <1>  -0.8380 
 30 C      -15.7080    -1.7350    -3.3660 C.3   1 <1>   0.1290 
 31 C      -15.6330    -3.4340    -1.5130 C.3   1 <1>   0.1290 
 32 H       -5.3910     0.8790    -0.6790 H     1 <1>   0.0800 
 33 H       -5.7630    -0.3010    -1.9140 H     1 <1>   0.0800 
 34 H       -6.0040    -1.5400     2.1050 H     1 <1>   0.1500 
 35 H       -7.2240    -4.7580    -1.4090 H     1 <1>   0.1500 
 36 H       -7.8090    -3.1400     2.5260 H     1 <1>   0.1500 
 37 H       -3.5030    -3.3410    -3.0170 H     1 <1>   0.0800 
 38 H       -3.3990    -3.0900    -1.2750 H     1 <1>   0.0800 
 39 H       -3.9750    -1.7940    -2.3300 H     1 <1>   0.0800 
 40 H       -9.3830    -4.6550     1.6760 H     1 <1>   0.0800 
 41 H       -8.9020    -5.7550     0.3990 H     1 <1>   0.0800 
 42 H       -9.5910    -4.1790    -1.2110 H     1 <1>   0.4500 
 43 H      -10.1210    -2.0810    -1.1090 H     1 <1>   0.0800 
 44 H       -9.0840    -2.1630     0.2500 H     1 <1>   0.0800 
 45 H      -11.3160    -5.6870    -0.4160 H     1 <1>   0.0800 
 46 H      -11.9510    -4.1670    -0.9790 H     1 <1>   0.0800 
 47 H      -11.7390    -5.1670     1.8380 H     1 <1>   0.0800 
 48 H      -13.0620    -4.4210     1.0170 H     1 <1>   0.0800 
 49 H      -12.4930    -2.6260     2.3220 H     1 <1>   0.0800 
 50 H      -10.8510    -3.1530     2.5110 H     1 <1>   0.0800 
 51 H       -9.6390    -0.6640     1.6760 H     1 <1>   0.0800 
 52 H      -11.2430    -0.5100     2.3510 H     1 <1>   0.0800 
 53 H      -10.2110     0.6990    -0.1750 H     1 <1>   0.0800 
 54 H      -11.3290     1.3740     1.0030 H     1 <1>   0.0800 
 55 H      -13.0440     1.5580    -1.3190 H     1 <1>   0.1500 
 56 H      -15.0510    -1.1070    -3.9440 H     1 <1>   0.0800 
 57 H      -16.5590    -1.1540    -3.0560 H     1 <1>   0.0800 
 58 H      -16.0350    -2.5490    -3.9880 H     1 <1>   0.0800 
 59 H      -15.3110    -3.5230    -0.4910 H     1 <1>   0.0800 
 60 H      -15.3680    -4.3300    -2.0460 H     1 <1>   0.0800 
 61 H      -16.7040    -3.3210    -1.5210 H     1 <1>   0.0800 
@<TRIPOS>BOND
  1   1   2  ar  
  2   2   3  ar  
  3   2   4  1   
  4   4   5  1   
  5   4  32  1   
  6   4  33  1   
  7   5   6  1   
  8   6   7  ar  
  9   6   8  ar  
 10   7   9  1   
 11   7  10  ar  
 12   8  11  ar  
 13   8  34  1   
 14   9  12  1   
 15  10  13  ar  
 16  10  35  1   
 17  11  13  ar  
 18  11  36  1   
 19  12  37  1   
 20  12  38  1   
 21  12  39  1   
 22  13  14  1   
 23  14  15  1   
 24  14  40  1   
 25  14  41  1   
 26  15  16  1   
 27  15  17  1   
 28  15  42  1   
 29  16  18  1   
 30  16  43  1   
 31  16  44  1   
 32  17  19  1   
 33  17  45  1   
 34  17  46  1   
 35  18  20  1   
 36  18  21  1   
 37  18  22  1   
 38  19  21  1   
 39  19  47  1   
 40  19  48  1   
 41  20  23  ar  
 42  20  24  ar  
 43  21  49  1   
 44  21  50  1   
 45  22  25  1   
 46  22  51  1   
 47  22  52  1   
 48  23  26  ar  
 49  24  25  1   
 50  24  27  ar  
 51  25  53  1   
 52  25  54  1   
 53  26  28  ar  
 54  26  29  1   
 55  27  28  ar  
 56  27  55  1   
 57  29  30  1   
 58  29  31  1   
 59  30  56  1   
 60  30  57  1   
 61  30  58  1   
 62  31  59  1   
 63  31  60  1   
 64  31  61  1   
@<TRIPOS>SUBSTRUCTURE
  1 ****  16 GROUP 4 **** **** 0

# MOE 2024.06 (io_trps.svl 2023.06)
