@<TRIPOS>MOLECULE
NONAME
40 42 1 0 0 
SMALL
USER_CHARGES


@<TRIPOS>ATOM
  1 O       -0.3420     0.1230     0.2890 O.2   1 <1>  -0.5700 
  2 C       -1.3940     0.7300     0.3840 C.2   1 <1>   0.7150 
  3 N       -2.5690     0.0200     0.3050 N.am  1 <1>  -0.6600 
  4 C       -1.3950     2.1630     0.5530 C.2   1 <1>  -0.2370 
  5 C       -3.8870     0.6160    -0.0220 C.3   1 <1>   0.1400 
  6 C       -2.5940    -1.4490     0.0930 C.3   1 <1>   0.1400 
  7 N       -0.5010     3.0050    -0.0630 N.pl3 1 <1>   0.0480 
  8 C       -2.2260     2.9430     1.3190 C.2   1 <1>  -0.1500 
  9 C       -4.7030    -0.5310    -0.6160 C.3   1 <1>   0.2000 
 10 C       -4.0740    -1.8080    -0.0630 C.3   1 <1>  -0.0800 
 11 C       -0.7900     4.2750     0.3080 C.2   1 <1>  -0.3020 
 12 C        0.5970     2.6220    -0.9720 C.3   1 <1>   0.0160 
 13 C       -1.8480     4.2720     1.1600 C.2   1 <1>  -0.1500 
 14 O       -6.0360    -0.4580    -0.2420 O.3   1 <1>  -0.6800 
 15 C       -4.3350    -3.0310    -0.9580 C.3   1 <1>  -0.0170 
 16 C       -3.7510    -4.3010    -0.3620 C.ar  1 <1>   0.1670 
 17 N       -2.4650    -4.5200    -0.5880 N.ar  1 <1>  -0.6200 
 18 C       -4.5640    -5.1510     0.3740 C.ar  1 <1>  -0.1500 
 19 C       -1.9690    -5.6280    -0.0610 C.ar  1 <1>   0.1600 
 20 C       -4.0340    -6.3020     0.9170 C.ar  1 <1>  -0.1500 
 21 C       -2.6960    -6.5370     0.6870 C.ar  1 <1>  -0.1500 
 22 H       -4.3430     0.9790     0.8810 H     1 <1>   0.0800 
 23 H       -3.7770     1.4180    -0.7330 H     1 <1>   0.0800 
 24 H       -2.0430    -1.6870    -0.8020 H     1 <1>   0.0800 
 25 H       -2.1470    -1.9650     0.9270 H     1 <1>   0.0800 
 26 H       -3.0300     2.6090     1.9510 H     1 <1>   0.1500 
 27 H       -4.6470    -0.5000    -1.6910 H     1 <1>   0.0800 
 28 H       -4.4590    -2.0000     0.9230 H     1 <1>   0.0800 
 29 H       -0.2300     5.1230    -0.0450 H     1 <1>   0.1500 
 30 H        1.0310     3.5010    -1.4090 H     1 <1>   0.0800 
 31 H        0.2120     1.9860    -1.7480 H     1 <1>   0.0800 
 32 H        1.3450     2.0890    -0.4140 H     1 <1>   0.0800 
 33 H       -2.3140     5.1190     1.6340 H     1 <1>   0.1500 
 34 H       -6.1190    -0.5050     0.7290 H     1 <1>   0.4000 
 35 H       -3.9070    -2.8740    -1.9330 H     1 <1>   0.0800 
 36 H       -5.3950    -3.1540    -1.0880 H     1 <1>   0.0800 
 37 H       -5.6020    -4.9170     0.5220 H     1 <1>   0.1500 
 38 H       -0.9240    -5.8210    -0.2340 H     1 <1>   0.1500 
 39 H       -4.6360    -6.9840     1.4930 H     1 <1>   0.1500 
 40 H       -2.2190    -7.4160     1.0820 H     1 <1>   0.1500 
@<TRIPOS>BOND
  1   1   2  2   
  2   2   3  am  
  3   2   4  1   
  4   3   5  1   
  5   3   6  1   
  6   4   7  1   
  7   4   8  2   
  8   5   9  1   
  9   5  22  1   
 10   5  23  1   
 11   6  10  1   
 12   6  24  1   
 13   6  25  1   
 14   7  11  1   
 15   7  12  1   
 16   8  13  1   
 17   8  26  1   
 18   9  10  1   
 19   9  14  1   
 20   9  27  1   
 21  10  15  1   
 22  10  28  1   
 23  11  13  2   
 24  11  29  1   
 25  12  30  1   
 26  12  31  1   
 27  12  32  1   
 28  13  33  1   
 29  14  34  1   
 30  15  16  1   
 31  15  35  1   
 32  15  36  1   
 33  16  17  ar  
 34  16  18  ar  
 35  17  19  ar  
 36  18  20  ar  
 37  18  37  1   
 38  19  21  ar  
 39  19  38  1   
 40  20  21  ar  
 41  20  39  1   
 42  21  40  1   
@<TRIPOS>SUBSTRUCTURE
  1 ****   6 GROUP 4 **** **** 0

# MOE 2024.06 (io_trps.svl 2023.06)
