@<TRIPOS>MOLECULE
NONAME
47 49 1 0 0 
SMALL
USER_CHARGES


@<TRIPOS>ATOM
  1 O        0.3400    -0.9900    -0.2550 O.3   1 <1>  -0.3630 
  2 C       -0.0900    -2.1670     0.2410 C.ar  1 <1>   0.3920 
  3 C        1.6910    -0.8060    -0.6210 C.3   1 <1>   0.1200 
  4 N        0.7690    -3.1760     0.3570 N.ar  1 <1>  -0.6200 
  5 C       -1.4270    -2.2450     0.6010 C.ar  1 <1>  -0.1500 
  6 C        1.8540     0.6230    -1.1330 C.3   1 <1>  -0.2400 
  7 C        0.2740    -4.2930     0.8520 C.ar  1 <1>   0.1600 
  8 C       -1.9320    -3.4220     1.1060 C.ar  1 <1>  -0.1500 
  9 C       -1.0490    -4.4810     1.2230 C.ar  1 <1>  -0.1440 
 10 C       -1.5120    -5.8240     1.7450 C.3   1 <1>   0.4860 
 11 N       -1.6550    -6.7660     0.5980 N.4   1 <1>  -0.9590 
 12 C       -2.7930    -6.3540    -0.2910 C.3   1 <1>   0.3430 
 13 C       -1.9710    -8.1450     1.0920 C.3   1 <1>   0.3430 
 14 C       -3.9590    -7.2790     0.0680 C.3   1 <1>   0.2000 
 15 C       -3.2610    -8.5950     0.3910 C.3   1 <1>  -0.0800 
 16 O       -4.5470    -6.8030     1.2350 O.3   1 <1>  -0.6800 
 17 C       -2.9730    -9.4250    -0.8780 C.3   1 <1>  -0.0170 
 18 C       -1.9980   -10.5520    -0.5800 C.ar  1 <1>  -0.1430 
 19 C       -2.3330   -11.6100     0.2430 C.ar  1 <1>  -0.1500 
 20 C       -0.7220   -10.5710    -1.1090 C.ar  1 <1>  -0.1500 
 21 C       -1.3950   -12.5920     0.5110 C.ar  1 <1>   0.1600 
 22 C        0.1410   -11.6020    -0.7780 C.ar  1 <1>   0.1600 
 23 N       -0.1630   -12.6040     0.0290 N.ar  1 <1>  -0.6200 
 24 H        2.3050    -0.9770     0.2460 H     1 <1>   0.0800 
 25 H        1.9360    -1.5200    -1.3890 H     1 <1>   0.0800 
 26 H       -2.0480    -1.3770     0.4790 H     1 <1>   0.1500 
 27 H        1.5940     1.3240    -0.3600 H     1 <1>   0.0800 
 28 H        1.2260     0.7820    -1.9910 H     1 <1>   0.0800 
 29 H        2.8760     0.7910    -1.4200 H     1 <1>   0.0800 
 30 H        0.9740    -5.1040     0.9620 H     1 <1>   0.1500 
 31 H       -2.9690    -3.4960     1.3930 H     1 <1>   0.1500 
 32 H       -2.4580    -5.7150     2.2530 H     1 <1>   0.0800 
 33 H       -0.7890    -6.2020     2.4490 H     1 <1>   0.0800 
 34 H       -0.7810    -6.7600     0.0590 H     1 <1>   0.4500 
 35 H       -3.0670    -5.3200    -0.1630 H     1 <1>   0.0800 
 36 H       -2.5190    -6.5160    -1.3200 H     1 <1>   0.0800 
 37 H       -1.1570    -8.8270     0.9030 H     1 <1>   0.0800 
 38 H       -2.1530    -8.1170     2.1540 H     1 <1>   0.0800 
 39 H       -4.7060    -7.3410    -0.7070 H     1 <1>   0.0800 
 40 H       -3.8520    -9.1970     1.0600 H     1 <1>   0.0800 
 41 H       -5.4160    -7.2310     1.3960 H     1 <1>   0.4000 
 42 H       -2.5660    -8.8060    -1.6580 H     1 <1>   0.0800 
 43 H       -3.8920    -9.8470    -1.2510 H     1 <1>   0.0800 
 44 H       -3.3120   -11.6890     0.6800 H     1 <1>   0.1500 
 45 H       -0.3810    -9.8020    -1.7780 H     1 <1>   0.1500 
 46 H       -1.6690   -13.4120     1.1540 H     1 <1>   0.1500 
 47 H        1.1330   -11.6070    -1.1990 H     1 <1>   0.1500 
@<TRIPOS>BOND
  1   1   2  1   
  2   1   3  1   
  3   2   4  ar  
  4   2   5  ar  
  5   3   6  1   
  6   3  24  1   
  7   3  25  1   
  8   4   7  ar  
  9   5   8  ar  
 10   5  26  1   
 11   6  27  1   
 12   6  28  1   
 13   6  29  1   
 14   7   9  ar  
 15   7  30  1   
 16   8   9  ar  
 17   8  31  1   
 18   9  10  1   
 19  10  11  1   
 20  10  32  1   
 21  10  33  1   
 22  11  12  1   
 23  11  13  1   
 24  11  34  1   
 25  12  14  1   
 26  12  35  1   
 27  12  36  1   
 28  13  15  1   
 29  13  37  1   
 30  13  38  1   
 31  14  15  1   
 32  14  16  1   
 33  14  39  1   
 34  15  17  1   
 35  15  40  1   
 36  16  41  1   
 37  17  18  1   
 38  17  42  1   
 39  17  43  1   
 40  18  19  ar  
 41  18  20  ar  
 42  19  21  ar  
 43  19  44  1   
 44  20  22  ar  
 45  20  45  1   
 46  21  23  ar  
 47  21  46  1   
 48  22  23  ar  
 49  22  47  1   
@<TRIPOS>SUBSTRUCTURE
  1 ****  11 GROUP 4 **** **** 0

# MOE 2024.06 (io_trps.svl 2023.06)
