@<TRIPOS>MOLECULE
NONAME
62 65 1 0 0 
SMALL
USER_CHARGES


@<TRIPOS>ATOM
  1 N       -0.6260    -0.4560    -0.2280 N.ar  1 <1>  -0.1790 
  2 C        0.6800    -0.3360    -0.5220 C.ar  1 <1>   0.7710 
  3 C       -1.0900    -1.2760     0.7270 C.ar  1 <1>   0.4610 
  4 N        1.6010    -1.0360     0.1000 N.ar  1 <1>  -0.6200 
  5 N        1.0240     0.5310    -1.5170 N.pl3 1 <1>  -0.8380 
  6 N       -2.4410    -1.3270     0.9510 N.pl3 1 <1>  -0.8380 
  7 C       -0.1410    -2.0100     1.3940 C.ar  1 <1>  -0.1500 
  8 C        1.1920    -1.8630     1.0490 C.ar  1 <1>   0.4100 
  9 C        0.2960     1.8030    -1.7980 C.3   1 <1>   0.2090 
 10 C        2.3340     0.3970    -2.2240 C.3   1 <1>   0.2090 
 11 C       -3.3830    -0.2150     0.5540 C.3   1 <1>   0.2090 
 12 C       -3.0840    -2.5170     1.6040 C.3   1 <1>   0.2090 
 13 N        2.1680    -2.5510     1.6580 N.pl3 1 <1>  -0.9000 
 14 C       -0.6040     1.6170    -3.0160 C.3   1 <1>  -0.2400 
 15 C        2.2370    -0.7250    -3.2540 C.3   1 <1>  -0.2400 
 16 C       -4.6410    -0.1460     1.4370 C.3   1 <1>   0.1430 
 17 C       -4.5250    -2.7020     1.1120 C.3   1 <1>  -0.1600 
 18 C       -5.4930     1.0190     0.9760 C.ar  1 <1>   0.1670 
 19 C       -5.4290    -1.4740     1.3550 C.3   1 <1>  -0.1600 
 20 C       -4.3260     0.2450     2.9080 C.3   1 <1>  -0.1600 
 21 N       -5.7840     1.2800    -0.2730 N.ar  1 <1>  -0.6200 
 22 C       -5.9000     1.7940     2.0180 C.ar  1 <1>  -0.1430 
 23 C       -5.3960     1.2660     3.3370 C.3   1 <1>  -0.0170 
 24 C       -6.5310     2.3710    -0.4620 C.ar  1 <1>   0.7200 
 25 C       -6.6620     2.8970     1.7280 C.ar  1 <1>   0.1600 
 26 N       -6.9790     3.1960     0.4900 N.ar  1 <1>  -0.6200 
 27 N       -6.8590     2.6770    -1.7660 N.pl3 1 <1>  -0.8380 
 28 C       -7.0040     1.6240    -2.8090 C.3   1 <1>   0.1290 
 29 C       -7.3830     4.0190    -2.1420 C.3   1 <1>   0.1290 
 30 H       -1.2660     0.0240    -0.8380 H     1 <1>   0.4570 
 31 H       -0.4080    -2.6890     2.1790 H     1 <1>   0.1500 
 32 H        0.9990     2.5990    -1.9830 H     1 <1>   0.0800 
 33 H       -0.2930     2.0970    -0.9450 H     1 <1>   0.0800 
 34 H        3.1210     0.1800    -1.5200 H     1 <1>   0.0800 
 35 H        2.5920     1.3170    -2.7230 H     1 <1>   0.0800 
 36 H       -3.6970    -0.3740    -0.4640 H     1 <1>   0.0800 
 37 H       -2.8810     0.7360     0.6050 H     1 <1>   0.0800 
 38 H       -3.0810    -2.3860     2.6730 H     1 <1>   0.0800 
 39 H       -2.5240    -3.4090     1.3760 H     1 <1>   0.0800 
 40 H        2.0370    -3.2260     2.4140 H     1 <1>   0.4000 
 41 H        3.1410    -2.4060     1.3740 H     1 <1>   0.4000 
 42 H       -0.0090     1.4240    -3.8900 H     1 <1>   0.0800 
 43 H       -1.1620     2.5200    -3.1910 H     1 <1>   0.0800 
 44 H       -1.2990     0.8100    -2.8770 H     1 <1>   0.0800 
 45 H        2.0410    -1.6640    -2.7690 H     1 <1>   0.0800 
 46 H        3.1710    -0.8090    -3.7800 H     1 <1>   0.0800 
 47 H        1.4630    -0.5190    -3.9690 H     1 <1>   0.0800 
 48 H       -4.9600    -3.5630     1.5900 H     1 <1>   0.0800 
 49 H       -4.4910    -2.9130     0.0570 H     1 <1>   0.0800 
 50 H       -6.1360    -1.4190     0.5440 H     1 <1>   0.0800 
 51 H       -6.0030    -1.6110     2.2550 H     1 <1>   0.0800 
 52 H       -3.3650     0.7280     2.9530 H     1 <1>   0.0800 
 53 H       -4.3070    -0.6020     3.5710 H     1 <1>   0.0800 
 54 H       -4.9790     2.0470     3.9490 H     1 <1>   0.0800 
 55 H       -6.2010     0.7800     3.8610 H     1 <1>   0.0800 
 56 H       -7.0130     3.5430     2.5150 H     1 <1>   0.1500 
 57 H       -7.0250     0.6440    -2.3640 H     1 <1>   0.0800 
 58 H       -6.1760     1.6800    -3.4940 H     1 <1>   0.0800 
 59 H       -7.9220     1.7670    -3.3500 H     1 <1>   0.0800 
 60 H       -6.9440     4.7800    -1.5190 H     1 <1>   0.0800 
 61 H       -8.4510     4.0380    -2.0140 H     1 <1>   0.0800 
 62 H       -7.1410     4.2370    -3.1670 H     1 <1>   0.0800 
@<TRIPOS>BOND
  1   1   2  ar  
  2   1   3  ar  
  3   1  30  1   
  4   2   4  ar  
  5   2   5  1   
  6   3   6  1   
  7   3   7  ar  
  8   4   8  ar  
  9   5   9  1   
 10   5  10  1   
 11   6  11  1   
 12   6  12  1   
 13   7   8  ar  
 14   7  31  1   
 15   8  13  1   
 16   9  14  1   
 17   9  32  1   
 18   9  33  1   
 19  10  15  1   
 20  10  34  1   
 21  10  35  1   
 22  11  16  1   
 23  11  36  1   
 24  11  37  1   
 25  12  17  1   
 26  12  38  1   
 27  12  39  1   
 28  13  40  1   
 29  13  41  1   
 30  14  42  1   
 31  14  43  1   
 32  14  44  1   
 33  15  45  1   
 34  15  46  1   
 35  15  47  1   
 36  16  18  1   
 37  16  19  1   
 38  16  20  1   
 39  17  19  1   
 40  17  48  1   
 41  17  49  1   
 42  18  21  ar  
 43  18  22  ar  
 44  19  50  1   
 45  19  51  1   
 46  20  23  1   
 47  20  52  1   
 48  20  53  1   
 49  21  24  ar  
 50  22  23  1   
 51  22  25  ar  
 52  23  54  1   
 53  23  55  1   
 54  24  26  ar  
 55  24  27  1   
 56  25  26  ar  
 57  25  56  1   
 58  27  28  1   
 59  27  29  1   
 60  28  57  1   
 61  28  58  1   
 62  28  59  1   
 63  29  60  1   
 64  29  61  1   
 65  29  62  1   
@<TRIPOS>SUBSTRUCTURE
  1 ****  11 GROUP 4 **** **** 0

# MOE 2024.06 (io_trps.svl 2023.06)
