@<TRIPOS>MOLECULE
NONAME
58 61 1 0 0 
SMALL
USER_CHARGES


@<TRIPOS>ATOM
  1 O        0.0580     1.0490    -1.1710 O.2   1 <1>  -0.5700 
  2 C       -0.0300     2.1830    -0.7620 C.2   1 <1>   0.5690 
  3 N       -1.1260     2.6500    -0.0840 N.am  1 <1>  -0.5090 
  4 C        1.1330     3.1310    -1.0610 C.3   1 <1>   0.1810 
  5 C       -1.2780     4.1030     0.2510 C.3   1 <1>   0.3640 
  6 C       -2.2240     1.7590     0.3680 C.3   1 <1>   0.0490 
  7 O        1.0980     4.3100    -0.2960 O.3   1 <1>  -0.5600 
  8 C       -2.6240     4.6200    -0.2600 C.ar  1 <1>  -0.1440 
  9 C       -0.1440     4.9840    -0.3300 C.3   1 <1>   0.2610 
 10 C       -2.5590     1.7080     1.8270 C.3   1 <1>  -0.2000 
 11 C       -1.9010     0.5380     1.1700 C.3   1 <1>  -0.2000 
 12 C       -3.4170     5.4080     0.5620 C.ar  1 <1>   0.1600 
 13 C       -3.0770     4.3320    -1.5360 C.ar  1 <1>  -0.1500 
 14 C       -0.0500     6.3450     0.3860 C.2   1 <1>   0.5690 
 15 N       -4.5920     5.9160     0.2230 N.ar  1 <1>  -0.6200 
 16 C       -4.2980     4.8530    -1.9030 C.ar  1 <1>  -0.1500 
 17 O       -0.5930     6.4640     1.4630 O.2   1 <1>  -0.5700 
 18 N        0.6180     7.4070    -0.1870 N.am  1 <1>  -0.6600 
 19 C       -5.0050     5.6270    -0.9990 C.ar  1 <1>   0.1600 
 20 C        0.6870     8.7300     0.4960 C.3   1 <1>   0.1400 
 21 C        1.4600     7.3210    -1.4140 C.3   1 <1>   0.1400 
 22 C        2.1360     9.0340     0.8800 C.3   1 <1>  -0.1600 
 23 C        2.9170     7.6040    -1.0470 C.3   1 <1>  -0.1600 
 24 C        3.0530     8.9560    -0.3470 C.3   1 <1>   0.2000 
 25 O        4.3790     9.0730     0.0540 O.3   1 <1>  -0.5600 
 26 C        4.8380    10.3790     0.2360 C.3   1 <1>   0.1200 
 27 C        6.3010    10.3210     0.6610 C.3   1 <1>   0.1200 
 28 O        6.7600    11.6250     0.8380 O.3   1 <1>  -0.5600 
 29 C        8.0920    11.7020     1.2300 C.3   1 <1>   0.0400 
 30 H        1.1190     3.3980    -2.1010 H     1 <1>   0.0800 
 31 H        2.0590     2.6310    -0.8440 H     1 <1>   0.0800 
 32 H       -1.2560     4.1780     1.3240 H     1 <1>   0.0800 
 33 H       -3.0280     1.6950    -0.3480 H     1 <1>   0.1000 
 34 H       -0.3730     5.1810    -1.3610 H     1 <1>   0.0800 
 35 H       -1.9790     2.2710     2.5360 H     1 <1>   0.1000 
 36 H       -3.5910     1.6140     2.1160 H     1 <1>   0.1000 
 37 H       -2.4800    -0.3530     1.0010 H     1 <1>   0.1000 
 38 H       -0.8680     0.3240     1.3830 H     1 <1>   0.1000 
 39 H       -3.0680     5.6430     1.5550 H     1 <1>   0.1500 
 40 H       -2.5110     3.7210    -2.2180 H     1 <1>   0.1500 
 41 H       -4.7040     4.6620    -2.8800 H     1 <1>   0.1500 
 42 H       -5.9590     6.0280    -1.2950 H     1 <1>   0.1500 
 43 H        0.3150     9.4890    -0.1710 H     1 <1>   0.0800 
 44 H        0.0720     8.7410     1.3800 H     1 <1>   0.0800 
 45 H        1.3970     6.3510    -1.8720 H     1 <1>   0.0800 
 46 H        1.1140     8.0490    -2.1280 H     1 <1>   0.0800 
 47 H        2.4550     8.3190     1.6170 H     1 <1>   0.0800 
 48 H        2.1770    10.0150     1.3140 H     1 <1>   0.0800 
 49 H        3.5160     7.6020    -1.9390 H     1 <1>   0.0800 
 50 H        3.2680     6.8210    -0.3970 H     1 <1>   0.0800 
 51 H        2.8230     9.7440    -1.0450 H     1 <1>   0.0800 
 52 H        4.7460    10.9120    -0.6940 H     1 <1>   0.0800 
 53 H        4.2550    10.8550     1.0040 H     1 <1>   0.0800 
 54 H        6.8900     9.8470    -0.1050 H     1 <1>   0.0800 
 55 H        6.3940     9.7910     1.5930 H     1 <1>   0.0800 
 56 H        8.3490    12.7400     1.3400 H     1 <1>   0.0800 
 57 H        8.7120    11.2520     0.4740 H     1 <1>   0.0800 
 58 H        8.2140    11.1960     2.1720 H     1 <1>   0.0800 
@<TRIPOS>BOND
  1   1   2  2   
  2   2   3  am  
  3   2   4  1   
  4   3   5  1   
  5   3   6  1   
  6   4   7  1   
  7   4  30  1   
  8   4  31  1   
  9   5   8  1   
 10   5   9  1   
 11   5  32  1   
 12   6  10  1   
 13   6  11  1   
 14   6  33  1   
 15   7   9  1   
 16   8  12  ar  
 17   8  13  ar  
 18   9  14  1   
 19   9  34  1   
 20  10  11  1   
 21  10  35  1   
 22  10  36  1   
 23  11  37  1   
 24  11  38  1   
 25  12  15  ar  
 26  12  39  1   
 27  13  16  ar  
 28  13  40  1   
 29  14  17  2   
 30  14  18  am  
 31  15  19  ar  
 32  16  19  ar  
 33  16  41  1   
 34  18  20  1   
 35  18  21  1   
 36  19  42  1   
 37  20  22  1   
 38  20  43  1   
 39  20  44  1   
 40  21  23  1   
 41  21  45  1   
 42  21  46  1   
 43  22  24  1   
 44  22  47  1   
 45  22  48  1   
 46  23  24  1   
 47  23  49  1   
 48  23  50  1   
 49  24  25  1   
 50  24  51  1   
 51  25  26  1   
 52  26  27  1   
 53  26  52  1   
 54  26  53  1   
 55  27  28  1   
 56  27  54  1   
 57  27  55  1   
 58  28  29  1   
 59  29  56  1   
 60  29  57  1   
 61  29  58  1   
@<TRIPOS>SUBSTRUCTURE
  1 ****  14 GROUP 4 **** **** 0

# MOE 2024.06 (io_trps.svl 2023.06)
