@<TRIPOS>MOLECULE
NONAME
58 62 1 0 0 
SMALL
USER_CHARGES


@<TRIPOS>ATOM
  1 O       -0.2080     0.7900     1.0690 O.2   1 <1>  -0.5700 
  2 C       -0.1210     1.9030     0.5960 C.2   1 <1>   0.5690 
  3 N       -1.2890     2.6180     0.3850 N.am  1 <1>  -0.6600 
  4 C        1.3180     2.4170     0.2680 C.3   1 <1>   0.0610 
  5 C       -2.5600     2.0690     0.9570 C.3   1 <1>   0.1400 
  6 C       -1.4500     3.8410    -0.4590 C.3   1 <1>   0.1400 
  7 C        2.3760     1.5610     1.0310 C.3   1 <1>  -0.1600 
  8 C        1.6350     2.2620    -1.2440 C.3   1 <1>  -0.1600 
  9 C        1.5610     3.8910     0.7020 C.3   1 <1>  -0.1600 
 10 C       -3.6180     3.1620     1.1400 C.3   1 <1>  -0.1600 
 11 C       -2.7990     3.8050    -1.1750 C.3   1 <1>  -0.1600 
 12 C        3.8190     2.0020     0.7220 C.3   1 <1>  -0.0800 
 13 C        3.0670     2.7320    -1.5670 C.3   1 <1>  -0.0800 
 14 C        2.9930     4.3490     0.3730 C.3   1 <1>  -0.0800 
 15 C       -3.9640     3.8990    -0.1750 C.3   1 <1>   0.2800 
 16 C        4.0720     1.8640    -0.7890 C.3   1 <1>  -0.1600 
 17 C        3.9960     3.4700     1.1380 C.3   1 <1>  -0.1600 
 18 C        3.2330     4.2030    -1.1420 C.3   1 <1>  -0.1600 
 19 O       -4.0650     5.2640     0.1410 O.3   1 <1>  -0.5600 
 20 C       -5.2520     3.3710    -0.8470 C.3   1 <1>  -0.1600 
 21 C       -5.3040     5.8780     0.3670 C.3   1 <1>   0.1200 
 22 C       -6.5590     3.7640    -0.1310 C.3   1 <1>   0.2800 
 23 C       -6.3450     4.8870     0.8850 C.3   1 <1>  -0.1600 
 24 O       -7.4110     4.2540    -1.0940 O.3   1 <1>  -0.6800 
 25 C       -7.2870     2.5730     0.4920 C.3   1 <1>  -0.2400 
 26 H       -2.3570     1.6160     1.9140 H     1 <1>   0.0800 
 27 H       -2.9330     1.3020     0.3010 H     1 <1>   0.0800 
 28 H       -0.6750     3.9030    -1.1950 H     1 <1>   0.0800 
 29 H       -1.4010     4.7160     0.1670 H     1 <1>   0.0800 
 30 H        2.2710     0.5250     0.7600 H     1 <1>   0.0800 
 31 H        2.1980     1.6310     2.0900 H     1 <1>   0.0800 
 32 H        0.9470     2.8230    -1.8430 H     1 <1>   0.0800 
 33 H        1.5250     1.2290    -1.5240 H     1 <1>   0.0800 
 34 H        1.3830     3.9850     1.7600 H     1 <1>   0.0800 
 35 H        0.8930     4.5630     0.2060 H     1 <1>   0.0800 
 36 H       -3.2370     3.8630     1.8610 H     1 <1>   0.0800 
 37 H       -4.4910     2.7090     1.5650 H     1 <1>   0.0800 
 38 H       -2.8550     2.8890    -1.7360 H     1 <1>   0.0800 
 39 H       -2.8630     4.6170    -1.8770 H     1 <1>   0.0800 
 40 H        4.5120     1.3830     1.2650 H     1 <1>   0.0800 
 41 H        3.2500     2.6360    -2.6240 H     1 <1>   0.0800 
 42 H        3.1210     5.3780     0.6640 H     1 <1>   0.0800 
 43 H        3.9690     0.8340    -1.0840 H     1 <1>   0.0800 
 44 H        5.0770     2.1720    -1.0210 H     1 <1>   0.0800 
 45 H        5.0010     3.7910     0.9250 H     1 <1>   0.0800 
 46 H        3.8370     3.5710     2.1970 H     1 <1>   0.0800 
 47 H        2.5390     4.8210    -1.6840 H     1 <1>   0.0800 
 48 H        4.2260     4.5400    -1.3840 H     1 <1>   0.0800 
 49 H       -5.1850     2.3000    -0.9160 H     1 <1>   0.0800 
 50 H       -5.2670     3.7380    -1.8580 H     1 <1>   0.0800 
 51 H       -5.6260     6.3160    -0.5620 H     1 <1>   0.0800 
 52 H       -5.1470     6.6680     1.0800 H     1 <1>   0.0800 
 53 H       -7.2760     5.3910     1.0790 H     1 <1>   0.0800 
 54 H       -6.0020     4.4920     1.8230 H     1 <1>   0.0800 
 55 H       -6.9840     4.9940    -1.5610 H     1 <1>   0.4000 
 56 H       -6.6900     2.1200     1.2600 H     1 <1>   0.0800 
 57 H       -7.4970     1.8310    -0.2580 H     1 <1>   0.0800 
 58 H       -8.2140     2.8950     0.9310 H     1 <1>   0.0800 
@<TRIPOS>BOND
  1   1   2  2   
  2   2   3  am  
  3   2   4  1   
  4   3   5  1   
  5   3   6  1   
  6   4   7  1   
  7   4   8  1   
  8   4   9  1   
  9   5  10  1   
 10   5  26  1   
 11   5  27  1   
 12   6  11  1   
 13   6  28  1   
 14   6  29  1   
 15   7  12  1   
 16   7  30  1   
 17   7  31  1   
 18   8  13  1   
 19   8  32  1   
 20   8  33  1   
 21   9  14  1   
 22   9  34  1   
 23   9  35  1   
 24  10  15  1   
 25  10  36  1   
 26  10  37  1   
 27  11  15  1   
 28  11  38  1   
 29  11  39  1   
 30  12  16  1   
 31  12  17  1   
 32  12  40  1   
 33  13  16  1   
 34  13  18  1   
 35  13  41  1   
 36  14  17  1   
 37  14  18  1   
 38  14  42  1   
 39  15  19  1   
 40  15  20  1   
 41  16  43  1   
 42  16  44  1   
 43  17  45  1   
 44  17  46  1   
 45  18  47  1   
 46  18  48  1   
 47  19  21  1   
 48  20  22  1   
 49  20  49  1   
 50  20  50  1   
 51  21  23  1   
 52  21  51  1   
 53  21  52  1   
 54  22  23  1   
 55  22  24  1   
 56  22  25  1   
 57  23  53  1   
 58  23  54  1   
 59  24  55  1   
 60  25  56  1   
 61  25  57  1   
 62  25  58  1   
@<TRIPOS>SUBSTRUCTURE
  1 ****   3 GROUP 4 **** **** 0

# MOE 2024.06 (io_trps.svl 2023.06)
