@<TRIPOS>MOLECULE
NONAME
48 51 1 0 0 
SMALL
USER_CHARGES


@<TRIPOS>ATOM
  1 O        0.6020    -0.9760    -1.1090 O.3   1 <1>  -0.3630 
  2 C        0.3920    -2.1980    -0.6090 C.ar  1 <1>   0.0820 
  3 C       -0.4350    -0.1390    -0.5970 C.3   1 <1>   0.4000 
  4 C       -0.7190    -2.1960     0.1800 C.ar  1 <1>   0.0820 
  5 C        1.1360    -3.3410    -0.8120 C.ar  1 <1>  -0.1500 
  6 O       -1.2620    -0.9750     0.2130 O.3   1 <1>  -0.3630 
  7 C       -1.1550    -3.3390     0.8180 C.ar  1 <1>  -0.1500 
  8 C        0.7160    -4.5140    -0.1810 C.ar  1 <1>   0.0820 
  9 C       -0.4250    -4.5090     0.6310 C.ar  1 <1>  -0.1440 
 10 O        1.3740    -5.6980    -0.3280 O.3   1 <1>  -0.3630 
 11 C       -0.8780    -5.7850     1.3140 C.3   1 <1>   0.4870 
 12 C        2.6740    -5.7320    -0.8850 C.3   1 <1>   0.0400 
 13 N       -1.2080    -6.7790     0.2640 N.4   1 <1>  -0.9590 
 14 C       -2.4300    -6.3680    -0.4970 C.3   1 <1>   0.3430 
 15 C       -1.4730    -8.1250     0.8540 C.3   1 <1>   0.3430 
 16 C       -3.5530    -7.2780     0.0090 C.3   1 <1>   0.2000 
 17 C       -2.8300    -8.5880     0.3080 C.3   1 <1>  -0.0800 
 18 O       -4.0250    -6.7630     1.2120 O.3   1 <1>  -0.6800 
 19 C       -2.6740    -9.4620    -0.9530 C.3   1 <1>  -0.0170 
 20 C       -1.7340   -10.6280    -0.6910 C.ar  1 <1>  -0.1430 
 21 C       -2.0690   -11.6560     0.1670 C.ar  1 <1>  -0.1500 
 22 C       -0.4940   -10.7160    -1.2940 C.ar  1 <1>  -0.1500 
 23 C       -1.1660   -12.6820     0.3920 C.ar  1 <1>   0.1600 
 24 C        0.3340   -11.7870    -1.0020 C.ar  1 <1>   0.1600 
 25 N        0.0300   -12.7640    -0.1650 N.ar  1 <1>  -0.6200 
 26 H       -0.0050     0.6390     0.0080 H     1 <1>   0.0800 
 27 H       -1.0120     0.2620    -1.4110 H     1 <1>   0.0800 
 28 H        2.0010    -3.2860    -1.4450 H     1 <1>   0.1500 
 29 H       -2.0350    -3.2940     1.4360 H     1 <1>   0.1500 
 30 H       -1.7410    -5.5960     1.9320 H     1 <1>   0.0800 
 31 H       -0.0780    -6.1530     1.9340 H     1 <1>   0.0800 
 32 H        3.0530    -6.7350    -0.8030 H     1 <1>   0.0800 
 33 H        3.3100    -5.0580    -0.3360 H     1 <1>   0.0800 
 34 H        2.6220    -5.4470    -1.9220 H     1 <1>   0.0800 
 35 H       -0.3800    -6.7840    -0.3540 H     1 <1>   0.4500 
 36 H       -2.6760    -5.3290    -0.3510 H     1 <1>   0.0800 
 37 H       -2.2730    -6.5480    -1.5470 H     1 <1>   0.0800 
 38 H       -0.6860    -8.8220     0.6130 H     1 <1>   0.0800 
 39 H       -1.5430    -8.0420     1.9260 H     1 <1>   0.0800 
 40 H       -4.3740    -7.3620    -0.6850 H     1 <1>   0.0800 
 41 H       -3.3520    -9.1610     1.0550 H     1 <1>   0.0800 
 42 H       -4.8690    -7.1890     1.4760 H     1 <1>   0.4000 
 43 H       -2.2950    -8.8830    -1.7770 H     1 <1>   0.0800 
 44 H       -3.6350    -9.8490    -1.2470 H     1 <1>   0.0800 
 45 H       -3.0210   -11.6790     0.6650 H     1 <1>   0.1500 
 46 H       -0.1570    -9.9720    -1.9920 H     1 <1>   0.1500 
 47 H       -1.4410   -13.4770     1.0650 H     1 <1>   0.1500 
 48 H        1.2980   -11.8450    -1.4800 H     1 <1>   0.1500 
@<TRIPOS>BOND
  1   1   2  1   
  2   1   3  1   
  3   2   4  ar  
  4   2   5  ar  
  5   3   6  1   
  6   3  26  1   
  7   3  27  1   
  8   4   6  1   
  9   4   7  ar  
 10   5   8  ar  
 11   5  28  1   
 12   7   9  ar  
 13   7  29  1   
 14   8   9  ar  
 15   8  10  1   
 16   9  11  1   
 17  10  12  1   
 18  11  13  1   
 19  11  30  1   
 20  11  31  1   
 21  12  32  1   
 22  12  33  1   
 23  12  34  1   
 24  13  14  1   
 25  13  15  1   
 26  13  35  1   
 27  14  16  1   
 28  14  36  1   
 29  14  37  1   
 30  15  17  1   
 31  15  38  1   
 32  15  39  1   
 33  16  17  1   
 34  16  18  1   
 35  16  40  1   
 36  17  19  1   
 37  17  41  1   
 38  18  42  1   
 39  19  20  1   
 40  19  43  1   
 41  19  44  1   
 42  20  21  ar  
 43  20  22  ar  
 44  21  23  ar  
 45  21  45  1   
 46  22  24  ar  
 47  22  46  1   
 48  23  25  ar  
 49  23  47  1   
 50  24  25  ar  
 51  24  48  1   
@<TRIPOS>SUBSTRUCTURE
  1 ****  13 GROUP 4 **** **** 0

# MOE 2024.06 (io_trps.svl 2023.06)
