@<TRIPOS>MOLECULE
NONAME
48 51 1 0 0 
SMALL
USER_CHARGES


@<TRIPOS>ATOM
  1 O        1.8360    -0.6920    -1.5080 O.2   1 <1>  -0.5700 
  2 C        1.4140    -0.7900    -0.3770 C.2   1 <1>   0.6300 
  3 N        1.2050     0.3070     0.3960 N.am  1 <1>  -0.7300 
  4 C        1.1640    -2.1690     0.2330 C.3   1 <1>   0.0320 
  5 C        1.5150     1.6950    -0.0110 C.3   1 <1>   0.2780 
  6 C       -0.2150    -2.7100    -0.1190 C.ar  1 <1>  -0.0320 
  7 C        2.3090    -3.1370     0.3690 C.3   1 <1>  -0.1900 
  8 C        1.7500    -2.4900     1.5920 C.3   1 <1>  -0.2000 
  9 C        3.0200     1.9270     0.0680 C.2   1 <1>  -0.0380 
 10 C       -0.4460    -3.2190    -1.3880 C.ar  1 <1>  -0.1500 
 11 C       -1.2520    -2.6940     0.8020 C.ar  1 <1>  -0.1500 
 12 C        2.1820    -4.6510     0.2540 C.3   1 <1>  -0.0650 
 13 C        3.7540    -2.8080    -0.0050 C.3   1 <1>  -0.0650 
 14 N        3.8280     1.1550    -0.7240 N.pl3 1 <1>  -0.5500 
 15 C        3.6390     2.8320     0.8580 C.2   1 <1>  -0.1360 
 16 C       -1.6920    -3.7140    -1.7310 C.ar  1 <1>  -0.1500 
 17 C       -2.4990    -3.1890     0.4620 C.ar  1 <1>  -0.1500 
 18 C        3.5460    -5.1580     0.7130 C.3   1 <1>  -0.1600 
 19 C        4.5580    -4.0670     0.3360 C.3   1 <1>  -0.1600 
 20 C        5.1830     1.2810    -0.7100 C.2   1 <1>   0.4390 
 21 C        5.0560     2.9360     0.8370 C.2   1 <1>   0.7670 
 22 C       -2.7200    -3.7000    -0.8040 C.ar  1 <1>  -0.1500 
 23 N        5.8060     2.1250     0.0260 N.2   1 <1>  -0.6610 
 24 C        5.9540     0.3560    -1.6170 C.3   1 <1>  -0.1790 
 25 O        5.6250     3.7490     1.5470 O.2   1 <1>  -0.5700 
 26 H        0.9230     0.1720     1.3660 H     1 <1>   0.3700 
 27 H        0.9930     2.3830     0.6310 H     1 <1>   0.0800 
 28 H        1.1810     1.8540    -1.0230 H     1 <1>   0.0800 
 29 H        1.1880    -3.0980     2.2790 H     1 <1>   0.1000 
 30 H        2.3440    -1.7500     2.0990 H     1 <1>   0.1000 
 31 H        0.3520    -3.2260    -2.1110 H     1 <1>   0.1500 
 32 H       -1.0920    -2.2970     1.7880 H     1 <1>   0.1500 
 33 H        2.0260    -4.9160    -0.7770 H     1 <1>   0.0800 
 34 H        1.3770    -5.0540     0.8450 H     1 <1>   0.0800 
 35 H        4.1280    -1.9410     0.5110 H     1 <1>   0.0800 
 36 H        3.8070    -2.6310    -1.0660 H     1 <1>   0.0800 
 37 H        3.3840     0.4270    -1.3120 H     1 <1>   0.4000 
 38 H        3.1210     3.4950     1.5210 H     1 <1>   0.1500 
 39 H       -1.8610    -4.1080    -2.7180 H     1 <1>   0.1500 
 40 H       -3.2990    -3.1750     1.1830 H     1 <1>   0.1500 
 41 H        3.7880    -6.1060     0.2640 H     1 <1>   0.0800 
 42 H        3.5330    -5.2730     1.7840 H     1 <1>   0.0800 
 43 H        5.2260    -3.8810     1.1580 H     1 <1>   0.0800 
 44 H        5.1360    -4.3720    -0.5190 H     1 <1>   0.0800 
 45 H       -3.6890    -4.0850    -1.0700 H     1 <1>   0.1500 
 46 H        5.7680    -0.6650    -1.3430 H     1 <1>   0.0800 
 47 H        7.0080     0.5510    -1.5330 H     1 <1>   0.0800 
 48 H        5.6540     0.5130    -2.6370 H     1 <1>   0.0800 
@<TRIPOS>BOND
  1   1   2  2   
  2   2   3  am  
  3   2   4  1   
  4   3   5  1   
  5   3  26  1   
  6   4   6  1   
  7   4   7  1   
  8   4   8  1   
  9   5   9  1   
 10   5  27  1   
 11   5  28  1   
 12   6  10  ar  
 13   6  11  ar  
 14   7   8  1   
 15   7  12  1   
 16   7  13  1   
 17   8  29  1   
 18   8  30  1   
 19   9  14  1   
 20   9  15  2   
 21  10  16  ar  
 22  10  31  1   
 23  11  17  ar  
 24  11  32  1   
 25  12  18  1   
 26  12  33  1   
 27  12  34  1   
 28  13  19  1   
 29  13  35  1   
 30  13  36  1   
 31  14  20  1   
 32  14  37  1   
 33  15  21  1   
 34  15  38  1   
 35  16  22  ar  
 36  16  39  1   
 37  17  22  ar  
 38  17  40  1   
 39  18  19  1   
 40  18  41  1   
 41  18  42  1   
 42  19  43  1   
 43  19  44  1   
 44  20  23  2   
 45  20  24  1   
 46  21  23  1   
 47  21  25  2   
 48  22  45  1   
 49  24  46  1   
 50  24  47  1   
 51  24  48  1   
@<TRIPOS>SUBSTRUCTURE
  1 ****   2 GROUP 4 **** **** 0

# MOE 2024.06 (io_trps.svl 2023.06)
