@<TRIPOS>MOLECULE
NONAME
53 57 1 0 0 
SMALL
USER_CHARGES


@<TRIPOS>ATOM
  1 N       -0.0260    -0.0240    -0.6310 N.ar  1 <1>  -0.1790 
  2 C       -0.1380    -1.3490    -0.7870 C.ar  1 <1>   0.4610 
  3 C        1.1390     0.6420    -0.2950 C.ar  1 <1>   0.3610 
  4 N       -1.3320    -1.9140    -1.1160 N.pl3 1 <1>  -0.8380 
  5 C        1.0500    -2.1030    -0.5810 C.ar  1 <1>  -0.1500 
  6 C        2.3150    -0.1070    -0.0890 C.ar  1 <1>   0.0000 
  7 C        1.1470     2.0360    -0.1600 C.ar  1 <1>  -0.1500 
  8 C       -1.4640    -3.3570    -1.5560 C.3   1 <1>   0.2090 
  9 C       -2.6420    -1.1940    -1.2380 C.3   1 <1>   0.2090 
 10 C        2.2360    -1.5240    -0.2460 C.ar  1 <1>  -0.1430 
 11 C        3.4880     0.5870     0.2550 C.ar  1 <1>  -0.1500 
 12 C        2.3130     2.6740     0.1770 C.ar  1 <1>  -0.1430 
 13 C       -1.8240    -4.3230    -0.3950 C.3   1 <1>   0.4230 
 14 C       -3.5640    -1.5380    -0.0650 C.3   1 <1>  -0.1600 
 15 C        3.4810    -2.3800    -0.0400 C.3   1 <1>  -0.0970 
 16 C        3.4710     1.9520     0.3820 C.ar  1 <1>  -0.1430 
 17 C        2.5540     4.1530     0.3720 C.3   1 <1>  -0.0170 
 18 N       -2.7900    -3.8030     0.6230 N.4   1 <1>  -0.9590 
 19 C       -2.4410    -5.6380    -0.8610 C.3   1 <1>  -0.1600 
 20 C       -3.9320    -3.0200     0.0650 C.3   1 <1>   0.3430 
 21 C        4.6210     2.8640     0.7380 C.3   1 <1>  -0.0170 
 22 C        4.0870     4.2640     0.3930 C.3   1 <1>  -0.1600 
 23 C       -3.2810    -5.0080     1.3490 C.3   1 <1>   0.3430 
 24 C       -3.2580    -6.1440     0.3300 C.3   1 <1>  -0.1600 
 25 H       -0.8420     0.5490    -0.8030 H     1 <1>   0.4570 
 26 H        1.0100    -3.1680    -0.6890 H     1 <1>   0.1500 
 27 H        0.2560     2.6150    -0.3170 H     1 <1>   0.1500 
 28 H       -2.2220    -3.4290    -2.3170 H     1 <1>   0.0800 
 29 H       -0.5570    -3.6950    -2.0260 H     1 <1>   0.0800 
 30 H       -2.5000    -0.1290    -1.2670 H     1 <1>   0.0800 
 31 H       -3.1200    -1.4620    -2.1680 H     1 <1>   0.0800 
 32 H        4.4100     0.0580     0.4220 H     1 <1>   0.1500 
 33 H       -0.9090    -4.5650     0.1210 H     1 <1>   0.0800 
 34 H       -4.4830    -0.9980    -0.2190 H     1 <1>   0.0800 
 35 H       -3.1480    -1.1750     0.8580 H     1 <1>   0.0800 
 36 H        3.2730    -3.4240    -0.1950 H     1 <1>   0.0800 
 37 H        3.8550    -2.2600     0.9620 H     1 <1>   0.0800 
 38 H        4.2510    -2.0890    -0.7340 H     1 <1>   0.0800 
 39 H        2.1290     4.7400    -0.4230 H     1 <1>   0.0800 
 40 H        2.1430     4.4650     1.3170 H     1 <1>   0.0800 
 41 H       -2.2810    -3.1940     1.2750 H     1 <1>   0.4500 
 42 H       -3.0910    -5.4760    -1.7040 H     1 <1>   0.0800 
 43 H       -1.6780    -6.3420    -1.1500 H     1 <1>   0.0800 
 44 H       -4.2400    -3.4230    -0.8860 H     1 <1>   0.0800 
 45 H       -4.7700    -3.0950     0.7410 H     1 <1>   0.0800 
 46 H        4.8270     2.7880     1.7920 H     1 <1>   0.0800 
 47 H        5.5070     2.6290     0.1750 H     1 <1>   0.0800 
 48 H        4.4290     4.5310    -0.5910 H     1 <1>   0.0800 
 49 H        4.4270     5.0060     1.0940 H     1 <1>   0.0800 
 50 H       -2.6070    -5.2450     2.1570 H     1 <1>   0.0800 
 51 H       -4.2700    -4.8590     1.7540 H     1 <1>   0.0800 
 52 H       -2.8100    -7.0180     0.7710 H     1 <1>   0.0800 
 53 H       -4.2600    -6.3970     0.0270 H     1 <1>   0.0800 
@<TRIPOS>BOND
  1   1   2  ar  
  2   1   3  ar  
  3   1  25  1   
  4   2   4  1   
  5   2   5  ar  
  6   3   6  ar  
  7   3   7  ar  
  8   4   8  1   
  9   4   9  1   
 10   5  10  ar  
 11   5  26  1   
 12   6  10  ar  
 13   6  11  ar  
 14   7  12  ar  
 15   7  27  1   
 16   8  13  1   
 17   8  28  1   
 18   8  29  1   
 19   9  14  1   
 20   9  30  1   
 21   9  31  1   
 22  10  15  1   
 23  11  16  ar  
 24  11  32  1   
 25  12  16  ar  
 26  12  17  1   
 27  13  18  1   
 28  13  19  1   
 29  13  33  1   
 30  14  20  1   
 31  14  34  1   
 32  14  35  1   
 33  15  36  1   
 34  15  37  1   
 35  15  38  1   
 36  16  21  1   
 37  17  22  1   
 38  17  39  1   
 39  17  40  1   
 40  18  20  1   
 41  18  23  1   
 42  18  41  1   
 43  19  24  1   
 44  19  42  1   
 45  19  43  1   
 46  20  44  1   
 47  20  45  1   
 48  21  22  1   
 49  21  46  1   
 50  21  47  1   
 51  22  48  1   
 52  22  49  1   
 53  23  24  1   
 54  23  50  1   
 55  23  51  1   
 56  24  52  1   
 57  24  53  1   
@<TRIPOS>SUBSTRUCTURE
  1 ****   2 GROUP 4 **** **** 0

# MOE 2024.06 (io_trps.svl 2023.06)
