@<TRIPOS>MOLECULE
NONAME
38 40 1 0 0 
SMALL
USER_CHARGES


@<TRIPOS>ATOM
  1 O       -1.0880    -1.0030     0.5370 O.co2 1 <1>  -0.9000 
  2 C       -0.2030    -1.8210     0.8470 C.2   1 <1>   1.0330 
  3 O       -0.0880    -2.1570     2.0380 O.co2 1 <1>  -0.9000 
  4 C        0.6620    -2.3550    -0.1500 C.2   1 <1>  -0.2330 
  5 C        0.4730    -3.5590    -0.8280 C.2   1 <1>   0.3720 
  6 C        1.8230    -1.8730    -0.6610 C.2   1 <1>   0.0870 
  7 N        1.4330    -3.7790    -1.6550 N.2   1 <1>  -0.4100 
  8 N       -0.5950    -4.4480    -0.6790 N.pl3 1 <1>  -0.8210 
  9 O        2.2370    -2.7540    -1.5410 O.3   1 <1>  -0.0190 
 10 C        2.5920    -0.6740    -0.4160 C.ar  1 <1>   0.0530 
 11 C       -1.9140    -3.8600    -1.0270 C.3   1 <1>   0.2090 
 12 C       -0.6310    -5.1090     0.6490 C.3   1 <1>   0.2090 
 13 C        3.9480    -0.6150    -0.7450 C.ar  1 <1>  -0.1500 
 14 C        2.0250     0.4700     0.1470 C.ar  1 <1>  -0.1500 
 15 C       -2.9510    -4.9830    -1.1200 C.3   1 <1>  -0.1600 
 16 C       -1.6330    -6.2670     0.6020 C.3   1 <1>  -0.1600 
 17 C        4.7010     0.5240    -0.5220 C.ar  1 <1>  -0.1500 
 18 C        2.7710     1.6110     0.3750 C.ar  1 <1>  -0.1500 
 19 C       -3.0330    -5.7760     0.1950 C.3   1 <1>  -0.0800 
 20 C        4.1130     1.6420     0.0410 C.ar  1 <1>  -0.1500 
 21 C       -4.0070    -6.9520     0.0640 C.3   1 <1>  -0.2400 
 22 H       -1.8390    -3.3420    -1.9680 H     1 <1>   0.0800 
 23 H       -2.2150    -3.1520    -0.2730 H     1 <1>   0.0800 
 24 H       -0.9280    -4.4030     1.4060 H     1 <1>   0.0800 
 25 H        0.3510    -5.4760     0.8930 H     1 <1>   0.0800 
 26 H        4.4180    -1.4790    -1.1790 H     1 <1>   0.1500 
 27 H        0.9810     0.4720     0.4100 H     1 <1>   0.1500 
 28 H       -2.6720    -5.6350    -1.9300 H     1 <1>   0.0800 
 29 H       -3.9090    -4.5540    -1.3490 H     1 <1>   0.0800 
 30 H       -1.6750    -6.7300     1.5710 H     1 <1>   0.0800 
 31 H       -1.2750    -6.9960    -0.1030 H     1 <1>   0.0800 
 32 H        5.7440     0.5390    -0.7840 H     1 <1>   0.1500 
 33 H        2.3010     2.4740     0.8140 H     1 <1>   0.1500 
 34 H       -3.3940    -5.1130     0.9660 H     1 <1>   0.0800 
 35 H        4.6930     2.5300     0.2180 H     1 <1>   0.1500 
 36 H       -3.6740    -7.6340    -0.6980 H     1 <1>   0.0800 
 37 H       -4.9880    -6.5950    -0.1960 H     1 <1>   0.0800 
 38 H       -4.0750    -7.4840     0.9970 H     1 <1>   0.0800 
@<TRIPOS>BOND
  1   1   2  ar  
  2   2   3  ar  
  3   2   4  1   
  4   4   5  1   
  5   4   6  2   
  6   5   7  2   
  7   5   8  1   
  8   6   9  1   
  9   6  10  1   
 10   7   9  1   
 11   8  11  1   
 12   8  12  1   
 13  10  13  ar  
 14  10  14  ar  
 15  11  15  1   
 16  11  22  1   
 17  11  23  1   
 18  12  16  1   
 19  12  24  1   
 20  12  25  1   
 21  13  17  ar  
 22  13  26  1   
 23  14  18  ar  
 24  14  27  1   
 25  15  19  1   
 26  15  28  1   
 27  15  29  1   
 28  16  19  1   
 29  16  30  1   
 30  16  31  1   
 31  17  20  ar  
 32  17  32  1   
 33  18  20  ar  
 34  18  33  1   
 35  19  21  1   
 36  19  34  1   
 37  20  35  1   
 38  21  36  1   
 39  21  37  1   
 40  21  38  1   
@<TRIPOS>SUBSTRUCTURE
  1 ****   4 GROUP 4 **** **** 0

# MOE 2024.06 (io_trps.svl 2023.06)
