@<TRIPOS>MOLECULE
NONAME
48 51 1 0 0 
SMALL
USER_CHARGES


@<TRIPOS>ATOM
  1 CL       0.0960    -0.1050     0.0630 Cl    1 <1>  -0.1770 
  2 C        0.8580    -1.6500    -0.2420 C.ar  1 <1>   0.1770 
  3 C        1.8460    -1.7510    -1.2310 C.ar  1 <1>  -0.1440 
  4 C        0.4540    -2.7330     0.5100 C.ar  1 <1>  -0.1500 
  5 C        2.4380    -2.9800    -1.4600 C.ar  1 <1>  -0.1500 
  6 C        2.2660    -0.5330    -2.0410 C.3   1 <1>  -0.0960 
  7 C        1.0530    -3.9700     0.2740 C.ar  1 <1>   0.0000 
  8 C        2.0310    -4.0700    -0.7010 C.ar  1 <1>   0.1400 
  9 C        0.9290    -5.2750     0.7980 C.2   1 <1>  -0.1810 
 10 O        2.4820    -5.3230    -0.7780 O.3   1 <1>  -0.2800 
 11 C        1.8200    -6.0330     0.1280 C.2   1 <1>  -0.0100 
 12 C       -0.0430    -5.6770     1.8990 C.3   1 <1>   0.0820 
 13 C       -0.3510    -7.1690     1.9020 C.2   1 <1>   0.5690 
 14 O        0.0150    -7.8270     2.8460 O.2   1 <1>  -0.5700 
 15 N       -1.0270    -7.7440     0.8590 N.am  1 <1>  -0.6600 
 16 C       -1.4940    -7.0720    -0.3830 C.3   1 <1>   0.1400 
 17 C       -1.2910    -9.2020     0.7870 C.3   1 <1>   0.1400 
 18 C       -2.4300    -8.0890    -1.0330 C.3   1 <1>   0.2000 
 19 C       -1.8310    -9.4410    -0.6290 C.3   1 <1>  -0.0800 
 20 O       -3.6850    -7.9470    -0.4600 O.3   1 <1>  -0.6800 
 21 C       -2.7950   -10.6380    -0.7360 C.3   1 <1>   0.0200 
 22 C       -2.1210   -11.9720    -0.4640 C.2   1 <1>  -0.0400 
 23 O       -2.8650   -13.0430    -0.3840 O.3   1 <1>  -0.0190 
 24 C       -0.8460   -12.3480    -0.2730 C.2   1 <1>  -0.1500 
 25 N       -2.1600   -14.1110    -0.1480 N.2   1 <1>  -0.4100 
 26 C       -0.9380   -13.7220    -0.0750 C.2   1 <1>   0.1080 
 27 C        0.2320   -14.6420     0.1900 C.3   1 <1>  -0.0590 
 28 H       -0.3040    -2.6240     1.2630 H     1 <1>   0.1500 
 29 H        3.2020    -3.1180    -2.2030 H     1 <1>   0.1500 
 30 H        3.0310    -0.7880    -2.7520 H     1 <1>   0.0800 
 31 H        2.6500     0.2300    -1.3870 H     1 <1>   0.0800 
 32 H        1.4210    -0.1380    -2.5770 H     1 <1>   0.0800 
 33 H        2.0540    -7.0800     0.2220 H     1 <1>   0.1500 
 34 H       -0.9670    -5.1440     1.7810 H     1 <1>   0.0800 
 35 H        0.3740    -5.4030     2.8510 H     1 <1>   0.0800 
 36 H       -1.9960    -6.1420    -0.1810 H     1 <1>   0.0800 
 37 H       -0.6490    -6.8950    -1.0260 H     1 <1>   0.0800 
 38 H       -0.3890    -9.7600     0.9730 H     1 <1>   0.0800 
 39 H       -2.0250    -9.4630     1.5310 H     1 <1>   0.0800 
 40 H       -2.5220    -7.9600    -2.0980 H     1 <1>   0.0800 
 41 H       -0.9890    -9.6250    -1.2730 H     1 <1>   0.0800 
 42 H       -3.5900    -7.9330     0.5140 H     1 <1>   0.4000 
 43 H       -3.2190   -10.6670    -1.7240 H     1 <1>   0.0800 
 44 H       -3.6070   -10.5200    -0.0390 H     1 <1>   0.0800 
 45 H        0.0600   -11.7720    -0.2680 H     1 <1>   0.1500 
 46 H        0.7360   -14.3410     1.0900 H     1 <1>   0.0800 
 47 H        0.9210   -14.6040    -0.6340 H     1 <1>   0.0800 
 48 H       -0.1150   -15.6530     0.3070 H     1 <1>   0.0800 
@<TRIPOS>BOND
  1   1   2  1   
  2   2   3  ar  
  3   2   4  ar  
  4   3   5  ar  
  5   3   6  1   
  6   4   7  ar  
  7   4  28  1   
  8   5   8  ar  
  9   5  29  1   
 10   6  30  1   
 11   6  31  1   
 12   6  32  1   
 13   7   8  ar  
 14   7   9  1   
 15   8  10  1   
 16   9  11  2   
 17   9  12  1   
 18  10  11  1   
 19  11  33  1   
 20  12  13  1   
 21  12  34  1   
 22  12  35  1   
 23  13  14  2   
 24  13  15  am  
 25  15  16  1   
 26  15  17  1   
 27  16  18  1   
 28  16  36  1   
 29  16  37  1   
 30  17  19  1   
 31  17  38  1   
 32  17  39  1   
 33  18  19  1   
 34  18  20  1   
 35  18  40  1   
 36  19  21  1   
 37  19  41  1   
 38  20  42  1   
 39  21  22  1   
 40  21  43  1   
 41  21  44  1   
 42  22  23  1   
 43  22  24  2   
 44  23  25  1   
 45  24  26  1   
 46  24  45  1   
 47  25  26  2   
 48  26  27  1   
 49  27  46  1   
 50  27  47  1   
 51  27  48  1   
@<TRIPOS>SUBSTRUCTURE
  1 ****  15 GROUP 4 **** **** 0

# MOE 2024.06 (io_trps.svl 2023.06)
