@<TRIPOS>MOLECULE
NONAME
39 41 1 0 0 
SMALL
USER_CHARGES


@<TRIPOS>ATOM
  1 CL      -0.5180    -0.8100     1.9980 Cl    1 <1>  -0.1770 
  2 C       -0.5790    -2.3580     1.2020 C.ar  1 <1>   0.1770 
  3 C       -0.2090    -2.4580    -0.1250 C.ar  1 <1>  -0.1500 
  4 C       -0.9970    -3.4700     1.9070 C.ar  1 <1>  -0.1500 
  5 C       -0.2590    -3.6920    -0.7490 C.ar  1 <1>  -0.1500 
  6 C       -1.0440    -4.6990     1.2710 C.ar  1 <1>  -0.1500 
  7 C       -0.6720    -4.8430    -0.0710 C.ar  1 <1>   0.0860 
  8 C       -0.7090    -6.1290    -0.7500 C.2   1 <1>   0.5440 
  9 O       -0.7520    -6.1930    -1.9630 O.2   1 <1>  -0.5700 
 10 N       -0.7020    -7.2990    -0.0490 N.am  1 <1>  -0.7300 
 11 C       -0.6960    -8.6580    -0.6420 C.3   1 <1>   0.2200 
 12 C       -2.0660    -9.3140    -0.5320 C.3   1 <1>  -0.0800 
 13 C        0.1220    -9.5750     0.2550 C.3   1 <1>   0.1200 
 14 C       -2.0530    -9.9080     0.8820 C.3   1 <1>   0.1200 
 15 C       -3.2740    -8.4050    -0.8290 C.3   1 <1>  -0.0160 
 16 O       -0.7250    -9.8800     1.3200 O.3   1 <1>  -0.5600 
 17 C       -4.5710    -9.1970    -0.7870 C.ar  1 <1>  -0.1430 
 18 C       -4.9930    -9.9520    -1.8620 C.ar  1 <1>  -0.1500 
 19 C       -5.3930    -9.2050     0.3220 C.ar  1 <1>  -0.1500 
 20 C       -6.1780   -10.6640    -1.7770 C.ar  1 <1>   0.1600 
 21 C       -6.5590    -9.9520     0.3050 C.ar  1 <1>   0.1600 
 22 N       -6.9710   -10.6840    -0.7180 N.ar  1 <1>  -0.6200 
 23 H        0.1120    -1.5800    -0.6580 H     1 <1>   0.1500 
 24 H       -1.2830    -3.3670     2.9390 H     1 <1>   0.1500 
 25 H        0.0270    -3.7720    -1.7850 H     1 <1>   0.1500 
 26 H       -1.3810    -5.5540     1.8280 H     1 <1>   0.1500 
 27 H       -0.6320    -7.3020     0.9700 H     1 <1>   0.3700 
 28 H       -0.3240    -8.6340    -1.6530 H     1 <1>   0.0800 
 29 H       -2.0900   -10.1370    -1.2250 H     1 <1>   0.0800 
 30 H        1.0200    -9.1110     0.6220 H     1 <1>   0.0800 
 31 H        0.3620   -10.4940    -0.2530 H     1 <1>   0.0800 
 32 H       -2.4030   -10.9270     0.8880 H     1 <1>   0.0800 
 33 H       -2.6350    -9.3200     1.5690 H     1 <1>   0.0800 
 34 H       -3.1560    -7.9640    -1.8040 H     1 <1>   0.0800 
 35 H       -3.3250    -7.6000    -0.1170 H     1 <1>   0.0800 
 36 H       -4.4110    -9.9930    -2.7650 H     1 <1>   0.1500 
 37 H       -5.1400    -8.6380     1.1990 H     1 <1>   0.1500 
 38 H       -6.4910   -11.2470    -2.6260 H     1 <1>   0.1500 
 39 H       -7.1880    -9.9460     1.1790 H     1 <1>   0.1500 
@<TRIPOS>BOND
  1   1   2  1   
  2   2   3  ar  
  3   2   4  ar  
  4   3   5  ar  
  5   3  23  1   
  6   4   6  ar  
  7   4  24  1   
  8   5   7  ar  
  9   5  25  1   
 10   6   7  ar  
 11   6  26  1   
 12   7   8  1   
 13   8   9  2   
 14   8  10  am  
 15  10  11  1   
 16  10  27  1   
 17  11  12  1   
 18  11  13  1   
 19  11  28  1   
 20  12  14  1   
 21  12  15  1   
 22  12  29  1   
 23  13  16  1   
 24  13  30  1   
 25  13  31  1   
 26  14  16  1   
 27  14  32  1   
 28  14  33  1   
 29  15  17  1   
 30  15  34  1   
 31  15  35  1   
 32  17  18  ar  
 33  17  19  ar  
 34  18  20  ar  
 35  18  36  1   
 36  19  21  ar  
 37  19  37  1   
 38  20  22  ar  
 39  20  38  1   
 40  21  22  ar  
 41  21  39  1   
@<TRIPOS>SUBSTRUCTURE
  1 ****  10 GROUP 4 **** **** 0

# MOE 2024.06 (io_trps.svl 2023.06)
