@<TRIPOS>MOLECULE
NONAME
39 39 1 0 0 
SMALL
USER_CHARGES


@<TRIPOS>ATOM
  1 S        0.5480     0.4550    -0.2050 S.3   1 <1>  -0.4600 
  2 C        1.4540     1.3800     1.0890 C.3   1 <1>   0.1310 
  3 C        0.1930    -1.1330     0.5880 C.3   1 <1>   0.0700 
  4 C        1.6330     2.8560     0.7360 C.2   1 <1>   0.5690 
  5 C       -0.5390    -2.0010    -0.4310 C.3   1 <1>  -0.2400 
  6 O        1.1320     3.6600     1.4880 O.2   1 <1>  -0.5700 
  7 N        2.3660     3.2640    -0.3560 N.am  1 <1>  -0.6600 
  8 C        2.4160     4.7060    -0.7330 C.3   1 <1>   0.1400 
  9 C        3.0390     2.3430    -1.3150 C.3   1 <1>   0.0600 
 10 C        3.5640     5.4090    -0.0030 C.3   1 <1>   0.0210 
 11 C        3.7450     6.8460    -0.4530 C.2   1 <1>   0.3350 
 12 N        3.0610     7.4510    -1.3430 N.2   1 <1>  -0.4100 
 13 N        4.6920     7.6000     0.0840 N.2   1 <1>  -0.5650 
 14 O        3.5300     8.6570    -1.4310 O.3   1 <1>  -0.0190 
 15 C        4.5030     8.6880    -0.5540 C.2   1 <1>   0.2980 
 16 C        5.2840     9.9940    -0.3970 C.3   1 <1>   0.1000 
 17 C        6.6010     9.8050     0.3720 C.3   1 <1>  -0.2400 
 18 C        4.4230    11.0570     0.3000 C.3   1 <1>  -0.2400 
 19 H        2.4070     0.9050     1.2210 H     1 <1>   0.0800 
 20 H        0.8790     1.2930     1.9920 H     1 <1>   0.0800 
 21 H       -0.4170    -0.9360     1.4520 H     1 <1>   0.0800 
 22 H        1.1320    -1.5700     0.8810 H     1 <1>   0.0800 
 23 H       -1.4550    -1.5240    -0.7320 H     1 <1>   0.0800 
 24 H       -0.7720    -2.9570     0.0010 H     1 <1>   0.0800 
 25 H        0.0780    -2.1540    -1.2990 H     1 <1>   0.0800 
 26 H        1.4850     5.1820    -0.4750 H     1 <1>   0.0800 
 27 H        2.5450     4.7970    -1.7980 H     1 <1>   0.0800 
 28 H        3.2490     1.3930    -0.8590 H     1 <1>   0.0800 
 29 H        3.9680     2.7710    -1.6480 H     1 <1>   0.0800 
 30 H        2.4000     2.1840    -2.1670 H     1 <1>   0.0800 
 31 H        4.4830     4.8840    -0.1850 H     1 <1>   0.0800 
 32 H        3.3670     5.4050     1.0530 H     1 <1>   0.0800 
 33 H        5.5250    10.3450    -1.3850 H     1 <1>   0.0800 
 34 H        6.4040     9.4650     1.3740 H     1 <1>   0.0800 
 35 H        7.1460    10.7300     0.4210 H     1 <1>   0.0800 
 36 H        7.2130     9.0710    -0.1220 H     1 <1>   0.0800 
 37 H        4.1530    10.7270     1.2880 H     1 <1>   0.0800 
 38 H        3.5210    11.2310    -0.2600 H     1 <1>   0.0800 
 39 H        4.9610    11.9850     0.3790 H     1 <1>   0.0800 
@<TRIPOS>BOND
  1   1   2  1   
  2   1   3  1   
  3   2   4  1   
  4   2  19  1   
  5   2  20  1   
  6   3   5  1   
  7   3  21  1   
  8   3  22  1   
  9   4   6  2   
 10   4   7  am  
 11   5  23  1   
 12   5  24  1   
 13   5  25  1   
 14   7   8  1   
 15   7   9  1   
 16   8  10  1   
 17   8  26  1   
 18   8  27  1   
 19   9  28  1   
 20   9  29  1   
 21   9  30  1   
 22  10  11  1   
 23  10  31  1   
 24  10  32  1   
 25  11  12  2   
 26  11  13  1   
 27  12  14  1   
 28  13  15  2   
 29  14  15  1   
 30  15  16  1   
 31  16  17  1   
 32  16  18  1   
 33  16  33  1   
 34  17  34  1   
 35  17  35  1   
 36  17  36  1   
 37  18  37  1   
 38  18  38  1   
 39  18  39  1   
@<TRIPOS>SUBSTRUCTURE
  1 ****  10 GROUP 4 **** **** 0

# MOE 2024.06 (io_trps.svl 2023.06)
