@<TRIPOS>MOLECULE
NONAME
44 46 1 0 0 
SMALL
USER_CHARGES


@<TRIPOS>ATOM
  1 CL       0.0180    -0.5370    -0.0130 Cl    1 <1>  -0.1770 
  2 C       -1.0820     0.8350     0.0360 C.ar  1 <1>   0.1770 
  3 C       -0.5760     2.1480     0.2550 C.ar  1 <1>   0.4100 
  4 C       -2.4230     0.6470    -0.1060 C.ar  1 <1>   0.2170 
  5 N       -1.3830     3.1950     0.3230 N.ar  1 <1>  -0.6200 
  6 N        0.7450     2.4310     0.4120 N.pl3 1 <1>  -0.8380 
  7 N       -3.2070     1.7540    -0.0230 N.ar  1 <1>  -0.1790 
  8 C       -3.1160    -0.6910    -0.3400 C.3   1 <1>  -0.0970 
  9 C       -2.6790     2.9750     0.1910 C.ar  1 <1>   0.7710 
 10 C        1.2360     3.2320     1.6070 C.3   1 <1>   0.2090 
 11 C        1.8060     1.9580    -0.5470 C.3   1 <1>   0.2090 
 12 N       -3.4710     4.0400     0.2760 N.pl3 1 <1>  -0.9000 
 13 C        1.8560     4.5960     1.2030 C.3   1 <1>   0.4230 
 14 C        2.7460     3.0540    -1.1160 C.3   1 <1>  -0.0800 
 15 N        1.3200     4.9390    -0.1680 N.4   1 <1>  -0.9590 
 16 C        3.4000     4.5710     1.3460 C.3   1 <1>   0.1200 
 17 C        4.0980     3.1320    -0.3900 C.3   1 <1>   0.1200 
 18 C        2.1600     4.4640    -1.3030 C.3   1 <1>   0.3430 
 19 C        1.0820     6.4380    -0.2900 C.3   1 <1>   0.2370 
 20 O        3.9360     3.3320     0.9720 O.3   1 <1>  -0.5600 
 21 C        2.3230     7.2880    -0.0130 C.2   1 <1>   0.9060 
 22 O        3.1310     7.4480    -0.9310 O.co2 1 <1>  -0.9000 
 23 O        2.5400     7.6050     1.1590 O.co2 1 <1>  -0.9000 
 24 H       -4.2190     1.6930    -0.1090 H     1 <1>   0.4570 
 25 H       -2.4100    -1.5000    -0.4020 H     1 <1>   0.0800 
 26 H       -3.6700    -0.6720    -1.2620 H     1 <1>   0.0800 
 27 H       -3.7920    -0.9100     0.4680 H     1 <1>   0.0800 
 28 H        0.4100     3.4290     2.2670 H     1 <1>   0.0800 
 29 H        1.9410     2.6460     2.1730 H     1 <1>   0.0800 
 30 H        2.4000     1.2010    -0.0600 H     1 <1>   0.0800 
 31 H        1.3190     1.4840    -1.3820 H     1 <1>   0.0800 
 32 H       -4.4900     4.0850     0.2050 H     1 <1>   0.4000 
 33 H       -3.0420     4.9540     0.4570 H     1 <1>   0.4000 
 34 H        1.5020     5.3410     1.8960 H     1 <1>   0.0800 
 35 H        3.0090     2.7280    -2.1060 H     1 <1>   0.0800 
 36 H        0.4410     4.3950    -0.2100 H     1 <1>   0.4500 
 37 H        3.6440     4.7070     2.3850 H     1 <1>   0.0800 
 38 H        3.8810     5.3630     0.7980 H     1 <1>   0.0800 
 39 H        4.7150     3.9240    -0.7830 H     1 <1>   0.0800 
 40 H        4.6310     2.2040    -0.5060 H     1 <1>   0.0800 
 41 H        1.5620     4.4780    -2.1980 H     1 <1>   0.0800 
 42 H        2.9750     5.1570    -1.4550 H     1 <1>   0.0800 
 43 H        0.7420     6.6790    -1.2800 H     1 <1>   0.0800 
 44 H        0.3320     6.7460     0.4140 H     1 <1>   0.0800 
@<TRIPOS>BOND
  1   1   2  1   
  2   2   3  ar  
  3   2   4  ar  
  4   3   5  ar  
  5   3   6  1   
  6   4   7  ar  
  7   4   8  1   
  8   5   9  ar  
  9   6  10  1   
 10   6  11  1   
 11   7   9  ar  
 12   7  24  1   
 13   8  25  1   
 14   8  26  1   
 15   8  27  1   
 16   9  12  1   
 17  10  13  1   
 18  10  28  1   
 19  10  29  1   
 20  11  14  1   
 21  11  30  1   
 22  11  31  1   
 23  12  32  1   
 24  12  33  1   
 25  13  15  1   
 26  13  16  1   
 27  13  34  1   
 28  14  17  1   
 29  14  18  1   
 30  14  35  1   
 31  15  18  1   
 32  15  19  1   
 33  15  36  1   
 34  16  20  1   
 35  16  37  1   
 36  16  38  1   
 37  17  20  1   
 38  17  39  1   
 39  17  40  1   
 40  18  41  1   
 41  18  42  1   
 42  19  21  1   
 43  19  43  1   
 44  19  44  1   
 45  21  22  ar  
 46  21  23  ar  
@<TRIPOS>SUBSTRUCTURE
  1 ****   6 GROUP 4 **** **** 0

# MOE 2024.06 (io_trps.svl 2023.06)
