@<TRIPOS>MOLECULE
NONAME
26 27 1 0 0 
SMALL
USER_CHARGES


@<TRIPOS>ATOM
  1 F       -0.1340     0.1260     0.0870 F     1 <1>  -0.1900 
  2 C       -0.0780     1.4340     0.1140 C.ar  1 <1>   0.1900 
  3 C        1.1150     2.0730    -0.1870 C.ar  1 <1>  -0.1440 
  4 C       -1.2250     2.1260     0.4490 C.ar  1 <1>  -0.1500 
  5 C        1.1320     3.4580    -0.1510 C.ar  1 <1>  -0.1500 
  6 C        2.3690     1.2880    -0.5430 C.3   1 <1>  -0.0960 
  7 C       -1.1830     3.5090     0.4800 C.ar  1 <1>  -0.1500 
  8 C       -0.0070     4.1940     0.1750 C.ar  1 <1>   0.1170 
  9 N        0.0280     5.6020     0.1870 N.am  1 <1>  -0.4770 
 10 C        1.0360     6.4050     0.6360 C.2   1 <1>   0.5690 
 11 C       -1.0280     6.3970    -0.4720 C.3   1 <1>   0.1400 
 12 O        2.0520     6.0550     1.1850 O.2   1 <1>  -0.5700 
 13 C        0.7510     7.8560     0.3560 C.3   1 <1>  -0.0990 
 14 C       -0.7050     7.8550    -0.1270 C.3   1 <1>  -0.1600 
 15 H       -2.1270     1.5900     0.6820 H     1 <1>   0.1500 
 16 H        2.0410     3.9870    -0.3760 H     1 <1>   0.1500 
 17 H        2.6250     0.6250     0.2640 H     1 <1>   0.0800 
 18 H        3.1990     1.9480    -0.7200 H     1 <1>   0.0800 
 19 H        2.1970     0.7050    -1.4290 H     1 <1>   0.0800 
 20 H       -2.0660     4.0550     0.7520 H     1 <1>   0.1500 
 21 H       -2.0030     6.1240    -0.1100 H     1 <1>   0.0800 
 22 H       -0.9760     6.2340    -1.5350 H     1 <1>   0.0800 
 23 H        1.4170     8.1980    -0.4140 H     1 <1>   0.0800 
 24 H        0.8800     8.4460     1.2450 H     1 <1>   0.0800 
 25 H       -1.3510     8.1760     0.6720 H     1 <1>   0.0800 
 26 H       -0.8520     8.5040    -0.9730 H     1 <1>   0.0800 
@<TRIPOS>BOND
  1   1   2  1   
  2   2   3  ar  
  3   2   4  ar  
  4   3   5  ar  
  5   3   6  1   
  6   4   7  ar  
  7   4  15  1   
  8   5   8  ar  
  9   5  16  1   
 10   6  17  1   
 11   6  18  1   
 12   6  19  1   
 13   7   8  ar  
 14   7  20  1   
 15   8   9  1   
 16   9  10  am  
 17   9  11  1   
 18  10  12  2   
 19  10  13  1   
 20  11  14  1   
 21  11  21  1   
 22  11  22  1   
 23  13  14  1   
 24  13  23  1   
 25  13  24  1   
 26  14  25  1   
 27  14  26  1   
@<TRIPOS>SUBSTRUCTURE
  1 ****   8 GROUP 4 **** **** 0

# MOE 2024.06 (io_trps.svl 2023.06)
