@<TRIPOS>MOLECULE
NONAME
45 47 1 0 0 
SMALL
USER_CHARGES


@<TRIPOS>ATOM
  1 S        1.1350    -1.6550     2.6320 S.o2  1 <1>   1.5000 
  2 O        0.7630    -1.0790     3.9000 O.2   1 <1>  -0.6500 
  3 O        2.2510    -2.5720     2.5590 O.2   1 <1>  -0.6500 
  4 N       -0.2200    -2.5060     2.1330 N.am  1 <1>  -0.9140 
  5 C        1.2970    -0.3770     1.3630 C.2   1 <1>  -0.0220 
  6 C        0.0440    -3.5870     1.1930 C.3   1 <1>   0.2760 
  7 S       -0.1790     0.4610     0.8520 S.3   1 <1>  -0.0800 
  8 C        2.3520     0.1110     0.6810 C.2   1 <1>  -0.1500 
  9 C       -1.2370    -3.9330     0.4500 C.3   1 <1>  -0.0800 
 10 C        0.2730    -4.8900     1.9550 C.3   1 <1>   0.1200 
 11 C        0.7020     1.4570    -0.3110 C.ar  1 <1>   0.0400 
 12 C        2.0500     1.1420    -0.2740 C.ar  1 <1>   0.0000 
 13 C       -1.9540    -4.8830     1.4190 C.3   1 <1>   0.1200 
 14 C       -2.0750    -2.7150     0.0080 C.3   1 <1>  -0.0550 
 15 O       -1.0010    -5.2810     2.3640 O.3   1 <1>  -0.5600 
 16 C        0.1670     2.4140    -1.1520 C.ar  1 <1>  -0.1500 
 17 C        2.9040     1.8300    -1.1300 C.ar  1 <1>  -0.1500 
 18 S       -3.4830    -3.1580    -1.0020 S.o2  1 <1>   1.3330 
 19 C        1.0320     3.0870    -1.9970 C.ar  1 <1>  -0.1500 
 20 C        2.3930     2.7930    -1.9840 C.ar  1 <1>  -0.1500 
 21 O       -4.4670    -3.8250    -0.1790 O.2   1 <1>  -0.6500 
 22 O       -2.9770    -3.8170    -2.1850 O.2   1 <1>  -0.6500 
 23 N       -4.1150    -1.6510    -1.4590 N.am  1 <1>  -0.8490 
 24 C       -4.8640    -1.7250    -2.7180 C.3   1 <1>   0.1160 
 25 C       -4.9440    -1.0280    -0.4210 C.3   1 <1>   0.1160 
 26 H       -0.5710    -2.9530     2.9820 H     1 <1>   0.4200 
 27 H        0.8490    -3.3440     0.5180 H     1 <1>   0.0800 
 28 H        3.3690    -0.2200     0.8060 H     1 <1>   0.1500 
 29 H       -0.9730    -4.5000    -0.4270 H     1 <1>   0.0800 
 30 H        0.9140    -4.7810     2.8120 H     1 <1>   0.0800 
 31 H        0.6620    -5.6530     1.3030 H     1 <1>   0.0800 
 32 H       -2.3360    -5.7560     0.9170 H     1 <1>   0.0800 
 33 H       -2.7530    -4.3930     1.9490 H     1 <1>   0.0800 
 34 H       -1.4470    -2.0550    -0.5570 H     1 <1>   0.0800 
 35 H       -2.4180    -2.1780     0.8710 H     1 <1>   0.0800 
 36 H       -0.8880     2.6230    -1.1440 H     1 <1>   0.1500 
 37 H        3.9570     1.6090    -1.1250 H     1 <1>   0.1500 
 38 H        0.6550     3.8400    -2.6670 H     1 <1>   0.1500 
 39 H        3.0540     3.3250    -2.6470 H     1 <1>   0.1500 
 40 H       -5.2340    -0.7520    -2.9910 H     1 <1>   0.0800 
 41 H       -5.6940    -2.4060    -2.6210 H     1 <1>   0.0800 
 42 H       -4.2210    -2.0740    -3.5090 H     1 <1>   0.0800 
 43 H       -5.2490    -0.0440    -0.7340 H     1 <1>   0.0800 
 44 H       -4.3850    -0.9330     0.4940 H     1 <1>   0.0800 
 45 H       -5.8210    -1.6240    -0.2300 H     1 <1>   0.0800 
@<TRIPOS>BOND
  1   1   2  2   
  2   1   3  2   
  3   1   4  am  
  4   1   5  1   
  5   4   6  1   
  6   4  26  1   
  7   5   7  1   
  8   5   8  2   
  9   6   9  1   
 10   6  10  1   
 11   6  27  1   
 12   7  11  1   
 13   8  12  1   
 14   8  28  1   
 15   9  13  1   
 16   9  14  1   
 17   9  29  1   
 18  10  15  1   
 19  10  30  1   
 20  10  31  1   
 21  11  12  ar  
 22  11  16  ar  
 23  12  17  ar  
 24  13  15  1   
 25  13  32  1   
 26  13  33  1   
 27  14  18  1   
 28  14  34  1   
 29  14  35  1   
 30  16  19  ar  
 31  16  36  1   
 32  17  20  ar  
 33  17  37  1   
 34  18  21  2   
 35  18  22  2   
 36  18  23  am  
 37  19  20  ar  
 38  19  38  1   
 39  20  39  1   
 40  23  24  1   
 41  23  25  1   
 42  24  40  1   
 43  24  41  1   
 44  24  42  1   
 45  25  43  1   
 46  25  44  1   
 47  25  45  1   
@<TRIPOS>SUBSTRUCTURE
  1 ****   7 GROUP 4 **** **** 0

# MOE 2024.06 (io_trps.svl 2023.06)
