@<TRIPOS>MOLECULE
NONAME
56 60 1 0 0 
SMALL
USER_CHARGES


@<TRIPOS>ATOM
  1 O       -2.2260     0.9000    -0.6410 O.2   1 <1>  -0.5700 
  2 C       -1.8220     1.8960    -0.0670 C.2   1 <1>   0.5440 
  3 N       -2.7780     2.6620     0.5540 N.am  1 <1>  -0.6600 
  4 C       -0.4260     2.2730    -0.1020 C.ar  1 <1>   0.0860 
  5 C       -3.8480     2.0140     1.3890 C.3   1 <1>   0.1400 
  6 C       -3.0170     4.0700     0.1300 C.3   1 <1>   0.1400 
  7 C        0.4330     1.7420    -1.0650 C.ar  1 <1>   0.1600 
  8 C        0.1360     3.1710     0.8050 C.ar  1 <1>  -0.1500 
  9 C       -5.1780     1.7900     0.6240 C.3   1 <1>   0.4230 
 10 C       -4.2950     4.2470    -0.7270 C.3   1 <1>  -0.0800 
 11 N        1.7140     2.0280    -1.2100 N.ar  1 <1>  -0.6200 
 12 C        1.4690     3.4780     0.6720 C.ar  1 <1>  -0.1500 
 13 N       -4.9070     1.7380    -0.8610 N.4   1 <1>  -0.9590 
 14 C       -6.2660     2.8070     1.0280 C.3   1 <1>   0.1200 
 15 C       -5.4780     4.8280     0.0640 C.3   1 <1>   0.1200 
 16 C       -4.7300     3.0390    -1.5810 C.3   1 <1>   0.3430 
 17 C        2.2130     2.8910    -0.3460 C.ar  1 <1>   0.4100 
 18 C       -5.7680     0.7880    -1.6190 C.3   1 <1>   0.4860 
 19 O       -5.7450     4.0890     1.2060 O.3   1 <1>  -0.5600 
 20 N        3.5250     3.1640    -0.5160 N.pl3 1 <1>  -0.9000 
 21 C       -5.8420    -0.5410    -0.8920 C.ar  1 <1>  -0.1430 
 22 C       -7.0390    -0.9400    -0.3040 C.ar  1 <1>  -0.1500 
 23 C       -4.7120    -1.3510    -0.7930 C.ar  1 <1>  -0.1500 
 24 C       -7.0770    -2.1370     0.3840 C.ar  1 <1>  -0.1430 
 25 C       -4.7640    -2.5490    -0.0980 C.ar  1 <1>  -0.1500 
 26 C       -5.9590    -2.9190     0.4860 C.ar  1 <1>   0.0830 
 27 C       -8.2010    -2.8190     1.1080 C.3   1 <1>  -0.0170 
 28 O       -6.1640    -4.0420     1.1900 O.3   1 <1>  -0.3630 
 29 C       -7.5180    -4.1020     1.6160 C.3   1 <1>   0.1200 
 30 H       -3.4910     1.0520     1.7160 H     1 <1>   0.0800 
 31 H       -4.0180     2.5970     2.2780 H     1 <1>   0.0800 
 32 H       -3.0690     4.6990     1.0040 H     1 <1>   0.0800 
 33 H       -2.1710     4.4030    -0.4480 H     1 <1>   0.0800 
 34 H        0.0250     1.0310    -1.7640 H     1 <1>   0.1500 
 35 H       -0.4550     3.6090     1.5890 H     1 <1>   0.1500 
 36 H       -5.5420     0.8290     0.9420 H     1 <1>   0.0800 
 37 H       -4.0570     5.0180    -1.4380 H     1 <1>   0.0800 
 38 H        1.9500     4.1670     1.3390 H     1 <1>   0.1500 
 39 H       -3.9560     1.3110    -0.8660 H     1 <1>   0.4500 
 40 H       -6.6660     2.5130     1.9830 H     1 <1>   0.0800 
 41 H       -7.0760     2.8340     0.3220 H     1 <1>   0.0800 
 42 H       -6.3730     4.8860    -0.5330 H     1 <1>   0.0800 
 43 H       -5.2350     5.8250     0.3940 H     1 <1>   0.0800 
 44 H       -3.9950     2.8950    -2.3570 H     1 <1>   0.0800 
 45 H       -5.6570     3.2990    -2.0660 H     1 <1>   0.0800 
 46 H       -6.7600     1.1950    -1.7220 H     1 <1>   0.0800 
 47 H       -5.3620     0.6290    -2.6040 H     1 <1>   0.0800 
 48 H        3.9870     2.5810    -1.2170 H     1 <1>   0.4000 
 49 H        4.1060     3.4000     0.2860 H     1 <1>   0.4000 
 50 H       -7.9320    -0.3430    -0.3750 H     1 <1>   0.1500 
 51 H       -3.7800    -1.0650    -1.2510 H     1 <1>   0.1500 
 52 H       -3.9040    -3.1890    -0.0070 H     1 <1>   0.1500 
 53 H       -9.0120    -3.0550     0.4420 H     1 <1>   0.0800 
 54 H       -8.5610    -2.2260     1.9290 H     1 <1>   0.0800 
 55 H       -7.9630    -4.9840     1.1890 H     1 <1>   0.0800 
 56 H       -7.5290    -4.1610     2.6900 H     1 <1>   0.0800 
@<TRIPOS>BOND
  1   1   2  2   
  2   2   3  am  
  3   2   4  1   
  4   3   5  1   
  5   3   6  1   
  6   4   7  ar  
  7   4   8  ar  
  8   5   9  1   
  9   5  30  1   
 10   5  31  1   
 11   6  10  1   
 12   6  32  1   
 13   6  33  1   
 14   7  11  ar  
 15   7  34  1   
 16   8  12  ar  
 17   8  35  1   
 18   9  13  1   
 19   9  14  1   
 20   9  36  1   
 21  10  15  1   
 22  10  16  1   
 23  10  37  1   
 24  11  17  ar  
 25  12  17  ar  
 26  12  38  1   
 27  13  16  1   
 28  13  18  1   
 29  13  39  1   
 30  14  19  1   
 31  14  40  1   
 32  14  41  1   
 33  15  19  1   
 34  15  42  1   
 35  15  43  1   
 36  16  44  1   
 37  16  45  1   
 38  17  20  1   
 39  18  21  1   
 40  18  46  1   
 41  18  47  1   
 42  20  48  1   
 43  20  49  1   
 44  21  22  ar  
 45  21  23  ar  
 46  22  24  ar  
 47  22  50  1   
 48  23  25  ar  
 49  23  51  1   
 50  24  26  ar  
 51  24  27  1   
 52  25  26  ar  
 53  25  52  1   
 54  26  28  1   
 55  27  29  1   
 56  27  53  1   
 57  27  54  1   
 58  28  29  1   
 59  29  55  1   
 60  29  56  1   
@<TRIPOS>SUBSTRUCTURE
  1 ****   1 GROUP 4 **** **** 0

# MOE 2024.06 (io_trps.svl 2023.06)
