@<TRIPOS>MOLECULE
NONAME
51 54 1 0 0 
SMALL
USER_CHARGES


@<TRIPOS>ATOM
  1 O       -0.5280    -0.3880     2.5950 O.2   1 <1>  -0.5700 
  2 C       -1.2100     0.4230     1.9910 C.2   1 <1>   0.7160 
  3 N       -2.4180    -0.0010     1.4800 N.am  1 <1>  -0.6600 
  4 C       -0.7340     1.7710     1.8800 C.2   1 <1>  -0.0860 
  5 C       -2.7290    -1.4480     1.2650 C.3   1 <1>   0.1400 
  6 C       -3.5120     0.8960     1.0060 C.3   1 <1>   0.1400 
  7 C       -0.7090     2.6560     0.8300 C.2   1 <1>  -0.0260 
  8 C       -0.1180     2.4700     2.9150 C.2   1 <1>   0.1390 
  9 C       -3.1950    -1.6990    -0.1820 C.3   1 <1>   0.3440 
 10 C       -3.9170     0.5360    -0.4420 C.3   1 <1>   0.2000 
 11 N       -1.1410     2.5250    -0.4720 N.2   1 <1>  -0.5760 
 12 N       -0.1100     3.7960     1.3050 N.pl3 1 <1>   0.6010 
 13 N        0.2470     3.6760     2.5960 N.2   1 <1>  -0.7070 
 14 O       -4.2450    -0.8260    -0.5140 O.3   1 <1>  -0.5600 
 15 C       -3.6570    -3.1430    -0.3550 C.ar  1 <1>  -0.1430 
 16 C       -5.1160     1.3450    -0.9890 C.3   1 <1>  -0.0800 
 17 C       -0.9510     3.5470    -1.2460 C.2   1 <1>   0.3760 
 18 C        0.0760     4.8720     0.4680 C.2   1 <1>  -0.1810 
 19 C       -2.7540    -4.1060    -0.7840 C.ar  1 <1>  -0.1500 
 20 C       -4.9630    -3.5240    -0.0770 C.ar  1 <1>  -0.1500 
 21 C       -4.7920     2.8420    -1.1060 C.3   1 <1>  -0.2400 
 22 C       -6.4090     1.1580    -0.1770 C.3   1 <1>  -0.2400 
 23 C       -0.3410     4.7630    -0.8210 C.2   1 <1>  -0.1240 
 24 C       -3.1480    -5.4240    -0.9330 C.ar  1 <1>  -0.1500 
 25 C       -5.3600    -4.8420    -0.2250 C.ar  1 <1>  -0.1500 
 26 C       -0.1760     5.8980    -1.8190 C.3   1 <1>  -0.1020 
 27 C       -4.4520    -5.7940    -0.6530 C.ar  1 <1>  -0.1500 
 28 H       -1.8630    -2.0560     1.4610 H     1 <1>   0.0800 
 29 H       -3.5050    -1.7510     1.9450 H     1 <1>   0.0800 
 30 H       -4.3600     0.7720     1.6540 H     1 <1>   0.0800 
 31 H       -3.2140     1.9250     1.0590 H     1 <1>   0.0800 
 32 H        0.0440     2.0480     3.8950 H     1 <1>   0.1500 
 33 H       -2.3810    -1.5050    -0.8590 H     1 <1>   0.0800 
 34 H       -3.0730     0.7020    -1.0900 H     1 <1>   0.0800 
 35 H       -5.2990     0.9810    -1.9860 H     1 <1>   0.0800 
 36 H       -1.2700     3.4820    -2.2720 H     1 <1>   0.0600 
 37 H        0.5480     5.7330     0.9020 H     1 <1>   0.1500 
 38 H       -1.7360    -3.8340    -1.0050 H     1 <1>   0.1500 
 39 H       -5.6780    -2.7890     0.2520 H     1 <1>   0.1500 
 40 H       -4.6450     3.2870    -0.1380 H     1 <1>   0.0800 
 41 H       -5.6010     3.3570    -1.5950 H     1 <1>   0.0800 
 42 H       -3.9020     2.9840    -1.6920 H     1 <1>   0.0800 
 43 H       -6.3160     1.5730     0.8100 H     1 <1>   0.0800 
 44 H       -6.6470     0.1120    -0.0910 H     1 <1>   0.0800 
 45 H       -7.2300     1.6460    -0.6730 H     1 <1>   0.0800 
 46 H       -2.4400    -6.1630    -1.2670 H     1 <1>   0.1500 
 47 H       -6.3750    -5.1240    -0.0090 H     1 <1>   0.1500 
 48 H        0.4320     5.5780    -2.6470 H     1 <1>   0.0800 
 49 H        0.2990     6.7460    -1.3560 H     1 <1>   0.0800 
 50 H       -1.1360     6.2080    -2.1920 H     1 <1>   0.0800 
 51 H       -4.7590    -6.8180    -0.7690 H     1 <1>   0.1500 
@<TRIPOS>BOND
  1   1   2  2   
  2   2   3  am  
  3   2   4  1   
  4   3   5  1   
  5   3   6  1   
  6   4   7  2   
  7   4   8  1   
  8   5   9  1   
  9   5  28  1   
 10   5  29  1   
 11   6  10  1   
 12   6  30  1   
 13   6  31  1   
 14   7  11  1   
 15   7  12  1   
 16   8  13  2   
 17   8  32  1   
 18   9  14  1   
 19   9  15  1   
 20   9  33  1   
 21  10  14  1   
 22  10  16  1   
 23  10  34  1   
 24  11  17  2   
 25  12  13  1   
 26  12  18  1   
 27  15  19  ar  
 28  15  20  ar  
 29  16  21  1   
 30  16  22  1   
 31  16  35  1   
 32  17  23  1   
 33  17  36  1   
 34  18  23  2   
 35  18  37  1   
 36  19  24  ar  
 37  19  38  1   
 38  20  25  ar  
 39  20  39  1   
 40  21  40  1   
 41  21  41  1   
 42  21  42  1   
 43  22  43  1   
 44  22  44  1   
 45  22  45  1   
 46  23  26  1   
 47  24  27  ar  
 48  24  46  1   
 49  25  27  ar  
 50  25  47  1   
 51  26  48  1   
 52  26  49  1   
 53  26  50  1   
 54  27  51  1   
@<TRIPOS>SUBSTRUCTURE
  1 ****   3 GROUP 4 **** **** 0

# MOE 2024.06 (io_trps.svl 2023.06)
