@<TRIPOS>MOLECULE
NONAME
41 42 1 0 0 
SMALL
USER_CHARGES


@<TRIPOS>ATOM
  1 S       -0.0560     0.3940    -0.9500 S.o2  1 <1>   1.3330 
  2 O       -0.7410    -0.7610    -1.4840 O.2   1 <1>  -0.6500 
  3 O        0.5070     1.3730    -1.8530 O.2   1 <1>  -0.6500 
  4 N        1.1920    -0.1810     0.0500 N.am  1 <1>  -0.8490 
  5 C       -1.1470     1.2240     0.2170 C.3   1 <1>  -0.0550 
  6 C        0.9040    -1.4860     0.6570 C.3   1 <1>   0.1160 
  7 C        2.4880    -0.2270    -0.6350 C.3   1 <1>   0.1160 
  8 C       -0.7510     2.6490     0.6690 C.3   1 <1>  -0.0800 
  9 C       -0.9950     3.7200    -0.3950 C.3   1 <1>   0.2000 
 10 C        0.7030     2.8620     1.0970 C.3   1 <1>   0.1400 
 11 O       -2.3240     4.1130    -0.3540 O.3   1 <1>  -0.6800 
 12 C       -0.0610     4.8780    -0.0380 C.3   1 <1>   0.1400 
 13 N        0.9580     4.3040     0.8790 N.am  1 <1>  -0.6600 
 14 C        2.2080     4.8460     1.0670 C.2   1 <1>   0.7150 
 15 O        3.0910     4.1310     1.5050 O.2   1 <1>  -0.5700 
 16 C        2.4830     6.2160     0.7410 C.2   1 <1>  -0.2370 
 17 N        3.6480     6.6450     0.1880 N.pl3 1 <1>   0.3140 
 18 C        1.7250     7.3400     0.8850 C.2   1 <1>  -0.1500 
 19 N        3.6470     7.9670    -0.0380 N.2   1 <1>  -0.7070 
 20 C        4.8210     5.8310    -0.1710 C.3   1 <1>   0.0160 
 21 C        2.4910     8.3760     0.3880 C.2   1 <1>   0.1390 
 22 H       -2.1230     1.2870    -0.2250 H     1 <1>   0.0800 
 23 H       -1.2410     0.6060     1.0870 H     1 <1>   0.0800 
 24 H        1.6800    -1.7490     1.3560 H     1 <1>   0.0800 
 25 H        0.8440    -2.2490    -0.1020 H     1 <1>   0.0800 
 26 H       -0.0330    -1.4530     1.1860 H     1 <1>   0.0800 
 27 H        3.2530    -0.5800     0.0350 H     1 <1>   0.0800 
 28 H        2.7660     0.7590    -0.9680 H     1 <1>   0.0800 
 29 H        2.4350    -0.8790    -1.4910 H     1 <1>   0.0800 
 30 H       -1.3500     2.8930     1.5280 H     1 <1>   0.0800 
 31 H       -0.7780     3.3740    -1.3900 H     1 <1>   0.0800 
 32 H        1.3930     2.3110     0.4850 H     1 <1>   0.0800 
 33 H        0.8600     2.5990     2.1300 H     1 <1>   0.0800 
 34 H       -2.5510     4.4690     0.5260 H     1 <1>   0.4000 
 35 H       -0.5980     5.6590     0.4700 H     1 <1>   0.0800 
 36 H        0.4090     5.2680    -0.9240 H     1 <1>   0.0800 
 37 H        0.7380     7.4310     1.3020 H     1 <1>   0.1500 
 38 H        4.5090     5.0080    -0.7860 H     1 <1>   0.0800 
 39 H        5.2780     5.4600     0.7270 H     1 <1>   0.0800 
 40 H        5.5240     6.4400    -0.7080 H     1 <1>   0.0800 
 41 H        2.1830     9.4070     0.3520 H     1 <1>   0.1500 
@<TRIPOS>BOND
  1   1   2  2   
  2   1   3  2   
  3   1   4  am  
  4   1   5  1   
  5   4   6  1   
  6   4   7  1   
  7   5   8  1   
  8   5  22  1   
  9   5  23  1   
 10   6  24  1   
 11   6  25  1   
 12   6  26  1   
 13   7  27  1   
 14   7  28  1   
 15   7  29  1   
 16   8   9  1   
 17   8  10  1   
 18   8  30  1   
 19   9  11  1   
 20   9  12  1   
 21   9  31  1   
 22  10  13  1   
 23  10  32  1   
 24  10  33  1   
 25  11  34  1   
 26  12  13  1   
 27  12  35  1   
 28  12  36  1   
 29  13  14  am  
 30  14  15  2   
 31  14  16  1   
 32  16  17  1   
 33  16  18  2   
 34  17  19  1   
 35  17  20  1   
 36  18  21  1   
 37  18  37  1   
 38  19  21  2   
 39  20  38  1   
 40  20  39  1   
 41  20  40  1   
 42  21  41  1   
@<TRIPOS>SUBSTRUCTURE
  1 ****  13 GROUP 4 **** **** 0

# MOE 2024.06 (io_trps.svl 2023.06)
