@<TRIPOS>MOLECULE
NONAME
46 49 1 0 0 
SMALL
USER_CHARGES


@<TRIPOS>ATOM
  1 O        0.6150     0.4380    -1.2730 O.3   1 <1>  -0.0190 
  2 N        0.2540    -0.2670    -0.2450 N.2   1 <1>  -0.4100 
  3 C        1.7660    -0.0800    -1.6210 C.2   1 <1>   0.2980 
  4 C        1.1640    -1.1330    -0.0420 C.2   1 <1>   0.4300 
  5 N        2.1720    -1.0510    -0.9000 N.2   1 <1>  -0.5650 
  6 C        2.5000     0.5190    -2.8160 C.3   1 <1>   0.3890 
  7 C        1.1580    -2.1790     1.0610 C.3   1 <1>  -0.0140 
  8 N        3.0550     1.8740    -2.5180 N.pl3 1 <1>  -0.8690 
  9 C        0.8260    -3.6070     0.7480 C.3   1 <1>  -0.2000 
 10 C       -0.1200    -2.7810     1.5660 C.3   1 <1>  -0.2000 
 11 C        3.8620     2.2350    -1.5100 C.ar  1 <1>   0.4100 
 12 N        3.9250     3.5270    -1.2920 N.ar  1 <1>  -0.6200 
 13 C        4.5800     1.3070    -0.7320 C.ar  1 <1>  -0.1500 
 14 C        4.6720     3.9480    -0.2790 C.ar  1 <1>   0.7710 
 15 C        5.3310     1.7570     0.3010 C.ar  1 <1>   0.2180 
 16 N        5.3510     3.0950     0.5070 N.ar  1 <1>  -0.1790 
 17 N        4.7540     5.2760    -0.0260 N.pl3 1 <1>  -0.8380 
 18 C        6.1350     0.8460     1.2190 C.3   1 <1>  -0.0170 
 19 C        5.5690     5.9780     1.0040 C.3   1 <1>   0.2090 
 20 C        3.9960     6.2720    -0.8370 C.3   1 <1>   0.2090 
 21 C        7.6440     1.1060     1.1150 C.3   1 <1>  -0.2400 
 22 C        5.5140     7.4490     0.6170 C.3   1 <1>  -0.1600 
 23 C        4.1910     7.6020    -0.1220 C.3   1 <1>  -0.1600 
 24 H        1.8180     0.5870    -3.6450 H     1 <1>   0.0800 
 25 H        3.3040    -0.1370    -3.1010 H     1 <1>   0.0800 
 26 H        1.9360    -2.0010     1.7810 H     1 <1>   0.1000 
 27 H        2.5840     2.6430    -3.0050 H     1 <1>   0.4000 
 28 H        1.3910    -4.3850     1.2310 H     1 <1>   0.1000 
 29 H        0.5490    -3.8620    -0.2610 H     1 <1>   0.1000 
 30 H       -1.0490    -2.4670     1.1220 H     1 <1>   0.1000 
 31 H       -0.2140    -2.9830     2.6180 H     1 <1>   0.1000 
 32 H        4.5200     0.2620    -0.9700 H     1 <1>   0.1500 
 33 H        5.8790     3.5170     1.2580 H     1 <1>   0.4570 
 34 H        5.9440    -0.1810     0.9590 H     1 <1>   0.0800 
 35 H        5.8130     0.9810     2.2380 H     1 <1>   0.0800 
 36 H        6.5880     5.6300     1.0150 H     1 <1>   0.0800 
 37 H        5.1170     5.8440     1.9730 H     1 <1>   0.0800 
 38 H        2.9520     6.0130    -0.9020 H     1 <1>   0.0800 
 39 H        4.4160     6.3170    -1.8290 H     1 <1>   0.0800 
 40 H        7.9800     0.9720     0.1000 H     1 <1>   0.0800 
 41 H        8.1770     0.4070     1.7370 H     1 <1>   0.0800 
 42 H        7.8990     2.1000     1.4360 H     1 <1>   0.0800 
 43 H        6.3300     7.6710    -0.0490 H     1 <1>   0.0800 
 44 H        5.5790     8.0940     1.4750 H     1 <1>   0.0800 
 45 H        3.3880     7.7420     0.5820 H     1 <1>   0.0800 
 46 H        4.1970     8.4280    -0.8110 H     1 <1>   0.0800 
@<TRIPOS>BOND
  1   1   2  1   
  2   1   3  1   
  3   2   4  2   
  4   3   5  2   
  5   3   6  1   
  6   4   5  1   
  7   4   7  1   
  8   6   8  1   
  9   6  24  1   
 10   6  25  1   
 11   7   9  1   
 12   7  10  1   
 13   7  26  1   
 14   8  11  1   
 15   8  27  1   
 16   9  10  1   
 17   9  28  1   
 18   9  29  1   
 19  10  30  1   
 20  10  31  1   
 21  11  12  ar  
 22  11  13  ar  
 23  12  14  ar  
 24  13  15  ar  
 25  13  32  1   
 26  14  16  ar  
 27  14  17  1   
 28  15  16  ar  
 29  15  18  1   
 30  16  33  1   
 31  17  19  1   
 32  17  20  1   
 33  18  21  1   
 34  18  34  1   
 35  18  35  1   
 36  19  22  1   
 37  19  36  1   
 38  19  37  1   
 39  20  23  1   
 40  20  38  1   
 41  20  39  1   
 42  21  40  1   
 43  21  41  1   
 44  21  42  1   
 45  22  23  1   
 46  22  43  1   
 47  22  44  1   
 48  23  45  1   
 49  23  46  1   
@<TRIPOS>SUBSTRUCTURE
  1 ****  13 GROUP 4 **** **** 0

# MOE 2024.06 (io_trps.svl 2023.06)
