@<TRIPOS>MOLECULE
NONAME
41 43 1 0 0 
SMALL
USER_CHARGES


@<TRIPOS>ATOM
  1 O       -0.1050    -0.6350    -0.5950 O.2   1 <1>  -0.5700 
  2 C       -0.8650    -1.5850    -0.6730 C.2   1 <1>   0.6900 
  3 N       -0.7770    -2.7320     0.0260 N.am  1 <1>  -0.5390 
  4 N       -1.9360    -1.6660    -1.4880 N.am  1 <1>  -0.5390 
  5 C       -1.8210    -3.5880    -0.3570 C.2   1 <1>   0.1230 
  6 C       -2.5180    -2.9040    -1.3000 C.2   1 <1>  -0.0410 
  7 C       -1.9840    -4.9140     0.2090 C.2   1 <1>   0.6160 
  8 O       -1.0480    -5.4240     0.8030 O.2   1 <1>  -0.5700 
  9 N       -3.1570    -5.6320     0.1130 N.am  1 <1>  -0.6600 
 10 C       -4.5020    -5.0640    -0.1310 C.3   1 <1>   0.1400 
 11 C       -3.2660    -7.0290     0.5920 C.3   1 <1>   0.1400 
 12 C       -5.4790    -6.0130     0.5760 C.3   1 <1>  -0.0800 
 13 C       -4.7580    -7.3730     0.5660 C.3   1 <1>  -0.0800 
 14 C       -6.9390    -6.0360     0.0240 C.3   1 <1>   0.2800 
 15 C       -5.1520    -8.1950    -0.6710 C.3   1 <1>  -0.1600 
 16 O       -6.9560    -5.6630    -1.3070 O.3   1 <1>  -0.6800 
 17 C       -7.5070    -7.4660     0.0830 C.3   1 <1>  -0.1600 
 18 C       -7.8760    -5.0640     0.7750 C.3   1 <1>  -0.1600 
 19 C       -6.6610    -8.4990    -0.6930 C.3   1 <1>  -0.1600 
 20 C       -7.4740    -3.5800     0.7270 C.3   1 <1>  -0.2400 
 21 H       -0.0210    -2.9660     0.6690 H     1 <1>   0.3700 
 22 H       -2.1830    -0.9090    -2.1250 H     1 <1>   0.3700 
 23 H       -3.3840    -3.2170    -1.8590 H     1 <1>   0.1500 
 24 H       -4.5800    -4.0640     0.2570 H     1 <1>   0.0800 
 25 H       -4.6660    -5.0540    -1.1940 H     1 <1>   0.0800 
 26 H       -2.6890    -7.6860    -0.0350 H     1 <1>   0.0800 
 27 H       -2.8890    -7.0840     1.6000 H     1 <1>   0.0800 
 28 H       -5.5200    -5.7100     1.6070 H     1 <1>   0.0800 
 29 H       -5.0050    -7.9420     1.4460 H     1 <1>   0.0800 
 30 H       -4.8970    -7.6330    -1.5550 H     1 <1>   0.0800 
 31 H       -4.5980    -9.1170    -0.7020 H     1 <1>   0.0800 
 32 H       -7.8530    -5.7950    -1.6640 H     1 <1>   0.4000 
 33 H       -7.5370    -7.7650     1.1160 H     1 <1>   0.0800 
 34 H       -8.5210    -7.4860    -0.2750 H     1 <1>   0.0800 
 35 H       -8.8700    -5.1620     0.3750 H     1 <1>   0.0800 
 36 H       -7.9290    -5.3650     1.8070 H     1 <1>   0.0800 
 37 H       -6.8380    -9.4740    -0.2720 H     1 <1>   0.0800 
 38 H       -6.9850    -8.5280    -1.7200 H     1 <1>   0.0800 
 39 H       -7.3630    -3.2470    -0.2910 H     1 <1>   0.0800 
 40 H       -6.5500    -3.4140     1.2510 H     1 <1>   0.0800 
 41 H       -8.2340    -2.9810     1.1960 H     1 <1>   0.0800 
@<TRIPOS>BOND
  1   1   2  2   
  2   2   3  am  
  3   2   4  am  
  4   3   5  1   
  5   3  21  1   
  6   4   6  1   
  7   4  22  1   
  8   5   6  2   
  9   5   7  1   
 10   6  23  1   
 11   7   8  2   
 12   7   9  am  
 13   9  10  1   
 14   9  11  1   
 15  10  12  1   
 16  10  24  1   
 17  10  25  1   
 18  11  13  1   
 19  11  26  1   
 20  11  27  1   
 21  12  13  1   
 22  12  14  1   
 23  12  28  1   
 24  13  15  1   
 25  13  29  1   
 26  14  16  1   
 27  14  17  1   
 28  14  18  1   
 29  15  19  1   
 30  15  30  1   
 31  15  31  1   
 32  16  32  1   
 33  17  19  1   
 34  17  33  1   
 35  17  34  1   
 36  18  20  1   
 37  18  35  1   
 38  18  36  1   
 39  19  37  1   
 40  19  38  1   
 41  20  39  1   
 42  20  40  1   
 43  20  41  1   
@<TRIPOS>SUBSTRUCTURE
  1 ****  10 GROUP 4 **** **** 0

# MOE 2024.06 (io_trps.svl 2023.06)
