@<TRIPOS>MOLECULE
NONAME
43 45 1 0 0 
SMALL
USER_CHARGES


@<TRIPOS>ATOM
  1 O       -0.0220    -0.4350    -2.3350 O.2   1 <1>  -0.5700 
  2 C       -0.7490     0.4070    -1.8610 C.2   1 <1>   0.5690 
  3 N       -1.8480     0.0590    -1.1220 N.am  1 <1>  -0.6600 
  4 C       -0.4150     1.8680    -2.1340 C.3   1 <1>   0.0440 
  5 C       -2.7760     0.9870    -0.4270 C.3   1 <1>   0.1400 
  6 C       -2.1890    -1.3510    -0.8140 C.3   1 <1>   0.1400 
  7 C       -0.1510     2.6850    -0.8720 C.ar  1 <1>  -0.1440 
  8 C       -3.8690     0.0870     0.1450 C.3   1 <1>   0.2000 
  9 C       -3.2130    -1.2800     0.3200 C.3   1 <1>  -0.0800 
 10 C        0.7280     2.2150     0.0920 C.ar  1 <1>  -0.1500 
 11 C       -0.7880     3.9020    -0.6740 C.ar  1 <1>  -0.1500 
 12 O       -4.3360     0.5580     1.3600 O.3   1 <1>  -0.6800 
 13 C       -4.2210    -2.4390     0.3150 C.3   1 <1>   0.0210 
 14 C        0.9620     2.9480     1.2430 C.ar  1 <1>  -0.1500 
 15 C       -0.5550     4.6350     0.4760 C.ar  1 <1>  -0.1500 
 16 C       -3.5120    -3.7790     0.3640 C.2   1 <1>   0.1080 
 17 C        0.3190     4.1580     1.4370 C.ar  1 <1>  -0.1500 
 18 N       -2.7800    -4.1510     1.3670 N.2   1 <1>  -0.7070 
 19 C       -3.5520    -4.7380    -0.6430 C.2   1 <1>  -0.1500 
 20 N       -2.3280    -5.3720     1.0240 N.pl3 1 <1>   0.3000 
 21 C       -2.7810    -5.7490    -0.1900 C.2   1 <1>  -0.3320 
 22 C       -2.4430    -7.0710    -0.8530 C.3   1 <1>  -0.0600 
 23 H        0.4620     1.9080    -2.7540 H     1 <1>   0.0800 
 24 H       -1.2240     2.2950    -2.6950 H     1 <1>   0.0800 
 25 H       -2.2470     1.4880     0.3660 H     1 <1>   0.0800 
 26 H       -3.1870     1.7040    -1.1150 H     1 <1>   0.0800 
 27 H       -2.6130    -1.8070    -1.6930 H     1 <1>   0.0800 
 28 H       -1.3140    -1.9050    -0.5160 H     1 <1>   0.0800 
 29 H       -4.6970     0.0420    -0.5430 H     1 <1>   0.0800 
 30 H       -2.6600    -1.3010     1.2430 H     1 <1>   0.0800 
 31 H        1.2340     1.2740    -0.0480 H     1 <1>   0.1500 
 32 H       -1.4680     4.2880    -1.4130 H     1 <1>   0.1500 
 33 H       -3.6290     0.5110     2.0330 H     1 <1>   0.4000 
 34 H       -4.8330    -2.3940    -0.5670 H     1 <1>   0.0800 
 35 H       -4.8640    -2.3580     1.1730 H     1 <1>   0.0800 
 36 H        1.6440     2.5750     1.9870 H     1 <1>   0.1500 
 37 H       -1.0520     5.5780     0.6240 H     1 <1>   0.1500 
 38 H        0.5020     4.7280     2.3310 H     1 <1>   0.1500 
 39 H       -4.0880    -4.6630    -1.5720 H     1 <1>   0.1500 
 40 H       -1.7140    -5.9190     1.6380 H     1 <1>   0.2700 
 41 H       -2.9230    -7.1360    -1.8140 H     1 <1>   0.0800 
 42 H       -2.7830    -7.8900    -0.2450 H     1 <1>   0.0800 
 43 H       -1.3810    -7.1550    -0.9960 H     1 <1>   0.0800 
@<TRIPOS>BOND
  1   1   2  2   
  2   2   3  am  
  3   2   4  1   
  4   3   5  1   
  5   3   6  1   
  6   4   7  1   
  7   4  23  1   
  8   4  24  1   
  9   5   8  1   
 10   5  25  1   
 11   5  26  1   
 12   6   9  1   
 13   6  27  1   
 14   6  28  1   
 15   7  10  ar  
 16   7  11  ar  
 17   8   9  1   
 18   8  12  1   
 19   8  29  1   
 20   9  13  1   
 21   9  30  1   
 22  10  14  ar  
 23  10  31  1   
 24  11  15  ar  
 25  11  32  1   
 26  12  33  1   
 27  13  16  1   
 28  13  34  1   
 29  13  35  1   
 30  14  17  ar  
 31  14  36  1   
 32  15  17  ar  
 33  15  37  1   
 34  16  18  2   
 35  16  19  1   
 36  17  38  1   
 37  18  20  1   
 38  19  21  2   
 39  19  39  1   
 40  20  21  1   
 41  20  40  1   
 42  21  22  1   
 43  22  41  1   
 44  22  42  1   
 45  22  43  1   
@<TRIPOS>SUBSTRUCTURE
  1 ****   6 GROUP 4 **** **** 0

# MOE 2024.06 (io_trps.svl 2023.06)
