@<TRIPOS>MOLECULE
NONAME
54 57 1 0 0 
SMALL
USER_CHARGES


@<TRIPOS>ATOM
  1 O       -0.5740     0.3350     0.7990 O.3   1 <1>  -0.6800 
  2 C        0.4530    -0.3570     0.1710 C.3   1 <1>   0.2000 
  3 C        0.6570    -1.6690     0.9350 C.3   1 <1>  -0.0800 
  4 C        1.7430     0.4500     0.3710 C.3   1 <1>   0.3430 
  5 C        1.6370    -1.2600     2.0380 C.3   1 <1>   0.3430 
  6 C        1.1460    -2.8410     0.0430 C.3   1 <1>  -0.0170 
  7 N        2.5490    -0.2780     1.3990 N.4   1 <1>  -0.9590 
  8 C        2.6540    -2.9540    -0.1700 C.ar  1 <1>   0.1670 
  9 C        3.3090     0.5970     2.3250 C.3   1 <1>   0.4860 
 10 N        3.2630    -1.9720    -0.7650 N.ar  1 <1>  -0.6200 
 11 C        3.3170    -4.1050     0.2880 C.ar  1 <1>  -0.1500 
 12 C        4.2230     1.4990     1.5220 C.ar  1 <1>  -0.1440 
 13 C        4.6060    -2.0740    -0.9580 C.ar  1 <1>   0.3100 
 14 C        4.6620    -4.2270     0.1230 C.ar  1 <1>  -0.1500 
 15 C        5.4220     1.0180     1.0210 C.ar  1 <1>   0.1600 
 16 C        3.8820     2.8160     1.2720 C.ar  1 <1>  -0.1500 
 17 C        5.3540    -3.1850    -0.5120 C.ar  1 <1>   0.0000 
 18 C        5.2850    -1.0200    -1.5900 C.ar  1 <1>  -0.1500 
 19 N        6.2740     1.7170     0.2970 N.ar  1 <1>  -0.6200 
 20 C        4.7670     3.5550     0.5230 C.ar  1 <1>  -0.1500 
 21 C        6.7490    -3.1970    -0.7120 C.ar  1 <1>  -0.1500 
 22 C        6.6430    -1.0470    -1.7640 C.ar  1 <1>  -0.1500 
 23 C        5.9430     2.9790     0.0510 C.ar  1 <1>   0.4100 
 24 C        7.3820    -2.1480    -1.3220 C.ar  1 <1>  -0.1500 
 25 N        6.8190     3.7310    -0.7120 N.pl3 1 <1>  -0.8380 
 26 C        8.2760     3.4360    -0.6420 C.3   1 <1>   0.1290 
 27 C        6.3600     4.2490    -2.0260 C.3   1 <1>   0.1290 
 28 H       -1.4530     0.0010     0.5200 H     1 <1>   0.4000 
 29 H        0.2030    -0.4780    -0.8700 H     1 <1>   0.0800 
 30 H       -0.2730    -1.9810     1.3800 H     1 <1>   0.0800 
 31 H        1.4990     1.4480     0.6950 H     1 <1>   0.0800 
 32 H        2.2980     0.4990    -0.5520 H     1 <1>   0.0800 
 33 H        2.1750    -2.1070     2.4320 H     1 <1>   0.0800 
 34 H        1.0890    -0.7780     2.8320 H     1 <1>   0.0800 
 35 H        0.6720    -2.7860    -0.9220 H     1 <1>   0.0800 
 36 H        0.8010    -3.7580     0.4890 H     1 <1>   0.0800 
 37 H        3.2170    -0.8320     0.8280 H     1 <1>   0.4500 
 38 H        2.6270     1.1970     2.9060 H     1 <1>   0.0800 
 39 H        3.8970    -0.0020     3.0000 H     1 <1>   0.0800 
 40 H        2.7590    -4.8930     0.7640 H     1 <1>   0.1500 
 41 H        5.2020    -5.0960     0.4600 H     1 <1>   0.1500 
 42 H        5.7060    -0.0030     1.2170 H     1 <1>   0.1500 
 43 H        2.9730     3.2600     1.6420 H     1 <1>   0.1500 
 44 H        4.7150    -0.1770    -1.9310 H     1 <1>   0.1500 
 45 H        4.5760     4.5870     0.2970 H     1 <1>   0.1500 
 46 H        7.3140    -4.0480    -0.3740 H     1 <1>   0.1500 
 47 H        7.1530    -0.2230    -2.2350 H     1 <1>   0.1500 
 48 H        8.4490    -2.1550    -1.4700 H     1 <1>   0.1500 
 49 H        8.8420     4.3100    -0.9130 H     1 <1>   0.0800 
 50 H        8.5190     2.6280    -1.3100 H     1 <1>   0.0800 
 51 H        8.5440     3.1490     0.3610 H     1 <1>   0.0800 
 52 H        6.7160     5.2550    -2.1630 H     1 <1>   0.0800 
 53 H        5.2850     4.2510    -2.0790 H     1 <1>   0.0800 
 54 H        6.7410     3.6280    -2.8180 H     1 <1>   0.0800 
@<TRIPOS>BOND
  1   1   2  1   
  2   1  28  1   
  3   2   3  1   
  4   2   4  1   
  5   2  29  1   
  6   3   5  1   
  7   3   6  1   
  8   3  30  1   
  9   4   7  1   
 10   4  31  1   
 11   4  32  1   
 12   5   7  1   
 13   5  33  1   
 14   5  34  1   
 15   6   8  1   
 16   6  35  1   
 17   6  36  1   
 18   7   9  1   
 19   7  37  1   
 20   8  10  ar  
 21   8  11  ar  
 22   9  12  1   
 23   9  38  1   
 24   9  39  1   
 25  10  13  ar  
 26  11  14  ar  
 27  11  40  1   
 28  12  15  ar  
 29  12  16  ar  
 30  13  17  ar  
 31  13  18  ar  
 32  14  17  ar  
 33  14  41  1   
 34  15  19  ar  
 35  15  42  1   
 36  16  20  ar  
 37  16  43  1   
 38  17  21  ar  
 39  18  22  ar  
 40  18  44  1   
 41  19  23  ar  
 42  20  23  ar  
 43  20  45  1   
 44  21  24  ar  
 45  21  46  1   
 46  22  24  ar  
 47  22  47  1   
 48  23  25  1   
 49  24  48  1   
 50  25  26  1   
 51  25  27  1   
 52  26  49  1   
 53  26  50  1   
 54  26  51  1   
 55  27  52  1   
 56  27  53  1   
 57  27  54  1   
@<TRIPOS>SUBSTRUCTURE
  1 ****  15 GROUP 4 **** **** 0

# MOE 2024.06 (io_trps.svl 2023.06)
