@<TRIPOS>MOLECULE
NONAME
44 46 1 0 0 
SMALL
USER_CHARGES


@<TRIPOS>ATOM
  1 F        0.2780    -0.4860     0.2080 F     1 <1>  -0.1900 
  2 C       -0.4220    -1.5900     0.1310 C.ar  1 <1>   0.1900 
  3 C        0.1810    -2.8420    -0.0290 C.ar  1 <1>   0.0830 
  4 C       -1.7940    -1.4550     0.2130 C.ar  1 <1>  -0.1500 
  5 O        1.5170    -3.1030    -0.1220 O.3   1 <1>  -0.3630 
  6 C       -0.6490    -3.9490    -0.1030 C.ar  1 <1>  -0.1500 
  7 C       -2.5910    -2.5820     0.1340 C.ar  1 <1>  -0.1500 
  8 C        2.5050    -2.1020    -0.0250 C.3   1 <1>   0.0400 
  9 C       -2.0430    -3.8580    -0.0260 C.ar  1 <1>   0.0530 
 10 C       -2.8670    -5.0450    -0.1130 C.2   1 <1>   0.0870 
 11 O       -2.3310    -6.1940    -0.4570 O.3   1 <1>  -0.0190 
 12 C       -4.1890    -5.2850     0.0900 C.2   1 <1>  -0.2330 
 13 N       -3.1970    -7.1730    -0.4960 N.2   1 <1>  -0.4100 
 14 C       -4.3260    -6.6460    -0.1690 C.2   1 <1>   0.3720 
 15 C       -5.2340    -4.4030     0.4950 C.2   1 <1>   1.0330 
 16 N       -5.5140    -7.3770    -0.0890 N.pl3 1 <1>  -0.8210 
 17 O       -5.2840    -3.9750     1.6600 O.co2 1 <1>  -0.9000 
 18 O       -6.0450    -3.9560    -0.3380 O.co2 1 <1>  -0.9000 
 19 C       -6.5090    -7.0810    -1.1470 C.3   1 <1>   0.2090 
 20 C       -5.4060    -8.8050     0.2830 C.3   1 <1>   0.2090 
 21 C       -7.8860    -7.5240    -0.6550 C.3   1 <1>  -0.1600 
 22 C       -6.7690    -9.2820     0.7870 C.3   1 <1>  -0.1600 
 23 C       -7.9020    -8.9930    -0.2110 C.3   1 <1>   0.2800 
 24 O       -7.6740    -9.7760    -1.3360 O.3   1 <1>  -0.6800 
 25 C       -9.2810    -9.3770     0.3720 C.3   1 <1>   0.1200 
 26 O       -9.3890   -10.7570     0.4900 O.3   1 <1>  -0.6800 
 27 H       -2.2370    -0.4840     0.3380 H     1 <1>   0.1500 
 28 H       -0.1910    -4.9130    -0.2230 H     1 <1>   0.1500 
 29 H       -3.6580    -2.4570     0.2000 H     1 <1>   0.1500 
 30 H        3.4680    -2.5730    -0.1090 H     1 <1>   0.0800 
 31 H        2.4190    -1.6160     0.9300 H     1 <1>   0.0800 
 32 H        2.3720    -1.4000    -0.8300 H     1 <1>   0.0800 
 33 H       -6.2390    -7.6000    -2.0500 H     1 <1>   0.0800 
 34 H       -6.5270    -6.0300    -1.3680 H     1 <1>   0.0800 
 35 H       -4.6710    -8.9150     1.0630 H     1 <1>   0.0800 
 36 H       -5.0840    -9.3790    -0.5690 H     1 <1>   0.0800 
 37 H       -8.6160    -7.3590    -1.4260 H     1 <1>   0.0800 
 38 H       -8.1480    -6.8950     0.1770 H     1 <1>   0.0800 
 39 H       -6.9740    -8.7660     1.7070 H     1 <1>   0.0800 
 40 H       -6.7290   -10.3320     1.0110 H     1 <1>   0.0800 
 41 H       -6.8150    -9.5170    -1.7190 H     1 <1>   0.4000 
 42 H      -10.0640    -9.0390    -0.2840 H     1 <1>   0.0800 
 43 H       -9.4270    -8.9390     1.3430 H     1 <1>   0.0800 
 44 H       -8.9630   -11.1400    -0.3090 H     1 <1>   0.4000 
@<TRIPOS>BOND
  1   1   2  1   
  2   2   3  ar  
  3   2   4  ar  
  4   3   5  1   
  5   3   6  ar  
  6   4   7  ar  
  7   4  27  1   
  8   5   8  1   
  9   6   9  ar  
 10   6  28  1   
 11   7   9  ar  
 12   7  29  1   
 13   8  30  1   
 14   8  31  1   
 15   8  32  1   
 16   9  10  1   
 17  10  11  1   
 18  10  12  2   
 19  11  13  1   
 20  12  14  1   
 21  12  15  1   
 22  13  14  2   
 23  14  16  1   
 24  15  17  ar  
 25  15  18  ar  
 26  16  19  1   
 27  16  20  1   
 28  19  21  1   
 29  19  33  1   
 30  19  34  1   
 31  20  22  1   
 32  20  35  1   
 33  20  36  1   
 34  21  23  1   
 35  21  37  1   
 36  21  38  1   
 37  22  23  1   
 38  22  39  1   
 39  22  40  1   
 40  23  24  1   
 41  23  25  1   
 42  24  41  1   
 43  25  26  1   
 44  25  42  1   
 45  25  43  1   
 46  26  44  1   
@<TRIPOS>SUBSTRUCTURE
  1 ****  12 GROUP 4 **** **** 0

# MOE 2024.06 (io_trps.svl 2023.06)
