@<TRIPOS>MOLECULE
NONAME
50 53 1 0 0 
SMALL
USER_CHARGES


@<TRIPOS>ATOM
  1 O        3.8360    -0.9920     0.8710 O.2   1 <1>  -0.5700 
  2 C        2.6810    -1.3480     0.8220 C.2   1 <1>   0.5690 
  3 N        1.6260    -0.4960     0.7890 N.am  1 <1>  -0.4930 
  4 C        2.3710    -2.8460     0.7940 C.3   1 <1>   0.1710 
  5 C        1.5660     0.8900     0.7690 C.2   1 <1>   0.3520 
  6 N        1.0800    -3.1970     0.1340 N.3   1 <1>  -0.8100 
  7 N        0.4170     1.4730     0.6440 N.2   1 <1>  -0.7070 
  8 C        2.6150     1.8000     0.8670 C.2   1 <1>  -0.1500 
  9 C        1.0960    -2.9540    -1.3200 C.3   1 <1>   0.1100 
 10 C        0.7260    -4.6170     0.3100 C.3   1 <1>   0.1100 
 11 N        0.7010     2.7900     0.6580 N.pl3 1 <1>   0.3140 
 12 C        2.0230     3.0110     0.7920 C.2   1 <1>  -0.3020 
 13 C       -0.0280    -3.8310    -1.8560 C.3   1 <1>   0.2000 
 14 C        0.1400    -5.1070    -1.0270 C.3   1 <1>  -0.0800 
 15 C       -0.3570     3.7990     0.5370 C.3   1 <1>   0.0160 
 16 O       -1.2230    -3.2140    -1.5330 O.3   1 <1>  -0.6800 
 17 C       -1.1400    -5.9570    -0.8710 C.3   1 <1>  -0.0160 
 18 C       -0.9840    -7.2920    -0.1290 C.ar  1 <1>  -0.1440 
 19 C       -2.1360    -7.9930     0.3080 C.ar  1 <1>   0.0000 
 20 C        0.2270    -7.8670     0.1390 C.ar  1 <1>  -0.1500 
 21 C       -1.9480    -9.2060     1.0160 C.ar  1 <1>   0.3100 
 22 C       -3.4670    -7.5680     0.0780 C.ar  1 <1>  -0.1500 
 23 C        0.3010    -9.0770     0.8380 C.ar  1 <1>   0.1600 
 24 N       -0.7250    -9.7320     1.2740 N.ar  1 <1>  -0.6200 
 25 C       -3.0730    -9.9120     1.4740 C.ar  1 <1>  -0.1500 
 26 C       -4.5420    -8.2810     0.5350 C.ar  1 <1>  -0.1500 
 27 C       -4.3460    -9.4670     1.2450 C.ar  1 <1>  -0.1500 
 28 H        0.7120    -0.9370     0.6930 H     1 <1>   0.3700 
 29 H        2.3430    -3.1820     1.8150 H     1 <1>   0.0800 
 30 H        3.1830    -3.3530     0.3030 H     1 <1>   0.0800 
 31 H        3.6550     1.5520     0.9760 H     1 <1>   0.1500 
 32 H        0.9390    -1.9150    -1.5590 H     1 <1>   0.0800 
 33 H        2.0320    -3.2780    -1.7420 H     1 <1>   0.0800 
 34 H        1.5910    -5.2050     0.5680 H     1 <1>   0.0800 
 35 H        0.0020    -4.7020     1.1030 H     1 <1>   0.0800 
 36 H        2.4620     3.9910     0.8250 H     1 <1>   0.1500 
 37 H        0.0100    -3.9900    -2.9200 H     1 <1>   0.0800 
 38 H        0.8870    -5.6970    -1.5250 H     1 <1>   0.0800 
 39 H        0.0820     4.7770     0.4690 H     1 <1>   0.0800 
 40 H       -0.9920     3.7410     1.4000 H     1 <1>   0.0800 
 41 H       -0.9310     3.5950    -0.3470 H     1 <1>   0.0800 
 42 H       -1.1330    -2.8890    -0.6120 H     1 <1>   0.4000 
 43 H       -1.5430    -6.1580    -1.8490 H     1 <1>   0.0800 
 44 H       -1.8620    -5.3640    -0.3390 H     1 <1>   0.0800 
 45 H        1.1580    -7.4340    -0.1670 H     1 <1>   0.1500 
 46 H       -3.6490    -6.6640    -0.4720 H     1 <1>   0.1500 
 47 H        1.2780    -9.4900     1.0270 H     1 <1>   0.1500 
 48 H       -2.8960   -10.8230     2.0150 H     1 <1>   0.1500 
 49 H       -5.5470    -7.9400     0.3540 H     1 <1>   0.1500 
 50 H       -5.1990   -10.0190     1.6020 H     1 <1>   0.1500 
@<TRIPOS>BOND
  1   1   2  2   
  2   2   3  am  
  3   2   4  1   
  4   3   5  1   
  5   3  28  1   
  6   4   6  1   
  7   4  29  1   
  8   4  30  1   
  9   5   7  2   
 10   5   8  1   
 11   6   9  1   
 12   6  10  1   
 13   7  11  1   
 14   8  12  2   
 15   8  31  1   
 16   9  13  1   
 17   9  32  1   
 18   9  33  1   
 19  10  14  1   
 20  10  34  1   
 21  10  35  1   
 22  11  12  1   
 23  11  15  1   
 24  12  36  1   
 25  13  14  1   
 26  13  16  1   
 27  13  37  1   
 28  14  17  1   
 29  14  38  1   
 30  15  39  1   
 31  15  40  1   
 32  15  41  1   
 33  16  42  1   
 34  17  18  1   
 35  17  43  1   
 36  17  44  1   
 37  18  19  ar  
 38  18  20  ar  
 39  19  21  ar  
 40  19  22  ar  
 41  20  23  ar  
 42  20  45  1   
 43  21  24  ar  
 44  21  25  ar  
 45  22  26  ar  
 46  22  46  1   
 47  23  24  ar  
 48  23  47  1   
 49  25  27  ar  
 50  25  48  1   
 51  26  27  ar  
 52  26  49  1   
 53  27  50  1   
@<TRIPOS>SUBSTRUCTURE
  1 ****  10 GROUP 4 **** **** 0

# MOE 2024.06 (io_trps.svl 2023.06)
