@<TRIPOS>MOLECULE
NONAME
53 56 1 0 0 
SMALL
USER_CHARGES


@<TRIPOS>ATOM
  1 F       -1.6050    -0.8440    -1.5420 F     1 <1>  -0.1900 
  2 C       -1.3100    -1.6570    -0.5610 C.ar  1 <1>   0.1900 
  3 C       -2.0860    -2.7940    -0.3570 C.ar  1 <1>  -0.1440 
  4 C       -0.2240    -1.3300     0.2360 C.ar  1 <1>  -0.1500 
  5 C       -1.7410    -3.6310     0.6960 C.ar  1 <1>  -0.1500 
  6 C       -3.2840    -3.1440    -1.2400 C.3   1 <1>   0.0450 
  7 C        0.1110    -2.1690     1.2850 C.ar  1 <1>  -0.1500 
  8 C       -0.6560    -3.3030     1.4930 C.ar  1 <1>   0.1900 
  9 C       -4.6060    -3.0910    -0.4850 C.2   1 <1>   0.5690 
 10 F       -0.3440    -4.0960     2.4820 F     1 <1>  -0.1900 
 11 O       -5.4200    -3.9610    -0.6840 O.2   1 <1>  -0.5700 
 12 N       -4.9210    -2.0600     0.3570 N.am  1 <1>  -0.6600 
 13 C       -5.8340    -2.2970     1.5260 C.3   1 <1>   0.1400 
 14 C       -4.7340    -0.6390    -0.0330 C.3   1 <1>   0.1400 
 15 C       -7.3200    -1.9750     1.2300 C.3   1 <1>   0.4230 
 16 C       -6.0500    -0.0080    -0.5440 C.3   1 <1>  -0.0800 
 17 N       -7.5980    -2.0750    -0.2490 N.4   1 <1>  -0.9590 
 18 C       -7.7740    -0.6410     1.8600 C.3   1 <1>   0.1200 
 19 C       -6.6950     0.9520     0.4680 C.3   1 <1>   0.1200 
 20 C       -7.0820    -0.9880    -1.1440 C.3   1 <1>   0.3430 
 21 C       -9.0070    -2.4490    -0.5770 C.3   1 <1>   0.5240 
 22 O       -6.8200     0.3680     1.7200 O.3   1 <1>  -0.5600 
 23 C       -9.5010    -3.6000     0.2930 C.2   1 <1>   0.0460 
 24 N       -8.7300    -4.6900     0.4710 N.2   1 <1>  -0.5650 
 25 C      -10.6640    -3.7150     0.9790 C.2   1 <1>  -0.3320 
 26 C       -9.4360    -5.4530     1.2400 C.2   1 <1>   0.0360 
 27 N      -10.6240    -4.9180     1.5870 N.pl3 1 <1>   0.0330 
 28 C      -11.8550    -2.7800     1.1140 C.3   1 <1>  -0.0600 
 29 H        0.3440    -0.4390     0.0360 H     1 <1>   0.1500 
 30 H       -2.2980    -4.5270     0.9070 H     1 <1>   0.1500 
 31 H       -3.1490    -4.1430    -1.6140 H     1 <1>   0.0800 
 32 H       -3.3480    -2.4970    -2.0930 H     1 <1>   0.0800 
 33 H        0.9450    -1.9560     1.9300 H     1 <1>   0.1500 
 34 H       -5.7730    -3.3360     1.8030 H     1 <1>   0.0800 
 35 H       -5.4880    -1.7320     2.3750 H     1 <1>   0.0800 
 36 H       -4.3470    -0.0850     0.8070 H     1 <1>   0.0800 
 37 H       -4.0010    -0.5790    -0.8160 H     1 <1>   0.0800 
 38 H       -7.8860    -2.7400     1.7320 H     1 <1>   0.0800 
 39 H       -5.7630     0.6290    -1.3620 H     1 <1>   0.0800 
 40 H       -7.0480    -2.9320    -0.4840 H     1 <1>   0.4500 
 41 H       -7.8950    -0.7920     2.9190 H     1 <1>   0.0800 
 42 H       -8.7160    -0.3090     1.4630 H     1 <1>   0.0800 
 43 H       -7.6610     1.2970     0.1420 H     1 <1>   0.0800 
 44 H       -6.0610     1.8130     0.5970 H     1 <1>   0.0800 
 45 H       -6.6370    -1.4520    -2.0100 H     1 <1>   0.0800 
 46 H       -7.9150    -0.4020    -1.4940 H     1 <1>   0.0800 
 47 H       -9.6560    -1.6010    -0.4400 H     1 <1>   0.0800 
 48 H       -9.0640    -2.7580    -1.6070 H     1 <1>   0.0800 
 49 H       -9.1250    -6.4260     1.5820 H     1 <1>   0.1500 
 50 H      -11.3420    -5.3520     2.1780 H     1 <1>   0.2700 
 51 H      -11.7060    -1.8770     0.5510 H     1 <1>   0.0800 
 52 H      -12.0070    -2.5170     2.1470 H     1 <1>   0.0800 
 53 H      -12.7460    -3.2620     0.7490 H     1 <1>   0.0800 
@<TRIPOS>BOND
  1   1   2  1   
  2   2   3  ar  
  3   2   4  ar  
  4   3   5  ar  
  5   3   6  1   
  6   4   7  ar  
  7   4  29  1   
  8   5   8  ar  
  9   5  30  1   
 10   6   9  1   
 11   6  31  1   
 12   6  32  1   
 13   7   8  ar  
 14   7  33  1   
 15   8  10  1   
 16   9  11  2   
 17   9  12  am  
 18  12  13  1   
 19  12  14  1   
 20  13  15  1   
 21  13  34  1   
 22  13  35  1   
 23  14  16  1   
 24  14  36  1   
 25  14  37  1   
 26  15  17  1   
 27  15  18  1   
 28  15  38  1   
 29  16  19  1   
 30  16  20  1   
 31  16  39  1   
 32  17  20  1   
 33  17  21  1   
 34  17  40  1   
 35  18  22  1   
 36  18  41  1   
 37  18  42  1   
 38  19  22  1   
 39  19  43  1   
 40  19  44  1   
 41  20  45  1   
 42  20  46  1   
 43  21  23  1   
 44  21  47  1   
 45  21  48  1   
 46  23  24  1   
 47  23  25  2   
 48  24  26  2   
 49  25  27  1   
 50  25  28  1   
 51  26  27  1   
 52  26  49  1   
 53  27  50  1   
 54  28  51  1   
 55  28  52  1   
 56  28  53  1   
@<TRIPOS>SUBSTRUCTURE
  1 ****  12 GROUP 4 **** **** 0

# MOE 2024.06 (io_trps.svl 2023.06)
