@<TRIPOS>MOLECULE
NONAME
43 46 1 0 0 
SMALL
USER_CHARGES


@<TRIPOS>ATOM
  1 O        0.7330    -0.2320     2.1440 O.3   1 <1>  -0.0190 
  2 N        1.2960     0.8610     1.7280 N.2   1 <1>  -0.4100 
  3 C        1.0180    -1.1100     1.2180 C.2   1 <1>   0.2980 
  4 C        1.8730     0.6040     0.6060 C.2   1 <1>   0.5150 
  5 N        1.7130    -0.6750     0.2480 N.2   1 <1>  -0.5650 
  6 C        0.5090    -2.5390     1.3740 C.3   1 <1>   0.2900 
  7 C        2.6080     1.5650    -0.1870 C.2   1 <1>   0.1410 
  8 N       -0.9620    -2.6540     1.2420 N.3   1 <1>  -0.8100 
  9 O        3.1690     1.2250    -1.3450 O.3   1 <1>  -0.2800 
 10 C        2.8610     2.8830     0.0440 C.2   1 <1>  -0.1500 
 11 C       -1.4670    -2.0820    -0.0240 C.3   1 <1>   0.1100 
 12 C       -1.4180    -4.0570     1.3110 C.3   1 <1>   0.1100 
 13 C        3.7680     2.2830    -1.8510 C.2   1 <1>  -0.0100 
 14 C        3.6150     3.3480    -1.0370 C.2   1 <1>  -0.1500 
 15 C       -2.6620    -2.9460    -0.4150 C.3   1 <1>   0.2000 
 16 C       -2.2310    -4.3360     0.0370 C.3   1 <1>  -0.0800 
 17 O       -3.7390    -2.5510     0.3570 O.3   1 <1>  -0.6800 
 18 C       -1.3910    -5.0370    -1.0510 C.3   1 <1>   0.0210 
 19 C       -0.7980    -6.3490    -0.5730 C.2   1 <1>   0.1080 
 20 N       -1.4970    -7.2790     0.0000 N.2   1 <1>  -0.7070 
 21 C        0.5450    -6.6970    -0.6850 C.2   1 <1>  -0.1500 
 22 N       -0.6120    -8.2570     0.2670 N.pl3 1 <1>   0.3000 
 23 C        0.6330    -7.9270    -0.1360 C.2   1 <1>  -0.3320 
 24 C        1.8470    -8.8230     0.0270 C.3   1 <1>  -0.0600 
 25 H        0.8040    -2.9030     2.3420 H     1 <1>   0.0800 
 26 H        0.9840    -3.1510     0.6280 H     1 <1>   0.0800 
 27 H        2.5490     3.4680     0.8910 H     1 <1>   0.1500 
 28 H       -1.7440    -1.0480     0.0960 H     1 <1>   0.0800 
 29 H       -0.7160    -2.1520    -0.7920 H     1 <1>   0.0800 
 30 H       -0.6000    -4.7480     1.4280 H     1 <1>   0.0800 
 31 H       -2.0620    -4.1620     2.1670 H     1 <1>   0.0800 
 32 H        4.2800     2.1910    -2.7930 H     1 <1>   0.1500 
 33 H        3.9810     4.3510    -1.1640 H     1 <1>   0.1500 
 34 H       -2.9350    -2.8780    -1.4540 H     1 <1>   0.0800 
 35 H       -3.0820    -4.9570     0.2570 H     1 <1>   0.0800 
 36 H       -3.4060    -2.4280     1.2700 H     1 <1>   0.4000 
 37 H       -0.5910    -4.3990    -1.3780 H     1 <1>   0.0800 
 38 H       -2.0170    -5.2440    -1.9000 H     1 <1>   0.0800 
 39 H        1.3230    -6.0980    -1.1220 H     1 <1>   0.1500 
 40 H       -0.8900    -9.1360     0.7210 H     1 <1>   0.2700 
 41 H        2.7200    -8.3420    -0.3790 H     1 <1>   0.0800 
 42 H        1.6970    -9.7520    -0.4940 H     1 <1>   0.0800 
 43 H        2.0220    -9.0280     1.0680 H     1 <1>   0.0800 
@<TRIPOS>BOND
  1   1   2  1   
  2   1   3  1   
  3   2   4  2   
  4   3   5  2   
  5   3   6  1   
  6   4   5  1   
  7   4   7  1   
  8   6   8  1   
  9   6  25  1   
 10   6  26  1   
 11   7   9  1   
 12   7  10  2   
 13   8  11  1   
 14   8  12  1   
 15   9  13  1   
 16  10  14  1   
 17  10  27  1   
 18  11  15  1   
 19  11  28  1   
 20  11  29  1   
 21  12  16  1   
 22  12  30  1   
 23  12  31  1   
 24  13  14  2   
 25  13  32  1   
 26  14  33  1   
 27  15  16  1   
 28  15  17  1   
 29  15  34  1   
 30  16  18  1   
 31  16  35  1   
 32  17  36  1   
 33  18  19  1   
 34  18  37  1   
 35  18  38  1   
 36  19  20  2   
 37  19  21  1   
 38  20  22  1   
 39  21  23  2   
 40  21  39  1   
 41  22  23  1   
 42  22  40  1   
 43  23  24  1   
 44  24  41  1   
 45  24  42  1   
 46  24  43  1   
@<TRIPOS>SUBSTRUCTURE
  1 ****   6 GROUP 4 **** **** 0

# MOE 2024.06 (io_trps.svl 2023.06)
