@<TRIPOS>MOLECULE
NONAME
46 49 1 0 0 
SMALL
USER_CHARGES


@<TRIPOS>ATOM
  1 O       -0.2910     0.2010    -0.0960 O.2   1 <1>  -0.5700 
  2 C       -1.3490     0.7770     0.0860 C.2   1 <1>   0.7150 
  3 N       -2.4260     0.0250     0.5130 N.am  1 <1>  -0.6600 
  4 C       -1.4390     2.2000    -0.1650 C.2   1 <1>   0.0550 
  5 C       -2.5060    -1.4520     0.2830 C.3   1 <1>   0.1400 
  6 C       -3.7090     0.5800     1.0370 C.3   1 <1>   0.1400 
  7 O       -2.5290     2.7340    -0.7060 O.3   1 <1>  -0.2800 
  8 C       -0.5380     3.1840     0.0400 C.2   1 <1>   0.0460 
  9 C       -3.7500    -1.8030    -0.5610 C.3   1 <1>   0.3440 
 10 C       -4.8720     0.1610     0.1200 C.3   1 <1>   0.2950 
 11 C       -2.2030     4.0070    -0.7800 C.2   1 <1>   0.2980 
 12 N       -1.0460     4.3460    -0.3540 N.2   1 <1>  -0.5650 
 13 C        0.8630     3.1320     0.6160 C.3   1 <1>  -0.0590 
 14 O       -4.9070    -1.2320    -0.0010 O.3   1 <1>  -0.5600 
 15 C       -3.9210    -3.3160    -0.6570 C.ar  1 <1>  -0.1440 
 16 C       -6.2220     0.6140     0.6830 C.3   1 <1>  -0.1950 
 17 C       -3.2190     4.9630    -1.3580 C.3   1 <1>  -0.0600 
 18 C       -4.6350    -4.0260     0.3000 C.ar  1 <1>  -0.1500 
 19 C       -3.3410    -4.0070    -1.7120 C.ar  1 <1>  -0.1500 
 20 C       -7.4120     0.7900    -0.2060 C.3   1 <1>  -0.2000 
 21 C       -6.7460     1.9890     0.4090 C.3   1 <1>  -0.2000 
 22 C       -4.7660    -5.4010     0.2040 C.ar  1 <1>  -0.1500 
 23 C       -3.4720    -5.3820    -1.8100 C.ar  1 <1>  -0.1500 
 24 C       -4.1840    -6.0800    -0.8510 C.ar  1 <1>  -0.1500 
 25 H       -1.6270    -1.8080    -0.2240 H     1 <1>   0.0800 
 26 H       -2.5660    -1.9580     1.2310 H     1 <1>   0.0800 
 27 H       -3.8840     0.1870     2.0240 H     1 <1>   0.0800 
 28 H       -3.6730     1.6500     1.1210 H     1 <1>   0.0800 
 29 H       -3.6340    -1.3990    -1.5520 H     1 <1>   0.0800 
 30 H       -4.7320     0.5830    -0.8610 H     1 <1>   0.0800 
 31 H        1.1160     2.1350     0.9280 H     1 <1>   0.0800 
 32 H        0.9300     3.7890     1.4630 H     1 <1>   0.0800 
 33 H        1.5690     3.4520    -0.1280 H     1 <1>   0.0800 
 34 H       -6.4040     0.2090     1.6640 H     1 <1>   0.1000 
 35 H       -2.8210     5.9610    -1.3610 H     1 <1>   0.0800 
 36 H       -4.1140     4.9430    -0.7650 H     1 <1>   0.0800 
 37 H       -3.4520     4.6750    -2.3660 H     1 <1>   0.0800 
 38 H       -5.0950    -3.5060     1.1220 H     1 <1>   0.1500 
 39 H       -2.7840    -3.4790    -2.4660 H     1 <1>   0.1500 
 40 H       -7.2980     0.6080    -1.2610 H     1 <1>   0.1000 
 41 H       -8.3740     0.4770     0.1620 H     1 <1>   0.1000 
 42 H       -7.2610     2.5150     1.1950 H     1 <1>   0.1000 
 43 H       -6.1940     2.6510    -0.2360 H     1 <1>   0.1000 
 44 H       -5.3230    -5.9400     0.9500 H     1 <1>   0.1500 
 45 H       -3.0190    -5.9080    -2.6320 H     1 <1>   0.1500 
 46 H       -4.2860    -7.1480    -0.9260 H     1 <1>   0.1500 
@<TRIPOS>BOND
  1   1   2  2   
  2   2   3  am  
  3   2   4  1   
  4   3   5  1   
  5   3   6  1   
  6   4   7  1   
  7   4   8  2   
  8   5   9  1   
  9   5  25  1   
 10   5  26  1   
 11   6  10  1   
 12   6  27  1   
 13   6  28  1   
 14   7  11  1   
 15   8  12  1   
 16   8  13  1   
 17   9  14  1   
 18   9  15  1   
 19   9  29  1   
 20  10  14  1   
 21  10  16  1   
 22  10  30  1   
 23  11  12  2   
 24  11  17  1   
 25  13  31  1   
 26  13  32  1   
 27  13  33  1   
 28  15  18  ar  
 29  15  19  ar  
 30  16  20  1   
 31  16  21  1   
 32  16  34  1   
 33  17  35  1   
 34  17  36  1   
 35  17  37  1   
 36  18  22  ar  
 37  18  38  1   
 38  19  23  ar  
 39  19  39  1   
 40  20  21  1   
 41  20  40  1   
 42  20  41  1   
 43  21  42  1   
 44  21  43  1   
 45  22  24  ar  
 46  22  44  1   
 47  23  24  ar  
 48  23  45  1   
 49  24  46  1   
@<TRIPOS>SUBSTRUCTURE
  1 ****   3 GROUP 4 **** **** 0

# MOE 2024.06 (io_trps.svl 2023.06)
