@<TRIPOS>MOLECULE
NONAME
39 41 1 0 0 
SMALL
USER_CHARGES


@<TRIPOS>ATOM
  1 O       -2.8580     0.4820    -1.7850 O.2   1 <1>  -0.5700 
  2 C       -2.4580     0.4000    -0.6490 C.2   1 <1>   0.5690 
  3 N       -2.1770    -0.7990    -0.0810 N.am  1 <1>  -0.7300 
  4 C       -2.2820     1.6760     0.1770 C.3   1 <1>   0.1810 
  5 C       -2.2040    -2.1140    -0.7650 C.3   1 <1>   0.2200 
  6 O       -2.6100     1.4910     1.5290 O.3   1 <1>  -0.6800 
  7 C       -3.4550    -2.9080    -0.4110 C.3   1 <1>  -0.0800 
  8 C       -1.1310    -3.0050    -0.1550 C.3   1 <1>   0.1200 
  9 C       -3.0820    -3.5180     0.9460 C.3   1 <1>   0.1200 
 10 C       -4.7690    -2.0990    -0.4190 C.3   1 <1>  -0.0160 
 11 O       -1.6850    -3.4920     1.0300 O.3   1 <1>  -0.5600 
 12 C       -6.0660    -2.8850    -0.1900 C.ar  1 <1>  -0.1440 
 13 C       -7.2860    -2.1840    -0.0270 C.ar  1 <1>   0.0000 
 14 C       -6.1270    -4.2500    -0.1380 C.ar  1 <1>  -0.1500 
 15 C       -8.4610    -2.9380     0.2130 C.ar  1 <1>   0.3100 
 16 C       -7.4120    -0.7750    -0.0970 C.ar  1 <1>  -0.1500 
 17 C       -7.3450    -4.9000     0.0940 C.ar  1 <1>   0.1600 
 18 N       -8.4740    -4.2920     0.2710 N.ar  1 <1>  -0.6200 
 19 C       -9.6800    -2.2640     0.3960 C.ar  1 <1>  -0.1500 
 20 C       -8.6150    -0.1490     0.0820 C.ar  1 <1>  -0.1500 
 21 C       -9.7650    -0.9000     0.3350 C.ar  1 <1>  -0.1500 
 22 H       -1.8940    -0.8280     0.9050 H     1 <1>   0.3700 
 23 H       -2.9080     2.4560    -0.2190 H     1 <1>   0.0800 
 24 H       -1.2560     1.9930     0.1260 H     1 <1>   0.0800 
 25 H       -2.0780    -1.9890    -1.8280 H     1 <1>   0.0800 
 26 H       -3.5610     1.2830     1.6220 H     1 <1>   0.4000 
 27 H       -3.5370    -3.7050    -1.1290 H     1 <1>   0.0800 
 28 H       -0.2190    -2.4760     0.0600 H     1 <1>   0.0800 
 29 H       -0.9260    -3.8470    -0.7930 H     1 <1>   0.0800 
 30 H       -3.4150    -4.5360     1.0450 H     1 <1>   0.0800 
 31 H       -3.4660    -2.9290     1.7620 H     1 <1>   0.0800 
 32 H       -4.8470    -1.5940    -1.3670 H     1 <1>   0.0800 
 33 H       -4.7030    -1.3460     0.3460 H     1 <1>   0.0800 
 34 H       -5.2680    -4.8780    -0.2710 H     1 <1>   0.1500 
 35 H       -6.5460    -0.1750    -0.3010 H     1 <1>   0.1500 
 36 H       -7.3420    -5.9760     0.1290 H     1 <1>   0.1500 
 37 H      -10.5510    -2.8630     0.5840 H     1 <1>   0.1500 
 38 H       -8.6940     0.9230     0.0270 H     1 <1>   0.1500 
 39 H      -10.7060    -0.3970     0.4760 H     1 <1>   0.1500 
@<TRIPOS>BOND
  1   1   2  2   
  2   2   3  am  
  3   2   4  1   
  4   3   5  1   
  5   3  22  1   
  6   4   6  1   
  7   4  23  1   
  8   4  24  1   
  9   5   7  1   
 10   5   8  1   
 11   5  25  1   
 12   6  26  1   
 13   7   9  1   
 14   7  10  1   
 15   7  27  1   
 16   8  11  1   
 17   8  28  1   
 18   8  29  1   
 19   9  11  1   
 20   9  30  1   
 21   9  31  1   
 22  10  12  1   
 23  10  32  1   
 24  10  33  1   
 25  12  13  ar  
 26  12  14  ar  
 27  13  15  ar  
 28  13  16  ar  
 29  14  17  ar  
 30  14  34  1   
 31  15  18  ar  
 32  15  19  ar  
 33  16  20  ar  
 34  16  35  1   
 35  17  18  ar  
 36  17  36  1   
 37  19  21  ar  
 38  19  37  1   
 39  20  21  ar  
 40  20  38  1   
 41  21  39  1   
@<TRIPOS>SUBSTRUCTURE
  1 ****  10 GROUP 4 **** **** 0

# MOE 2024.06 (io_trps.svl 2023.06)
