@<TRIPOS>MOLECULE
NONAME
57 60 1 0 0 
SMALL
USER_CHARGES


@<TRIPOS>ATOM
  1 O       -0.2740    -1.1040     0.6560 O.2   1 <1>  -0.5700 
  2 C       -1.0030    -2.0330     0.4140 C.2   1 <1>   0.5690 
  3 N       -0.9150    -3.2220     1.0800 N.am  1 <1>  -0.3680 
  4 C       -2.0890    -1.9060    -0.6360 C.3   1 <1>  -0.0990 
  5 N       -1.6570    -4.3680     0.8180 N.2   1 <1>  -0.5120 
  6 C       -2.4600    -3.2740    -1.2450 C.3   1 <1>  -0.0990 
  7 C       -2.3770    -4.4130    -0.2250 C.2   1 <1>   0.3280 
  8 C       -3.2060    -5.6410    -0.5550 C.3   1 <1>  -0.0990 
  9 C       -4.6460    -5.5070    -0.0250 C.3   1 <1>  -0.0990 
 10 C       -5.5180    -6.7180    -0.3340 C.2   1 <1>   0.5690 
 11 O       -5.2520    -7.3670    -1.3190 O.2   1 <1>  -0.5700 
 12 N       -6.5820    -7.0500     0.4690 N.am  1 <1>  -0.6600 
 13 C       -7.2730    -8.3580     0.2480 C.3   1 <1>   0.1400 
 14 C       -7.1290    -6.1730     1.5490 C.3   1 <1>   0.1400 
 15 C       -8.3950    -8.2180    -0.7880 C.3   1 <1>   0.1400 
 16 C       -8.6630    -6.1150     1.5920 C.3   1 <1>  -0.1600 
 17 N       -9.5870    -7.5120    -0.2220 N.am  1 <1>  -0.6600 
 18 C       -9.3450    -6.1110     0.2190 C.3   1 <1>   0.1400 
 19 C      -10.8250    -8.0870    -0.0680 C.2   1 <1>   0.6300 
 20 O      -11.7630    -7.4760     0.3880 O.2   1 <1>  -0.5700 
 21 C      -11.0580    -9.5380    -0.4670 C.3   1 <1>  -0.1000 
 22 C      -11.9580   -10.4180     0.3520 C.3   1 <1>  -0.0680 
 23 C      -10.4820   -10.6720     0.3340 C.3   1 <1>  -0.2000 
 24 C      -12.9130   -11.3560    -0.3620 C.ar  1 <1>  -0.0320 
 25 C      -12.8360   -12.7270    -0.1730 C.ar  1 <1>  -0.1500 
 26 C      -13.8790   -10.8390    -1.2100 C.ar  1 <1>  -0.1500 
 27 C      -13.7100   -13.5740    -0.8320 C.ar  1 <1>  -0.1500 
 28 C      -14.7550   -11.6830    -1.8710 C.ar  1 <1>  -0.1500 
 29 C      -14.6690   -13.0520    -1.6830 C.ar  1 <1>  -0.1500 
 30 H       -0.2310    -3.2480     1.8420 H     1 <1>   0.3700 
 31 H       -2.9500    -1.4840    -0.1530 H     1 <1>   0.0800 
 32 H       -1.7680    -1.2280    -1.4060 H     1 <1>   0.0800 
 33 H       -1.7750    -3.5020    -2.0420 H     1 <1>   0.0800 
 34 H       -3.4480    -3.2160    -1.6640 H     1 <1>   0.0800 
 35 H       -3.2060    -5.8000    -1.6190 H     1 <1>   0.0800 
 36 H       -2.7480    -6.5020    -0.1000 H     1 <1>   0.0800 
 37 H       -5.1140    -4.6410    -0.4540 H     1 <1>   0.0800 
 38 H       -4.5880    -5.3730     1.0390 H     1 <1>   0.0800 
 39 H       -6.5570    -9.0740    -0.1180 H     1 <1>   0.0800 
 40 H       -7.6650    -8.7400     1.1740 H     1 <1>   0.0800 
 41 H       -6.7570    -6.5150     2.5000 H     1 <1>   0.0800 
 42 H       -6.7760    -5.1680     1.4020 H     1 <1>   0.0800 
 43 H       -8.6640    -9.1980    -1.1320 H     1 <1>   0.0800 
 44 H       -8.0260    -7.6750    -1.6410 H     1 <1>   0.0800 
 45 H       -8.9360    -5.2100     2.1050 H     1 <1>   0.0800 
 46 H       -9.0490    -6.9260     2.1850 H     1 <1>   0.0800 
 47 H       -8.7430    -5.5930    -0.5080 H     1 <1>   0.0800 
 48 H      -10.2840    -5.5900     0.2930 H     1 <1>   0.0800 
 49 H      -11.1170    -9.6500    -1.5340 H     1 <1>   0.1000 
 50 H      -12.3850    -9.9940     1.2450 H     1 <1>   0.1000 
 51 H      -10.1070   -11.5310    -0.1930 H     1 <1>   0.1000 
 52 H       -9.9220   -10.4510     1.2250 H     1 <1>   0.1000 
 53 H      -12.0940   -13.1340     0.4900 H     1 <1>   0.1500 
 54 H      -13.9480    -9.7740    -1.3520 H     1 <1>   0.1500 
 55 H      -13.6440   -14.6370    -0.6830 H     1 <1>   0.1500 
 56 H      -15.5020   -11.2750    -2.5280 H     1 <1>   0.1500 
 57 H      -15.3490   -13.7090    -2.1960 H     1 <1>   0.1500 
@<TRIPOS>BOND
  1   1   2  2   
  2   2   3  am  
  3   2   4  1   
  4   3   5  1   
  5   3  30  1   
  6   4   6  1   
  7   4  31  1   
  8   4  32  1   
  9   5   7  2   
 10   6   7  1   
 11   6  33  1   
 12   6  34  1   
 13   7   8  1   
 14   8   9  1   
 15   8  35  1   
 16   8  36  1   
 17   9  10  1   
 18   9  37  1   
 19   9  38  1   
 20  10  11  2   
 21  10  12  am  
 22  12  13  1   
 23  12  14  1   
 24  13  15  1   
 25  13  39  1   
 26  13  40  1   
 27  14  16  1   
 28  14  41  1   
 29  14  42  1   
 30  15  17  1   
 31  15  43  1   
 32  15  44  1   
 33  16  18  1   
 34  16  45  1   
 35  16  46  1   
 36  17  18  1   
 37  17  19  am  
 38  18  47  1   
 39  18  48  1   
 40  19  20  2   
 41  19  21  1   
 42  21  22  1   
 43  21  23  1   
 44  21  49  1   
 45  22  23  1   
 46  22  24  1   
 47  22  50  1   
 48  23  51  1   
 49  23  52  1   
 50  24  25  ar  
 51  24  26  ar  
 52  25  27  ar  
 53  25  53  1   
 54  26  28  ar  
 55  26  54  1   
 56  27  29  ar  
 57  27  55  1   
 58  28  29  ar  
 59  28  56  1   
 60  29  57  1   
@<TRIPOS>SUBSTRUCTURE
  1 ****  13 GROUP 4 **** **** 0

# MOE 2024.06 (io_trps.svl 2023.06)
