@<TRIPOS>MOLECULE
NONAME
49 50 1 0 0 
SMALL
USER_CHARGES


@<TRIPOS>ATOM
  1 N        0.0420     0.2520     1.0530 N.ar  1 <1>  -0.6200 
  2 C       -0.8930     0.8070     0.3080 C.ar  1 <1>   0.4100 
  3 C        0.9950     1.0580     1.4780 C.ar  1 <1>   0.4760 
  4 N       -1.9030    -0.0080    -0.1450 N.pl3 1 <1>  -0.8690 
  5 C       -0.8590     2.1590    -0.0080 C.ar  1 <1>  -0.1430 
  6 N        1.1270     2.3490     1.2500 N.ar  1 <1>  -0.6200 
  7 C        2.0700     0.4340     2.3340 C.3   1 <1>  -0.0970 
  8 C       -2.1190    -1.3780     0.3300 C.3   1 <1>   0.2890 
  9 C        0.1870     2.8860     0.5000 C.ar  1 <1>   0.1600 
 10 C       -1.9160     2.8340    -0.8760 C.3   1 <1>  -0.0170 
 11 C       -1.3370    -2.3300    -0.5680 C.3   1 <1>  -0.1600 
 12 C       -3.6090    -1.6960     0.2900 C.3   1 <1>  -0.1600 
 13 C       -3.1660     3.1710    -0.0530 C.3   1 <1>  -0.1600 
 14 C       -1.5950    -3.7720    -0.1580 C.3   1 <1>   0.3430 
 15 C       -3.8420    -3.1510     0.6860 C.3   1 <1>   0.3430 
 16 C       -4.2480     3.8240    -0.9190 C.3   1 <1>  -0.2400 
 17 N       -3.0650    -4.0590    -0.2110 N.4   1 <1>  -0.9590 
 18 C       -3.4200    -5.4840     0.0310 C.3   1 <1>   0.4230 
 19 C       -2.8350    -6.0050     1.3450 C.3   1 <1>  -0.2400 
 20 C       -2.9460    -6.3240    -1.1510 C.3   1 <1>  -0.2400 
 21 H       -2.6960     0.4560    -0.5890 H     1 <1>   0.4000 
 22 H        1.9720    -0.6350     2.3500 H     1 <1>   0.0800 
 23 H        1.9880     0.8110     3.3360 H     1 <1>   0.0800 
 24 H        3.0360     0.6910     1.9400 H     1 <1>   0.0800 
 25 H       -1.7660    -1.4670     1.3460 H     1 <1>   0.0800 
 26 H        0.2660     3.9400     0.2940 H     1 <1>   0.1500 
 27 H       -2.1730     2.1910    -1.7000 H     1 <1>   0.0800 
 28 H       -1.5130     3.7400    -1.2950 H     1 <1>   0.0800 
 29 H       -0.2860    -2.1230    -0.4670 H     1 <1>   0.0800 
 30 H       -1.6080    -2.1850    -1.5990 H     1 <1>   0.0800 
 31 H       -4.0060    -1.5220    -0.6940 H     1 <1>   0.0800 
 32 H       -4.1250    -1.0580     0.9850 H     1 <1>   0.0800 
 33 H       -2.8950     3.8430     0.7440 H     1 <1>   0.0800 
 34 H       -3.5620     2.2770     0.3950 H     1 <1>   0.0800 
 35 H       -1.2260    -3.9300     0.8420 H     1 <1>   0.0800 
 36 H       -1.0610    -4.4310    -0.8230 H     1 <1>   0.0800 
 37 H       -4.8950    -3.3760     0.6180 H     1 <1>   0.0800 
 38 H       -3.5320    -3.2970     1.7080 H     1 <1>   0.0800 
 39 H       -3.8840     4.7410    -1.3490 H     1 <1>   0.0800 
 40 H       -5.1110     4.0520    -0.3180 H     1 <1>   0.0800 
 41 H       -4.5500     3.1650    -1.7130 H     1 <1>   0.0800 
 42 H       -3.3650    -3.8540    -1.1730 H     1 <1>   0.4500 
 43 H       -4.4950    -5.5670     0.0830 H     1 <1>   0.0800 
 44 H       -1.7610    -6.0420     1.3200 H     1 <1>   0.0800 
 45 H       -3.1860    -7.0080     1.5120 H     1 <1>   0.0800 
 46 H       -3.1570    -5.4100     2.1800 H     1 <1>   0.0800 
 47 H       -1.8730    -6.3550    -1.2160 H     1 <1>   0.0800 
 48 H       -3.3530    -5.9510    -2.0730 H     1 <1>   0.0800 
 49 H       -3.2920    -7.3360    -1.0280 H     1 <1>   0.0800 
@<TRIPOS>BOND
  1   1   2  ar  
  2   1   3  ar  
  3   2   4  1   
  4   2   5  ar  
  5   3   6  ar  
  6   3   7  1   
  7   4   8  1   
  8   4  21  1   
  9   5   9  ar  
 10   5  10  1   
 11   6   9  ar  
 12   7  22  1   
 13   7  23  1   
 14   7  24  1   
 15   8  11  1   
 16   8  12  1   
 17   8  25  1   
 18   9  26  1   
 19  10  13  1   
 20  10  27  1   
 21  10  28  1   
 22  11  14  1   
 23  11  29  1   
 24  11  30  1   
 25  12  15  1   
 26  12  31  1   
 27  12  32  1   
 28  13  16  1   
 29  13  33  1   
 30  13  34  1   
 31  14  17  1   
 32  14  35  1   
 33  14  36  1   
 34  15  17  1   
 35  15  37  1   
 36  15  38  1   
 37  16  39  1   
 38  16  40  1   
 39  16  41  1   
 40  17  18  1   
 41  17  42  1   
 42  18  19  1   
 43  18  20  1   
 44  18  43  1   
 45  19  44  1   
 46  19  45  1   
 47  19  46  1   
 48  20  47  1   
 49  20  48  1   
 50  20  49  1   
@<TRIPOS>SUBSTRUCTURE
  1 ****   8 GROUP 4 **** **** 0

# MOE 2024.06 (io_trps.svl 2023.06)
