@<TRIPOS>MOLECULE
NONAME
50 52 1 0 0 
SMALL
USER_CHARGES


@<TRIPOS>ATOM
  1 O       -0.5040    -0.2640     1.4410 O.2   1 <1>  -0.5700 
  2 C       -1.2540     0.5530     0.9600 C.2   1 <1>   0.5690 
  3 N       -2.3640     0.1440     0.2510 N.am  1 <1>  -0.6600 
  4 C       -0.9380     2.0270     1.2080 C.3   1 <1>   0.1810 
  5 C       -2.5350    -1.2830    -0.1380 C.3   1 <1>   0.1400 
  6 C       -3.4770     1.0390    -0.1770 C.3   1 <1>   0.1400 
  7 O       -0.9440     2.7660    -0.0040 O.3   1 <1>  -0.3620 
  8 C       -3.8560    -1.8340     0.4390 C.3   1 <1>   0.4230 
  9 C       -4.7900     0.5030     0.4090 C.3   1 <1>  -0.1600 
 10 C       -0.8290     4.1160    -0.0010 C.ar  1 <1>   0.0820 
 11 N       -4.0440    -3.3310     0.2210 N.4   1 <1>  -0.9590 
 12 C       -5.0880    -0.9750     0.0230 C.3   1 <1>   0.0000 
 13 C       -0.5370     4.8660     1.1360 C.ar  1 <1>  -0.1500 
 14 C       -1.0230     4.7600    -1.2120 C.ar  1 <1>  -0.1500 
 15 C       -5.4580    -3.8030     0.3830 C.3   1 <1>   0.3430 
 16 C       -3.4700    -3.8760    -1.0540 C.3   1 <1>   0.2630 
 17 C       -6.3390    -1.4530     0.8170 C.3   1 <1>  -0.1600 
 18 C       -5.3350    -1.0940    -1.5080 C.3   1 <1>   0.1200 
 19 C       -0.4500     6.2450     1.0500 C.ar  1 <1>  -0.1500 
 20 C       -0.9360     6.1380    -1.2950 C.ar  1 <1>  -0.1500 
 21 C       -6.2300    -2.8980     1.3420 C.3   1 <1>  -0.1600 
 22 O       -6.2900    -0.1900    -1.9450 O.3   1 <1>  -0.6800 
 23 C       -0.6500     6.8820    -0.1630 C.ar  1 <1>  -0.1500 
 24 H        0.0390     2.1150     1.6470 H     1 <1>   0.0800 
 25 H       -1.6750     2.4440     1.8690 H     1 <1>   0.0800 
 26 H       -2.5230    -1.3390    -1.2110 H     1 <1>   0.0800 
 27 H       -1.7150    -1.8710     0.2350 H     1 <1>   0.0800 
 28 H       -3.3250     2.0460     0.1720 H     1 <1>   0.0800 
 29 H       -3.5230     1.0720    -1.2530 H     1 <1>   0.0800 
 30 H       -3.7680    -1.6970     1.5040 H     1 <1>   0.0800 
 31 H       -4.7250     0.5980     1.4790 H     1 <1>   0.0800 
 32 H       -5.5930     1.1460     0.0930 H     1 <1>   0.0800 
 33 H       -3.5130    -3.7690     0.9890 H     1 <1>   0.4500 
 34 H       -0.3700     4.4020     2.0890 H     1 <1>   0.1500 
 35 H       -1.2420     4.1770    -2.0880 H     1 <1>   0.1500 
 36 H       -5.9590    -3.7920    -0.5710 H     1 <1>   0.0800 
 37 H       -5.4670    -4.8170     0.7510 H     1 <1>   0.0800 
 38 H       -3.9500    -3.4270    -1.9080 H     1 <1>   0.0800 
 39 H       -3.6140    -4.9440    -1.1020 H     1 <1>   0.0800 
 40 H       -2.4120    -3.6780    -1.1090 H     1 <1>   0.0800 
 41 H       -6.5150    -0.8160     1.6690 H     1 <1>   0.0800 
 42 H       -7.2190    -1.3720     0.2030 H     1 <1>   0.0800 
 43 H       -5.6770    -2.0760    -1.7790 H     1 <1>   0.0800 
 44 H       -4.4420    -0.8800    -2.0680 H     1 <1>   0.0800 
 45 H       -0.2240     6.8260     1.9280 H     1 <1>   0.1500 
 46 H       -1.0900     6.6310    -2.2400 H     1 <1>   0.1500 
 47 H       -7.2200    -3.2960     1.4860 H     1 <1>   0.0800 
 48 H       -5.7450    -2.9090     2.3040 H     1 <1>   0.0800 
 49 H       -7.1680    -0.3540    -1.5470 H     1 <1>   0.4000 
 50 H       -0.5820     7.9540    -0.2270 H     1 <1>   0.1500 
@<TRIPOS>BOND
  1   1   2  2   
  2   2   3  am  
  3   2   4  1   
  4   3   5  1   
  5   3   6  1   
  6   4   7  1   
  7   4  24  1   
  8   4  25  1   
  9   5   8  1   
 10   5  26  1   
 11   5  27  1   
 12   6   9  1   
 13   6  28  1   
 14   6  29  1   
 15   7  10  1   
 16   8  11  1   
 17   8  12  1   
 18   8  30  1   
 19   9  12  1   
 20   9  31  1   
 21   9  32  1   
 22  10  13  ar  
 23  10  14  ar  
 24  11  15  1   
 25  11  16  1   
 26  11  33  1   
 27  12  17  1   
 28  12  18  1   
 29  13  19  ar  
 30  13  34  1   
 31  14  20  ar  
 32  14  35  1   
 33  15  21  1   
 34  15  36  1   
 35  15  37  1   
 36  16  38  1   
 37  16  39  1   
 38  16  40  1   
 39  17  21  1   
 40  17  41  1   
 41  17  42  1   
 42  18  22  1   
 43  18  43  1   
 44  18  44  1   
 45  19  23  ar  
 46  19  45  1   
 47  20  23  ar  
 48  20  46  1   
 49  21  47  1   
 50  21  48  1   
 51  22  49  1   
 52  23  50  1   
@<TRIPOS>SUBSTRUCTURE
  1 ****   6 GROUP 4 **** **** 0

# MOE 2024.06 (io_trps.svl 2023.06)
