@<TRIPOS>MOLECULE
NONAME
43 46 1 0 0 
SMALL
USER_CHARGES


@<TRIPOS>ATOM
  1 CL      -0.0740    -0.1360     0.0530 Cl    1 <1>  -0.1770 
  2 C       -1.7340     0.3940     0.2040 C.ar  1 <1>   0.1770 
  3 C       -2.0530     1.7530     0.2690 C.ar  1 <1>   0.0530 
  4 C       -2.7030    -0.5920     0.2390 C.ar  1 <1>  -0.1500 
  5 C       -1.0670     2.8110     0.2500 C.2   1 <1>   0.0870 
  6 C       -3.4080     2.0740     0.3580 C.ar  1 <1>  -0.1500 
  7 C       -4.0380    -0.2420     0.3350 C.ar  1 <1>  -0.1500 
  8 O       -1.3450     3.9490    -0.3720 O.3   1 <1>  -0.2800 
  9 C        0.1780     2.9080     0.7860 C.2   1 <1>  -0.1500 
 10 C       -4.3870     1.0960     0.3910 C.ar  1 <1>  -0.1500 
 11 C       -0.3190     4.7700    -0.2620 C.2   1 <1>  -0.0400 
 12 C        0.6620     4.1740     0.4520 C.2   1 <1>  -0.1500 
 13 C       -0.4580     6.1380    -0.9310 C.3   1 <1>   0.2900 
 14 N        0.6910     7.0520    -0.7590 N.3   1 <1>  -0.8100 
 15 C        0.8640     7.4900     0.6520 C.3   1 <1>   0.1100 
 16 C        1.8960     6.5870    -1.4830 C.3   1 <1>   0.1100 
 17 C        1.8640     8.6510     0.8950 C.3   1 <1>   0.2200 
 18 C        3.0300     7.6260    -1.5900 C.3   1 <1>  -0.0190 
 19 N        2.0560     9.5080    -0.3030 N.am  1 <1>  -0.7300 
 20 C        3.2230     8.1400     1.4190 C.3   1 <1>   0.1200 
 21 C        2.5420     9.0570    -1.4780 C.2   1 <1>   0.5690 
 22 C        4.1820     7.3600    -0.6060 C.3   1 <1>   0.1200 
 23 O        3.7270     7.0630     0.6800 O.3   1 <1>  -0.5600 
 24 O        2.6200     9.7940    -2.4290 O.2   1 <1>  -0.5700 
 25 H       -2.4130    -1.6260     0.1880 H     1 <1>   0.1500 
 26 H       -3.6950     3.1100     0.4030 H     1 <1>   0.1500 
 27 H       -4.7990    -1.0030     0.3620 H     1 <1>   0.1500 
 28 H        0.7120     2.1750     1.3620 H     1 <1>   0.1500 
 29 H       -5.4240     1.3770     0.4620 H     1 <1>   0.1500 
 30 H        1.6300     4.5510     0.7310 H     1 <1>   0.1500 
 31 H       -1.3390     6.6160    -0.5410 H     1 <1>   0.0800 
 32 H       -0.6260     5.9850    -1.9830 H     1 <1>   0.0800 
 33 H       -0.0940     7.8250     1.0100 H     1 <1>   0.0800 
 34 H        1.1450     6.6560     1.2670 H     1 <1>   0.0800 
 35 H        2.2770     5.6850    -1.0400 H     1 <1>   0.0800 
 36 H        1.5950     6.3420    -2.4880 H     1 <1>   0.0800 
 37 H        1.4570     9.2740     1.6720 H     1 <1>   0.0800 
 38 H        3.4560     7.5260    -2.5710 H     1 <1>   0.0800 
 39 H        1.6110    10.4250    -0.3180 H     1 <1>   0.3700 
 40 H        3.0950     7.7820     2.4250 H     1 <1>   0.0800 
 41 H        3.9520     8.9310     1.4350 H     1 <1>   0.0800 
 42 H        4.8550     8.2000    -0.5590 H     1 <1>   0.0800 
 43 H        4.7380     6.5010    -0.9390 H     1 <1>   0.0800 
@<TRIPOS>BOND
  1   1   2  1   
  2   2   3  ar  
  3   2   4  ar  
  4   3   5  1   
  5   3   6  ar  
  6   4   7  ar  
  7   4  25  1   
  8   5   8  1   
  9   5   9  2   
 10   6  10  ar  
 11   6  26  1   
 12   7  10  ar  
 13   7  27  1   
 14   8  11  1   
 15   9  12  1   
 16   9  28  1   
 17  10  29  1   
 18  11  12  2   
 19  11  13  1   
 20  12  30  1   
 21  13  14  1   
 22  13  31  1   
 23  13  32  1   
 24  14  15  1   
 25  14  16  1   
 26  15  17  1   
 27  15  33  1   
 28  15  34  1   
 29  16  18  1   
 30  16  35  1   
 31  16  36  1   
 32  17  19  1   
 33  17  20  1   
 34  17  37  1   
 35  18  21  1   
 36  18  22  1   
 37  18  38  1   
 38  19  21  am  
 39  19  39  1   
 40  20  23  1   
 41  20  40  1   
 42  20  41  1   
 43  21  24  2   
 44  22  23  1   
 45  22  42  1   
 46  22  43  1   
@<TRIPOS>SUBSTRUCTURE
  1 ****  11 GROUP 4 **** **** 0

# MOE 2024.06 (io_trps.svl 2023.06)
