@<TRIPOS>MOLECULE
NONAME
48 50 1 0 0 
SMALL
USER_CHARGES


@<TRIPOS>ATOM
  1 S        1.1430    -0.5360    -1.0090 S.o2  1 <1>   1.3330 
  2 O        2.3490    -0.9670    -0.3380 O.2   1 <1>  -0.6500 
  3 O        0.9370    -0.8910    -2.3950 O.2   1 <1>  -0.6500 
  4 N       -0.1870    -1.1430    -0.1410 N.am  1 <1>  -0.8490 
  5 C        0.9820     1.2500    -0.8390 C.3   1 <1>  -0.0550 
  6 C       -1.4310    -1.1640    -0.9190 C.3   1 <1>   0.1160 
  7 C        0.0730    -2.4760     0.4120 C.3   1 <1>   0.1160 
  8 C        1.4570     1.9010     0.4820 C.3   1 <1>  -0.0800 
  9 C        2.9680     1.7940     0.7090 C.3   1 <1>   0.2200 
 10 C        0.8490     1.3570     1.7820 C.3   1 <1>   0.1200 
 11 N        3.5460     3.1550     0.8080 N.am  1 <1>  -0.7300 
 12 C        3.0630     1.0820     2.0560 C.3   1 <1>   0.1200 
 13 O        1.8810     1.4060     2.7120 O.3   1 <1>  -0.5600 
 14 C        3.9280     3.9140    -0.2580 C.2   1 <1>   0.5440 
 15 O        3.7380     3.4760    -1.3740 O.2   1 <1>  -0.5700 
 16 C        4.5180     5.2160    -0.0530 C.ar  1 <1>   0.0860 
 17 C        5.6710     5.6490    -0.7220 C.ar  1 <1>   0.0000 
 18 C        3.9830     6.1360     0.8340 C.ar  1 <1>  -0.1500 
 19 C        6.1550     6.9050    -0.4450 C.ar  1 <1>   0.3970 
 20 C        6.6020     5.1730    -1.6670 C.2   1 <1>   0.1080 
 21 C        4.5700     7.3880     1.0280 C.ar  1 <1>   0.1670 
 22 O        7.2410     7.0930    -1.1730 O.3   1 <1>  -0.0190 
 23 N        5.6510     7.7970     0.4080 N.ar  1 <1>  -0.5670 
 24 N        7.5100     6.0420    -1.9100 N.2   1 <1>  -0.4100 
 25 C        6.5770     3.8130    -2.3340 C.3   1 <1>  -0.0590 
 26 C        3.9530     8.3680     2.0050 C.3   1 <1>  -0.0970 
 27 H        1.5460     1.7060    -1.6300 H     1 <1>   0.0800 
 28 H       -0.0430     1.5180    -1.0010 H     1 <1>   0.0800 
 29 H       -2.2540    -1.4650    -0.2920 H     1 <1>   0.0800 
 30 H       -1.3490    -1.8540    -1.7440 H     1 <1>   0.0800 
 31 H       -1.6430    -0.1840    -1.3100 H     1 <1>   0.0800 
 32 H       -0.7840    -2.8270     0.9610 H     1 <1>   0.0800 
 33 H        0.9110    -2.4390     1.0870 H     1 <1>   0.0800 
 34 H        0.2970    -3.1720    -0.3800 H     1 <1>   0.0800 
 35 H        1.1850     2.9400     0.4230 H     1 <1>   0.0800 
 36 H        3.4820     1.2400    -0.0590 H     1 <1>   0.0800 
 37 H        0.5400     0.3320     1.7070 H     1 <1>   0.0800 
 38 H        0.0300     1.9580     2.1370 H     1 <1>   0.0800 
 39 H        3.6080     3.5170     1.7620 H     1 <1>   0.3700 
 40 H        3.9070     1.3960     2.6440 H     1 <1>   0.0800 
 41 H        3.0870     0.0130     1.9230 H     1 <1>   0.0800 
 42 H        3.0920     5.8850     1.3810 H     1 <1>   0.1500 
 43 H        6.4570     3.0390    -1.5980 H     1 <1>   0.0800 
 44 H        7.4960     3.6440    -2.8650 H     1 <1>   0.0800 
 45 H        5.7620     3.7640    -3.0330 H     1 <1>   0.0800 
 46 H        3.0760     7.9590     2.4710 H     1 <1>   0.0800 
 47 H        3.6820     9.2690     1.4860 H     1 <1>   0.0800 
 48 H        4.6690     8.6140     2.7680 H     1 <1>   0.0800 
@<TRIPOS>BOND
  1   1   2  2   
  2   1   3  2   
  3   1   4  am  
  4   1   5  1   
  5   4   6  1   
  6   4   7  1   
  7   5   8  1   
  8   5  27  1   
  9   5  28  1   
 10   6  29  1   
 11   6  30  1   
 12   6  31  1   
 13   7  32  1   
 14   7  33  1   
 15   7  34  1   
 16   8   9  1   
 17   8  10  1   
 18   8  35  1   
 19   9  11  1   
 20   9  12  1   
 21   9  36  1   
 22  10  13  1   
 23  10  37  1   
 24  10  38  1   
 25  11  14  am  
 26  11  39  1   
 27  12  13  1   
 28  12  40  1   
 29  12  41  1   
 30  14  15  2   
 31  14  16  1   
 32  16  17  ar  
 33  16  18  ar  
 34  17  19  ar  
 35  17  20  1   
 36  18  21  ar  
 37  18  42  1   
 38  19  22  1   
 39  19  23  ar  
 40  20  24  2   
 41  20  25  1   
 42  21  23  ar  
 43  21  26  1   
 44  22  24  1   
 45  25  43  1   
 46  25  44  1   
 47  25  45  1   
 48  26  46  1   
 49  26  47  1   
 50  26  48  1   
@<TRIPOS>SUBSTRUCTURE
  1 ****  11 GROUP 4 **** **** 0

# MOE 2024.06 (io_trps.svl 2023.06)
