@<TRIPOS>MOLECULE
NONAME
52 54 1 0 0 
SMALL
USER_CHARGES


@<TRIPOS>ATOM
  1 O       -1.0160    -1.1680     1.4800 O.3   1 <1>  -0.3630 
  2 C       -1.8970    -1.2300     0.4530 C.ar  1 <1>   0.0830 
  3 C       -0.6090     0.0690     2.0240 C.3   1 <1>   0.0400 
  4 C       -2.1540    -2.4880    -0.0640 C.ar  1 <1>  -0.1500 
  5 C       -2.5360    -0.1210    -0.0920 C.ar  1 <1>  -0.1500 
  6 C       -3.0490    -2.6570    -1.1100 C.ar  1 <1>  -0.1430 
  7 C       -3.4210    -0.2830    -1.1430 C.ar  1 <1>  -0.1500 
  8 C       -3.6770    -1.5440    -1.6530 C.ar  1 <1>  -0.1500 
  9 C       -3.3400    -4.0440    -1.6430 C.3   1 <1>   0.4860 
 10 N       -4.1580    -4.7680    -0.6260 N.4   1 <1>  -0.9590 
 11 C       -4.2530    -6.2400    -0.9400 C.3   1 <1>   0.3430 
 12 C       -5.5030    -4.1260    -0.5040 C.3   1 <1>   0.3430 
 13 C       -5.1600    -7.0420     0.0500 C.3   1 <1>   0.4230 
 14 C       -6.3320    -4.8570     0.5570 C.3   1 <1>  -0.1600 
 15 N       -5.2510    -8.5470    -0.2070 N.4   1 <1>  -0.9590 
 16 C       -6.5470    -6.3680     0.2660 C.3   1 <1>   0.0000 
 17 C       -6.3790    -9.2210     0.5260 C.3   1 <1>   0.3430 
 18 C       -5.3140    -8.9430    -1.6560 C.3   1 <1>   0.2630 
 19 C       -7.2160    -7.0110     1.5130 C.3   1 <1>  -0.1600 
 20 C       -7.5180    -6.5260    -0.9410 C.3   1 <1>   0.1200 
 21 C       -6.7510    -8.4550     1.7960 C.3   1 <1>  -0.1600 
 22 O       -6.9020    -6.2080    -2.1440 O.3   1 <1>  -0.6800 
 23 H        0.1140    -0.1260     2.7960 H     1 <1>   0.0800 
 24 H       -1.4650     0.5670     2.4440 H     1 <1>   0.0800 
 25 H       -0.1600     0.6630     1.2470 H     1 <1>   0.0800 
 26 H       -1.6290    -3.3190     0.3720 H     1 <1>   0.1500 
 27 H       -2.3570     0.8690     0.2850 H     1 <1>   0.1500 
 28 H       -3.9090     0.5800    -1.5670 H     1 <1>   0.1500 
 29 H       -4.3660    -1.6380    -2.4760 H     1 <1>   0.1500 
 30 H       -2.4060    -4.5560    -1.8110 H     1 <1>   0.0800 
 31 H       -3.8700    -3.9780    -2.5800 H     1 <1>   0.0800 
 32 H       -3.6690    -4.6050     0.2670 H     1 <1>   0.4500 
 33 H       -4.6480    -6.3520    -1.9350 H     1 <1>   0.0800 
 34 H       -3.2640    -6.6670    -0.9250 H     1 <1>   0.0800 
 35 H       -5.3930    -3.0910    -0.2180 H     1 <1>   0.0800 
 36 H       -6.0150    -4.1560    -1.4530 H     1 <1>   0.0800 
 37 H       -4.6660    -6.9450     1.0030 H     1 <1>   0.0800 
 38 H       -5.8420    -4.7200     1.5050 H     1 <1>   0.0800 
 39 H       -7.2880    -4.3660     0.6340 H     1 <1>   0.0800 
 40 H       -4.3920    -8.9680     0.1810 H     1 <1>   0.4500 
 41 H       -7.2500    -9.2700    -0.1090 H     1 <1>   0.0800 
 42 H       -6.1020   -10.2330     0.7780 H     1 <1>   0.0800 
 43 H       -6.1940    -8.5330    -2.1240 H     1 <1>   0.0800 
 44 H       -5.3530   -10.0180    -1.7480 H     1 <1>   0.0800 
 45 H       -4.4460    -8.5930    -2.1890 H     1 <1>   0.0800 
 46 H       -7.0140    -6.4350     2.4020 H     1 <1>   0.0800 
 47 H       -8.2890    -7.0020     1.3980 H     1 <1>   0.0800 
 48 H       -8.3710    -5.8760    -0.8230 H     1 <1>   0.0800 
 49 H       -7.8850    -7.5340    -1.0230 H     1 <1>   0.0800 
 50 H       -7.5380    -8.9830     2.3070 H     1 <1>   0.0800 
 51 H       -5.9030    -8.4480     2.4600 H     1 <1>   0.0800 
 52 H       -7.5730    -6.1550    -2.8640 H     1 <1>   0.4000 
@<TRIPOS>BOND
  1   1   2  1   
  2   1   3  1   
  3   2   4  ar  
  4   2   5  ar  
  5   3  23  1   
  6   3  24  1   
  7   3  25  1   
  8   4   6  ar  
  9   4  26  1   
 10   5   7  ar  
 11   5  27  1   
 12   6   8  ar  
 13   6   9  1   
 14   7   8  ar  
 15   7  28  1   
 16   8  29  1   
 17   9  10  1   
 18   9  30  1   
 19   9  31  1   
 20  10  11  1   
 21  10  12  1   
 22  10  32  1   
 23  11  13  1   
 24  11  33  1   
 25  11  34  1   
 26  12  14  1   
 27  12  35  1   
 28  12  36  1   
 29  13  15  1   
 30  13  16  1   
 31  13  37  1   
 32  14  16  1   
 33  14  38  1   
 34  14  39  1   
 35  15  17  1   
 36  15  18  1   
 37  15  40  1   
 38  16  19  1   
 39  16  20  1   
 40  17  21  1   
 41  17  41  1   
 42  17  42  1   
 43  18  43  1   
 44  18  44  1   
 45  18  45  1   
 46  19  21  1   
 47  19  46  1   
 48  19  47  1   
 49  20  22  1   
 50  20  48  1   
 51  20  49  1   
 52  21  50  1   
 53  21  51  1   
 54  22  52  1   
@<TRIPOS>SUBSTRUCTURE
  1 ****  10 GROUP 4 **** **** 0

# MOE 2024.06 (io_trps.svl 2023.06)
