@<TRIPOS>MOLECULE
NONAME
47 49 1 0 0 
SMALL
USER_CHARGES


@<TRIPOS>ATOM
  1 CL      -0.9500    -1.6740     1.8250 Cl    1 <1>  -0.1240 
  2 C       -2.5870    -2.1710     1.4790 C.2   1 <1>   0.2640 
  3 O       -2.7880    -3.0040     0.4800 O.3   1 <1>  -0.2800 
  4 C       -3.7360    -1.8280     2.0920 C.2   1 <1>  -0.1500 
  5 C       -4.0890    -3.2220     0.4210 C.2   1 <1>  -0.0400 
  6 C       -4.7320    -2.5250     1.3930 C.2   1 <1>  -0.1500 
  7 C       -4.5790    -4.1660    -0.6670 C.3   1 <1>   0.5230 
  8 N       -6.0480    -4.0220    -0.8680 N.4   1 <1>  -0.9590 
  9 C       -6.6550    -5.1690    -1.6170 C.3   1 <1>   0.3430 
 10 C       -6.3990    -2.7160    -1.4910 C.3   1 <1>   0.3430 
 11 C       -8.0040    -5.5810    -0.9930 C.3   1 <1>   0.1400 
 12 C       -7.7570    -2.2280    -0.9830 C.3   1 <1>  -0.1600 
 13 N       -8.6890    -4.4350    -0.3060 N.am  1 <1>  -0.6600 
 14 C       -8.9110    -3.2210    -1.1470 C.3   1 <1>   0.1400 
 15 C       -9.2480    -4.4920     0.9530 C.2   1 <1>   0.5690 
 16 O       -9.5010    -3.4690     1.5410 O.2   1 <1>  -0.5700 
 17 C       -9.5610    -5.8010     1.6770 C.3   1 <1>   0.0820 
 18 C      -10.1240    -6.8900     0.7710 C.2   1 <1>  -0.1810 
 19 C       -9.7260    -8.1620     0.6010 C.2   1 <1>  -0.0400 
 20 C      -11.1970    -6.7700    -0.1160 C.2   1 <1>   0.1080 
 21 O      -10.4790    -8.6970    -0.3210 O.3   1 <1>  -0.0190 
 22 C       -8.6450    -9.0110     1.2410 C.3   1 <1>  -0.0600 
 23 N      -11.3690    -7.8620    -0.7670 N.2   1 <1>  -0.4100 
 24 C      -12.0710    -5.5480    -0.3130 C.3   1 <1>  -0.0590 
 25 H       -3.8760    -1.1710     2.9320 H     1 <1>   0.1500 
 26 H       -5.7800    -2.4730     1.6380 H     1 <1>   0.1500 
 27 H       -4.3370    -5.1750    -0.3770 H     1 <1>   0.0800 
 28 H       -4.0600    -3.9450    -1.5860 H     1 <1>   0.0800 
 29 H       -6.5030    -4.0150     0.0580 H     1 <1>   0.4500 
 30 H       -5.9970    -6.0230    -1.6040 H     1 <1>   0.0800 
 31 H       -6.8100    -4.8940    -2.6470 H     1 <1>   0.0800 
 32 H       -6.4190    -2.8110    -2.5650 H     1 <1>   0.0800 
 33 H       -5.6570    -1.9750    -1.2370 H     1 <1>   0.0800 
 34 H       -7.8050    -6.3630    -0.2830 H     1 <1>   0.0800 
 35 H       -8.6510    -5.9920    -1.7500 H     1 <1>   0.0800 
 36 H       -8.0090    -1.3340    -1.5260 H     1 <1>   0.0800 
 37 H       -7.6810    -1.9420     0.0520 H     1 <1>   0.0800 
 38 H       -9.0300    -3.5010    -2.1800 H     1 <1>   0.0800 
 39 H       -9.8280    -2.7420    -0.8390 H     1 <1>   0.0800 
 40 H      -10.2840    -5.5980     2.4470 H     1 <1>   0.0800 
 41 H       -8.6670    -6.1440     2.1610 H     1 <1>   0.0800 
 42 H       -8.1130    -8.4570     1.9910 H     1 <1>   0.0800 
 43 H       -7.9530    -9.3490     0.4920 H     1 <1>   0.0800 
 44 H       -9.0960    -9.8710     1.7050 H     1 <1>   0.0800 
 45 H      -12.2430    -5.0540     0.6260 H     1 <1>   0.0800 
 46 H      -13.0200    -5.8430    -0.7230 H     1 <1>   0.0800 
 47 H      -11.5990    -4.8650    -0.9930 H     1 <1>   0.0800 
@<TRIPOS>BOND
  1   1   2  1   
  2   2   3  1   
  3   2   4  2   
  4   3   5  1   
  5   4   6  1   
  6   4  25  1   
  7   5   6  2   
  8   5   7  1   
  9   6  26  1   
 10   7   8  1   
 11   7  27  1   
 12   7  28  1   
 13   8   9  1   
 14   8  10  1   
 15   8  29  1   
 16   9  11  1   
 17   9  30  1   
 18   9  31  1   
 19  10  12  1   
 20  10  32  1   
 21  10  33  1   
 22  11  13  1   
 23  11  34  1   
 24  11  35  1   
 25  12  14  1   
 26  12  36  1   
 27  12  37  1   
 28  13  14  1   
 29  13  15  am  
 30  14  38  1   
 31  14  39  1   
 32  15  16  2   
 33  15  17  1   
 34  17  18  1   
 35  17  40  1   
 36  17  41  1   
 37  18  19  2   
 38  18  20  1   
 39  19  21  1   
 40  19  22  1   
 41  20  23  2   
 42  20  24  1   
 43  21  23  1   
 44  22  42  1   
 45  22  43  1   
 46  22  44  1   
 47  24  45  1   
 48  24  46  1   
 49  24  47  1   
@<TRIPOS>SUBSTRUCTURE
  1 ****  13 GROUP 4 **** **** 0

# MOE 2024.06 (io_trps.svl 2023.06)
