@<TRIPOS>MOLECULE
NONAME
40 43 1 0 0 
SMALL
USER_CHARGES


@<TRIPOS>ATOM
  1 CL      -0.0100    -0.8250    -2.7250 Cl    1 <1>  -0.1770 
  2 C       -0.1390    -2.1580    -1.6090 C.ar  1 <1>   0.1770 
  3 C       -0.7680    -3.3290    -1.9930 C.ar  1 <1>   0.1600 
  4 C        0.3860    -2.0450    -0.3440 C.ar  1 <1>  -0.1500 
  5 N       -0.9150    -4.3860    -1.2110 N.ar  1 <1>  -0.6200 
  6 C        0.2410    -3.1450     0.4760 C.ar  1 <1>  -0.1500 
  7 C       -0.4090    -4.3050     0.0380 C.ar  1 <1>   0.3960 
  8 C       -0.5120    -5.4390     0.9640 C.2   1 <1>   0.5440 
  9 O        0.4360    -5.6830     1.6930 O.2   1 <1>  -0.5700 
 10 N       -1.6360    -6.2440     1.0810 N.am  1 <1>  -0.6600 
 11 C       -1.5860    -7.5830     1.7330 C.3   1 <1>   0.1400 
 12 C       -2.9780    -5.9080     0.5350 C.3   1 <1>   0.1400 
 13 C       -1.9550    -8.6490     0.6980 C.3   1 <1>  -0.1600 
 14 C       -3.3490    -6.9410    -0.5290 C.3   1 <1>  -0.1600 
 15 C       -3.3130    -8.3650     0.0450 C.3   1 <1>   0.4600 
 16 O       -4.2760    -8.4690     1.0780 O.3   1 <1>  -0.5600 
 17 C       -3.6350    -9.4070    -1.0210 C.2   1 <1>  -0.1400 
 18 C       -5.6160    -8.7080     0.7150 C.3   1 <1>   0.1200 
 19 S       -2.5780    -9.7270    -2.3890 S.3   1 <1>  -0.0800 
 20 C       -4.7200   -10.1900    -1.0690 C.2   1 <1>  -0.1810 
 21 C       -5.7750   -10.0680     0.0080 C.3   1 <1>   0.0210 
 22 C       -3.6750   -10.9650    -2.9870 C.2   1 <1>  -0.1100 
 23 C       -4.7490   -11.0870    -2.1830 C.2   1 <1>  -0.1500 
 24 H       -1.1660    -3.3890    -2.9910 H     1 <1>   0.1500 
 25 H        0.8830    -1.1470    -0.0220 H     1 <1>   0.1500 
 26 H        0.6380    -3.1220     1.4760 H     1 <1>   0.1500 
 27 H       -2.2830    -7.6040     2.5530 H     1 <1>   0.0800 
 28 H       -0.6040    -7.7850     2.1230 H     1 <1>   0.0800 
 29 H       -2.9930    -4.9180     0.1160 H     1 <1>   0.0800 
 30 H       -3.6970    -5.9350     1.3360 H     1 <1>   0.0800 
 31 H       -1.9790    -9.6180     1.1610 H     1 <1>   0.0800 
 32 H       -1.1890    -8.6660    -0.0550 H     1 <1>   0.0800 
 33 H       -2.6430    -6.8660    -1.3360 H     1 <1>   0.0800 
 34 H       -4.3180    -6.7270    -0.9340 H     1 <1>   0.0800 
 35 H       -5.9430    -7.9110     0.0710 H     1 <1>   0.0800 
 36 H       -6.2070    -8.6870     1.6140 H     1 <1>   0.0800 
 37 H       -6.7560   -10.1320    -0.4260 H     1 <1>   0.0800 
 38 H       -5.6630   -10.8660     0.7190 H     1 <1>   0.0800 
 39 H       -3.3940   -11.4770    -3.8900 H     1 <1>   0.1500 
 40 H       -5.5650   -11.7730    -2.3270 H     1 <1>   0.1500 
@<TRIPOS>BOND
  1   1   2  1   
  2   2   3  ar  
  3   2   4  ar  
  4   3   5  ar  
  5   3  24  1   
  6   4   6  ar  
  7   4  25  1   
  8   5   7  ar  
  9   6   7  ar  
 10   6  26  1   
 11   7   8  1   
 12   8   9  2   
 13   8  10  am  
 14  10  11  1   
 15  10  12  1   
 16  11  13  1   
 17  11  27  1   
 18  11  28  1   
 19  12  14  1   
 20  12  29  1   
 21  12  30  1   
 22  13  15  1   
 23  13  31  1   
 24  13  32  1   
 25  14  15  1   
 26  14  33  1   
 27  14  34  1   
 28  15  16  1   
 29  15  17  1   
 30  16  18  1   
 31  17  19  1   
 32  17  20  2   
 33  18  21  1   
 34  18  35  1   
 35  18  36  1   
 36  19  22  1   
 37  20  21  1   
 38  20  23  1   
 39  21  37  1   
 40  21  38  1   
 41  22  23  2   
 42  22  39  1   
 43  23  40  1   
@<TRIPOS>SUBSTRUCTURE
  1 ****  14 GROUP 4 **** **** 0

# MOE 2024.06 (io_trps.svl 2023.06)
