@<TRIPOS>MOLECULE
NONAME
56 58 1 0 0 
SMALL
USER_CHARGES


@<TRIPOS>ATOM
  1 O       -3.7640    -1.8100    -0.3390 O.co2 1 <1>  -0.9000 
  2 C       -4.4100    -1.2120    -1.2040 C.2   1 <1>   0.9060 
  3 O       -5.0690    -1.8490    -2.0380 O.co2 1 <1>  -0.9000 
  4 C       -4.6400     0.2800    -1.0530 C.3   1 <1>   0.0140 
  5 O       -6.0350     0.5890    -1.0520 O.3   1 <1>  -0.3630 
  6 C       -6.6950     0.8350     0.1010 C.ar  1 <1>   0.0830 
  7 C       -6.9660    -0.1360     1.0710 C.ar  1 <1>  -0.1440 
  8 C       -7.1620     2.1300     0.2600 C.ar  1 <1>  -0.1500 
  9 C       -7.6920     0.2430     2.1940 C.ar  1 <1>  -0.1500 
 10 C       -6.4710    -1.5810     1.0260 C.3   1 <1>   0.4870 
 11 C       -7.8890     2.4860     1.3790 C.ar  1 <1>  -0.1500 
 12 C       -8.1530     1.5390     2.3500 C.ar  1 <1>  -0.1500 
 13 N       -6.9200    -2.4260    -0.1300 N.4   1 <1>  -0.9590 
 14 C       -8.3410    -2.5880    -0.5160 C.3   1 <1>   0.4230 
 15 C       -6.2240    -3.7410    -0.0460 C.3   1 <1>   0.2630 
 16 C       -8.7900    -1.5090    -1.4960 C.3   1 <1>  -0.1600 
 17 C       -9.3390    -2.5960     0.6470 C.3   1 <1>  -0.1600 
 18 C      -10.2400    -1.1580    -1.1480 C.3   1 <1>  -0.0800 
 19 C      -10.6150    -1.9100     0.1300 C.3   1 <1>  -0.0800 
 20 C      -10.4670     0.3250    -0.8320 C.3   1 <1>  -0.1600 
 21 C      -11.2130    -0.8560     1.0830 C.3   1 <1>  -0.1600 
 22 C      -11.5820     0.3510     0.2140 C.3   1 <1>   0.4230 
 23 N      -12.9270     0.1570    -0.4190 N.4   1 <1>  -0.9590 
 24 C      -13.2500     1.2150    -1.4320 C.3   1 <1>   0.2630 
 25 C      -14.0340     0.1240     0.5910 C.3   1 <1>   0.2630 
 26 H       -4.1940     0.7810    -1.8900 H     1 <1>   0.0800 
 27 H       -4.1970     0.6320    -0.1410 H     1 <1>   0.0800 
 28 H       -6.9460     2.8580    -0.5030 H     1 <1>   0.1500 
 29 H       -7.8960    -0.4680     2.9770 H     1 <1>   0.1500 
 30 H       -6.7800    -2.0660     1.9350 H     1 <1>   0.0800 
 31 H       -5.3960    -1.5600     1.0530 H     1 <1>   0.0800 
 32 H       -8.2360     3.4990     1.4970 H     1 <1>   0.1500 
 33 H       -8.7050     1.8160     3.2320 H     1 <1>   0.1500 
 34 H       -6.4360    -1.9990    -0.9630 H     1 <1>   0.4500 
 35 H       -8.4470    -3.5260    -1.0370 H     1 <1>   0.0800 
 36 H       -6.6020    -4.3230     0.7770 H     1 <1>   0.0800 
 37 H       -5.1640    -3.5850     0.0870 H     1 <1>   0.0800 
 38 H       -6.3580    -4.2860    -0.9650 H     1 <1>   0.0800 
 39 H       -8.1640    -0.6440    -1.4480 H     1 <1>   0.0800 
 40 H       -8.7280    -1.8960    -2.4980 H     1 <1>   0.0800 
 41 H       -9.5520    -3.6090     0.9380 H     1 <1>   0.0800 
 42 H       -8.9570    -2.0780     1.5010 H     1 <1>   0.0800 
 43 H      -10.8910    -1.4650    -1.9510 H     1 <1>   0.0800 
 44 H      -11.3540    -2.6580    -0.1110 H     1 <1>   0.0800 
 45 H      -10.6460     0.9140    -1.7110 H     1 <1>   0.0800 
 46 H       -9.5870     0.7250    -0.3590 H     1 <1>   0.0800 
 47 H      -10.4600    -0.5180     1.7720 H     1 <1>   0.0800 
 48 H      -12.0200    -1.2530     1.6680 H     1 <1>   0.0800 
 49 H      -11.5630     1.2680     0.7820 H     1 <1>   0.0800 
 50 H      -12.8960    -0.7520    -0.9010 H     1 <1>   0.4500 
 51 H      -13.1870     2.1940    -0.9850 H     1 <1>   0.0800 
 52 H      -14.2480     1.0740    -1.8140 H     1 <1>   0.0800 
 53 H      -12.5660     1.1690    -2.2640 H     1 <1>   0.0800 
 54 H      -14.0470     1.0380     1.1630 H     1 <1>   0.0800 
 55 H      -13.9120    -0.7050     1.2690 H     1 <1>   0.0800 
 56 H      -14.9860     0.0140     0.0980 H     1 <1>   0.0800 
@<TRIPOS>BOND
  1   1   2  ar  
  2   2   3  ar  
  3   2   4  1   
  4   4   5  1   
  5   4  26  1   
  6   4  27  1   
  7   5   6  1   
  8   6   7  ar  
  9   6   8  ar  
 10   7   9  ar  
 11   7  10  1   
 12   8  11  ar  
 13   8  28  1   
 14   9  12  ar  
 15   9  29  1   
 16  10  13  1   
 17  10  30  1   
 18  10  31  1   
 19  11  12  ar  
 20  11  32  1   
 21  12  33  1   
 22  13  14  1   
 23  13  15  1   
 24  13  34  1   
 25  14  16  1   
 26  14  17  1   
 27  14  35  1   
 28  15  36  1   
 29  15  37  1   
 30  15  38  1   
 31  16  18  1   
 32  16  39  1   
 33  16  40  1   
 34  17  19  1   
 35  17  41  1   
 36  17  42  1   
 37  18  19  1   
 38  18  20  1   
 39  18  43  1   
 40  19  21  1   
 41  19  44  1   
 42  20  22  1   
 43  20  45  1   
 44  20  46  1   
 45  21  22  1   
 46  21  47  1   
 47  21  48  1   
 48  22  23  1   
 49  22  49  1   
 50  23  24  1   
 51  23  25  1   
 52  23  50  1   
 53  24  51  1   
 54  24  52  1   
 55  24  53  1   
 56  25  54  1   
 57  25  55  1   
 58  25  56  1   
@<TRIPOS>SUBSTRUCTURE
  1 ****   7 GROUP 4 **** **** 0

# MOE 2024.06 (io_trps.svl 2023.06)
