@<TRIPOS>MOLECULE
NONAME
49 52 1 0 0 
SMALL
USER_CHARGES


@<TRIPOS>ATOM
  1 S        0.0380     0.5740    -1.9690 S.3   1 <1>  -0.0800 
  2 C        0.0140     1.9430    -0.8780 C.2   1 <1>  -0.1400 
  3 C        1.7430     0.8420    -2.2990 C.2   1 <1>  -0.1100 
  4 C        1.2150     2.5270    -0.7810 C.2   1 <1>  -0.1810 
  5 C       -1.2290     2.3850    -0.1550 C.3   1 <1>   0.0200 
  6 C        2.2100     1.8990    -1.6040 C.2   1 <1>  -0.1500 
  7 C        1.4340     3.7360     0.1310 C.3   1 <1>   0.4610 
  8 C       -0.9880     3.8270     0.3210 C.3   1 <1>   0.1200 
  9 O        0.2790     3.9620     0.9210 O.3   1 <1>  -0.5600 
 10 C        2.5730     3.4580     1.1180 C.3   1 <1>  -0.1600 
 11 C        1.7310     5.0000    -0.6890 C.3   1 <1>  -0.1600 
 12 C        2.8720     4.6760     1.9930 C.3   1 <1>   0.1400 
 13 C        2.0330     6.2000     0.2110 C.3   1 <1>   0.1400 
 14 N        3.1570     5.8470     1.1190 N.am  1 <1>  -0.6600 
 15 C        4.4390     6.3120     0.9600 C.2   1 <1>   0.6900 
 16 O        5.3850     5.6420     1.3300 O.2   1 <1>  -0.5700 
 17 N        4.6170     7.5440     0.4010 N.am  1 <1>  -0.5470 
 18 C        5.7630     8.2170    -0.0490 C.ar  1 <1>   0.1170 
 19 C        5.7610     9.6120    -0.1210 C.ar  1 <1>  -0.1440 
 20 C        6.9010     7.5280    -0.4550 C.ar  1 <1>  -0.1500 
 21 C        6.8820    10.2780    -0.5910 C.ar  1 <1>  -0.1500 
 22 C        4.5490    10.4270     0.3140 C.3   1 <1>  -0.0970 
 23 C        8.0210     8.1940    -0.9210 C.ar  1 <1>  -0.1440 
 24 C        8.0050     9.5750    -0.9890 C.ar  1 <1>  -0.1500 
 25 C        9.2530     7.4210    -1.3540 C.3   1 <1>  -0.0970 
 26 H        2.2230     0.1710    -2.9880 H     1 <1>   0.1500 
 27 H       -1.4150     1.7400     0.6850 H     1 <1>   0.0800 
 28 H       -2.0780     2.3550    -0.8130 H     1 <1>   0.0800 
 29 H        3.2210     2.2640    -1.6360 H     1 <1>   0.1500 
 30 H       -1.7290     4.1050     1.0500 H     1 <1>   0.0800 
 31 H       -1.0480     4.5090    -0.5080 H     1 <1>   0.0800 
 32 H        3.4690     3.2030     0.5830 H     1 <1>   0.0800 
 33 H        2.3110     2.6180     1.7350 H     1 <1>   0.0800 
 34 H        0.9080     5.2210    -1.3410 H     1 <1>   0.0800 
 35 H        2.5880     4.8200    -1.3130 H     1 <1>   0.0800 
 36 H        3.7110     4.4690     2.6360 H     1 <1>   0.0800 
 37 H        2.0240     4.9000     2.6180 H     1 <1>   0.0800 
 38 H        1.1660     6.4450     0.8020 H     1 <1>   0.0800 
 39 H        2.2780     7.0490    -0.4010 H     1 <1>   0.0800 
 40 H        3.7790     8.1080     0.4390 H     1 <1>   0.3700 
 41 H        6.9090     6.4550    -0.4090 H     1 <1>   0.1500 
 42 H        6.8920    11.3510    -0.6510 H     1 <1>   0.1500 
 43 H        4.2910    10.1880     1.3300 H     1 <1>   0.0800 
 44 H        3.7130    10.2150    -0.3270 H     1 <1>   0.0800 
 45 H        4.7560    11.4810     0.2610 H     1 <1>   0.0800 
 46 H        8.8670    10.1080    -1.3510 H     1 <1>   0.1500 
 47 H        9.2630     6.4430    -0.9060 H     1 <1>   0.0800 
 48 H       10.1440     7.9410    -1.0510 H     1 <1>   0.0800 
 49 H        9.2570     7.3120    -2.4230 H     1 <1>   0.0800 
@<TRIPOS>BOND
  1   1   2  1   
  2   1   3  1   
  3   2   4  2   
  4   2   5  1   
  5   3   6  2   
  6   3  26  1   
  7   4   6  1   
  8   4   7  1   
  9   5   8  1   
 10   5  27  1   
 11   5  28  1   
 12   6  29  1   
 13   7   9  1   
 14   7  10  1   
 15   7  11  1   
 16   8   9  1   
 17   8  30  1   
 18   8  31  1   
 19  10  12  1   
 20  10  32  1   
 21  10  33  1   
 22  11  13  1   
 23  11  34  1   
 24  11  35  1   
 25  12  14  1   
 26  12  36  1   
 27  12  37  1   
 28  13  14  1   
 29  13  38  1   
 30  13  39  1   
 31  14  15  am  
 32  15  16  2   
 33  15  17  am  
 34  17  18  1   
 35  17  40  1   
 36  18  19  ar  
 37  18  20  ar  
 38  19  21  ar  
 39  19  22  1   
 40  20  23  ar  
 41  20  41  1   
 42  21  24  ar  
 43  21  42  1   
 44  22  43  1   
 45  22  44  1   
 46  22  45  1   
 47  23  24  ar  
 48  23  25  1   
 49  24  46  1   
 50  25  47  1   
 51  25  48  1   
 52  25  49  1   
@<TRIPOS>SUBSTRUCTURE
  1 ****  14 GROUP 4 **** **** 0

# MOE 2024.06 (io_trps.svl 2023.06)
