@<TRIPOS>MOLECULE
NONAME
49 51 1 0 0 
SMALL
USER_CHARGES


@<TRIPOS>ATOM
  1 O       -1.6740    -1.8760     1.8090 O.co2 1 <1>  -0.9000 
  2 C       -1.6150    -1.5230     0.6290 C.2   1 <1>   0.9060 
  3 O       -0.8560    -0.6430     0.2110 O.co2 1 <1>  -0.9000 
  4 C       -2.6430    -2.0980    -0.3500 C.3   1 <1>   0.2370 
  5 N       -3.9150    -1.2770    -0.4760 N.4   1 <1>  -0.9590 
  6 C       -4.6290    -1.2560     0.8380 C.3   1 <1>   0.3430 
  7 C       -3.5960     0.1070    -0.9330 C.3   1 <1>   0.3430 
  8 C       -6.1070    -0.8410     0.6340 C.3   1 <1>   0.1900 
  9 C       -4.8420     0.9670    -1.2480 C.3   1 <1>  -0.0800 
 10 N       -6.4910    -0.9300    -0.8210 N.3   1 <1>  -0.8100 
 11 C       -6.3830     0.5380     1.2660 C.3   1 <1>   0.1200 
 12 C       -5.1370     1.9930    -0.1400 C.3   1 <1>   0.1200 
 13 C       -6.1230     0.2160    -1.6770 C.3   1 <1>   0.1100 
 14 C       -7.8600    -1.4170    -1.0540 C.3   1 <1>   0.2530 
 15 O       -5.2950     1.3980     1.1050 O.3   1 <1>  -0.5600 
 16 C       -7.9350    -2.8670    -0.6210 C.ar  1 <1>  -0.1430 
 17 C       -7.1150    -3.8150    -1.1850 C.ar  1 <1>   0.1600 
 18 C       -8.7930    -3.3000     0.3610 C.ar  1 <1>   0.1600 
 19 N       -7.1210    -5.0670    -0.8040 N.ar  1 <1>  -0.6200 
 20 N       -8.8240    -4.5450     0.7640 N.ar  1 <1>  -0.6200 
 21 C       -7.9790    -5.3860     0.1640 C.ar  1 <1>   0.7200 
 22 N       -7.9920    -6.7000     0.5870 N.pl3 1 <1>  -0.8380 
 23 C       -9.0960    -7.2510     1.4220 C.3   1 <1>   0.1290 
 24 C       -6.9480    -7.6790     0.1760 C.3   1 <1>   0.1290 
 25 H       -2.8810    -3.0900    -0.0120 H     1 <1>   0.0800 
 26 H       -2.1610    -2.1710    -1.3070 H     1 <1>   0.0800 
 27 H       -4.6050    -1.6780    -1.1270 H     1 <1>   0.4500 
 28 H       -4.6060    -2.2410     1.2710 H     1 <1>   0.0800 
 29 H       -4.1310    -0.5910     1.5270 H     1 <1>   0.0800 
 30 H       -2.9940     0.6020    -0.1850 H     1 <1>   0.0800 
 31 H       -2.9950     0.0370    -1.8240 H     1 <1>   0.0800 
 32 H       -6.6940    -1.5490     1.1920 H     1 <1>   0.0800 
 33 H       -4.5650     1.5710    -2.0930 H     1 <1>   0.0800 
 34 H       -6.5090     0.4120     2.3270 H     1 <1>   0.0800 
 35 H       -7.2740     0.9930     0.8710 H     1 <1>   0.0800 
 36 H       -6.0200     2.5690    -0.3590 H     1 <1>   0.0800 
 37 H       -4.3080     2.6750    -0.0500 H     1 <1>   0.0800 
 38 H       -5.9870    -0.1500    -2.6810 H     1 <1>   0.0800 
 39 H       -6.9420     0.9170    -1.7040 H     1 <1>   0.0800 
 40 H       -8.5670    -0.8120    -0.5120 H     1 <1>   0.0800 
 41 H       -8.0970    -1.3590    -2.1040 H     1 <1>   0.0800 
 42 H       -6.4300    -3.5340    -1.9650 H     1 <1>   0.1500 
 43 H       -9.4690    -2.6100     0.8370 H     1 <1>   0.1500 
 44 H       -9.2630    -8.2860     1.1810 H     1 <1>   0.0800 
 45 H      -10.0110    -6.7130     1.2450 H     1 <1>   0.0800 
 46 H       -8.8360    -7.1660     2.4630 H     1 <1>   0.0800 
 47 H       -6.8060    -8.4150     0.9470 H     1 <1>   0.0800 
 48 H       -6.0080    -7.1820     0.0080 H     1 <1>   0.0800 
 49 H       -7.2520    -8.1690    -0.7320 H     1 <1>   0.0800 
@<TRIPOS>BOND
  1   1   2  ar  
  2   2   3  ar  
  3   2   4  1   
  4   4   5  1   
  5   4  25  1   
  6   4  26  1   
  7   5   6  1   
  8   5   7  1   
  9   5  27  1   
 10   6   8  1   
 11   6  28  1   
 12   6  29  1   
 13   7   9  1   
 14   7  30  1   
 15   7  31  1   
 16   8  10  1   
 17   8  11  1   
 18   8  32  1   
 19   9  12  1   
 20   9  13  1   
 21   9  33  1   
 22  10  13  1   
 23  10  14  1   
 24  11  15  1   
 25  11  34  1   
 26  11  35  1   
 27  12  15  1   
 28  12  36  1   
 29  12  37  1   
 30  13  38  1   
 31  13  39  1   
 32  14  16  1   
 33  14  40  1   
 34  14  41  1   
 35  16  17  ar  
 36  16  18  ar  
 37  17  19  ar  
 38  17  42  1   
 39  18  20  ar  
 40  18  43  1   
 41  19  21  ar  
 42  20  21  ar  
 43  21  22  1   
 44  22  23  1   
 45  22  24  1   
 46  23  44  1   
 47  23  45  1   
 48  23  46  1   
 49  24  47  1   
 50  24  48  1   
 51  24  49  1   
@<TRIPOS>SUBSTRUCTURE
  1 ****   8 GROUP 4 **** **** 0

# MOE 2024.06 (io_trps.svl 2023.06)
