@<TRIPOS>MOLECULE
NONAME
56 59 1 0 0 
SMALL
USER_CHARGES


@<TRIPOS>ATOM
  1 N       -0.3430    -0.0120    -0.1250 N.ar  1 <1>  -0.1790 
  2 C        0.9570    -0.3560    -0.3790 C.ar  1 <1>   0.7710 
  3 C       -1.2750    -0.9090     0.2270 C.ar  1 <1>   0.4610 
  4 N        1.3980    -1.5770    -0.3130 N.ar  1 <1>  -0.5670 
  5 N        1.8600     0.5930    -0.7330 N.pl3 1 <1>  -0.8690 
  6 N       -2.5410    -0.5250     0.4640 N.pl3 1 <1>  -0.9000 
  7 C       -0.8340    -2.2340     0.3190 C.ar  1 <1>   0.0000 
  8 C        0.4830    -2.5150     0.0430 C.ar  1 <1>   0.1050 
  9 C        1.8370     2.0760    -0.7150 C.3   1 <1>   0.2090 
 10 C       -1.3900    -3.4830     0.6370 C.2   1 <1>   0.1390 
 11 N        0.6360    -3.8540     0.2010 N.pl3 1 <1>   0.3140 
 12 C        3.2730     2.5800    -0.5000 C.3   1 <1>  -0.1600 
 13 N       -0.5300    -4.4410     0.5690 N.2   1 <1>  -0.7070 
 14 C        1.8600    -4.6500     0.0220 C.3   1 <1>   0.0160 
 15 C        3.4370     4.1130    -0.6210 C.3   1 <1>   0.4230 
 16 N        4.8490     4.5270    -0.3280 N.4   1 <1>  -0.9590 
 17 C        2.4890     4.8500     0.3440 C.3   1 <1>  -0.1600 
 18 C        5.0460     6.0090    -0.4330 C.3   1 <1>   0.3430 
 19 C        5.8950     3.8390    -1.1470 C.3   1 <1>   0.4860 
 20 C        2.6680     6.3720     0.3100 C.3   1 <1>  -0.1600 
 21 C        4.1330     6.7350     0.5490 C.3   1 <1>  -0.1600 
 22 C        7.2610     4.1670    -0.5780 C.ar  1 <1>  -0.1430 
 23 C        8.1200     5.0120    -1.2690 C.ar  1 <1>  -0.1500 
 24 C        7.6620     3.6310     0.6380 C.ar  1 <1>  -0.1500 
 25 C        9.3590     5.3270    -0.7410 C.ar  1 <1>  -0.1500 
 26 C        8.9020     3.9480     1.1630 C.ar  1 <1>  -0.1500 
 27 C        9.7500     4.7980     0.4750 C.ar  1 <1>  -0.1500 
 28 H       -0.5930     0.9550    -0.2460 H     1 <1>   0.4570 
 29 H        2.7630     0.1810    -0.9970 H     1 <1>   0.4000 
 30 H       -3.2700    -1.2010     0.7330 H     1 <1>   0.4000 
 31 H       -2.9250     0.4250     0.4130 H     1 <1>   0.4000 
 32 H        1.1940     2.4190     0.0790 H     1 <1>   0.0800 
 33 H        1.4580     2.4360    -1.6590 H     1 <1>   0.0800 
 34 H       -2.4220    -3.6370     0.9080 H     1 <1>   0.1500 
 35 H        3.8800     2.1060    -1.2480 H     1 <1>   0.0800 
 36 H        3.6030     2.2630     0.4740 H     1 <1>   0.0800 
 37 H        2.6450    -4.0310    -0.3710 H     1 <1>   0.0800 
 38 H        1.6570    -5.4540    -0.6610 H     1 <1>   0.0800 
 39 H        2.1560    -5.0540     0.9720 H     1 <1>   0.0800 
 40 H        3.1920     4.4110    -1.6290 H     1 <1>   0.0800 
 41 H        5.0550     4.2940     0.6500 H     1 <1>   0.4500 
 42 H        2.6470     4.4970     1.3490 H     1 <1>   0.0800 
 43 H        1.4660     4.6460     0.0860 H     1 <1>   0.0800 
 44 H        4.8290     6.3380    -1.4370 H     1 <1>   0.0800 
 45 H        6.0700     6.2670    -0.2080 H     1 <1>   0.0800 
 46 H        5.8360     4.1580    -2.1750 H     1 <1>   0.0800 
 47 H        5.7670     2.7710    -1.1120 H     1 <1>   0.0800 
 48 H        2.0520     6.8320     1.0660 H     1 <1>   0.0800 
 49 H        2.3530     6.7550    -0.6460 H     1 <1>   0.0800 
 50 H        4.2620     7.7970     0.4280 H     1 <1>   0.0800 
 51 H        4.4210     6.4910     1.5580 H     1 <1>   0.0800 
 52 H        7.8430     5.4330    -2.2210 H     1 <1>   0.1500 
 53 H        7.0280     2.9590     1.1900 H     1 <1>   0.1500 
 54 H       10.0270     5.9830    -1.2760 H     1 <1>   0.1500 
 55 H        9.2150     3.5320     2.1070 H     1 <1>   0.1500 
 56 H       10.7150     5.0430     0.8850 H     1 <1>   0.1500 
@<TRIPOS>BOND
  1   1   2  ar  
  2   1   3  ar  
  3   1  28  1   
  4   2   4  ar  
  5   2   5  1   
  6   3   6  1   
  7   3   7  ar  
  8   4   8  ar  
  9   5   9  1   
 10   5  29  1   
 11   6  30  1   
 12   6  31  1   
 13   7   8  ar  
 14   7  10  1   
 15   8  11  1   
 16   9  12  1   
 17   9  32  1   
 18   9  33  1   
 19  10  13  2   
 20  10  34  1   
 21  11  13  1   
 22  11  14  1   
 23  12  15  1   
 24  12  35  1   
 25  12  36  1   
 26  14  37  1   
 27  14  38  1   
 28  14  39  1   
 29  15  16  1   
 30  15  17  1   
 31  15  40  1   
 32  16  18  1   
 33  16  19  1   
 34  16  41  1   
 35  17  20  1   
 36  17  42  1   
 37  17  43  1   
 38  18  21  1   
 39  18  44  1   
 40  18  45  1   
 41  19  22  1   
 42  19  46  1   
 43  19  47  1   
 44  20  21  1   
 45  20  48  1   
 46  20  49  1   
 47  21  50  1   
 48  21  51  1   
 49  22  23  ar  
 50  22  24  ar  
 51  23  25  ar  
 52  23  52  1   
 53  24  26  ar  
 54  24  53  1   
 55  25  27  ar  
 56  25  54  1   
 57  26  27  ar  
 58  26  55  1   
 59  27  56  1   
@<TRIPOS>SUBSTRUCTURE
  1 ****  12 GROUP 4 **** **** 0

# MOE 2024.06 (io_trps.svl 2023.06)
