@<TRIPOS>MOLECULE
NONAME
57 59 1 0 0 
SMALL
USER_CHARGES


@<TRIPOS>ATOM
  1 O       -1.3970     1.3570     1.8330 O.2   1 <1>  -0.5700 
  2 C       -2.0350     1.2780     0.8060 C.2   1 <1>   0.5690 
  3 N       -3.0270     0.3240     0.7320 N.am  1 <1>  -0.6600 
  4 C       -1.7020     2.2870    -0.3430 C.3   1 <1>   0.2040 
  5 C       -2.8910    -0.9190     1.5610 C.3   1 <1>   0.3210 
  6 C       -4.3290     0.4450    -0.0050 C.3   1 <1>   0.1400 
  7 C       -0.2200     2.7720    -0.2970 C.ar  1 <1>  -0.1440 
  8 C       -1.8680     1.7260    -1.7750 C.3   1 <1>  -0.1600 
  9 C       -2.7100     3.4620    -0.2830 C.3   1 <1>  -0.1600 
 10 C       -3.0140    -2.1680     0.6960 C.2   1 <1>   0.0460 
 11 C       -5.5160     0.5170     0.9630 C.3   1 <1>   0.1200 
 12 C        0.1650     4.0820    -0.5780 C.ar  1 <1>  -0.1500 
 13 C        0.7920     1.8570    -0.0110 C.ar  1 <1>  -0.1500 
 14 C       -2.2640     2.9230    -2.6400 C.3   1 <1>  -0.1600 
 15 C       -3.0760     3.8400    -1.7260 C.3   1 <1>  -0.1600 
 16 N       -4.1910    -2.8190     0.5810 N.2   1 <1>  -0.5650 
 17 C       -2.0530    -2.7770    -0.0380 C.2   1 <1>  -0.3320 
 18 O       -6.6060     1.0940     0.3220 O.3   1 <1>  -0.6800 
 19 C        1.4930     4.4720    -0.5500 C.ar  1 <1>   0.0820 
 20 C        2.1250     2.2290     0.0040 C.ar  1 <1>  -0.1500 
 21 C       -3.9250    -3.8020    -0.2140 C.2   1 <1>   0.0360 
 22 N       -2.6410    -3.8340    -0.6270 N.pl3 1 <1>   0.0330 
 23 C       -0.5900    -2.4210    -0.2370 C.3   1 <1>  -0.0600 
 24 O        1.7640     5.7790    -0.7890 O.3   1 <1>  -0.3620 
 25 C        2.4900     3.5310    -0.2790 C.ar  1 <1>   0.0820 
 26 C        2.2660     6.5140     0.3050 C.3   1 <1>   0.0400 
 27 O        3.8130     3.8270    -0.2850 O.3   1 <1>  -0.3630 
 28 C        4.3620     4.2140    -1.5250 C.3   1 <1>   0.0400 
 29 H       -3.6430    -0.9360     2.3280 H     1 <1>   0.0800 
 30 H       -1.9330    -0.9440     2.0480 H     1 <1>   0.0800 
 31 H       -4.4550    -0.4000    -0.6600 H     1 <1>   0.0800 
 32 H       -4.3350     1.3310    -0.6080 H     1 <1>   0.0800 
 33 H       -2.6320     0.9820    -1.8430 H     1 <1>   0.0800 
 34 H       -0.9600     1.2750    -2.1370 H     1 <1>   0.0800 
 35 H       -2.3190     4.2950     0.2720 H     1 <1>   0.0800 
 36 H       -3.6040     3.1660     0.2340 H     1 <1>   0.0800 
 37 H       -5.2790     1.1220     1.8210 H     1 <1>   0.0800 
 38 H       -5.8010    -0.4720     1.2780 H     1 <1>   0.0800 
 39 H       -0.5490     4.8390    -0.8340 H     1 <1>   0.1500 
 40 H        0.5500     0.8330     0.2070 H     1 <1>   0.1500 
 41 H       -2.8200     2.6230    -3.5110 H     1 <1>   0.0800 
 42 H       -1.3730     3.4380    -2.9600 H     1 <1>   0.0800 
 43 H       -2.8560     4.8740    -1.9290 H     1 <1>   0.0800 
 44 H       -4.1280     3.6740    -1.8880 H     1 <1>   0.0800 
 45 H       -6.4690     2.0520     0.1930 H     1 <1>   0.4000 
 46 H        2.8880     1.5080     0.2310 H     1 <1>   0.1500 
 47 H       -4.6450    -4.5370    -0.5290 H     1 <1>   0.1500 
 48 H       -2.2130    -4.5200    -1.2550 H     1 <1>   0.2700 
 49 H       -0.3370    -1.5410     0.3270 H     1 <1>   0.0800 
 50 H       -0.3930    -2.2250    -1.2760 H     1 <1>   0.0800 
 51 H        0.0380    -3.2290     0.0930 H     1 <1>   0.0800 
 52 H        2.3560     7.5420     0.0070 H     1 <1>   0.0800 
 53 H        3.2290     6.1260     0.5840 H     1 <1>   0.0800 
 54 H        1.5770     6.4250     1.1270 H     1 <1>   0.0800 
 55 H        5.4280     4.2910    -1.4120 H     1 <1>   0.0800 
 56 H        3.9550     5.1660    -1.8140 H     1 <1>   0.0800 
 57 H        4.1210     3.4660    -2.2600 H     1 <1>   0.0800 
@<TRIPOS>BOND
  1   1   2  2   
  2   2   3  am  
  3   2   4  1   
  4   3   5  1   
  5   3   6  1   
  6   4   7  1   
  7   4   8  1   
  8   4   9  1   
  9   5  10  1   
 10   5  29  1   
 11   5  30  1   
 12   6  11  1   
 13   6  31  1   
 14   6  32  1   
 15   7  12  ar  
 16   7  13  ar  
 17   8  14  1   
 18   8  33  1   
 19   8  34  1   
 20   9  15  1   
 21   9  35  1   
 22   9  36  1   
 23  10  16  1   
 24  10  17  2   
 25  11  18  1   
 26  11  37  1   
 27  11  38  1   
 28  12  19  ar  
 29  12  39  1   
 30  13  20  ar  
 31  13  40  1   
 32  14  15  1   
 33  14  41  1   
 34  14  42  1   
 35  15  43  1   
 36  15  44  1   
 37  16  21  2   
 38  17  22  1   
 39  17  23  1   
 40  18  45  1   
 41  19  24  1   
 42  19  25  ar  
 43  20  25  ar  
 44  20  46  1   
 45  21  22  1   
 46  21  47  1   
 47  22  48  1   
 48  23  49  1   
 49  23  50  1   
 50  23  51  1   
 51  24  26  1   
 52  25  27  1   
 53  26  52  1   
 54  26  53  1   
 55  26  54  1   
 56  27  28  1   
 57  28  55  1   
 58  28  56  1   
 59  28  57  1   
@<TRIPOS>SUBSTRUCTURE
  1 ****   4 GROUP 4 **** **** 0

# MOE 2024.06 (io_trps.svl 2023.06)
