@<TRIPOS>MOLECULE
NONAME
53 55 1 0 0 
SMALL
USER_CHARGES


@<TRIPOS>ATOM
  1 S       -0.4410     0.6170     2.7310 S.3   1 <1>  -0.0800 
  2 C       -0.9930     0.2140     1.1280 C.2   1 <1>   0.1980 
  3 C       -0.0450     2.2100     2.1640 C.2   1 <1>  -0.1100 
  4 N       -0.8900     1.1640     0.2890 N.2   1 <1>  -0.5650 
  5 C       -1.5340    -1.1890     0.8790 C.3   1 <1>   0.5230 
  6 C       -0.3440     2.3340     0.8490 C.2   1 <1>   0.1410 
  7 N       -1.7620    -1.3850    -0.5940 N.4   1 <1>  -0.9590 
  8 C       -0.1460     3.5250     0.0260 C.2   1 <1>   0.7160 
  9 C       -2.7680    -2.4460    -0.8930 C.3   1 <1>   0.2630 
 10 C       -0.4760    -1.6070    -1.3260 C.3   1 <1>   0.2630 
 11 O       -0.2440     3.4770    -1.1860 O.2   1 <1>  -0.5700 
 12 N        0.1560     4.7240     0.6280 N.am  1 <1>  -0.4940 
 13 C        0.1690     5.9970     0.0240 C.2   1 <1>  -0.0880 
 14 N        1.2320     6.6510    -0.5350 N.pl3 1 <1>   0.3140 
 15 C       -0.9120     6.8210    -0.0670 C.2   1 <1>  -0.0540 
 16 N        0.8430     7.8870    -0.9610 N.2   1 <1>  -0.7070 
 17 C        2.6750     6.1870    -0.6600 C.3   1 <1>   0.2560 
 18 C       -2.2650     6.5860     0.3650 C.ar  1 <1>   0.0540 
 19 C       -0.4170     7.9650    -0.6860 C.2   1 <1>   0.1390 
 20 C        2.7660     4.9620    -1.5840 C.3   1 <1>  -0.2400 
 21 C        3.5650     7.2930    -1.2640 C.3   1 <1>  -0.2400 
 22 C        3.2470     5.8360     0.7260 C.3   1 <1>  -0.2400 
 23 C       -3.0190     5.5540    -0.1870 C.ar  1 <1>  -0.1500 
 24 C       -2.8540     7.3770     1.3470 C.ar  1 <1>  -0.1500 
 25 C       -4.3140     5.3130     0.2340 C.ar  1 <1>  -0.1500 
 26 C       -4.1490     7.1400     1.7720 C.ar  1 <1>  -0.1500 
 27 C       -4.8810     6.1060     1.2160 C.ar  1 <1>  -0.1500 
 28 H        0.3790     2.8940     2.8770 H     1 <1>   0.1500 
 29 H       -2.4640    -1.2920     1.4120 H     1 <1>   0.0800 
 30 H       -0.8390    -1.9230     1.2520 H     1 <1>   0.0800 
 31 H       -2.1140    -0.4620    -0.9140 H     1 <1>   0.4500 
 32 H       -2.4150    -3.4070    -0.5540 H     1 <1>   0.0800 
 33 H       -2.9460    -2.5010    -1.9550 H     1 <1>   0.0800 
 34 H       -3.7030    -2.2270    -0.4030 H     1 <1>   0.0800 
 35 H       -0.0050    -2.5200    -0.9990 H     1 <1>   0.0800 
 36 H        0.2000    -0.7840    -1.1480 H     1 <1>   0.0800 
 37 H       -0.6560    -1.6700    -2.3870 H     1 <1>   0.0800 
 38 H       -0.0240     4.7430     1.6300 H     1 <1>   0.3700 
 39 H       -1.0210     8.8270    -0.9140 H     1 <1>   0.1500 
 40 H        2.2900     5.1730    -2.5260 H     1 <1>   0.0800 
 41 H        2.2940     4.1070    -1.1420 H     1 <1>   0.0800 
 42 H        3.7930     4.7060    -1.7720 H     1 <1>   0.0800 
 43 H        3.2180     7.5560    -2.2480 H     1 <1>   0.0800 
 44 H        4.5850     6.9640    -1.3450 H     1 <1>   0.0800 
 45 H        3.5430     8.1730    -0.6450 H     1 <1>   0.0800 
 46 H        2.7400     4.9930     1.1550 H     1 <1>   0.0800 
 47 H        3.1540     6.6790     1.3880 H     1 <1>   0.0800 
 48 H        4.2890     5.5840     0.6450 H     1 <1>   0.0800 
 49 H       -2.5800     4.9440    -0.9580 H     1 <1>   0.1500 
 50 H       -2.2870     8.1820     1.7810 H     1 <1>   0.1500 
 51 H       -4.8820     4.5120    -0.2070 H     1 <1>   0.1500 
 52 H       -4.5890     7.7600     2.5330 H     1 <1>   0.1500 
 53 H       -5.8890     5.9200     1.5440 H     1 <1>   0.1500 
@<TRIPOS>BOND
  1   1   2  1   
  2   1   3  1   
  3   2   4  2   
  4   2   5  1   
  5   3   6  2   
  6   3  28  1   
  7   4   6  1   
  8   5   7  1   
  9   5  29  1   
 10   5  30  1   
 11   6   8  1   
 12   7   9  1   
 13   7  10  1   
 14   7  31  1   
 15   8  11  2   
 16   8  12  am  
 17   9  32  1   
 18   9  33  1   
 19   9  34  1   
 20  10  35  1   
 21  10  36  1   
 22  10  37  1   
 23  12  13  1   
 24  12  38  1   
 25  13  14  1   
 26  13  15  2   
 27  14  16  1   
 28  14  17  1   
 29  15  18  1   
 30  15  19  1   
 31  16  19  2   
 32  17  20  1   
 33  17  21  1   
 34  17  22  1   
 35  18  23  ar  
 36  18  24  ar  
 37  19  39  1   
 38  20  40  1   
 39  20  41  1   
 40  20  42  1   
 41  21  43  1   
 42  21  44  1   
 43  21  45  1   
 44  22  46  1   
 45  22  47  1   
 46  22  48  1   
 47  23  25  ar  
 48  23  49  1   
 49  24  26  ar  
 50  24  50  1   
 51  25  27  ar  
 52  25  51  1   
 53  26  27  ar  
 54  26  52  1   
 55  27  53  1   
@<TRIPOS>SUBSTRUCTURE
  1 ****   8 GROUP 4 **** **** 0

# MOE 2024.06 (io_trps.svl 2023.06)
