@<TRIPOS>MOLECULE
NONAME
58 61 1 0 0 
SMALL
USER_CHARGES


@<TRIPOS>ATOM
  1 O       -0.4800    -1.2940    -1.9300 O.2   1 <1>  -0.5700 
  2 C        0.2950    -1.9320    -1.2580 C.2   1 <1>   0.5690 
  3 N       -0.0870    -2.6920    -0.1860 N.am  1 <1>  -0.6600 
  4 C        1.7720    -1.8950    -1.6010 C.3   1 <1>  -0.0990 
  5 C        0.9260    -3.4480     0.5920 C.3   1 <1>   0.1400 
  6 C       -1.4980    -2.7820     0.2730 C.3   1 <1>   0.0600 
  7 C        2.3760    -3.3120    -1.5620 C.3   1 <1>  -0.0800 
  8 C        1.8950    -4.1650    -0.3660 C.3   1 <1>  -0.0800 
  9 C        3.9080    -3.3150    -1.4970 C.3   1 <1>  -0.1600 
 10 C        3.1660    -4.6650     0.3340 C.3   1 <1>  -0.1600 
 11 C        4.2550    -4.5920    -0.7320 C.3   1 <1>   0.2200 
 12 N        5.6160    -4.6210    -0.1270 N.am  1 <1>  -0.6600 
 13 C        6.6370    -3.8600    -0.6490 C.2   1 <1>   0.5440 
 14 C        5.9800    -5.9400     0.4600 C.3   1 <1>   0.0600 
 15 O        7.3980    -4.4000    -1.4330 O.2   1 <1>  -0.5700 
 16 C        6.8200    -2.4690    -0.2760 C.ar  1 <1>   0.0860 
 17 C        7.5690    -1.5970    -1.0690 C.ar  1 <1>  -0.1500 
 18 C        6.2590    -1.9350     0.8880 C.ar  1 <1>  -0.1500 
 19 C        7.7390    -0.2700    -0.7280 C.ar  1 <1>  -0.1500 
 20 C        6.4280    -0.6080     1.2310 C.ar  1 <1>  -0.1500 
 21 C        7.1700     0.2510     0.4290 C.ar  1 <1>   0.1000 
 22 N        7.3310     1.5830     0.7840 N.pl3 1 <1>  -0.8380 
 23 C        8.6420     2.2750     0.6730 C.3   1 <1>   0.2090 
 24 C        6.1510     2.4540     1.0210 C.3   1 <1>   0.2090 
 25 C        8.5700     3.3600    -0.4070 C.3   1 <1>  -0.1600 
 26 C        6.0810     3.5350    -0.0620 C.3   1 <1>  -0.1600 
 27 C        7.3960     4.3220    -0.1730 C.3   1 <1>  -0.1600 
 28 H        1.9060    -1.4630    -2.5750 H     1 <1>   0.0800 
 29 H        2.2530    -1.2580    -0.8830 H     1 <1>   0.0800 
 30 H        1.4640    -2.7520     1.2130 H     1 <1>   0.0800 
 31 H        0.4440    -4.1700     1.2290 H     1 <1>   0.0800 
 32 H       -1.5740    -2.4360     1.2890 H     1 <1>   0.0800 
 33 H       -1.8350    -3.8020     0.2170 H     1 <1>   0.0800 
 34 H       -2.1360    -2.1740    -0.3460 H     1 <1>   0.0800 
 35 H        2.0740    -3.8230    -2.4610 H     1 <1>   0.0800 
 36 H        1.3770    -5.0200    -0.7670 H     1 <1>   0.0800 
 37 H        4.2340    -2.4550    -0.9430 H     1 <1>   0.0800 
 38 H        4.3490    -3.3060    -2.4780 H     1 <1>   0.0800 
 39 H        3.0390    -5.6650     0.7070 H     1 <1>   0.0800 
 40 H        3.4270    -4.0060     1.1440 H     1 <1>   0.0800 
 41 H        4.1510    -5.4290    -1.4030 H     1 <1>   0.0800 
 42 H        5.3940    -6.1290     1.3410 H     1 <1>   0.0800 
 43 H        7.0230    -5.9460     0.7310 H     1 <1>   0.0800 
 44 H        5.8120    -6.7210    -0.2610 H     1 <1>   0.0800 
 45 H        8.0210    -1.9760    -1.9700 H     1 <1>   0.1500 
 46 H        5.6850    -2.5760     1.5330 H     1 <1>   0.1500 
 47 H        8.3130     0.3770    -1.3640 H     1 <1>   0.1500 
 48 H        5.9950    -0.2220     2.1340 H     1 <1>   0.1500 
 49 H        8.8780     2.7220     1.6230 H     1 <1>   0.0800 
 50 H        9.4150     1.5640     0.4370 H     1 <1>   0.0800 
 51 H        5.2490     1.8660     1.0020 H     1 <1>   0.0800 
 52 H        6.2410     2.9090     1.9920 H     1 <1>   0.0800 
 53 H        9.4940     3.9110    -0.4170 H     1 <1>   0.0800 
 54 H        8.4610     2.8850    -1.3660 H     1 <1>   0.0800 
 55 H        5.8640     3.0600    -1.0030 H     1 <1>   0.0800 
 56 H        5.2730     4.2080     0.1600 H     1 <1>   0.0800 
 57 H        7.3330     5.0250    -0.9850 H     1 <1>   0.0800 
 58 H        7.5610     4.8740     0.7370 H     1 <1>   0.0800 
@<TRIPOS>BOND
  1   1   2  2   
  2   2   3  am  
  3   2   4  1   
  4   3   5  1   
  5   3   6  1   
  6   4   7  1   
  7   4  28  1   
  8   4  29  1   
  9   5   8  1   
 10   5  30  1   
 11   5  31  1   
 12   6  32  1   
 13   6  33  1   
 14   6  34  1   
 15   7   8  1   
 16   7   9  1   
 17   7  35  1   
 18   8  10  1   
 19   8  36  1   
 20   9  11  1   
 21   9  37  1   
 22   9  38  1   
 23  10  11  1   
 24  10  39  1   
 25  10  40  1   
 26  11  12  1   
 27  11  41  1   
 28  12  13  am  
 29  12  14  1   
 30  13  15  2   
 31  13  16  1   
 32  14  42  1   
 33  14  43  1   
 34  14  44  1   
 35  16  17  ar  
 36  16  18  ar  
 37  17  19  ar  
 38  17  45  1   
 39  18  20  ar  
 40  18  46  1   
 41  19  21  ar  
 42  19  47  1   
 43  20  21  ar  
 44  20  48  1   
 45  21  22  1   
 46  22  23  1   
 47  22  24  1   
 48  23  25  1   
 49  23  49  1   
 50  23  50  1   
 51  24  26  1   
 52  24  51  1   
 53  24  52  1   
 54  25  27  1   
 55  25  53  1   
 56  25  54  1   
 57  26  27  1   
 58  26  55  1   
 59  26  56  1   
 60  27  57  1   
 61  27  58  1   
@<TRIPOS>SUBSTRUCTURE
  1 ****  18 GROUP 4 **** **** 0

# MOE 2024.06 (io_trps.svl 2023.06)
