@<TRIPOS>MOLECULE
NONAME
56 58 1 0 0 
SMALL
USER_CHARGES


@<TRIPOS>ATOM
  1 O        0.5700    -0.8800     1.1900 O.2   1 <1>  -0.5700 
  2 C        1.3530    -1.0790     0.2900 C.2   1 <1>   0.5690 
  3 N        2.0970    -0.0830    -0.2940 N.am  1 <1>  -0.5470 
  4 C        1.4700    -2.5340    -0.2400 C.3   1 <1>   0.4840 
  5 C        2.1080     1.3030    -0.0560 C.ar  1 <1>   0.1170 
  6 N        0.1360    -3.2560    -0.2800 N.4   1 <1>  -0.9590 
  7 C        2.4710    -3.3470     0.6100 C.3   1 <1>  -0.1600 
  8 C        3.2360     2.0280    -0.4250 C.ar  1 <1>  -0.1500 
  9 C        1.0380     1.9910     0.5100 C.ar  1 <1>  -0.1500 
 10 C        0.1700    -4.6670    -0.7780 C.3   1 <1>   0.3430 
 11 C       -0.9580    -2.4670    -0.9140 C.3   1 <1>   0.3430 
 12 C        3.8780    -2.7300     0.6740 C.3   1 <1>  -0.2400 
 13 C        3.3020     3.3980    -0.2360 C.ar  1 <1>  -0.1500 
 14 C        1.0990     3.3590     0.7020 C.ar  1 <1>  -0.1500 
 15 C       -1.2400    -5.2400    -0.9760 C.3   1 <1>  -0.1600 
 16 C       -2.3150    -3.0290    -0.4800 C.3   1 <1>  -0.1600 
 17 C        2.2260     4.0730     0.3320 C.ar  1 <1>   0.0820 
 18 C       -2.2890    -4.5220    -0.1180 C.3   1 <1>   0.4240 
 19 O        2.2020     5.4140     0.5540 O.3   1 <1>  -0.3630 
 20 O       -1.8540    -4.6300     1.1860 O.3   1 <1>  -0.6800 
 21 C       -3.7010    -5.1210    -0.1510 C.ar  1 <1>  -0.1440 
 22 C        3.3110     6.2250     0.2350 C.3   1 <1>   0.0400 
 23 C       -4.0760    -6.1180    -1.0480 C.ar  1 <1>  -0.1500 
 24 C       -4.6570    -4.6500     0.7440 C.ar  1 <1>  -0.1500 
 25 C       -5.3630    -6.6290    -1.0430 C.ar  1 <1>  -0.1500 
 26 C       -5.9430    -5.1600     0.7500 C.ar  1 <1>  -0.1500 
 27 C       -6.2970    -6.1520    -0.1440 C.ar  1 <1>  -0.1500 
 28 H        2.8200    -0.3720    -0.9520 H     1 <1>   0.3700 
 29 H        1.8510    -2.4770    -1.2440 H     1 <1>   0.0800 
 30 H       -0.1730    -3.3240     0.7110 H     1 <1>   0.4500 
 31 H        2.5830    -4.3360     0.2050 H     1 <1>   0.0800 
 32 H        2.0920    -3.4340     1.6150 H     1 <1>   0.0800 
 33 H        4.0790     1.5260    -0.8620 H     1 <1>   0.1500 
 34 H        0.1470     1.4720     0.8070 H     1 <1>   0.1500 
 35 H        0.6820    -5.2780    -0.0510 H     1 <1>   0.0800 
 36 H        0.7130    -4.7250    -1.7070 H     1 <1>   0.0800 
 37 H       -0.8670    -2.5250    -1.9870 H     1 <1>   0.0800 
 38 H       -0.9070    -1.4290    -0.6240 H     1 <1>   0.0800 
 39 H        4.2900    -2.5940    -0.3110 H     1 <1>   0.0800 
 40 H        4.5350    -3.3850     1.2210 H     1 <1>   0.0800 
 41 H        3.8680    -1.7830     1.1880 H     1 <1>   0.0800 
 42 H        4.1910     3.9200    -0.5330 H     1 <1>   0.1500 
 43 H        0.2710     3.8850     1.1420 H     1 <1>   0.1500 
 44 H       -1.2290    -6.2910    -0.7480 H     1 <1>   0.0800 
 45 H       -1.5060    -5.1420    -2.0130 H     1 <1>   0.0800 
 46 H       -3.0020    -2.8780    -1.2940 H     1 <1>   0.0800 
 47 H       -2.6920    -2.4580     0.3500 H     1 <1>   0.0800 
 48 H       -2.4820    -5.2230     1.6530 H     1 <1>   0.4000 
 49 H        3.0710     7.2370     0.5040 H     1 <1>   0.0800 
 50 H        3.4970     6.1620    -0.8220 H     1 <1>   0.0800 
 51 H        4.1620     5.8890     0.8000 H     1 <1>   0.0800 
 52 H       -3.3890    -6.5210    -1.7680 H     1 <1>   0.1500 
 53 H       -4.4130    -3.8750     1.4510 H     1 <1>   0.1500 
 54 H       -5.6400    -7.4010    -1.7400 H     1 <1>   0.1500 
 55 H       -6.6700    -4.7850     1.4500 H     1 <1>   0.1500 
 56 H       -7.2970    -6.5500    -0.1410 H     1 <1>   0.1500 
@<TRIPOS>BOND
  1   1   2  2   
  2   2   3  am  
  3   2   4  1   
  4   3   5  1   
  5   3  28  1   
  6   4   6  1   
  7   4   7  1   
  8   4  29  1   
  9   5   8  ar  
 10   5   9  ar  
 11   6  10  1   
 12   6  11  1   
 13   6  30  1   
 14   7  12  1   
 15   7  31  1   
 16   7  32  1   
 17   8  13  ar  
 18   8  33  1   
 19   9  14  ar  
 20   9  34  1   
 21  10  15  1   
 22  10  35  1   
 23  10  36  1   
 24  11  16  1   
 25  11  37  1   
 26  11  38  1   
 27  12  39  1   
 28  12  40  1   
 29  12  41  1   
 30  13  17  ar  
 31  13  42  1   
 32  14  17  ar  
 33  14  43  1   
 34  15  18  1   
 35  15  44  1   
 36  15  45  1   
 37  16  18  1   
 38  16  46  1   
 39  16  47  1   
 40  17  19  1   
 41  18  20  1   
 42  18  21  1   
 43  19  22  1   
 44  20  48  1   
 45  21  23  ar  
 46  21  24  ar  
 47  22  49  1   
 48  22  50  1   
 49  22  51  1   
 50  23  25  ar  
 51  23  52  1   
 52  24  26  ar  
 53  24  53  1   
 54  25  27  ar  
 55  25  54  1   
 56  26  27  ar  
 57  26  55  1   
 58  27  56  1   
@<TRIPOS>SUBSTRUCTURE
  1 ****  11 GROUP 4 **** **** 0

# MOE 2024.06 (io_trps.svl 2023.06)
