@<TRIPOS>MOLECULE
NONAME
45 47 1 0 0 
SMALL
USER_CHARGES


@<TRIPOS>ATOM
  1 S        0.3180     0.1850    -0.5420 S.3   1 <1>  -0.3320 
  2 C       -1.2590    -0.6560    -0.2980 C.ar  1 <1>   0.1020 
  3 C       -0.0350     1.9970    -0.4800 C.3   1 <1>   0.0700 
  4 C       -1.2320    -2.0390    -0.2730 C.ar  1 <1>  -0.1500 
  5 C       -2.4500     0.0410    -0.1440 C.ar  1 <1>  -0.1500 
  6 C        1.2880     2.7370    -0.6810 C.3   1 <1>  -0.0990 
  7 C       -2.4110    -2.7380    -0.0890 C.ar  1 <1>   0.0830 
  8 C       -3.6300    -0.6620     0.0460 C.ar  1 <1>  -0.1500 
  9 C        1.1190     4.2380    -0.5610 C.2   1 <1>   0.5690 
 10 O       -2.3750    -4.0950    -0.0820 O.3   1 <1>  -0.3630 
 11 C       -3.6140    -2.0460     0.0800 C.ar  1 <1>   0.0830 
 12 O        0.0590     4.7300    -0.8600 O.2   1 <1>  -0.5700 
 13 N        2.1950     4.9600    -0.1220 N.am  1 <1>  -0.4940 
 14 C       -3.6120    -4.7690    -0.2150 C.3   1 <1>   0.1200 
 15 O       -4.7820    -2.7080     0.2850 O.3   1 <1>  -0.3630 
 16 C        2.3130     6.3610     0.0700 C.2   1 <1>  -0.0880 
 17 C       -4.6870    -4.0770     0.6340 C.3   1 <1>   0.1200 
 18 N        3.4160     6.9980     0.5510 N.pl3 1 <1>   0.3140 
 19 C        1.4010     7.3320    -0.1750 C.2   1 <1>  -0.1500 
 20 N        3.2310     8.3350     0.6180 N.2   1 <1>  -0.7070 
 21 C        4.6890     6.3890     0.9870 C.3   1 <1>   0.0960 
 22 C        2.0240     8.5210     0.1810 C.2   1 <1>   0.1390 
 23 C        5.5830     6.0570    -0.2170 C.3   1 <1>  -0.1600 
 24 C        6.8930     5.3950     0.2260 C.3   1 <1>  -0.2400 
 25 H       -0.4670     2.2110     0.4820 H     1 <1>   0.0800 
 26 H       -0.7360     2.2220    -1.2660 H     1 <1>   0.0800 
 27 H       -0.3060    -2.5680    -0.3970 H     1 <1>   0.1500 
 28 H       -2.4810     1.1130    -0.1680 H     1 <1>   0.1500 
 29 H        1.6730     2.5130    -1.6590 H     1 <1>   0.0800 
 30 H        1.9920     2.3960     0.0550 H     1 <1>   0.0800 
 31 H       -4.5630    -0.1430     0.1700 H     1 <1>   0.1500 
 32 H        3.0300     4.4120     0.0760 H     1 <1>   0.3700 
 33 H       -3.4710    -5.7860     0.1020 H     1 <1>   0.0800 
 34 H       -3.8900    -4.7560    -1.2540 H     1 <1>   0.0800 
 35 H       -4.4370    -4.1390     1.6780 H     1 <1>   0.0800 
 36 H       -5.6500    -4.5270     0.4740 H     1 <1>   0.0800 
 37 H        0.4040     7.2310    -0.5620 H     1 <1>   0.1500 
 38 H        4.4700     5.5040     1.5540 H     1 <1>   0.0800 
 39 H        5.1900     7.0890     1.6310 H     1 <1>   0.0800 
 40 H        1.5650     9.4920     0.1070 H     1 <1>   0.1500 
 41 H        5.8100     6.9690    -0.7450 H     1 <1>   0.0800 
 42 H        5.0640     5.3980    -0.8910 H     1 <1>   0.0800 
 43 H        7.4440     6.0500     0.8780 H     1 <1>   0.0800 
 44 H        7.5050     5.1810    -0.6330 H     1 <1>   0.0800 
 45 H        6.6980     4.4720     0.7440 H     1 <1>   0.0800 
@<TRIPOS>BOND
  1   1   2  1   
  2   1   3  1   
  3   2   4  ar  
  4   2   5  ar  
  5   3   6  1   
  6   3  25  1   
  7   3  26  1   
  8   4   7  ar  
  9   4  27  1   
 10   5   8  ar  
 11   5  28  1   
 12   6   9  1   
 13   6  29  1   
 14   6  30  1   
 15   7  10  1   
 16   7  11  ar  
 17   8  11  ar  
 18   8  31  1   
 19   9  12  2   
 20   9  13  am  
 21  10  14  1   
 22  11  15  1   
 23  13  16  1   
 24  13  32  1   
 25  14  17  1   
 26  14  33  1   
 27  14  34  1   
 28  15  17  1   
 29  16  18  1   
 30  16  19  2   
 31  17  35  1   
 32  17  36  1   
 33  18  20  1   
 34  18  21  1   
 35  19  22  1   
 36  19  37  1   
 37  20  22  2   
 38  21  23  1   
 39  21  38  1   
 40  21  39  1   
 41  22  40  1   
 42  23  24  1   
 43  23  41  1   
 44  23  42  1   
 45  24  43  1   
 46  24  44  1   
 47  24  45  1   
@<TRIPOS>SUBSTRUCTURE
  1 ****   3 GROUP 4 **** **** 0

# MOE 2024.06 (io_trps.svl 2023.06)
