@<TRIPOS>MOLECULE
NONAME
60 62 1 0 0 
SMALL
USER_CHARGES


@<TRIPOS>ATOM
  1 O        0.5900    -1.2910     0.9760 O.2   1 <1>  -0.5700 
  2 C        1.3730    -1.3550     0.0470 C.2   1 <1>   0.5440 
  3 N        2.1920    -0.2960    -0.1950 N.am  1 <1>  -0.7300 
  4 C        1.4060    -2.5340    -0.8010 C.ar  1 <1>   0.0860 
  5 C        2.1060     1.0020     0.4940 C.3   1 <1>   0.4000 
  6 C        0.2910    -3.3670    -0.8940 C.ar  1 <1>  -0.1500 
  7 C        2.5330    -2.8920    -1.5420 C.ar  1 <1>  -0.1500 
  8 C        1.3820     1.9480    -0.4630 C.2   1 <1>   0.0060 
  9 C        3.5200     1.5010     0.8820 C.3   1 <1>  -0.0800 
 10 C        0.2890    -4.5100    -1.6770 C.ar  1 <1>  -0.1440 
 11 C        2.5400    -4.0220    -2.3390 C.ar  1 <1>  -0.1500 
 12 N        1.9060     2.4280    -1.5520 N.2   1 <1>  -0.5650 
 13 N        0.0980     2.3390    -0.2650 N.pl3 1 <1>   0.0480 
 14 C        4.2650     0.5020     1.7860 C.3   1 <1>  -0.2400 
 15 C        3.4600     2.8630     1.5960 C.3   1 <1>  -0.2400 
 16 C        1.4220    -4.8320    -2.4090 C.ar  1 <1>  -0.1500 
 17 C       -0.9390    -5.4000    -1.7230 C.3   1 <1>   0.4860 
 18 C        0.9220     3.1760    -2.0810 C.2   1 <1>   0.0770 
 19 C       -0.1860     3.1330    -1.3120 C.2   1 <1>  -0.3020 
 20 C       -0.8290     1.9620     0.8190 C.3   1 <1>   0.0160 
 21 N       -1.1400    -6.0100    -0.3800 N.4   1 <1>  -0.9590 
 22 C       -0.0190    -6.9340    -0.0330 C.3   1 <1>   0.3430 
 23 C       -2.4910    -6.6240    -0.2840 C.3   1 <1>   0.3430 
 24 C        0.1840    -6.9510     1.4810 C.3   1 <1>  -0.1600 
 25 C       -2.8470    -7.0260     1.1490 C.3   1 <1>  -0.1600 
 26 C       -0.7030    -7.9440     2.2530 C.3   1 <1>  -0.1600 
 27 C       -2.0760    -8.2580     1.6420 C.3   1 <1>  -0.1600 
 28 H        2.6010    -0.1820    -1.1240 H     1 <1>   0.3700 
 29 H        1.5370     0.8930     1.4000 H     1 <1>   0.0800 
 30 H       -0.5860    -3.0900    -0.3320 H     1 <1>   0.1500 
 31 H        3.4180    -2.2810    -1.4930 H     1 <1>   0.1500 
 32 H        4.0880     1.6330    -0.0240 H     1 <1>   0.0800 
 33 H        3.4230    -4.2700    -2.9060 H     1 <1>   0.1500 
 34 H        3.7100     0.3230     2.6900 H     1 <1>   0.0800 
 35 H        5.2360     0.8850     2.0490 H     1 <1>   0.0800 
 36 H        4.4060    -0.4370     1.2820 H     1 <1>   0.0800 
 37 H        2.8840     2.7940     2.5020 H     1 <1>   0.0800 
 38 H        3.0120     3.6050     0.9570 H     1 <1>   0.0800 
 39 H        4.4510     3.1990     1.8440 H     1 <1>   0.0800 
 40 H        1.4510    -5.7070    -3.0380 H     1 <1>   0.1500 
 41 H       -0.8140    -6.1690    -2.4680 H     1 <1>   0.0800 
 42 H       -1.7950    -4.8010    -1.9900 H     1 <1>   0.0800 
 43 H        1.0650     3.7140    -3.0030 H     1 <1>   0.1500 
 44 H       -1.1360     3.6120    -1.4540 H     1 <1>   0.1500 
 45 H       -0.9030     0.8910     0.8690 H     1 <1>   0.0800 
 46 H       -1.8000     2.3770     0.6240 H     1 <1>   0.0800 
 47 H       -0.4580     2.3420     1.7540 H     1 <1>   0.0800 
 48 H       -1.0910    -5.2370     0.2960 H     1 <1>   0.4500 
 49 H        0.8940    -6.5750    -0.4810 H     1 <1>   0.0800 
 50 H       -0.2070    -7.9280    -0.4040 H     1 <1>   0.0800 
 51 H       -2.5480    -7.4900    -0.9230 H     1 <1>   0.0800 
 52 H       -3.2270    -5.9130    -0.6250 H     1 <1>   0.0800 
 53 H        0.0530    -5.9590     1.8750 H     1 <1>   0.0800 
 54 H        1.2080    -7.2190     1.6740 H     1 <1>   0.0800 
 55 H       -3.8930    -7.2810     1.1500 H     1 <1>   0.0800 
 56 H       -2.7300    -6.1970     1.8260 H     1 <1>   0.0800 
 57 H       -0.8430    -7.5620     3.2510 H     1 <1>   0.0800 
 58 H       -0.1710    -8.8760     2.3560 H     1 <1>   0.0800 
 59 H       -1.9670    -8.9680     0.8390 H     1 <1>   0.0800 
 60 H       -2.6620    -8.7470     2.4040 H     1 <1>   0.0800 
@<TRIPOS>BOND
  1   1   2  2   
  2   2   3  am  
  3   2   4  1   
  4   3   5  1   
  5   3  28  1   
  6   4   6  ar  
  7   4   7  ar  
  8   5   8  1   
  9   5   9  1   
 10   5  29  1   
 11   6  10  ar  
 12   6  30  1   
 13   7  11  ar  
 14   7  31  1   
 15   8  12  2   
 16   8  13  1   
 17   9  14  1   
 18   9  15  1   
 19   9  32  1   
 20  10  16  ar  
 21  10  17  1   
 22  11  16  ar  
 23  11  33  1   
 24  12  18  1   
 25  13  19  1   
 26  13  20  1   
 27  14  34  1   
 28  14  35  1   
 29  14  36  1   
 30  15  37  1   
 31  15  38  1   
 32  15  39  1   
 33  16  40  1   
 34  17  21  1   
 35  17  41  1   
 36  17  42  1   
 37  18  19  2   
 38  18  43  1   
 39  19  44  1   
 40  20  45  1   
 41  20  46  1   
 42  20  47  1   
 43  21  22  1   
 44  21  23  1   
 45  21  48  1   
 46  22  24  1   
 47  22  49  1   
 48  22  50  1   
 49  23  25  1   
 50  23  51  1   
 51  23  52  1   
 52  24  26  1   
 53  24  53  1   
 54  24  54  1   
 55  25  27  1   
 56  25  55  1   
 57  25  56  1   
 58  26  27  1   
 59  26  57  1   
 60  26  58  1   
 61  27  59  1   
 62  27  60  1   
@<TRIPOS>SUBSTRUCTURE
  1 ****   4 GROUP 4 **** **** 0

# MOE 2024.06 (io_trps.svl 2023.06)
