@<TRIPOS>MOLECULE
NONAME
53 56 1 0 0 
SMALL
USER_CHARGES


@<TRIPOS>ATOM
  1 O       -1.2810     1.0920     2.4560 O.2   1 <1>  -0.5700 
  2 C       -2.1600     1.3180     1.6570 C.2   1 <1>   0.5690 
  3 N       -3.2990     0.5550     1.5970 N.am  1 <1>  -0.6600 
  4 C       -1.9740     2.4790     0.6900 C.3   1 <1>  -0.0990 
  5 C       -3.4320    -0.7020     2.3830 C.3   1 <1>   0.1400 
  6 C       -4.4690     0.8080     0.7110 C.3   1 <1>   0.1400 
  7 C       -0.5570     3.0700     0.6920 C.3   1 <1>  -0.0160 
  8 C       -3.5380    -1.8850     1.4150 C.3   1 <1>  -0.1600 
  9 C       -4.5790    -0.3350    -0.3000 C.3   1 <1>  -0.1600 
 10 C       -0.4440     4.1570    -0.3650 C.ar  1 <1>  -0.1440 
 11 C       -4.6830    -1.7070     0.3990 C.3   1 <1>   0.4240 
 12 C       -0.1240     3.8350    -1.6770 C.ar  1 <1>   0.1600 
 13 C       -0.6690     5.4790    -0.0420 C.ar  1 <1>  -0.1500 
 14 O       -5.8390    -1.6580     1.2070 O.3   1 <1>  -0.5600 
 15 C       -4.7360    -2.8890    -0.6110 C.ar  1 <1>  -0.1440 
 16 N       -0.0180     4.7040    -2.6690 N.ar  1 <1>  -0.6200 
 17 C       -0.5590     6.4000    -1.0620 C.ar  1 <1>  -0.1500 
 18 C       -7.0620    -1.9600     0.6190 C.3   1 <1>   0.1200 
 19 C       -3.6780    -3.1720    -1.4860 C.ar  1 <1>   0.0820 
 20 C       -5.8660    -3.7060    -0.6660 C.ar  1 <1>  -0.1440 
 21 C       -0.2370     5.9660    -2.3360 C.ar  1 <1>   0.1600 
 22 C       -7.0510    -3.4310     0.2370 C.3   1 <1>  -0.0170 
 23 O       -2.5750    -2.3770    -1.4660 O.3   1 <1>  -0.3620 
 24 C       -3.7630    -4.2500    -2.3660 C.ar  1 <1>  -0.1500 
 25 C       -5.9380    -4.7760    -1.5410 C.ar  1 <1>  -0.1500 
 26 C       -1.4120    -2.6620    -2.2110 C.3   1 <1>   0.0400 
 27 C       -4.8870    -5.0500    -2.3910 C.ar  1 <1>  -0.1500 
 28 H       -2.6770     3.2500     0.9450 H     1 <1>   0.0800 
 29 H       -2.1930     2.1300    -0.3020 H     1 <1>   0.0800 
 30 H       -4.3130    -0.6440     2.9990 H     1 <1>   0.0800 
 31 H       -2.5830    -0.8410     3.0300 H     1 <1>   0.0800 
 32 H       -4.3800     1.7460     0.1950 H     1 <1>   0.0800 
 33 H       -5.3600     0.8500     1.3150 H     1 <1>   0.0800 
 34 H        0.1600     2.2920     0.4910 H     1 <1>   0.0800 
 35 H       -0.3320     3.4750     1.6640 H     1 <1>   0.0800 
 36 H       -3.6980    -2.7930     1.9660 H     1 <1>   0.0800 
 37 H       -2.5950    -1.9790     0.9170 H     1 <1>   0.0800 
 38 H       -3.7100    -0.3000    -0.9250 H     1 <1>   0.0800 
 39 H       -5.4270    -0.1840    -0.9390 H     1 <1>   0.0800 
 40 H        0.0530     2.8030    -1.9250 H     1 <1>   0.1500 
 41 H       -0.9200     5.7830     0.9600 H     1 <1>   0.1500 
 42 H       -0.7210     7.4460    -0.8730 H     1 <1>   0.1500 
 43 H       -7.2100    -1.3340    -0.2430 H     1 <1>   0.0800 
 44 H       -7.8350    -1.7620     1.3400 H     1 <1>   0.0800 
 45 H       -0.1540     6.6950    -3.1240 H     1 <1>   0.1500 
 46 H       -7.9690    -3.6720    -0.2660 H     1 <1>   0.0800 
 47 H       -6.9800    -4.0330     1.1260 H     1 <1>   0.0800 
 48 H       -2.9660    -4.4870    -3.0430 H     1 <1>   0.1500 
 49 H       -6.8140    -5.4010    -1.5660 H     1 <1>   0.1500 
 50 H       -0.6720    -1.9200    -1.9700 H     1 <1>   0.0800 
 51 H       -1.6480    -2.6150    -3.2590 H     1 <1>   0.0800 
 52 H       -1.0530    -3.6380    -1.9370 H     1 <1>   0.0800 
 53 H       -4.9450    -5.8820    -3.0700 H     1 <1>   0.1500 
@<TRIPOS>BOND
  1   1   2  2   
  2   2   3  am  
  3   2   4  1   
  4   3   5  1   
  5   3   6  1   
  6   4   7  1   
  7   4  28  1   
  8   4  29  1   
  9   5   8  1   
 10   5  30  1   
 11   5  31  1   
 12   6   9  1   
 13   6  32  1   
 14   6  33  1   
 15   7  10  1   
 16   7  34  1   
 17   7  35  1   
 18   8  11  1   
 19   8  36  1   
 20   8  37  1   
 21   9  11  1   
 22   9  38  1   
 23   9  39  1   
 24  10  12  ar  
 25  10  13  ar  
 26  11  14  1   
 27  11  15  1   
 28  12  16  ar  
 29  12  40  1   
 30  13  17  ar  
 31  13  41  1   
 32  14  18  1   
 33  15  19  ar  
 34  15  20  ar  
 35  16  21  ar  
 36  17  21  ar  
 37  17  42  1   
 38  18  22  1   
 39  18  43  1   
 40  18  44  1   
 41  19  23  1   
 42  19  24  ar  
 43  20  22  1   
 44  20  25  ar  
 45  21  45  1   
 46  22  46  1   
 47  22  47  1   
 48  23  26  1   
 49  24  27  ar  
 50  24  48  1   
 51  25  27  ar  
 52  25  49  1   
 53  26  50  1   
 54  26  51  1   
 55  26  52  1   
 56  27  53  1   
@<TRIPOS>SUBSTRUCTURE
  1 ****   9 GROUP 4 **** **** 0

# MOE 2024.06 (io_trps.svl 2023.06)
