@<TRIPOS>MOLECULE
NONAME
45 48 1 0 0 
SMALL
USER_CHARGES


@<TRIPOS>ATOM
  1 CL       2.3650     1.1000    -0.1640 Cl    1 <1>  -0.1770 
  2 C        2.5180    -0.5590     0.3490 C.ar  1 <1>   0.1770 
  3 C        2.8690    -0.8340     1.6560 C.ar  1 <1>  -0.1500 
  4 C        2.2810    -1.5720    -0.5670 C.ar  1 <1>  -0.1500 
  5 C        2.9760    -2.1610     2.0200 C.ar  1 <1>   0.1900 
  6 C        2.3930    -2.9030    -0.1800 C.ar  1 <1>  -0.1430 
  7 F        3.3020    -2.4510     3.2500 F     1 <1>  -0.1900 
  8 C        2.7470    -3.1960     1.1310 C.ar  1 <1>  -0.1500 
  9 C        2.1330    -4.0280    -1.1710 C.3   1 <1>   0.2540 
 10 N        1.0170    -4.8770    -0.7070 N.3   1 <1>  -0.8100 
 11 C       -0.2710    -4.1410    -0.6370 C.3   1 <1>   0.1100 
 12 C        0.8770    -6.0920    -1.5420 C.3   1 <1>   0.1100 
 13 C       -1.4040    -5.0030    -0.0190 C.3   1 <1>   0.4230 
 14 C       -0.3500    -6.9530    -1.1500 C.3   1 <1>   0.3430 
 15 N       -0.9970    -6.4520     0.1100 N.4   1 <1>  -0.9590 
 16 C       -2.7220    -4.8620    -0.8170 C.3   1 <1>   0.1200 
 17 C       -2.1340    -7.2730     0.6260 C.3   1 <1>   0.5180 
 18 O       -3.7250    -5.6730    -0.2690 O.3   1 <1>  -0.5600 
 19 C       -1.7360    -8.7530     0.6730 C.3   1 <1>  -0.1950 
 20 C       -3.4190    -7.0410    -0.1990 C.3   1 <1>   0.1200 
 21 C       -2.1840    -9.6160     1.8120 C.3   1 <1>  -0.2000 
 22 C       -0.7320    -9.2670     1.6600 C.3   1 <1>  -0.2000 
 23 H        3.0530    -0.0450     2.3620 H     1 <1>   0.1500 
 24 H        2.0140    -1.3070    -1.5740 H     1 <1>   0.1500 
 25 H        2.8440    -4.2140     1.4630 H     1 <1>   0.1500 
 26 H        3.0270    -4.6230    -1.2510 H     1 <1>   0.0800 
 27 H        1.9120    -3.6250    -2.1460 H     1 <1>   0.0800 
 28 H       -0.1600    -3.2580    -0.0310 H     1 <1>   0.0800 
 29 H       -0.5490    -3.8140    -1.6250 H     1 <1>   0.0800 
 30 H        0.7930    -5.8200    -2.5820 H     1 <1>   0.0800 
 31 H        1.7650    -6.6920    -1.4380 H     1 <1>   0.0800 
 32 H       -1.5950    -4.6140     0.9680 H     1 <1>   0.0800 
 33 H       -0.0260    -7.9730    -1.0220 H     1 <1>   0.0800 
 34 H       -1.0630    -6.9370    -1.9570 H     1 <1>   0.0800 
 35 H       -0.2410    -6.4540     0.8070 H     1 <1>   0.4500 
 36 H       -2.5860    -5.1350    -1.8490 H     1 <1>   0.0800 
 37 H       -3.0720    -3.8450    -0.7760 H     1 <1>   0.0800 
 38 H       -2.3450    -6.9610     1.6360 H     1 <1>   0.0800 
 39 H       -1.7760    -9.2250    -0.2940 H     1 <1>   0.1000 
 40 H       -4.2500    -7.5370     0.2710 H     1 <1>   0.0800 
 41 H       -3.3160    -7.4240    -1.1990 H     1 <1>   0.0800 
 42 H       -2.7230    -9.1880     2.6420 H     1 <1>   0.1000 
 43 H       -2.4850   -10.6320     1.6160 H     1 <1>   0.1000 
 44 H       -0.0530   -10.0500     1.3660 H     1 <1>   0.1000 
 45 H       -0.2990    -8.6110     2.3970 H     1 <1>   0.1000 
@<TRIPOS>BOND
  1   1   2  1   
  2   2   3  ar  
  3   2   4  ar  
  4   3   5  ar  
  5   3  23  1   
  6   4   6  ar  
  7   4  24  1   
  8   5   7  1   
  9   5   8  ar  
 10   6   8  ar  
 11   6   9  1   
 12   8  25  1   
 13   9  10  1   
 14   9  26  1   
 15   9  27  1   
 16  10  11  1   
 17  10  12  1   
 18  11  13  1   
 19  11  28  1   
 20  11  29  1   
 21  12  14  1   
 22  12  30  1   
 23  12  31  1   
 24  13  15  1   
 25  13  16  1   
 26  13  32  1   
 27  14  15  1   
 28  14  33  1   
 29  14  34  1   
 30  15  17  1   
 31  15  35  1   
 32  16  18  1   
 33  16  36  1   
 34  16  37  1   
 35  17  19  1   
 36  17  20  1   
 37  17  38  1   
 38  18  20  1   
 39  19  21  1   
 40  19  22  1   
 41  19  39  1   
 42  20  40  1   
 43  20  41  1   
 44  21  22  1   
 45  21  42  1   
 46  21  43  1   
 47  22  44  1   
 48  22  45  1   
@<TRIPOS>SUBSTRUCTURE
  1 ****  11 GROUP 4 **** **** 0

# MOE 2024.06 (io_trps.svl 2023.06)
