@<TRIPOS>MOLECULE
NONAME
48 51 1 0 0 
SMALL
USER_CHARGES


@<TRIPOS>ATOM
  1 O       -1.2870    -0.0070    -3.1360 O.2   1 <1>  -0.5700 
  2 C       -1.7430     0.6700    -2.2440 C.2   1 <1>   0.5690 
  3 N       -2.5120     0.1120    -1.2520 N.am  1 <1>  -0.6600 
  4 C       -1.4310     2.1640    -2.2790 C.3   1 <1>   0.0440 
  5 C       -2.7010    -1.3710    -1.1540 C.3   1 <1>   0.1400 
  6 C       -3.1260     0.8550    -0.1070 C.3   1 <1>   0.1400 
  7 C       -0.7480     2.6810    -1.0140 C.ar  1 <1>  -0.1440 
  8 C       -4.1530    -1.7370    -0.7990 C.3   1 <1>   0.3440 
  9 C       -4.5570     0.3580     0.2000 C.3   1 <1>   0.2950 
 10 C       -1.1980     3.8430    -0.4010 C.ar  1 <1>  -0.1500 
 11 C        0.3240     1.9900    -0.4650 C.ar  1 <1>  -0.1500 
 12 O       -4.5660    -1.0320     0.3420 O.3   1 <1>  -0.5600 
 13 C       -4.2820    -3.2360    -0.5480 C.ar  1 <1>  -0.1430 
 14 C       -5.1740     0.9430     1.4830 C.3   1 <1>  -0.1950 
 15 C       -0.5940     4.2990     0.7580 C.ar  1 <1>  -0.1500 
 16 C        0.9320     2.4440     0.6930 C.ar  1 <1>  -0.1500 
 17 C       -4.6030    -4.0830    -1.6000 C.ar  1 <1>  -0.1500 
 18 C       -4.0710    -3.7800     0.7120 C.ar  1 <1>  -0.1500 
 19 C       -4.8360     2.3010     2.0230 C.3   1 <1>  -0.2000 
 20 C       -4.4350     1.0660     2.7800 C.3   1 <1>  -0.2000 
 21 C        0.4660     3.5980     1.3020 C.ar  1 <1>   0.0820 
 22 C       -4.7100    -5.4480    -1.3970 C.ar  1 <1>  -0.1500 
 23 C       -4.1780    -5.1440     0.9170 C.ar  1 <1>  -0.1500 
 24 O        1.0410     4.0480     2.4260 O.3   1 <1>  -0.5330 
 25 C       -4.4970    -5.9800    -0.1380 C.ar  1 <1>  -0.1500 
 26 H       -0.7850     2.3590    -3.1160 H     1 <1>   0.0800 
 27 H       -2.3480     2.6920    -2.4540 H     1 <1>   0.0800 
 28 H       -2.4400    -1.8480    -2.0820 H     1 <1>   0.0800 
 29 H       -2.0480    -1.7590    -0.3930 H     1 <1>   0.0800 
 30 H       -2.5030     0.7270     0.7600 H     1 <1>   0.0800 
 31 H       -3.1790     1.9040    -0.3250 H     1 <1>   0.0800 
 32 H       -4.8020    -1.4590    -1.6120 H     1 <1>   0.0800 
 33 H       -5.1960     0.6120    -0.6280 H     1 <1>   0.0800 
 34 H       -2.0190     4.4000    -0.8170 H     1 <1>   0.1500 
 35 H        0.6870     1.0920    -0.9360 H     1 <1>   0.1500 
 36 H       -6.2080     0.6530     1.5570 H     1 <1>   0.1000 
 37 H       -0.9360     5.1960     1.2420 H     1 <1>   0.1500 
 38 H        1.7580     1.9000     1.1100 H     1 <1>   0.1500 
 39 H       -4.7710    -3.6860    -2.5860 H     1 <1>   0.1500 
 40 H       -3.8250    -3.1370     1.5410 H     1 <1>   0.1500 
 41 H       -4.0470     2.8970     1.5960 H     1 <1>   0.1000 
 42 H       -5.6300     2.9090     2.4210 H     1 <1>   0.1000 
 43 H       -4.9590     0.8160     3.6870 H     1 <1>   0.1000 
 44 H       -3.3950     0.7960     2.8280 H     1 <1>   0.1000 
 45 H       -4.9600    -6.0970    -2.2180 H     1 <1>   0.1500 
 46 H       -4.0140    -5.5540     1.8990 H     1 <1>   0.1500 
 47 H        1.7940     3.5050     2.7160 H     1 <1>   0.4500 
 48 H       -4.5810    -7.0410     0.0210 H     1 <1>   0.1500 
@<TRIPOS>BOND
  1   1   2  2   
  2   2   3  am  
  3   2   4  1   
  4   3   5  1   
  5   3   6  1   
  6   4   7  1   
  7   4  26  1   
  8   4  27  1   
  9   5   8  1   
 10   5  28  1   
 11   5  29  1   
 12   6   9  1   
 13   6  30  1   
 14   6  31  1   
 15   7  10  ar  
 16   7  11  ar  
 17   8  12  1   
 18   8  13  1   
 19   8  32  1   
 20   9  12  1   
 21   9  14  1   
 22   9  33  1   
 23  10  15  ar  
 24  10  34  1   
 25  11  16  ar  
 26  11  35  1   
 27  13  17  ar  
 28  13  18  ar  
 29  14  19  1   
 30  14  20  1   
 31  14  36  1   
 32  15  21  ar  
 33  15  37  1   
 34  16  21  ar  
 35  16  38  1   
 36  17  22  ar  
 37  17  39  1   
 38  18  23  ar  
 39  18  40  1   
 40  19  20  1   
 41  19  41  1   
 42  19  42  1   
 43  20  43  1   
 44  20  44  1   
 45  21  24  1   
 46  22  25  ar  
 47  22  45  1   
 48  23  25  ar  
 49  23  46  1   
 50  24  47  1   
 51  25  48  1   
@<TRIPOS>SUBSTRUCTURE
  1 ****   6 GROUP 4 **** **** 0

# MOE 2024.06 (io_trps.svl 2023.06)
