@<TRIPOS>MOLECULE
NONAME
44 45 1 0 0 
SMALL
USER_CHARGES


@<TRIPOS>ATOM
  1 S        0.3940     0.3460    -0.0280 S.o2  1 <1>   1.3330 
  2 O        0.0810    -0.5070    -1.1530 O.2   1 <1>  -0.6500 
  3 O        0.5010    -0.2280     1.2950 O.2   1 <1>  -0.6500 
  4 N       -0.7540     1.5950     0.0380 N.am  1 <1>  -0.8490 
  5 C        1.9110     1.2200    -0.4050 C.3   1 <1>  -0.0550 
  6 C       -2.0980     1.1340    -0.3200 C.3   1 <1>   0.1160 
  7 C       -0.7900     2.2890     1.3300 C.3   1 <1>   0.1160 
  8 C        3.1130     0.2820    -0.6290 C.3   1 <1>  -0.0800 
  9 C        4.4040     0.9750    -1.0420 C.3   1 <1>   0.2200 
 10 C        3.5380    -0.5270     0.6060 C.3   1 <1>   0.1200 
 11 N        4.6250     2.2070    -0.2450 N.am  1 <1>  -0.7300 
 12 C        5.4230    -0.0670    -0.6080 C.3   1 <1>   0.1200 
 13 O        4.9370    -0.5460     0.6080 O.3   1 <1>  -0.5600 
 14 C        4.4150     3.4850    -0.6790 C.2   1 <1>   0.6160 
 15 O        3.9010     3.6260    -1.7720 O.2   1 <1>  -0.5700 
 16 C        4.7610     4.6330     0.1340 C.2   1 <1>   0.0140 
 17 C        4.3960     5.9060    -0.2360 C.2   1 <1>  -0.0410 
 18 C        5.4960     4.5030     1.3550 C.2   1 <1>  -0.1500 
 19 N        4.6950     7.0220     0.5110 N.am  1 <1>  -0.4690 
 20 C        5.7930     5.6000     2.1010 C.2   1 <1>  -0.1360 
 21 C        5.3940     6.9040     1.7020 C.2   1 <1>   0.6160 
 22 C        4.2750     8.3700     0.0490 C.3   1 <1>   0.0600 
 23 O        5.6530     7.8900     2.3790 O.2   1 <1>  -0.5700 
 24 H        1.7620     1.8010    -1.2960 H     1 <1>   0.0800 
 25 H        2.1270     1.9020     0.3930 H     1 <1>   0.0800 
 26 H       -2.7960     1.9530    -0.2870 H     1 <1>   0.0800 
 27 H       -2.4230     0.3620     0.3580 H     1 <1>   0.0800 
 28 H       -2.0970     0.7360    -1.3210 H     1 <1>   0.0800 
 29 H       -1.4680     3.1240     1.2810 H     1 <1>   0.0800 
 30 H        0.1880     2.6610     1.5790 H     1 <1>   0.0800 
 31 H       -1.1150     1.6180     2.1090 H     1 <1>   0.0800 
 32 H        2.8510    -0.4200    -1.4020 H     1 <1>   0.0800 
 33 H        4.4510     1.1840    -2.0990 H     1 <1>   0.0800 
 34 H        3.1730    -1.5390     0.5650 H     1 <1>   0.0800 
 35 H        3.2160    -0.0640     1.5230 H     1 <1>   0.0800 
 36 H        4.9670     2.0220     0.6990 H     1 <1>   0.3700 
 37 H        6.4100     0.3390    -0.4740 H     1 <1>   0.0800 
 38 H        5.4540    -0.8900    -1.3020 H     1 <1>   0.0800 
 39 H        3.8490     6.0590    -1.1530 H     1 <1>   0.1500 
 40 H        5.8160     3.5290     1.6760 H     1 <1>   0.1500 
 41 H        6.3430     5.5400     3.0210 H     1 <1>   0.1500 
 42 H        3.7820     8.3100    -0.9050 H     1 <1>   0.0800 
 43 H        5.1410     9.0040    -0.0420 H     1 <1>   0.0800 
 44 H        3.6030     8.8020     0.7690 H     1 <1>   0.0800 
@<TRIPOS>BOND
  1   1   2  2   
  2   1   3  2   
  3   1   4  am  
  4   1   5  1   
  5   4   6  1   
  6   4   7  1   
  7   5   8  1   
  8   5  24  1   
  9   5  25  1   
 10   6  26  1   
 11   6  27  1   
 12   6  28  1   
 13   7  29  1   
 14   7  30  1   
 15   7  31  1   
 16   8   9  1   
 17   8  10  1   
 18   8  32  1   
 19   9  11  1   
 20   9  12  1   
 21   9  33  1   
 22  10  13  1   
 23  10  34  1   
 24  10  35  1   
 25  11  14  am  
 26  11  36  1   
 27  12  13  1   
 28  12  37  1   
 29  12  38  1   
 30  14  15  2   
 31  14  16  1   
 32  16  17  2   
 33  16  18  1   
 34  17  19  1   
 35  17  39  1   
 36  18  20  2   
 37  18  40  1   
 38  19  21  am  
 39  19  22  1   
 40  20  21  1   
 41  20  41  1   
 42  21  23  2   
 43  22  42  1   
 44  22  43  1   
 45  22  44  1   
@<TRIPOS>SUBSTRUCTURE
  1 ****  14 GROUP 4 **** **** 0

# MOE 2024.06 (io_trps.svl 2023.06)
