@<TRIPOS>MOLECULE
NONAME
48 51 1 0 0 
SMALL
USER_CHARGES


@<TRIPOS>ATOM
  1 S        0.2520    -0.0590     0.1230 S.3   1 <1>  -0.0800 
  2 C       -1.4290     0.4660     0.1420 C.2   1 <1>   0.3250 
  3 C        0.7680     1.5860    -0.0550 C.2   1 <1>  -0.1100 
  4 N       -1.5390     1.7430     0.0240 N.2   1 <1>  -0.5650 
  5 C       -2.4870    -0.5110     0.2780 C.ar  1 <1>   0.0530 
  6 C       -0.3170     2.3750    -0.0860 C.2   1 <1>   0.0460 
  7 C       -2.2520    -1.8810     0.4320 C.ar  1 <1>   0.1600 
  8 C       -3.8190    -0.1120     0.2600 C.ar  1 <1>  -0.1500 
  9 C       -0.3560     3.8890    -0.2270 C.3   1 <1>   0.0210 
 10 N       -3.1740    -2.8210     0.5600 N.ar  1 <1>  -0.6200 
 11 C       -4.7960    -1.0730     0.3920 C.ar  1 <1>  -0.1500 
 12 C        1.0350     4.5030    -0.3850 C.3   1 <1>   0.2090 
 13 C       -4.4270    -2.3970     0.5370 C.ar  1 <1>   0.1600 
 14 N        0.9360     5.9770    -0.5020 N.pl3 1 <1>  -0.8690 
 15 C        2.0260     6.8170    -0.4860 C.ar  1 <1>   0.4100 
 16 N        3.1790     6.2680    -0.1050 N.ar  1 <1>  -0.6200 
 17 C        1.8870     8.1670    -0.8590 C.ar  1 <1>   0.0860 
 18 C        4.2350     7.0560    -0.1040 C.ar  1 <1>   0.1600 
 19 C        0.6010     8.7050    -1.2320 C.2   1 <1>   0.5440 
 20 C        3.0260     8.9620    -0.8530 C.ar  1 <1>  -0.1500 
 21 C        4.2170     8.3910    -0.4670 C.ar  1 <1>  -0.1500 
 22 O       -0.0770     8.1490    -2.0810 O.2   1 <1>  -0.5700 
 23 N        0.1050     9.8490    -0.6470 N.am  1 <1>  -0.6600 
 24 C        0.5500    10.3750     0.6640 C.3   1 <1>   0.1400 
 25 C       -1.2070    10.4220    -1.0250 C.3   1 <1>   0.1400 
 26 C       -0.6760    11.0770     1.2360 C.3   1 <1>  -0.1600 
 27 C       -1.4780    11.5060     0.0110 C.3   1 <1>  -0.1600 
 28 H        1.8240     1.7770    -0.1150 H     1 <1>   0.1500 
 29 H       -1.2360    -2.2310     0.4520 H     1 <1>   0.1500 
 30 H       -4.0750     0.9280     0.1450 H     1 <1>   0.1500 
 31 H       -0.8260     4.3020     0.6470 H     1 <1>   0.0800 
 32 H       -0.9520     4.1360    -1.0870 H     1 <1>   0.0800 
 33 H       -5.8360    -0.8010     0.3820 H     1 <1>   0.1500 
 34 H        1.5140     4.1120    -1.2660 H     1 <1>   0.0800 
 35 H        1.6370     4.2560     0.4740 H     1 <1>   0.0800 
 36 H       -5.1960    -3.1440     0.6390 H     1 <1>   0.1500 
 37 H        0.1630     6.3190    -1.0940 H     1 <1>   0.4000 
 38 H        5.1700     6.6160     0.2000 H     1 <1>   0.1500 
 39 H        2.9710     9.9950    -1.1480 H     1 <1>   0.1500 
 40 H        5.1240     8.9680    -0.4460 H     1 <1>   0.1500 
 41 H        1.3450    11.0830     0.5090 H     1 <1>   0.0800 
 42 H        0.8860     9.5820     1.3120 H     1 <1>   0.0800 
 43 H       -1.9560     9.6500    -0.9710 H     1 <1>   0.0800 
 44 H       -1.1730    10.8210    -2.0250 H     1 <1>   0.0800 
 45 H       -0.4070    11.9070     1.8640 H     1 <1>   0.0800 
 46 H       -1.2440    10.3690     1.8150 H     1 <1>   0.0800 
 47 H       -2.5280    11.6040     0.2200 H     1 <1>   0.0800 
 48 H       -1.1060    12.4450    -0.3610 H     1 <1>   0.0800 
@<TRIPOS>BOND
  1   1   2  1   
  2   1   3  1   
  3   2   4  2   
  4   2   5  1   
  5   3   6  2   
  6   3  28  1   
  7   4   6  1   
  8   5   7  ar  
  9   5   8  ar  
 10   6   9  1   
 11   7  10  ar  
 12   7  29  1   
 13   8  11  ar  
 14   8  30  1   
 15   9  12  1   
 16   9  31  1   
 17   9  32  1   
 18  10  13  ar  
 19  11  13  ar  
 20  11  33  1   
 21  12  14  1   
 22  12  34  1   
 23  12  35  1   
 24  13  36  1   
 25  14  15  1   
 26  14  37  1   
 27  15  16  ar  
 28  15  17  ar  
 29  16  18  ar  
 30  17  19  1   
 31  17  20  ar  
 32  18  21  ar  
 33  18  38  1   
 34  19  22  2   
 35  19  23  am  
 36  20  21  ar  
 37  20  39  1   
 38  21  40  1   
 39  23  24  1   
 40  23  25  1   
 41  24  26  1   
 42  24  41  1   
 43  24  42  1   
 44  25  27  1   
 45  25  43  1   
 46  25  44  1   
 47  26  27  1   
 48  26  45  1   
 49  26  46  1   
 50  27  47  1   
 51  27  48  1   
@<TRIPOS>SUBSTRUCTURE
  1 ****   9 GROUP 4 **** **** 0

# MOE 2024.06 (io_trps.svl 2023.06)
