@<TRIPOS>MOLECULE
NONAME
56 59 1 0 0 
SMALL
USER_CHARGES


@<TRIPOS>ATOM
  1 O        0.0340    -0.6990    -2.7250 O.2   1 <1>  -0.5700 
  2 C       -0.4180     0.3260    -2.2690 C.2   1 <1>   0.5690 
  3 N       -1.4770     0.3070    -1.3990 N.am  1 <1>  -0.6600 
  4 C        0.2300     1.6370    -2.7000 C.3   1 <1>   0.0820 
  5 C       -2.0800     1.4810    -0.7150 C.3   1 <1>   0.1400 
  6 C       -2.0390    -0.9540    -0.8570 C.3   1 <1>   0.1400 
  7 C        0.7560     2.4650    -1.5300 C.2   1 <1>  -0.1810 
  8 C       -3.2020     0.9020     0.1430 C.3   1 <1>   0.2000 
  9 C       -2.7840    -0.5400     0.4130 C.3   1 <1>  -0.0800 
 10 C        1.5960     2.0050    -0.5180 C.2   1 <1>   0.1080 
 11 C        0.5180     3.7580    -1.2140 C.2   1 <1>  -0.3320 
 12 O       -3.3400     1.5960     1.3340 O.3   1 <1>  -0.6800 
 13 C       -3.9590    -1.4640     0.7670 C.3   1 <1>   0.0210 
 14 N        1.8510     2.9190     0.3570 N.2   1 <1>  -0.7070 
 15 C        2.1680     0.6080    -0.3990 C.3   1 <1>  -0.0590 
 16 N        1.1870     4.0220    -0.0560 N.pl3 1 <1>   0.5930 
 17 C       -0.3140     4.8050    -1.9440 C.3   1 <1>  -0.0600 
 18 C       -3.4920    -2.8990     0.9120 C.2   1 <1>   0.1080 
 19 C        1.2070     5.2480     0.6650 C.ar  1 <1>  -0.0230 
 20 N       -2.5820    -3.2590     1.7630 N.2   1 <1>  -0.7070 
 21 C       -3.9600    -3.9700     0.1590 C.2   1 <1>  -0.1500 
 22 C        0.0590     5.7260     1.2900 C.ar  1 <1>  -0.1500 
 23 C        2.3780     5.9920     0.7540 C.ar  1 <1>  -0.1500 
 24 N       -2.4440    -4.5840     1.5740 N.pl3 1 <1>   0.3000 
 25 C       -3.2670    -5.0380     0.6050 C.2   1 <1>  -0.3320 
 26 C        0.0790     6.9280     1.9750 C.ar  1 <1>  -0.1500 
 27 C        2.4000     7.1940     1.4390 C.ar  1 <1>  -0.1500 
 28 C       -3.3410    -6.4870     0.1600 C.3   1 <1>  -0.0600 
 29 C        1.2490     7.6640     2.0480 C.ar  1 <1>  -0.1500 
 30 H        1.0490     1.4160    -3.3580 H     1 <1>   0.0800 
 31 H       -0.4940     2.1940    -3.2600 H     1 <1>   0.0800 
 32 H       -1.3410     1.9450    -0.0860 H     1 <1>   0.0800 
 33 H       -2.4630     2.1850    -1.4320 H     1 <1>   0.0800 
 34 H       -2.7130    -1.3770    -1.5820 H     1 <1>   0.0800 
 35 H       -1.2600    -1.6650    -0.6380 H     1 <1>   0.0800 
 36 H       -4.1340     0.9510    -0.3920 H     1 <1>   0.0800 
 37 H       -2.0680    -0.5620     1.2160 H     1 <1>   0.0800 
 38 H       -2.5510     1.4580     1.8950 H     1 <1>   0.4000 
 39 H       -4.7160    -1.4100     0.0060 H     1 <1>   0.0800 
 40 H       -4.3960    -1.1480     1.6980 H     1 <1>   0.0800 
 41 H        2.4750     0.2450    -1.3610 H     1 <1>   0.0800 
 42 H        1.4260    -0.0540     0.0080 H     1 <1>   0.0800 
 43 H        3.0200     0.6180     0.2560 H     1 <1>   0.0800 
 44 H       -0.6590     4.4370    -2.8920 H     1 <1>   0.0800 
 45 H        0.2770     5.6860    -2.1220 H     1 <1>   0.0800 
 46 H       -1.1700     5.0790    -1.3530 H     1 <1>   0.0800 
 47 H       -4.7120    -3.9290    -0.6090 H     1 <1>   0.1500 
 48 H       -0.8500     5.1530     1.2440 H     1 <1>   0.1500 
 49 H        3.2750     5.6220     0.2860 H     1 <1>   0.1500 
 50 H       -1.7810    -5.1470     2.1190 H     1 <1>   0.2700 
 51 H       -0.8130     7.2910     2.4550 H     1 <1>   0.1500 
 52 H        3.3120     7.7630     1.5000 H     1 <1>   0.1500 
 53 H       -4.0700    -6.5960    -0.6230 H     1 <1>   0.0800 
 54 H       -3.6260    -7.1160     0.9840 H     1 <1>   0.0800 
 55 H       -2.3860    -6.8100    -0.2150 H     1 <1>   0.0800 
 56 H        1.2660     8.5990     2.5810 H     1 <1>   0.1500 
@<TRIPOS>BOND
  1   1   2  2   
  2   2   3  am  
  3   2   4  1   
  4   3   5  1   
  5   3   6  1   
  6   4   7  1   
  7   4  30  1   
  8   4  31  1   
  9   5   8  1   
 10   5  32  1   
 11   5  33  1   
 12   6   9  1   
 13   6  34  1   
 14   6  35  1   
 15   7  10  1   
 16   7  11  2   
 17   8   9  1   
 18   8  12  1   
 19   8  36  1   
 20   9  13  1   
 21   9  37  1   
 22  10  14  2   
 23  10  15  1   
 24  11  16  1   
 25  11  17  1   
 26  12  38  1   
 27  13  18  1   
 28  13  39  1   
 29  13  40  1   
 30  14  16  1   
 31  15  41  1   
 32  15  42  1   
 33  15  43  1   
 34  16  19  1   
 35  17  44  1   
 36  17  45  1   
 37  17  46  1   
 38  18  20  2   
 39  18  21  1   
 40  19  22  ar  
 41  19  23  ar  
 42  20  24  1   
 43  21  25  2   
 44  21  47  1   
 45  22  26  ar  
 46  22  48  1   
 47  23  27  ar  
 48  23  49  1   
 49  24  25  1   
 50  24  50  1   
 51  25  28  1   
 52  26  29  ar  
 53  26  51  1   
 54  27  29  ar  
 55  27  52  1   
 56  28  53  1   
 57  28  54  1   
 58  28  55  1   
 59  29  56  1   
@<TRIPOS>SUBSTRUCTURE
  1 ****   5 GROUP 4 **** **** 0

# MOE 2024.06 (io_trps.svl 2023.06)
