@<TRIPOS>MOLECULE
NONAME
47 50 1 0 0 
SMALL
USER_CHARGES


@<TRIPOS>ATOM
  1 S        0.2750    -0.9030     1.2800 S.3   1 <1>  -0.0800 
  2 C       -1.2160     0.0240     1.1900 C.2   1 <1>  -0.1400 
  3 C        1.1600     0.3510     0.4340 C.2   1 <1>  -0.1100 
  4 C       -1.0070     1.1940     0.5510 C.2   1 <1>  -0.1810 
  5 C       -2.4420    -0.6110     1.8140 C.3   1 <1>   0.3200 
  6 C        0.3480     1.3760     0.1240 C.2   1 <1>  -0.1500 
  7 C       -2.0370     2.2700     0.2590 C.3   1 <1>  -0.0590 
  8 N       -2.8430    -1.7560     0.9820 N.am  1 <1>  -0.7300 
  9 C       -4.1110    -2.0750     0.6230 C.2   1 <1>   0.5690 
 10 O       -5.0560    -1.4620     1.0600 O.2   1 <1>  -0.5700 
 11 C       -4.3450    -3.2380    -0.3510 C.3   1 <1>   0.2610 
 12 O       -3.1450    -3.9750    -0.5290 O.3   1 <1>  -0.5600 
 13 C       -5.5260    -4.1160     0.1470 C.3   1 <1>   0.3640 
 14 C       -3.2710    -5.0890    -1.3750 C.3   1 <1>   0.1810 
 15 N       -5.3410    -5.5850    -0.0790 N.am  1 <1>  -0.5090 
 16 C       -6.8290    -3.6690    -0.5200 C.ar  1 <1>  -0.1430 
 17 C       -4.3370    -6.0610    -0.8810 C.2   1 <1>   0.5690 
 18 C       -6.3830    -6.4610     0.5090 C.3   1 <1>   0.0490 
 19 C       -7.7090    -2.8430     0.1660 C.ar  1 <1>   0.1600 
 20 C       -7.1640    -4.0660    -1.8030 C.ar  1 <1>  -0.1500 
 21 O       -4.2660    -7.2120    -1.2440 O.2   1 <1>  -0.5700 
 22 C       -6.5480    -6.4780     1.9970 C.3   1 <1>  -0.2000 
 23 C       -5.9760    -7.6670     1.2950 C.3   1 <1>  -0.2000 
 24 N       -8.8640    -2.4030    -0.3080 N.ar  1 <1>  -0.6200 
 25 C       -8.3620    -3.6140    -2.3110 C.ar  1 <1>  -0.1500 
 26 C       -9.1640    -2.7980    -1.5330 C.ar  1 <1>   0.1600 
 27 H        2.2080     0.1850     0.2580 H     1 <1>   0.1500 
 28 H       -3.2470     0.1010     1.8740 H     1 <1>   0.0800 
 29 H       -2.2110    -0.9500     2.8090 H     1 <1>   0.0800 
 30 H        0.6490     2.2690    -0.3960 H     1 <1>   0.1500 
 31 H       -2.0940     2.4420    -0.8010 H     1 <1>   0.0800 
 32 H       -1.7550     3.1870     0.7440 H     1 <1>   0.0800 
 33 H       -3.0110     1.9810     0.6090 H     1 <1>   0.0800 
 34 H       -2.0700    -2.2990     0.5860 H     1 <1>   0.3700 
 35 H       -4.5980    -2.8100    -1.3040 H     1 <1>   0.0800 
 36 H       -5.6200    -3.9700     1.2090 H     1 <1>   0.0800 
 37 H       -3.5140    -4.7480    -2.3650 H     1 <1>   0.0800 
 38 H       -2.3200    -5.5890    -1.4010 H     1 <1>   0.0800 
 39 H       -7.2620    -6.5330    -0.1100 H     1 <1>   0.1000 
 40 H       -7.4540    -2.5190     1.1620 H     1 <1>   0.1500 
 41 H       -6.5300    -4.7100    -2.3880 H     1 <1>   0.1500 
 42 H       -5.8870    -5.9040     2.6210 H     1 <1>   0.1000 
 43 H       -7.5390    -6.5610     2.4070 H     1 <1>   0.1000 
 44 H       -6.5760    -8.5560     1.2130 H     1 <1>   0.1000 
 45 H       -4.9270    -7.8850     1.3910 H     1 <1>   0.1000 
 46 H       -8.6770    -3.8920    -3.3010 H     1 <1>   0.1500 
 47 H      -10.0990    -2.4520    -1.9390 H     1 <1>   0.1500 
@<TRIPOS>BOND
  1   1   2  1   
  2   1   3  1   
  3   2   4  2   
  4   2   5  1   
  5   3   6  2   
  6   3  27  1   
  7   4   6  1   
  8   4   7  1   
  9   5   8  1   
 10   5  28  1   
 11   5  29  1   
 12   6  30  1   
 13   7  31  1   
 14   7  32  1   
 15   7  33  1   
 16   8   9  am  
 17   8  34  1   
 18   9  10  2   
 19   9  11  1   
 20  11  12  1   
 21  11  13  1   
 22  11  35  1   
 23  12  14  1   
 24  13  15  1   
 25  13  16  1   
 26  13  36  1   
 27  14  17  1   
 28  14  37  1   
 29  14  38  1   
 30  15  17  am  
 31  15  18  1   
 32  16  19  ar  
 33  16  20  ar  
 34  17  21  2   
 35  18  22  1   
 36  18  23  1   
 37  18  39  1   
 38  19  24  ar  
 39  19  40  1   
 40  20  25  ar  
 41  20  41  1   
 42  22  23  1   
 43  22  42  1   
 44  22  43  1   
 45  23  44  1   
 46  23  45  1   
 47  24  26  ar  
 48  25  26  ar  
 49  25  46  1   
 50  26  47  1   
@<TRIPOS>SUBSTRUCTURE
  1 ****  11 GROUP 4 **** **** 0

# MOE 2024.06 (io_trps.svl 2023.06)
