@<TRIPOS>MOLECULE
NONAME
37 39 1 0 0 
SMALL
USER_CHARGES


@<TRIPOS>ATOM
  1 S        0.7930     1.2010     0.6500 S.3   1 <1>  -0.0800 
  2 C        2.0330     0.7080    -0.5100 C.2   1 <1>  -0.0450 
  3 C        0.0440    -0.3800     0.6320 C.2   1 <1>  -0.1100 
  4 C        3.0320     1.6560    -0.9290 C.2   1 <1>   0.7150 
  5 C        1.8210    -0.5910    -0.8440 C.2   1 <1>  -0.1500 
  6 C        0.7040    -1.2030    -0.2030 C.2   1 <1>  -0.1500 
  7 O        3.9050     1.3550    -1.7250 O.2   1 <1>  -0.5700 
  8 N        3.1120     2.9190    -0.4040 N.am  1 <1>  -0.6600 
  9 C        3.7790     3.0600     0.9360 C.3   1 <1>   0.2200 
 10 C        3.1060     4.0800    -1.3460 C.3   1 <1>   0.1400 
 11 C        3.3820     4.3500     1.6700 C.3   1 <1>   0.1200 
 12 C        5.3210     2.9490     0.8070 C.3   1 <1>   0.3430 
 13 C        4.2140     5.1220    -1.1030 C.3   1 <1>  -0.0800 
 14 O        4.2200     5.4040     1.2970 O.3   1 <1>  -0.5600 
 15 N        5.8150     3.1720    -0.5990 N.4   1 <1>  -0.9590 
 16 C        3.9050     6.0290     0.0990 C.3   1 <1>   0.1200 
 17 C        5.6620     4.5830    -1.0780 C.3   1 <1>   0.3430 
 18 C        7.2110     2.6830    -0.7730 C.3   1 <1>   0.2630 
 19 H       -0.8230    -0.5320     1.2520 H     1 <1>   0.1500 
 20 H        2.4280    -1.1460    -1.5390 H     1 <1>   0.1500 
 21 H        0.4470    -2.2300    -0.3960 H     1 <1>   0.1500 
 22 H        3.4430     2.2470     1.5570 H     1 <1>   0.0800 
 23 H        3.1940     3.7130    -2.3560 H     1 <1>   0.0800 
 24 H        2.1450     4.5630    -1.2770 H     1 <1>   0.0800 
 25 H        3.5230     4.2120     2.7280 H     1 <1>   0.0800 
 26 H        2.3510     4.6110     1.5000 H     1 <1>   0.0800 
 27 H        5.6040     1.9590     1.1220 H     1 <1>   0.0800 
 28 H        5.7910     3.6470     1.4810 H     1 <1>   0.0800 
 29 H        4.1680     5.7850    -1.9490 H     1 <1>   0.0800 
 30 H        5.1890     2.5840    -1.1940 H     1 <1>   0.4500 
 31 H        2.8700     6.3300     0.1190 H     1 <1>   0.0800 
 32 H        4.5070     6.9200     0.0480 H     1 <1>   0.0800 
 33 H        6.2630     5.2370    -0.4660 H     1 <1>   0.0800 
 34 H        6.0480     4.6380    -2.0820 H     1 <1>   0.0800 
 35 H        7.8870     3.2530    -0.1560 H     1 <1>   0.0800 
 36 H        7.5140     2.7800    -1.8030 H     1 <1>   0.0800 
 37 H        7.2780     1.6440    -0.4950 H     1 <1>   0.0800 
@<TRIPOS>BOND
  1   1   2  1   
  2   1   3  1   
  3   2   4  1   
  4   2   5  2   
  5   3   6  2   
  6   3  19  1   
  7   4   7  2   
  8   4   8  am  
  9   5   6  1   
 10   5  20  1   
 11   6  21  1   
 12   8   9  1   
 13   8  10  1   
 14   9  11  1   
 15   9  12  1   
 16   9  22  1   
 17  10  13  1   
 18  10  23  1   
 19  10  24  1   
 20  11  14  1   
 21  11  25  1   
 22  11  26  1   
 23  12  15  1   
 24  12  27  1   
 25  12  28  1   
 26  13  16  1   
 27  13  17  1   
 28  13  29  1   
 29  14  16  1   
 30  15  17  1   
 31  15  18  1   
 32  15  30  1   
 33  16  31  1   
 34  16  32  1   
 35  17  33  1   
 36  17  34  1   
 37  18  35  1   
 38  18  36  1   
 39  18  37  1   
@<TRIPOS>SUBSTRUCTURE
  1 ****   8 GROUP 4 **** **** 0

# MOE 2024.06 (io_trps.svl 2023.06)
