@<TRIPOS>MOLECULE
NONAME
51 55 1 0 0 
SMALL
USER_CHARGES


@<TRIPOS>ATOM
  1 O       -0.4910    -0.0090     0.1210 O.2   1 <1>  -0.5700 
  2 C       -1.5340     0.6220     0.0520 C.2   1 <1>   0.7150 
  3 N       -2.6670    -0.0920    -0.2930 N.am  1 <1>  -0.6600 
  4 C       -1.5350     2.0520     0.3180 C.2   1 <1>   0.1020 
  5 C       -4.0080     0.4760    -0.5900 C.3   1 <1>   0.1400 
  6 C       -2.6700    -1.5630    -0.4720 C.3   1 <1>   0.1400 
  7 N       -2.5840     2.8120     0.5210 N.2   1 <1>  -0.3380 
  8 N       -0.4210     2.8080     0.4060 N.pl3 1 <1>   0.0480 
  9 C       -4.8290    -0.7020    -1.1130 C.3   1 <1>   0.2000 
 10 C       -4.1460    -1.9520    -0.5630 C.3   1 <1>  -0.0800 
 11 N       -2.1660     4.0500     0.7430 N.2   1 <1>  -0.3380 
 12 C       -0.8810     4.0260     0.6750 C.2   1 <1>   0.0070 
 13 C        1.0150     2.4410     0.3040 C.3   1 <1>   0.0960 
 14 O       -6.1420    -0.6510    -0.6720 O.3   1 <1>  -0.6800 
 15 C       -4.4010    -3.2020    -1.4220 C.3   1 <1>  -0.0170 
 16 C        0.0250     5.2290     0.8670 C.3   1 <1>   0.0200 
 17 C        1.9110     3.6880     0.1870 C.3   1 <1>  -0.1600 
 18 C       -3.7120    -4.4260    -0.8290 C.ar  1 <1>  -0.1440 
 19 C        1.4710     4.7960     1.1590 C.3   1 <1>  -0.1600 
 20 C       -4.2330    -5.1190     0.2900 C.ar  1 <1>   0.0000 
 21 C       -2.5470    -4.8870    -1.3690 C.ar  1 <1>  -0.1500 
 22 C       -3.4960    -6.2250     0.7790 C.ar  1 <1>   0.3100 
 23 C       -5.4380    -4.7820     0.9510 C.ar  1 <1>  -0.1500 
 24 C       -1.9030    -5.9980    -0.8130 C.ar  1 <1>   0.1600 
 25 N       -2.3370    -6.6510     0.2170 N.ar  1 <1>  -0.6200 
 26 C       -3.9800    -6.9230     1.8970 C.ar  1 <1>  -0.1500 
 27 C       -5.8830    -5.4850     2.0370 C.ar  1 <1>  -0.1500 
 28 C       -5.1450    -6.5680     2.5200 C.ar  1 <1>  -0.1500 
 29 H       -4.4340     0.8700     0.3170 H     1 <1>   0.0800 
 30 H       -3.9340     1.2530    -1.3310 H     1 <1>   0.0800 
 31 H       -2.1490    -1.8030    -1.3830 H     1 <1>   0.0800 
 32 H       -2.1850    -2.0530     0.3560 H     1 <1>   0.0800 
 33 H       -4.8320    -0.6970    -2.1900 H     1 <1>   0.0800 
 34 H       -4.4840    -2.1250     0.4430 H     1 <1>   0.0800 
 35 H        1.2770     1.8850     1.1870 H     1 <1>   0.0800 
 36 H        1.1610     1.8060    -0.5520 H     1 <1>   0.0800 
 37 H       -6.1700    -0.5520     0.3000 H     1 <1>   0.4000 
 38 H       -4.0360    -3.0290    -2.4190 H     1 <1>   0.0800 
 39 H       -5.4590    -3.3810    -1.5070 H     1 <1>   0.0800 
 40 H       -0.0020     5.8160    -0.0340 H     1 <1>   0.0800 
 41 H       -0.3490     5.8380     1.6720 H     1 <1>   0.0800 
 42 H        2.9310     3.4100     0.3860 H     1 <1>   0.0800 
 43 H        1.8670     4.0580    -0.8230 H     1 <1>   0.0800 
 44 H        2.1260     5.6460     1.0730 H     1 <1>   0.0800 
 45 H        1.5320     4.4290     2.1690 H     1 <1>   0.0800 
 46 H       -2.0950    -4.4160    -2.2230 H     1 <1>   0.1500 
 47 H       -6.0240    -3.9560     0.5930 H     1 <1>   0.1500 
 48 H       -0.9850    -6.3280    -1.2710 H     1 <1>   0.1500 
 49 H       -3.3970    -7.7540     2.2490 H     1 <1>   0.1500 
 50 H       -6.8010    -5.2170     2.5310 H     1 <1>   0.1500 
 51 H       -5.5040    -7.1130     3.3770 H     1 <1>   0.1500 
@<TRIPOS>BOND
  1   1   2  2   
  2   2   3  am  
  3   2   4  1   
  4   3   5  1   
  5   3   6  1   
  6   4   7  2   
  7   4   8  1   
  8   5   9  1   
  9   5  29  1   
 10   5  30  1   
 11   6  10  1   
 12   6  31  1   
 13   6  32  1   
 14   7  11  1   
 15   8  12  1   
 16   8  13  1   
 17   9  10  1   
 18   9  14  1   
 19   9  33  1   
 20  10  15  1   
 21  10  34  1   
 22  11  12  2   
 23  12  16  1   
 24  13  17  1   
 25  13  35  1   
 26  13  36  1   
 27  14  37  1   
 28  15  18  1   
 29  15  38  1   
 30  15  39  1   
 31  16  19  1   
 32  16  40  1   
 33  16  41  1   
 34  17  19  1   
 35  17  42  1   
 36  17  43  1   
 37  18  20  ar  
 38  18  21  ar  
 39  19  44  1   
 40  19  45  1   
 41  20  22  ar  
 42  20  23  ar  
 43  21  24  ar  
 44  21  46  1   
 45  22  25  ar  
 46  22  26  ar  
 47  23  27  ar  
 48  23  47  1   
 49  24  25  ar  
 50  24  48  1   
 51  26  28  ar  
 52  26  49  1   
 53  27  28  ar  
 54  27  50  1   
 55  28  51  1   
@<TRIPOS>SUBSTRUCTURE
  1 ****   6 GROUP 4 **** **** 0

# MOE 2024.06 (io_trps.svl 2023.06)
