@<TRIPOS>MOLECULE
NONAME
42 43 1 0 0 
SMALL
USER_CHARGES


@<TRIPOS>ATOM
  1 CL      -0.3170    -2.0830     2.6820 Cl    1 <1>  -0.1770 
  2 C       -1.6070    -1.9430     1.5140 C.ar  1 <1>   0.1770 
  3 C       -1.9460    -3.0380     0.7440 C.ar  1 <1>  -0.1500 
  4 C       -2.2700    -0.7380     1.3830 C.ar  1 <1>  -0.1500 
  5 C       -2.9780    -2.9350    -0.1810 C.ar  1 <1>  -0.1430 
  6 C       -3.2990    -0.6290     0.4640 C.ar  1 <1>  -0.1500 
  7 C       -3.6570    -1.7270    -0.3180 C.ar  1 <1>   0.0830 
  8 C       -3.3850    -4.1240    -1.0530 C.3   1 <1>   0.4610 
  9 O       -4.6720    -1.6790    -1.2180 O.3   1 <1>  -0.3620 
 10 N       -4.2800    -5.0440    -0.2380 N.4   1 <1>  -0.9590 
 11 C       -2.1690    -4.8820    -1.6390 C.2   1 <1>   0.9060 
 12 C       -5.0970    -0.4450    -1.7590 C.3   1 <1>   0.0400 
 13 C       -4.6720    -6.2190    -1.0610 C.3   1 <1>   0.5240 
 14 C       -5.4120    -4.3530     0.4430 C.3   1 <1>   0.2630 
 15 O       -1.6790    -5.7780    -0.9310 O.co2 1 <1>  -0.9000 
 16 O       -1.8560    -4.7200    -2.8190 O.co2 1 <1>  -0.9000 
 17 C       -5.3250    -7.2350    -0.1570 C.2   1 <1>  -0.1810 
 18 C       -4.7470    -8.0840     0.7080 C.2   1 <1>  -0.0400 
 19 C       -6.6850    -7.5090    -0.0230 C.2   1 <1>   0.1080 
 20 O       -5.6960    -8.7600     1.2950 O.3   1 <1>  -0.0190 
 21 C       -3.2990    -8.3530     1.0720 C.3   1 <1>  -0.0600 
 22 N       -6.8750    -8.4190     0.8620 N.2   1 <1>  -0.4100 
 23 C       -7.8150    -6.8620    -0.7990 C.3   1 <1>  -0.0590 
 24 H       -1.3920    -3.9540     0.8720 H     1 <1>   0.1500 
 25 H       -1.9810     0.0980     1.9940 H     1 <1>   0.1500 
 26 H       -3.8110     0.3110     0.3750 H     1 <1>   0.1500 
 27 H       -3.9350    -3.7520    -1.8990 H     1 <1>   0.0800 
 28 H       -3.6220    -5.4350     0.4530 H     1 <1>   0.4500 
 29 H       -5.7690    -0.6480    -2.5740 H     1 <1>   0.0800 
 30 H       -4.2380     0.0920    -2.1230 H     1 <1>   0.0800 
 31 H       -5.6070     0.1180    -0.9980 H     1 <1>   0.0800 
 32 H       -3.7990    -6.6690    -1.5090 H     1 <1>   0.0800 
 33 H       -5.3460    -5.9230    -1.8470 H     1 <1>   0.0800 
 34 H       -6.0590    -3.8930    -0.2850 H     1 <1>   0.0800 
 35 H       -5.0370    -3.5860     1.1010 H     1 <1>   0.0800 
 36 H       -5.9820    -5.0560     1.0300 H     1 <1>   0.0800 
 37 H       -2.6330    -7.7540     0.4780 H     1 <1>   0.0800 
 38 H       -3.0700    -9.3890     0.8990 H     1 <1>   0.0800 
 39 H       -3.1340    -8.1320     2.1110 H     1 <1>   0.0800 
 40 H       -7.8930    -5.8210    -0.5480 H     1 <1>   0.0800 
 41 H       -8.7450    -7.3440    -0.5530 H     1 <1>   0.0800 
 42 H       -7.6460    -6.9680    -1.8550 H     1 <1>   0.0800 
@<TRIPOS>BOND
  1   1   2  1   
  2   2   3  ar  
  3   2   4  ar  
  4   3   5  ar  
  5   3  24  1   
  6   4   6  ar  
  7   4  25  1   
  8   5   7  ar  
  9   5   8  1   
 10   6   7  ar  
 11   6  26  1   
 12   7   9  1   
 13   8  10  1   
 14   8  11  1   
 15   8  27  1   
 16   9  12  1   
 17  10  13  1   
 18  10  14  1   
 19  10  28  1   
 20  11  15  ar  
 21  11  16  ar  
 22  12  29  1   
 23  12  30  1   
 24  12  31  1   
 25  13  17  1   
 26  13  32  1   
 27  13  33  1   
 28  14  34  1   
 29  14  35  1   
 30  14  36  1   
 31  17  18  2   
 32  17  19  1   
 33  18  20  1   
 34  18  21  1   
 35  19  22  2   
 36  19  23  1   
 37  20  22  1   
 38  21  37  1   
 39  21  38  1   
 40  21  39  1   
 41  23  40  1   
 42  23  41  1   
 43  23  42  1   
@<TRIPOS>SUBSTRUCTURE
  1 ****  10 GROUP 4 **** **** 0

# MOE 2024.06 (io_trps.svl 2023.06)
