@<TRIPOS>MOLECULE
NONAME
47 50 1 0 0 
SMALL
USER_CHARGES


@<TRIPOS>ATOM
  1 O       -0.1980     1.2360     0.5740 O.2   1 <1>  -0.5700 
  2 C       -0.2090     2.4110     0.2900 C.2   1 <1>   0.5690 
  3 N       -1.3590     3.1590     0.4080 N.am  1 <1>  -0.6600 
  4 C        1.0930     3.0490    -0.2000 C.3   1 <1>  -0.0190 
  5 C       -2.6170     2.5420     0.9290 C.3   1 <1>   0.1400 
  6 C       -1.4960     4.5900    -0.0050 C.3   1 <1>   0.1400 
  7 C        2.2300     2.0650    -0.5530 C.3   1 <1>  -0.0170 
  8 C        1.7120     4.0330     0.8100 C.3   1 <1>  -0.0170 
  9 C       -3.7270     2.5130    -0.1580 C.3   1 <1>   0.0000 
 10 C       -2.9550     4.9570    -0.3210 C.3   1 <1>  -0.1600 
 11 C        3.4700     2.8870    -0.3000 C.ar  1 <1>  -0.1440 
 12 C        3.1800     3.9870     0.4670 C.ar  1 <1>  -0.1440 
 13 C       -5.0760     2.2630     0.5560 C.3   1 <1>   0.2000 
 14 C       -3.6700     3.8010    -1.0350 C.3   1 <1>  -0.1600 
 15 C       -3.5680     1.2440    -1.0180 C.3   1 <1>  -0.1600 
 16 C        4.7600     2.6470    -0.7350 C.ar  1 <1>  -0.1500 
 17 C        4.1720     4.8810     0.8250 C.ar  1 <1>  -0.1500 
 18 O       -6.1410     2.4950    -0.2960 O.3   1 <1>  -0.6800 
 19 C       -5.0830     0.7670     0.8620 C.3   1 <1>  -0.1600 
 20 C       -4.2590     0.1060    -0.2520 C.3   1 <1>  -0.1600 
 21 C        5.7620     3.5380    -0.3820 C.ar  1 <1>  -0.1500 
 22 C        5.4700     4.6500     0.3940 C.ar  1 <1>  -0.1500 
 23 H        0.8870     3.5910    -1.1040 H     1 <1>   0.0800 
 24 H       -2.4290     1.5500     1.2990 H     1 <1>   0.0800 
 25 H       -2.9470     3.1300     1.7670 H     1 <1>   0.0800 
 26 H       -1.1260     5.2280     0.7790 H     1 <1>   0.0800 
 27 H       -0.9120     4.7630    -0.8900 H     1 <1>   0.0800 
 28 H        2.1640     1.7330    -1.5740 H     1 <1>   0.0800 
 29 H        2.2430     1.2150     0.1060 H     1 <1>   0.0800 
 30 H        1.5700     3.6840     1.8180 H     1 <1>   0.0800 
 31 H        1.3130     5.0250     0.7030 H     1 <1>   0.0800 
 32 H       -3.4750     5.1990     0.5900 H     1 <1>   0.0800 
 33 H       -2.9710     5.8370    -0.9410 H     1 <1>   0.0800 
 34 H       -5.2130     2.8730     1.4330 H     1 <1>   0.0800 
 35 H       -3.1180     3.5880    -1.9350 H     1 <1>   0.0800 
 36 H       -4.6490     4.1240    -1.3400 H     1 <1>   0.0800 
 37 H       -4.0660     1.3790    -1.9620 H     1 <1>   0.0800 
 38 H       -2.5320     1.0200    -1.2110 H     1 <1>   0.0800 
 39 H        4.9820     1.7820    -1.3340 H     1 <1>   0.1500 
 40 H        3.9420     5.7420     1.4280 H     1 <1>   0.1500 
 41 H       -6.0540     1.9080    -1.0710 H     1 <1>   0.4000 
 42 H       -4.5930     0.6010     1.8050 H     1 <1>   0.0800 
 43 H       -6.0820     0.3700     0.9300 H     1 <1>   0.0800 
 44 H       -3.5260    -0.5580     0.1760 H     1 <1>   0.0800 
 45 H       -4.8910    -0.4600    -0.9140 H     1 <1>   0.0800 
 46 H        6.7710     3.3650    -0.7120 H     1 <1>   0.1500 
 47 H        6.2530     5.3360     0.6640 H     1 <1>   0.1500 
@<TRIPOS>BOND
  1   1   2  2   
  2   2   3  am  
  3   2   4  1   
  4   3   5  1   
  5   3   6  1   
  6   4   7  1   
  7   4   8  1   
  8   4  23  1   
  9   5   9  1   
 10   5  24  1   
 11   5  25  1   
 12   6  10  1   
 13   6  26  1   
 14   6  27  1   
 15   7  11  1   
 16   7  28  1   
 17   7  29  1   
 18   8  12  1   
 19   8  30  1   
 20   8  31  1   
 21   9  13  1   
 22   9  14  1   
 23   9  15  1   
 24  10  14  1   
 25  10  32  1   
 26  10  33  1   
 27  11  12  ar  
 28  11  16  ar  
 29  12  17  ar  
 30  13  18  1   
 31  13  19  1   
 32  13  34  1   
 33  14  35  1   
 34  14  36  1   
 35  15  20  1   
 36  15  37  1   
 37  15  38  1   
 38  16  21  ar  
 39  16  39  1   
 40  17  22  ar  
 41  17  40  1   
 42  18  41  1   
 43  19  20  1   
 44  19  42  1   
 45  19  43  1   
 46  20  44  1   
 47  20  45  1   
 48  21  22  ar  
 49  21  46  1   
 50  22  47  1   
@<TRIPOS>SUBSTRUCTURE
  1 ****   2 GROUP 4 **** **** 0

# MOE 2024.06 (io_trps.svl 2023.06)
