@<TRIPOS>MOLECULE
NONAME
48 50 1 0 0 
SMALL
USER_CHARGES


@<TRIPOS>ATOM
  1 CL       1.8620     0.9560    -1.8750 Cl    1 <1>  -0.1770 
  2 C        0.9130     1.8270    -0.6910 C.ar  1 <1>   0.1770 
  3 C        1.4600     2.2510     0.5180 C.ar  1 <1>  -0.1440 
  4 C       -0.4070     2.0830    -1.0160 C.ar  1 <1>  -0.1500 
  5 C        0.6400     2.9550     1.3920 C.ar  1 <1>  -0.1500 
  6 C        2.9090     1.9880     0.9290 C.3   1 <1>   0.3640 
  7 C       -1.2100     2.7790    -0.1300 C.ar  1 <1>  -0.1500 
  8 C       -0.6820     3.2160     1.0720 C.ar  1 <1>  -0.1500 
  9 N        3.1500     0.5250     0.9450 N.am  1 <1>  -0.7300 
 10 C        3.9270     2.7540     0.0380 C.3   1 <1>   0.2610 
 11 C        4.2650    -0.0490     0.4440 C.2   1 <1>   0.5690 
 12 O        5.2260     2.1890     0.1470 O.3   1 <1>  -0.5600 
 13 C        3.9550     4.2600     0.3600 C.2   1 <1>   0.5690 
 14 O        4.4320    -1.2400     0.5190 O.2   1 <1>  -0.5700 
 15 C        5.3110     0.8340    -0.2420 C.3   1 <1>   0.1810 
 16 O        3.4070     4.6470     1.3710 O.2   1 <1>  -0.5700 
 17 N        4.5800     5.1500    -0.4840 N.am  1 <1>  -0.6600 
 18 C        4.6670     6.5990    -0.1360 C.3   1 <1>   0.2840 
 19 C        5.4070     4.7500    -1.6600 C.3   1 <1>   0.0600 
 20 C        6.1080     6.9730     0.1800 C.ar  1 <1>  -0.1430 
 21 C        6.8190     7.8240    -0.6530 C.ar  1 <1>  -0.1500 
 22 C        6.7260     6.4580     1.3090 C.ar  1 <1>  -0.1500 
 23 C        8.1330     8.1600    -0.3700 C.ar  1 <1>   0.0830 
 24 C        8.0380     6.7880     1.6010 C.ar  1 <1>  -0.1500 
 25 O        8.7500     8.9950    -1.2430 O.3   1 <1>  -0.3630 
 26 C        8.7440     7.6370     0.7670 C.ar  1 <1>  -0.1500 
 27 C       10.0880     9.3940    -1.0500 C.3   1 <1>   0.0400 
 28 H       -0.8010     1.7390    -1.9550 H     1 <1>   0.1500 
 29 H        1.0280     3.3140     2.3310 H     1 <1>   0.1500 
 30 H        3.0440     2.3270     1.9420 H     1 <1>   0.0800 
 31 H       -2.2380     2.9820    -0.3750 H     1 <1>   0.1500 
 32 H       -1.3020     3.7630     1.7620 H     1 <1>   0.1500 
 33 H        2.4460    -0.0690     1.3820 H     1 <1>   0.3700 
 34 H        3.6270     2.6580    -0.9860 H     1 <1>   0.0800 
 35 H        5.1830     0.7760    -1.3080 H     1 <1>   0.0800 
 36 H        6.2940     0.4820     0.0100 H     1 <1>   0.0800 
 37 H        4.3050     7.1810    -0.9650 H     1 <1>   0.0800 
 38 H        4.0500     6.8290     0.7150 H     1 <1>   0.0800 
 39 H        5.3890     5.5270    -2.4050 H     1 <1>   0.0800 
 40 H        5.0400     3.8450    -2.1080 H     1 <1>   0.0800 
 41 H        6.4250     4.5950    -1.3440 H     1 <1>   0.0800 
 42 H        6.3640     8.2380    -1.5340 H     1 <1>   0.1500 
 43 H        6.1810     5.7930     1.9590 H     1 <1>   0.1500 
 44 H        8.5070     6.3810     2.4800 H     1 <1>   0.1500 
 45 H        9.7590     7.8770     1.0170 H     1 <1>   0.1500 
 46 H       10.3620    10.0470    -1.8600 H     1 <1>   0.0800 
 47 H       10.7170     8.5210    -1.0560 H     1 <1>   0.0800 
 48 H       10.1640     9.9200    -0.1150 H     1 <1>   0.0800 
@<TRIPOS>BOND
  1   1   2  1   
  2   2   3  ar  
  3   2   4  ar  
  4   3   5  ar  
  5   3   6  1   
  6   4   7  ar  
  7   4  28  1   
  8   5   8  ar  
  9   5  29  1   
 10   6   9  1   
 11   6  10  1   
 12   6  30  1   
 13   7   8  ar  
 14   7  31  1   
 15   8  32  1   
 16   9  11  am  
 17   9  33  1   
 18  10  12  1   
 19  10  13  1   
 20  10  34  1   
 21  11  14  2   
 22  11  15  1   
 23  12  15  1   
 24  13  16  2   
 25  13  17  am  
 26  15  35  1   
 27  15  36  1   
 28  17  18  1   
 29  17  19  1   
 30  18  20  1   
 31  18  37  1   
 32  18  38  1   
 33  19  39  1   
 34  19  40  1   
 35  19  41  1   
 36  20  21  ar  
 37  20  22  ar  
 38  21  23  ar  
 39  21  42  1   
 40  22  24  ar  
 41  22  43  1   
 42  23  25  1   
 43  23  26  ar  
 44  24  26  ar  
 45  24  44  1   
 46  25  27  1   
 47  26  45  1   
 48  27  46  1   
 49  27  47  1   
 50  27  48  1   
@<TRIPOS>SUBSTRUCTURE
  1 ****  13 GROUP 4 **** **** 0

# MOE 2024.06 (io_trps.svl 2023.06)
