@<TRIPOS>MOLECULE
NONAME
49 52 1 0 0 
SMALL
USER_CHARGES


@<TRIPOS>ATOM
  1 O       -0.1920     0.4260    -1.2180 O.2   1 <1>  -0.5700 
  2 C       -0.5790     1.0900    -0.2750 C.2   1 <1>   0.6900 
  3 N       -1.9070     1.0970     0.0710 N.am  1 <1>  -0.6600 
  4 N        0.2890     1.8360     0.4680 N.am  1 <1>  -0.5470 
  5 C       -2.5780     2.2460     0.7540 C.3   1 <1>   0.1400 
  6 C       -2.8690     0.1470    -0.5520 C.3   1 <1>   0.1400 
  7 C        1.6240     2.2100     0.2500 C.ar  1 <1>   0.1170 
  8 C       -3.3990     3.0630    -0.2620 C.3   1 <1>   0.1430 
  9 C       -3.7340     0.8870    -1.5810 C.3   1 <1>  -0.1600 
 10 C        2.3890     2.6190     1.3370 C.ar  1 <1>  -0.1500 
 11 C        2.2120     2.2140    -1.0110 C.ar  1 <1>  -0.1500 
 12 C       -4.1330     4.1940     0.4350 C.ar  1 <1>   0.1670 
 13 C       -4.4060     2.1410    -0.9860 C.3   1 <1>  -0.1600 
 14 C       -2.4910     3.8290    -1.2650 C.3   1 <1>  -0.1600 
 15 C        3.7040     3.0200     1.1760 C.ar  1 <1>  -0.1500 
 16 C        3.5250     2.6130    -1.1780 C.ar  1 <1>  -0.1500 
 17 N       -4.8440     4.0750     1.5320 N.ar  1 <1>  -0.6200 
 18 C       -3.9640     5.3800    -0.2160 C.ar  1 <1>  -0.1430 
 19 C       -3.1020     5.2300    -1.4440 C.3   1 <1>  -0.0170 
 20 C        4.2810     3.0190    -0.0910 C.ar  1 <1>   0.0820 
 21 C       -5.3750     5.2130     1.9540 C.ar  1 <1>   0.7200 
 22 C       -4.5740     6.4930     0.3110 C.ar  1 <1>   0.1600 
 23 O        5.5630     3.3970    -0.3420 O.3   1 <1>  -0.3630 
 24 N       -5.2940     6.4190     1.4080 N.ar  1 <1>  -0.6200 
 25 N       -6.1090     5.1320     3.0640 N.pl3 1 <1>  -0.9000 
 26 C        6.4220     3.7890     0.7050 C.3   1 <1>   0.0400 
 27 H       -0.0890     2.0720     1.3780 H     1 <1>   0.3700 
 28 H       -1.8660     2.8900     1.2370 H     1 <1>   0.0800 
 29 H       -3.2360     1.8610     1.5140 H     1 <1>   0.0800 
 30 H       -3.4940    -0.2710     0.2180 H     1 <1>   0.0800 
 31 H       -2.3450    -0.6640    -1.0290 H     1 <1>   0.0800 
 32 H       -4.4900     0.2160    -1.9500 H     1 <1>   0.0800 
 33 H       -3.1120     1.1550    -2.4160 H     1 <1>   0.0800 
 34 H        1.9550     2.6230     2.3190 H     1 <1>   0.1500 
 35 H        1.6440     1.9060    -1.8700 H     1 <1>   0.1500 
 36 H       -4.9140     2.6870    -1.7620 H     1 <1>   0.0800 
 37 H       -5.1500     1.8250    -0.2750 H     1 <1>   0.0800 
 38 H       -2.3840     3.3220    -2.2060 H     1 <1>   0.0800 
 39 H       -1.5090     3.9460    -0.8410 H     1 <1>   0.0800 
 40 H        4.2600     3.3270     2.0410 H     1 <1>   0.1500 
 41 H        3.9730     2.6110    -2.1550 H     1 <1>   0.1500 
 42 H       -3.7170     5.2660    -2.3260 H     1 <1>   0.0800 
 43 H       -2.3400     5.9890    -1.4950 H     1 <1>   0.0800 
 44 H       -4.4710     7.4500    -0.1700 H     1 <1>   0.1500 
 45 H       -6.7430     5.9110     3.2160 H     1 <1>   0.4000 
 46 H       -6.4600     4.2050     3.2850 H     1 <1>   0.4000 
 47 H        7.3800     4.0280     0.2790 H     1 <1>   0.0800 
 48 H        6.5230     2.9720     1.3970 H     1 <1>   0.0800 
 49 H        6.0100     4.6580     1.1880 H     1 <1>   0.0800 
@<TRIPOS>BOND
  1   1   2  2   
  2   2   3  am  
  3   2   4  am  
  4   3   5  1   
  5   3   6  1   
  6   4   7  1   
  7   4  27  1   
  8   5   8  1   
  9   5  28  1   
 10   5  29  1   
 11   6   9  1   
 12   6  30  1   
 13   6  31  1   
 14   7  10  ar  
 15   7  11  ar  
 16   8  12  1   
 17   8  13  1   
 18   8  14  1   
 19   9  13  1   
 20   9  32  1   
 21   9  33  1   
 22  10  15  ar  
 23  10  34  1   
 24  11  16  ar  
 25  11  35  1   
 26  12  17  ar  
 27  12  18  ar  
 28  13  36  1   
 29  13  37  1   
 30  14  19  1   
 31  14  38  1   
 32  14  39  1   
 33  15  20  ar  
 34  15  40  1   
 35  16  20  ar  
 36  16  41  1   
 37  17  21  ar  
 38  18  19  1   
 39  18  22  ar  
 40  19  42  1   
 41  19  43  1   
 42  20  23  1   
 43  21  24  ar  
 44  21  25  1   
 45  22  24  ar  
 46  22  44  1   
 47  23  26  1   
 48  25  45  1   
 49  25  46  1   
 50  26  47  1   
 51  26  48  1   
 52  26  49  1   
@<TRIPOS>SUBSTRUCTURE
  1 ****   5 GROUP 4 **** **** 0

# MOE 2024.06 (io_trps.svl 2023.06)
