@<TRIPOS>MOLECULE
NONAME
43 46 1 0 0 
SMALL
USER_CHARGES


@<TRIPOS>ATOM
  1 S       -1.0100     0.3800    -1.7690 S.3   1 <1>  -0.0800 
  2 C       -1.3360     1.3290    -0.3270 C.2   1 <1>  -0.1400 
  3 C       -2.5910    -0.3850    -1.6600 C.2   1 <1>  -0.1100 
  4 C       -2.5590     1.0620     0.1500 C.2   1 <1>  -0.1810 
  5 C       -0.3300     2.3120     0.2600 C.3   1 <1>   0.4600 
  6 C       -3.2790     0.0800    -0.6000 C.2   1 <1>  -0.1500 
  7 C       -3.0520     1.7840     1.3840 C.3   1 <1>   0.0210 
  8 O       -0.8290     2.7810     1.4990 O.3   1 <1>  -0.5600 
  9 C       -0.1000     3.5090    -0.6730 C.3   1 <1>  -0.1600 
 10 C        1.0010     1.6190     0.5690 C.3   1 <1>  -0.1600 
 11 C       -2.2080     3.0560     1.5960 C.3   1 <1>   0.1200 
 12 C        0.9370     4.4760    -0.1000 C.3   1 <1>   0.1400 
 13 C        2.0320     2.6020     1.1270 C.3   1 <1>   0.1400 
 14 N        2.2030     3.7380     0.1770 N.am  1 <1>  -0.6600 
 15 C        3.4430     4.0820    -0.3130 C.2   1 <1>   0.5690 
 16 O        4.4400     3.4730     0.0050 O.2   1 <1>  -0.5700 
 17 C        3.6390     5.2640    -1.2690 C.3   1 <1>   0.2010 
 18 N        3.6890     6.5830    -0.5670 N.am  1 <1>  -0.6600 
 19 C        2.7590     7.5580    -0.6240 C.2   1 <1>   0.7800 
 20 C        4.6380     6.8560     0.5130 C.3   1 <1>   0.1400 
 21 O        1.7980     7.5850    -1.3610 O.2   1 <1>  -0.5700 
 22 O        2.9900     8.5090     0.2680 O.3   1 <1>  -0.4300 
 23 C        4.1400     8.2090     1.0390 C.3   1 <1>   0.1200 
 24 H       -2.8390    -1.1130    -2.4120 H     1 <1>   0.1500 
 25 H       -4.2690    -0.2280    -0.3120 H     1 <1>   0.1500 
 26 H       -2.9660     1.1410     2.2410 H     1 <1>   0.0800 
 27 H       -4.0850     2.0580     1.2640 H     1 <1>   0.0800 
 28 H       -1.0240     4.0230    -0.8520 H     1 <1>   0.0800 
 29 H        0.2530     3.1530    -1.6230 H     1 <1>   0.0800 
 30 H        1.4000     1.1800    -0.3270 H     1 <1>   0.0800 
 31 H        0.8320     0.8260     1.2730 H     1 <1>   0.0800 
 32 H       -2.3920     3.4640     2.5740 H     1 <1>   0.0800 
 33 H       -2.4600     3.7990     0.8610 H     1 <1>   0.0800 
 34 H        0.5720     4.9040     0.8190 H     1 <1>   0.0800 
 35 H        1.0880     5.2770    -0.7970 H     1 <1>   0.0800 
 36 H        2.9660     2.0890     1.2850 H     1 <1>   0.0800 
 37 H        1.6980     2.9850     2.0770 H     1 <1>   0.0800 
 38 H        2.8540     5.2690    -2.0020 H     1 <1>   0.0800 
 39 H        4.5660     5.1210    -1.7940 H     1 <1>   0.0800 
 40 H        5.6430     6.9260     0.1340 H     1 <1>   0.0800 
 41 H        4.5830     6.0990     1.2770 H     1 <1>   0.0800 
 42 H        4.8680     8.9860     0.8900 H     1 <1>   0.0800 
 43 H        3.8580     8.1540     2.0760 H     1 <1>   0.0800 
@<TRIPOS>BOND
  1   1   2  1   
  2   1   3  1   
  3   2   4  2   
  4   2   5  1   
  5   3   6  2   
  6   3  24  1   
  7   4   6  1   
  8   4   7  1   
  9   5   8  1   
 10   5   9  1   
 11   5  10  1   
 12   6  25  1   
 13   7  11  1   
 14   7  26  1   
 15   7  27  1   
 16   8  11  1   
 17   9  12  1   
 18   9  28  1   
 19   9  29  1   
 20  10  13  1   
 21  10  30  1   
 22  10  31  1   
 23  11  32  1   
 24  11  33  1   
 25  12  14  1   
 26  12  34  1   
 27  12  35  1   
 28  13  14  1   
 29  13  36  1   
 30  13  37  1   
 31  14  15  am  
 32  15  16  2   
 33  15  17  1   
 34  17  18  1   
 35  17  38  1   
 36  17  39  1   
 37  18  19  am  
 38  18  20  1   
 39  19  21  2   
 40  19  22  1   
 41  20  23  1   
 42  20  40  1   
 43  20  41  1   
 44  22  23  1   
 45  23  42  1   
 46  23  43  1   
@<TRIPOS>SUBSTRUCTURE
  1 ****  12 GROUP 4 **** **** 0

# MOE 2024.06 (io_trps.svl 2023.06)
