@<TRIPOS>MOLECULE
NONAME
54 57 1 0 0 
SMALL
USER_CHARGES


@<TRIPOS>ATOM
  1 O       -0.8130    -0.9260    -0.6910 O.3   1 <1>  -0.5600 
  2 C       -1.5650    -1.7510    -1.5360 C.3   1 <1>   0.1200 
  3 C       -0.5500    -1.5080     0.5560 C.3   1 <1>   0.1200 
  4 C       -0.8300    -3.0710    -1.8290 C.3   1 <1>   0.2090 
  5 C        0.2540    -2.8120     0.4070 C.3   1 <1>   0.2090 
  6 N       -0.4000    -3.7450    -0.5630 N.pl3 1 <1>  -0.8380 
  7 C       -0.2920    -5.1150    -0.4570 C.ar  1 <1>   0.7200 
  8 N       -0.7960    -5.8460    -1.4500 N.ar  1 <1>  -0.6200 
  9 N        0.3050    -5.5980     0.6330 N.ar  1 <1>  -0.6200 
 10 C       -0.6930    -7.1450    -1.3310 C.ar  1 <1>   0.1600 
 11 C        0.3940    -6.9000     0.7250 C.ar  1 <1>   0.1600 
 12 C       -0.1040    -7.7410    -0.2410 C.ar  1 <1>  -0.1430 
 13 C       -0.0330    -9.2490    -0.1140 C.3   1 <1>   0.2530 
 14 N       -1.4020    -9.7780    -0.0560 N.3   1 <1>  -0.6890 
 15 C       -2.0860    -9.4390     1.2250 C.3   1 <1>   0.2100 
 16 C       -1.4800   -11.1990     0.3750 C.3   1 <1>   0.2100 
 17 C       -2.8310   -10.8000     1.0600 C.3   1 <1>   0.4720 
 18 N       -4.0470   -10.7040     0.1590 N.4   1 <1>  -0.9280 
 19 C       -5.3260   -10.4090     0.8790 C.3   1 <1>   0.4230 
 20 C       -4.1840   -11.9140    -0.7070 C.3   1 <1>   0.3430 
 21 C       -6.4520   -10.1840    -0.1410 C.3   1 <1>  -0.1600 
 22 C       -5.2210    -9.1790     1.7820 C.3   1 <1>  -0.2400 
 23 C       -5.2800   -11.7050    -1.7500 C.3   1 <1>  -0.1600 
 24 C       -6.6200   -11.3710    -1.0930 C.3   1 <1>  -0.1600 
 25 H       -1.7370    -1.2140    -2.4510 H     1 <1>   0.0800 
 26 H       -2.5140    -1.9500    -1.0690 H     1 <1>   0.0800 
 27 H       -1.4860    -1.7030     1.0490 H     1 <1>   0.0800 
 28 H        0.0060    -0.7970     1.1400 H     1 <1>   0.0800 
 29 H        0.0370    -2.8680    -2.4310 H     1 <1>   0.0800 
 30 H       -1.4870    -3.7040    -2.3970 H     1 <1>   0.0800 
 31 H        0.3400    -3.2670     1.3770 H     1 <1>   0.0800 
 32 H        1.2450    -2.5800     0.0600 H     1 <1>   0.0800 
 33 H       -1.0970    -7.7540    -2.1220 H     1 <1>   0.1500 
 34 H        0.8730    -7.3020     1.6010 H     1 <1>   0.1500 
 35 H        0.5230    -9.5250     0.7680 H     1 <1>   0.0800 
 36 H        0.4720    -9.6580    -0.9730 H     1 <1>   0.0800 
 37 H       -2.6890    -8.5550     1.1330 H     1 <1>   0.0000 
 38 H       -1.4090    -9.4190     2.0630 H     1 <1>   0.0000 
 39 H       -0.7070   -11.4570     1.0800 H     1 <1>   0.0000 
 40 H       -1.5420   -11.8790    -0.4540 H     1 <1>   0.0000 
 41 H       -3.0330   -11.3230     1.9770 H     1 <1>   0.0000 
 42 H       -3.8390    -9.9120    -0.4640 H     1 <1>   0.4500 
 43 H       -5.5860   -11.2590     1.4900 H     1 <1>   0.0800 
 44 H       -4.4230   -12.7720    -0.0990 H     1 <1>   0.0800 
 45 H       -3.2610   -12.1110    -1.2260 H     1 <1>   0.0800 
 46 H       -6.2530    -9.2910    -0.7090 H     1 <1>   0.0800 
 47 H       -7.3800   -10.0290     0.3820 H     1 <1>   0.0800 
 48 H       -4.9310    -8.3080     1.2210 H     1 <1>   0.0800 
 49 H       -4.5380    -9.3420     2.5950 H     1 <1>   0.0800 
 50 H       -6.1810    -8.9770     2.2220 H     1 <1>   0.0800 
 51 H       -5.3850   -12.6020    -2.3360 H     1 <1>   0.0800 
 52 H       -4.9900   -10.9150    -2.4210 H     1 <1>   0.0800 
 53 H       -7.3510   -11.1340    -1.8500 H     1 <1>   0.0800 
 54 H       -6.9800   -12.2270    -0.5460 H     1 <1>   0.0800 
@<TRIPOS>BOND
  1   1   2  1   
  2   1   3  1   
  3   2   4  1   
  4   2  25  1   
  5   2  26  1   
  6   3   5  1   
  7   3  27  1   
  8   3  28  1   
  9   4   6  1   
 10   4  29  1   
 11   4  30  1   
 12   5   6  1   
 13   5  31  1   
 14   5  32  1   
 15   6   7  1   
 16   7   8  ar  
 17   7   9  ar  
 18   8  10  ar  
 19   9  11  ar  
 20  10  12  ar  
 21  10  33  1   
 22  11  12  ar  
 23  11  34  1   
 24  12  13  1   
 25  13  14  1   
 26  13  35  1   
 27  13  36  1   
 28  14  15  1   
 29  14  16  1   
 30  15  17  1   
 31  15  37  1   
 32  15  38  1   
 33  16  17  1   
 34  16  39  1   
 35  16  40  1   
 36  17  18  1   
 37  17  41  1   
 38  18  19  1   
 39  18  20  1   
 40  18  42  1   
 41  19  21  1   
 42  19  22  1   
 43  19  43  1   
 44  20  23  1   
 45  20  44  1   
 46  20  45  1   
 47  21  24  1   
 48  21  46  1   
 49  21  47  1   
 50  22  48  1   
 51  22  49  1   
 52  22  50  1   
 53  23  24  1   
 54  23  51  1   
 55  23  52  1   
 56  24  53  1   
 57  24  54  1   
@<TRIPOS>SUBSTRUCTURE
  1 ****  10 GROUP 4 **** **** 0

# MOE 2024.06 (io_trps.svl 2023.06)
