@<TRIPOS>MOLECULE
NONAME
35 36 1 0 0 
SMALL
USER_CHARGES


@<TRIPOS>ATOM
  1 O        1.4240     0.4150    -0.6410 O.2   1 <1>  -0.5700 
  2 C        2.1750    -0.2820     0.0370 C.2   1 <1>   0.6160 
  3 N        1.8470    -1.6250     0.2030 N.am  1 <1>  -0.4690 
  4 C        3.3660     0.2350     0.6590 C.2   1 <1>   0.0290 
  5 C        2.6400    -2.4550     0.9560 C.2   1 <1>  -0.0410 
  6 C        0.6190    -2.1670    -0.4390 C.3   1 <1>   0.0600 
  7 C        3.7480     1.6230     0.5080 C.2   1 <1>   0.6160 
  8 C        4.1290    -0.6340     1.4060 C.2   1 <1>  -0.1500 
  9 C        3.7640    -1.9850     1.5550 C.2   1 <1>  -0.1500 
 10 O        4.6820     2.0560     1.1590 O.2   1 <1>  -0.5700 
 11 N        3.0990     2.4820    -0.3490 N.am  1 <1>  -0.4940 
 12 C        3.2470     3.8710    -0.5880 C.2   1 <1>  -0.0880 
 13 N        4.3960     4.5980    -0.7180 N.pl3 1 <1>   0.3140 
 14 C        2.2270     4.7410    -0.7670 C.2   1 <1>  -0.1500 
 15 N        4.1200     5.9000    -0.9830 N.2   1 <1>  -0.7070 
 16 C        5.7980     4.1240    -0.7530 C.3   1 <1>   0.0960 
 17 C        2.8270     5.9700    -1.0010 C.2   1 <1>   0.1390 
 18 C        6.5870     4.6230     0.4670 C.3   1 <1>  -0.1600 
 19 C        8.0310     4.1100     0.4470 C.3   1 <1>  -0.2400 
 20 H        2.3430    -3.4870     1.0580 H     1 <1>   0.1500 
 21 H       -0.2430    -1.6390    -0.0690 H     1 <1>   0.0800 
 22 H        0.5070    -3.2150    -0.2250 H     1 <1>   0.0800 
 23 H        0.6800    -2.0300    -1.5050 H     1 <1>   0.0800 
 24 H        5.0270    -0.2990     1.8980 H     1 <1>   0.1500 
 25 H        4.3910    -2.6290     2.1490 H     1 <1>   0.1500 
 26 H        2.2470     2.0650    -0.7500 H     1 <1>   0.3700 
 27 H        1.1710     4.5490    -0.7400 H     1 <1>   0.1500 
 28 H        6.2480     4.5020    -1.6520 H     1 <1>   0.0800 
 29 H        5.8080     3.0530    -0.7980 H     1 <1>   0.0800 
 30 H        2.2880     6.8850    -1.1810 H     1 <1>   0.1500 
 31 H        6.1040     4.2840     1.3680 H     1 <1>   0.0800 
 32 H        6.5920     5.7000     0.4700 H     1 <1>   0.0800 
 33 H        8.0450     3.0340     0.4700 H     1 <1>   0.0800 
 34 H        8.5610     4.4760     1.3090 H     1 <1>   0.0800 
 35 H        8.5400     4.4490    -0.4380 H     1 <1>   0.0800 
@<TRIPOS>BOND
  1   1   2  2   
  2   2   3  am  
  3   2   4  1   
  4   3   5  1   
  5   3   6  1   
  6   4   7  1   
  7   4   8  2   
  8   5   9  2   
  9   5  20  1   
 10   6  21  1   
 11   6  22  1   
 12   6  23  1   
 13   7  10  2   
 14   7  11  am  
 15   8   9  1   
 16   8  24  1   
 17   9  25  1   
 18  11  12  1   
 19  11  26  1   
 20  12  13  1   
 21  12  14  2   
 22  13  15  1   
 23  13  16  1   
 24  14  17  1   
 25  14  27  1   
 26  15  17  2   
 27  16  18  1   
 28  16  28  1   
 29  16  29  1   
 30  17  30  1   
 31  18  19  1   
 32  18  31  1   
 33  18  32  1   
 34  19  33  1   
 35  19  34  1   
 36  19  35  1   
@<TRIPOS>SUBSTRUCTURE
  1 ****   7 GROUP 4 **** **** 0

# MOE 2024.06 (io_trps.svl 2023.06)
