@<TRIPOS>MOLECULE
NONAME
44 45 1 0 0 
SMALL
USER_CHARGES


@<TRIPOS>ATOM
  1 S        0.7470     1.2820    -1.1190 S.o2  1 <1>   1.3330 
  2 O        0.1580     2.0580    -2.1880 O.2   1 <1>  -0.6500 
  3 O        1.3100    -0.0130    -1.4260 O.2   1 <1>  -0.6500 
  4 N        1.9980     2.2100    -0.4490 N.am  1 <1>  -0.8490 
  5 C       -0.5000     1.0500     0.1640 C.3   1 <1>  -0.0550 
  6 C        2.8790     2.7500    -1.4900 C.3   1 <1>   0.1160 
  7 C        2.8030     1.4940     0.5450 C.3   1 <1>   0.1160 
  8 C       -1.1920     2.2680     0.8330 C.3   1 <1>  -0.0800 
  9 C       -1.6180     3.3900    -0.1180 C.3   1 <1>   0.2000 
 10 C       -0.3230     2.9680     1.8830 C.3   1 <1>   0.1400 
 11 O       -2.7430     3.9900     0.4290 O.3   1 <1>  -0.6800 
 12 C       -0.4760     4.4090    -0.0740 C.3   1 <1>   0.1400 
 13 N        0.1730     4.2150     1.2530 N.am  1 <1>  -0.6600 
 14 C        1.4030     4.7360     1.5930 C.2   1 <1>   0.5440 
 15 O        2.0010     4.2550     2.5370 O.2   1 <1>  -0.5700 
 16 C        2.0100     5.8240     0.8510 C.ar  1 <1>   0.0860 
 17 C        3.3290     5.7690     0.4370 C.ar  1 <1>  -0.1500 
 18 C        1.3400     6.9920     0.5110 C.ar  1 <1>  -0.1500 
 19 C        3.8850     6.8030    -0.2920 C.ar  1 <1>   0.3930 
 20 C        1.9800     7.9760    -0.2160 C.ar  1 <1>   0.1600 
 21 O        5.1710     6.6590    -0.6730 O.3   1 <1>  -0.3630 
 22 N        3.2320     7.9090    -0.6350 N.ar  1 <1>  -0.6200 
 23 C        5.8350     7.6800    -1.3920 C.3   1 <1>   0.0400 
 24 H       -1.2810     0.4620    -0.2780 H     1 <1>   0.0800 
 25 H       -0.0780     0.4410     0.9390 H     1 <1>   0.0800 
 26 H        3.6720     3.3290    -1.0500 H     1 <1>   0.0800 
 27 H        2.3210     3.3920    -2.1500 H     1 <1>   0.0800 
 28 H        3.3090     1.9490    -2.0690 H     1 <1>   0.0800 
 29 H        3.5120     2.1670     0.9980 H     1 <1>   0.0800 
 30 H        3.3360     0.6770     0.0850 H     1 <1>   0.0800 
 31 H        2.1750     1.1020     1.3250 H     1 <1>   0.0800 
 32 H       -2.0600     1.8700     1.3300 H     1 <1>   0.0800 
 33 H       -1.8660     3.0630    -1.1140 H     1 <1>   0.0800 
 34 H        0.4920     2.3440     2.2080 H     1 <1>   0.0800 
 35 H       -0.9150     3.2320     2.7420 H     1 <1>   0.0800 
 36 H       -2.4960     4.4210     1.2710 H     1 <1>   0.4000 
 37 H       -0.8510     5.4090    -0.1940 H     1 <1>   0.0800 
 38 H        0.2370     4.2080    -0.8520 H     1 <1>   0.0800 
 39 H        3.9310     4.9160     0.6850 H     1 <1>   0.1500 
 40 H        0.3220     7.1310     0.8210 H     1 <1>   0.1500 
 41 H        1.4350     8.8700    -0.4690 H     1 <1>   0.1500 
 42 H        6.8440     7.3630    -1.5790 H     1 <1>   0.0800 
 43 H        5.8330     8.5790    -0.8000 H     1 <1>   0.0800 
 44 H        5.3180     7.8430    -2.3220 H     1 <1>   0.0800 
@<TRIPOS>BOND
  1   1   2  2   
  2   1   3  2   
  3   1   4  am  
  4   1   5  1   
  5   4   6  1   
  6   4   7  1   
  7   5   8  1   
  8   5  24  1   
  9   5  25  1   
 10   6  26  1   
 11   6  27  1   
 12   6  28  1   
 13   7  29  1   
 14   7  30  1   
 15   7  31  1   
 16   8   9  1   
 17   8  10  1   
 18   8  32  1   
 19   9  11  1   
 20   9  12  1   
 21   9  33  1   
 22  10  13  1   
 23  10  34  1   
 24  10  35  1   
 25  11  36  1   
 26  12  13  1   
 27  12  37  1   
 28  12  38  1   
 29  13  14  am  
 30  14  15  2   
 31  14  16  1   
 32  16  17  ar  
 33  16  18  ar  
 34  17  19  ar  
 35  17  39  1   
 36  18  20  ar  
 37  18  40  1   
 38  19  21  1   
 39  19  22  ar  
 40  20  22  ar  
 41  20  41  1   
 42  21  23  1   
 43  23  42  1   
 44  23  43  1   
 45  23  44  1   
@<TRIPOS>SUBSTRUCTURE
  1 ****  14 GROUP 4 **** **** 0

# MOE 2024.06 (io_trps.svl 2023.06)
