@<TRIPOS>MOLECULE
NONAME
37 38 1 0 0 
SMALL
USER_CHARGES


@<TRIPOS>ATOM
  1 O       -0.0530     0.6350    -1.1420 O.co2 1 <1>  -0.9000 
  2 C       -0.9970     1.4190    -1.3650 C.2   1 <1>   0.9790 
  3 O       -2.0190     0.9360    -1.9000 O.co2 1 <1>  -0.9000 
  4 C       -0.9570     2.8480    -1.0120 C.ar  1 <1>   0.1310 
  5 N        0.1720     3.4690    -0.6060 N.ar  1 <1>  -0.6200 
  6 C       -2.1600     3.5530    -1.1150 C.ar  1 <1>   0.1600 
  7 C        0.0210     4.7500    -0.3200 C.ar  1 <1>   0.4100 
  8 N       -2.3390     4.8390    -0.8340 N.ar  1 <1>  -0.6200 
  9 N        1.1500     5.4450     0.0980 N.pl3 1 <1>  -0.8380 
 10 C       -1.2160     5.3980    -0.4340 C.ar  1 <1>   0.1600 
 11 C        1.7010     6.4540    -0.8550 C.3   1 <1>   0.2090 
 12 C        2.2140     4.6690     0.7880 C.3   1 <1>   0.2090 
 13 C        2.5680     7.5080    -0.1220 C.3   1 <1>   0.0610 
 14 C        3.1260     5.6270     1.5600 C.3   1 <1>  -0.1600 
 15 C        3.2340     8.4280    -1.1630 C.2   1 <1>   0.5690 
 16 C        3.6760     6.7530     0.6630 C.3   1 <1>  -0.1600 
 17 C        1.7020     8.3510     0.8640 C.3   1 <1>  -0.1600 
 18 O        3.0020     8.3160    -2.3400 O.2   1 <1>  -0.5700 
 19 N        4.0970     9.3850    -0.7650 N.am  1 <1>  -0.8000 
 20 C        0.6550     9.2580     0.1950 C.3   1 <1>  -0.2400 
 21 H       -3.0310     3.0140    -1.4500 H     1 <1>   0.1500 
 22 H       -1.2460     6.4360    -0.1690 H     1 <1>   0.1500 
 23 H        0.9020     6.9340    -1.3900 H     1 <1>   0.0800 
 24 H        2.3040     5.9370    -1.5840 H     1 <1>   0.0800 
 25 H        2.7810     4.1170     0.0560 H     1 <1>   0.0800 
 26 H        1.7650     3.9610     1.4650 H     1 <1>   0.0800 
 27 H        3.9430     5.0660     1.9760 H     1 <1>   0.0800 
 28 H        2.5690     6.0400     2.3820 H     1 <1>   0.0800 
 29 H        4.2450     7.4390     1.2650 H     1 <1>   0.0800 
 30 H        4.3540     6.3100    -0.0480 H     1 <1>   0.0800 
 31 H        2.3480     8.9700     1.4600 H     1 <1>   0.0800 
 32 H        1.1850     7.6940     1.5410 H     1 <1>   0.0800 
 33 H        4.5220     9.9930    -1.4660 H     1 <1>   0.3700 
 34 H        4.3260     9.5740     0.2090 H     1 <1>   0.3700 
 35 H        1.1180     9.9670    -0.4680 H     1 <1>   0.0800 
 36 H        0.1180     9.8070     0.9490 H     1 <1>   0.0800 
 37 H       -0.0590     8.6790    -0.3620 H     1 <1>   0.0800 
@<TRIPOS>BOND
  1   1   2  ar  
  2   2   3  ar  
  3   2   4  1   
  4   4   5  ar  
  5   4   6  ar  
  6   5   7  ar  
  7   6   8  ar  
  8   6  21  1   
  9   7   9  1   
 10   7  10  ar  
 11   8  10  ar  
 12   9  11  1   
 13   9  12  1   
 14  10  22  1   
 15  11  13  1   
 16  11  23  1   
 17  11  24  1   
 18  12  14  1   
 19  12  25  1   
 20  12  26  1   
 21  13  15  1   
 22  13  16  1   
 23  13  17  1   
 24  14  16  1   
 25  14  27  1   
 26  14  28  1   
 27  15  18  2   
 28  15  19  am  
 29  16  29  1   
 30  16  30  1   
 31  17  20  1   
 32  17  31  1   
 33  17  32  1   
 34  19  33  1   
 35  19  34  1   
 36  20  35  1   
 37  20  36  1   
 38  20  37  1   
@<TRIPOS>SUBSTRUCTURE
  1 ****   9 GROUP 4 **** **** 0

# MOE 2024.06 (io_trps.svl 2023.06)
