@<TRIPOS>MOLECULE
NONAME
50 53 1 0 0 
SMALL
USER_CHARGES


@<TRIPOS>ATOM
  1 O       -2.8600    -0.7010    -3.2690 O.2   1 <1>  -0.5700 
  2 C       -2.7570    -1.0580    -2.1280 C.2   1 <1>   0.5690 
  3 N       -2.4270    -0.1780    -1.1670 N.am  1 <1>  -0.7300 
  4 C       -3.0420    -2.4900    -1.7670 C.3   1 <1>  -0.0190 
  5 C       -2.2670    -0.4890     0.2720 C.3   1 <1>   0.2200 
  6 C       -1.8020    -3.1850    -1.1600 C.3   1 <1>   0.1200 
  7 C       -4.3350    -2.5330    -0.9400 C.3   1 <1>   0.3430 
  8 C       -1.1550    -1.5490     0.4720 C.3   1 <1>   0.1200 
  9 C       -3.6330    -0.8920     0.8980 C.3   1 <1>   0.3430 
 10 O       -1.5850    -2.8570     0.1890 O.3   1 <1>  -0.5600 
 11 N       -4.1270    -2.2670     0.5250 N.4   1 <1>  -0.9590 
 12 C       -5.2730    -2.7200     1.3550 C.3   1 <1>   0.5240 
 13 C       -5.4830    -4.1960     1.1000 C.2   1 <1>  -0.1810 
 14 C       -4.6190    -5.2240     1.4690 C.2   1 <1>   0.1080 
 15 C       -6.4990    -4.8160     0.4560 C.2   1 <1>  -0.3320 
 16 N       -5.0450    -6.3740     1.0750 N.2   1 <1>  -0.7070 
 17 C       -3.3140    -5.1050     2.2300 C.3   1 <1>  -0.0590 
 18 N       -6.2300    -6.1540     0.4590 N.pl3 1 <1>   0.5930 
 19 C       -7.7420    -4.2210    -0.1970 C.3   1 <1>  -0.0600 
 20 C       -7.0000    -7.1940    -0.1320 C.ar  1 <1>  -0.0230 
 21 C       -6.4810    -7.9400    -1.1850 C.ar  1 <1>  -0.1500 
 22 C       -8.2830    -7.4830     0.3240 C.ar  1 <1>  -0.1500 
 23 C       -7.2310    -8.9380    -1.7810 C.ar  1 <1>  -0.1500 
 24 C       -9.0340    -8.4810    -0.2710 C.ar  1 <1>  -0.1500 
 25 C       -8.5100    -9.2070    -1.3260 C.ar  1 <1>  -0.1500 
 26 H       -2.1910     0.7680    -1.4880 H     1 <1>   0.3700 
 27 H       -3.2520    -2.9900    -2.6960 H     1 <1>   0.0800 
 28 H       -1.9410     0.4190     0.7520 H     1 <1>   0.0800 
 29 H       -0.9140    -2.9460    -1.7220 H     1 <1>   0.0800 
 30 H       -1.9400    -4.2530    -1.1990 H     1 <1>   0.0800 
 31 H       -4.7540    -3.5190    -1.0600 H     1 <1>   0.0800 
 32 H       -5.0430    -1.8290    -1.3470 H     1 <1>   0.0800 
 33 H       -0.8450    -1.5450     1.5030 H     1 <1>   0.0800 
 34 H       -0.2910    -1.3230    -0.1310 H     1 <1>   0.0800 
 35 H       -4.3680    -0.1530     0.6240 H     1 <1>   0.0800 
 36 H       -3.5200    -0.8520     1.9690 H     1 <1>   0.0800 
 37 H       -3.3360    -2.8990     0.7560 H     1 <1>   0.4500 
 38 H       -5.0650    -2.5650     2.4010 H     1 <1>   0.0800 
 39 H       -6.1630    -2.1710     1.0940 H     1 <1>   0.0800 
 40 H       -3.2770    -4.2030     2.8100 H     1 <1>   0.0800 
 41 H       -2.4880    -5.1280     1.5430 H     1 <1>   0.0800 
 42 H       -3.2180    -5.9420     2.8990 H     1 <1>   0.0800 
 43 H       -7.7220    -3.1480    -0.1760 H     1 <1>   0.0800 
 44 H       -8.6270    -4.5520     0.3200 H     1 <1>   0.0800 
 45 H       -7.8120    -4.5410    -1.2230 H     1 <1>   0.0800 
 46 H       -5.4820    -7.7420    -1.5340 H     1 <1>   0.1500 
 47 H       -8.6940    -6.9330     1.1520 H     1 <1>   0.1500 
 48 H       -6.8200    -9.5090    -2.5960 H     1 <1>   0.1500 
 49 H      -10.0260    -8.6960     0.0880 H     1 <1>   0.1500 
 50 H       -9.0950    -9.9830    -1.7890 H     1 <1>   0.1500 
@<TRIPOS>BOND
  1   1   2  2   
  2   2   3  am  
  3   2   4  1   
  4   3   5  1   
  5   3  26  1   
  6   4   6  1   
  7   4   7  1   
  8   4  27  1   
  9   5   8  1   
 10   5   9  1   
 11   5  28  1   
 12   6  10  1   
 13   6  29  1   
 14   6  30  1   
 15   7  11  1   
 16   7  31  1   
 17   7  32  1   
 18   8  10  1   
 19   8  33  1   
 20   8  34  1   
 21   9  11  1   
 22   9  35  1   
 23   9  36  1   
 24  11  12  1   
 25  11  37  1   
 26  12  13  1   
 27  12  38  1   
 28  12  39  1   
 29  13  14  1   
 30  13  15  2   
 31  14  16  2   
 32  14  17  1   
 33  15  18  1   
 34  15  19  1   
 35  16  18  1   
 36  17  40  1   
 37  17  41  1   
 38  17  42  1   
 39  18  20  1   
 40  19  43  1   
 41  19  44  1   
 42  19  45  1   
 43  20  21  ar  
 44  20  22  ar  
 45  21  23  ar  
 46  21  46  1   
 47  22  24  ar  
 48  22  47  1   
 49  23  25  ar  
 50  23  48  1   
 51  24  25  ar  
 52  24  49  1   
 53  25  50  1   
@<TRIPOS>SUBSTRUCTURE
  1 ****  13 GROUP 4 **** **** 0

# MOE 2024.06 (io_trps.svl 2023.06)
