@<TRIPOS>MOLECULE
NONAME
37 38 1 0 0 
SMALL
USER_CHARGES


@<TRIPOS>ATOM
  1 BR      -0.0570     0.2730    -0.1620 Br    1 <1>  -0.1110 
  2 C        1.1310     1.7570     0.1400 C.ar  1 <1>   0.1110 
  3 C        0.6950     2.8720     0.8100 C.ar  1 <1>   0.1600 
  4 C        2.4250     1.7160    -0.3120 C.ar  1 <1>   0.1600 
  5 N        1.5020     3.8930     1.0200 N.ar  1 <1>  -0.6200 
  6 N        3.2450     2.7280    -0.1110 N.ar  1 <1>  -0.6200 
  7 C        2.7390     3.7730     0.5420 C.ar  1 <1>   0.4770 
  8 C        3.6750     4.9560     0.7990 C.3   1 <1>   0.0640 
  9 C        2.9920     6.3120     0.6210 C.3   1 <1>   0.1400 
 10 C        4.9080     5.0570    -0.1130 C.3   1 <1>  -0.1600 
 11 N        4.0860     7.2460     0.2750 N.am  1 <1>  -0.6600 
 12 C        5.3290     6.5210    -0.0500 C.3   1 <1>   0.1400 
 13 C        3.9570     8.6040     0.2940 C.2   1 <1>   0.7800 
 14 O        2.9090     9.1440     0.5860 O.2   1 <1>  -0.5700 
 15 O        5.0440     9.3120    -0.0240 O.3   1 <1>  -0.4300 
 16 C        5.1620    10.7170    -0.0760 C.3   1 <1>   0.2800 
 17 C        4.9170    11.3220     1.3120 C.3   1 <1>  -0.2400 
 18 C        4.2190    11.2910    -1.1400 C.3   1 <1>  -0.2400 
 19 C        6.6100    10.9800    -0.4910 C.3   1 <1>  -0.2400 
 20 H       -0.3160     2.9260     1.1750 H     1 <1>   0.1500 
 21 H        2.7890     0.8500    -0.8390 H     1 <1>   0.1500 
 22 H        4.0080     4.8900     1.8190 H     1 <1>   0.0800 
 23 H        2.4860     6.6230     1.5200 H     1 <1>   0.0800 
 24 H        2.2900     6.2810    -0.1940 H     1 <1>   0.0800 
 25 H        4.6360     4.8220    -1.1280 H     1 <1>   0.0800 
 26 H        5.6980     4.3960     0.1960 H     1 <1>   0.0800 
 27 H        5.7370     6.8600    -0.9880 H     1 <1>   0.0800 
 28 H        6.0450     6.6800     0.7380 H     1 <1>   0.0800 
 29 H        3.8890    11.2170     1.6040 H     1 <1>   0.0800 
 30 H        5.1450    12.3720     1.2990 H     1 <1>   0.0800 
 31 H        5.5430    10.8450     2.0430 H     1 <1>   0.0800 
 32 H        3.1920    11.1850    -0.8450 H     1 <1>   0.0800 
 33 H        4.3700    10.7920    -2.0800 H     1 <1>   0.0800 
 34 H        4.4120    12.3390    -1.2750 H     1 <1>   0.0800 
 35 H        7.2870    10.5620     0.2320 H     1 <1>   0.0800 
 36 H        6.7950    12.0360    -0.5580 H     1 <1>   0.0800 
 37 H        6.8070    10.5390    -1.4520 H     1 <1>   0.0800 
@<TRIPOS>BOND
  1   1   2  1   
  2   2   3  ar  
  3   2   4  ar  
  4   3   5  ar  
  5   3  20  1   
  6   4   6  ar  
  7   4  21  1   
  8   5   7  ar  
  9   6   7  ar  
 10   7   8  1   
 11   8   9  1   
 12   8  10  1   
 13   8  22  1   
 14   9  11  1   
 15   9  23  1   
 16   9  24  1   
 17  10  12  1   
 18  10  25  1   
 19  10  26  1   
 20  11  12  1   
 21  11  13  am  
 22  12  27  1   
 23  12  28  1   
 24  13  14  2   
 25  13  15  1   
 26  15  16  1   
 27  16  17  1   
 28  16  18  1   
 29  16  19  1   
 30  17  29  1   
 31  17  30  1   
 32  17  31  1   
 33  18  32  1   
 34  18  33  1   
 35  18  34  1   
 36  19  35  1   
 37  19  36  1   
 38  19  37  1   
@<TRIPOS>SUBSTRUCTURE
  1 ****   9 GROUP 4 **** **** 0

# MOE 2024.06 (io_trps.svl 2023.06)
