@<TRIPOS>MOLECULE
NONAME
43 46 1 0 0 
SMALL
USER_CHARGES


@<TRIPOS>ATOM
  1 O        0.6120    -0.1250     1.1250 O.3   1 <1>  -0.0190 
  2 N        1.3830     0.9030     1.0250 N.2   1 <1>  -0.4100 
  3 C        1.0200    -1.0720     0.3240 C.2   1 <1>   0.4250 
  4 C        2.2460     0.5400     0.1510 C.2   1 <1>   0.5990 
  5 N        2.0690    -0.7000    -0.3180 N.2   1 <1>  -0.5650 
  6 C        0.3210    -2.3360     0.2450 C.ar  1 <1>   0.0530 
  7 N        3.2920     1.3260    -0.3180 N.pl3 1 <1>  -0.8210 
  8 C       -0.7920    -2.6150     1.0430 C.ar  1 <1>  -0.1500 
  9 C        0.7380    -3.3320    -0.6400 C.ar  1 <1>  -0.1500 
 10 C        3.5670     2.5990     0.4120 C.3   1 <1>   0.4690 
 11 C        4.5660     0.6610    -0.6870 C.3   1 <1>   0.2090 
 12 C       -1.4530    -3.8270     0.9620 C.ar  1 <1>  -0.1500 
 13 C        0.0820    -4.5460    -0.7250 C.ar  1 <1>  -0.1500 
 14 C        2.6880     3.7740    -0.0260 C.2   1 <1>   0.2980 
 15 C        5.0510     2.8650     0.1580 C.3   1 <1>  -0.1600 
 16 C        5.6640     1.4810    -0.0200 C.3   1 <1>  -0.1600 
 17 C       -1.0170    -4.7960     0.0770 C.ar  1 <1>  -0.1500 
 18 O        2.4810     3.9670    -1.3050 O.3   1 <1>  -0.0190 
 19 N        2.1370     4.6260     0.7500 N.2   1 <1>  -0.5650 
 20 N        1.7340     5.0280    -1.3480 N.2   1 <1>  -0.4100 
 21 C        1.5330     5.3970    -0.1450 C.2   1 <1>   0.3350 
 22 C        0.7010     6.6020     0.3000 C.3   1 <1>   0.1010 
 23 C       -0.4130     6.9490    -0.7000 C.3   1 <1>  -0.2400 
 24 C        1.6010     7.8240     0.5310 C.3   1 <1>  -0.2400 
 25 H       -1.1490    -1.8760     1.7390 H     1 <1>   0.1500 
 26 H        1.5910    -3.1490    -1.2710 H     1 <1>   0.1500 
 27 H        3.4250     2.4390     1.4670 H     1 <1>   0.0800 
 28 H        4.5980    -0.3640    -0.3560 H     1 <1>   0.0800 
 29 H        4.6710     0.6900    -1.7580 H     1 <1>   0.0800 
 30 H       -2.3080    -4.0190     1.5870 H     1 <1>   0.1500 
 31 H        0.4240    -5.2970    -1.4170 H     1 <1>   0.1500 
 32 H        5.1610     3.4300    -0.7510 H     1 <1>   0.0800 
 33 H        5.4950     3.4150     0.9680 H     1 <1>   0.0800 
 34 H        5.8870     1.0500     0.9410 H     1 <1>   0.0800 
 35 H        6.5610     1.5010    -0.6120 H     1 <1>   0.0800 
 36 H       -1.5300    -5.7400     0.0120 H     1 <1>   0.1500 
 37 H        0.2360     6.3420     1.2350 H     1 <1>   0.0800 
 38 H        0.0090     7.2380    -1.6470 H     1 <1>   0.0800 
 39 H       -1.0160     7.7570    -0.3270 H     1 <1>   0.0800 
 40 H       -1.0440     6.0920    -0.8560 H     1 <1>   0.0800 
 41 H        2.0900     8.1030    -0.3850 H     1 <1>   0.0800 
 42 H        2.3530     7.5910     1.2640 H     1 <1>   0.0800 
 43 H        1.0210     8.6570     0.8870 H     1 <1>   0.0800 
@<TRIPOS>BOND
  1   1   2  1   
  2   1   3  1   
  3   2   4  2   
  4   3   5  2   
  5   3   6  1   
  6   4   5  1   
  7   4   7  1   
  8   6   8  ar  
  9   6   9  ar  
 10   7  10  1   
 11   7  11  1   
 12   8  12  ar  
 13   8  25  1   
 14   9  13  ar  
 15   9  26  1   
 16  10  14  1   
 17  10  15  1   
 18  10  27  1   
 19  11  16  1   
 20  11  28  1   
 21  11  29  1   
 22  12  17  ar  
 23  12  30  1   
 24  13  17  ar  
 25  13  31  1   
 26  14  18  1   
 27  14  19  2   
 28  15  16  1   
 29  15  32  1   
 30  15  33  1   
 31  16  34  1   
 32  16  35  1   
 33  17  36  1   
 34  18  20  1   
 35  19  21  1   
 36  20  21  2   
 37  21  22  1   
 38  22  23  1   
 39  22  24  1   
 40  22  37  1   
 41  23  38  1   
 42  23  39  1   
 43  23  40  1   
 44  24  41  1   
 45  24  42  1   
 46  24  43  1   
@<TRIPOS>SUBSTRUCTURE
  1 ****   4 GROUP 4 **** **** 0

# MOE 2024.06 (io_trps.svl 2023.06)
