@<TRIPOS>MOLECULE
NONAME
50 52 1 0 0 
SMALL
USER_CHARGES


@<TRIPOS>ATOM
  1 O       -0.4100     1.1700    -0.7060 O.2   1 <1>  -0.5700 
  2 C       -0.6110     2.3580    -0.6070 C.2   1 <1>   0.5690 
  3 N       -1.5140     2.9110     0.2650 N.am  1 <1>  -0.6600 
  4 C        0.1860     3.2850    -1.5190 C.3   1 <1>   0.1810 
  5 C       -1.7100     4.4000     0.3150 C.3   1 <1>   0.3640 
  6 C       -2.3010     2.1460     1.2720 C.3   1 <1>   0.2200 
  7 O        0.4720     4.5050    -0.8880 O.3   1 <1>  -0.5600 
  8 C       -3.1280     4.7380    -0.1560 C.ar  1 <1>  -0.1440 
  9 C       -0.6810     5.2390    -0.4970 C.3   1 <1>   0.2610 
 10 C       -1.3650     1.5090     2.2970 C.3   1 <1>  -0.2400 
 11 C       -3.2080     1.1110     0.6040 C.3   1 <1>  -0.2400 
 12 C       -3.6680     4.1580    -1.2980 C.ar  1 <1>  -0.1500 
 13 C       -3.8920     5.6500     0.5580 C.ar  1 <1>  -0.1500 
 14 C       -0.2670     6.4710     0.3190 C.2   1 <1>   0.5690 
 15 C       -4.9480     4.4800    -1.7130 C.ar  1 <1>  -0.1500 
 16 C       -5.1730     5.9730     0.1440 C.ar  1 <1>  -0.1500 
 17 O       -1.1130     7.2150     0.7550 O.2   1 <1>  -0.5700 
 18 N        1.0500     6.6950     0.5490 N.am  1 <1>  -0.7300 
 19 C       -5.7020     5.3880    -0.9910 C.ar  1 <1>  -0.1500 
 20 C        1.6260     7.8670     1.2400 C.3   1 <1>   0.3200 
 21 C        2.8150     8.4050     0.4630 C.2   1 <1>  -0.0400 
 22 O        3.5690     9.3210     1.0400 O.3   1 <1>  -0.2800 
 23 C        3.2850     8.1210    -0.7720 C.2   1 <1>  -0.1500 
 24 C        4.5310     9.6400     0.1980 C.2   1 <1>  -0.0400 
 25 C        4.4130     8.9320    -0.9450 C.2   1 <1>  -0.1500 
 26 C        5.5450    10.6800     0.6170 C.3   1 <1>  -0.0600 
 27 H       -0.3650     3.4780    -2.4210 H     1 <1>   0.0800 
 28 H        1.1210     2.8190    -1.7710 H     1 <1>   0.0800 
 29 H       -1.6230     4.6930     1.3470 H     1 <1>   0.0800 
 30 H       -2.9430     2.8320     1.8010 H     1 <1>   0.0800 
 31 H       -1.1480     5.5940    -1.3980 H     1 <1>   0.0800 
 32 H       -0.7470     0.7590     1.8370 H     1 <1>   0.0800 
 33 H       -1.9400     1.0380     3.0730 H     1 <1>   0.0800 
 34 H       -0.7390     2.2590     2.7450 H     1 <1>   0.0800 
 35 H       -2.6330     0.3390     0.1250 H     1 <1>   0.0800 
 36 H       -3.8430     1.5840    -0.1210 H     1 <1>   0.0800 
 37 H       -3.8330     0.6470     1.3450 H     1 <1>   0.0800 
 38 H       -3.0990     3.4460    -1.8690 H     1 <1>   0.1500 
 39 H       -3.4940     6.1240     1.4400 H     1 <1>   0.1500 
 40 H       -5.3590     4.0230    -2.5960 H     1 <1>   0.1500 
 41 H       -5.7560     6.6820     0.7060 H     1 <1>   0.1500 
 42 H        1.7230     6.0260     0.1650 H     1 <1>   0.3700 
 43 H       -6.6980     5.6390    -1.3130 H     1 <1>   0.1500 
 44 H        0.8860     8.6420     1.3450 H     1 <1>   0.0800 
 45 H        1.9500     7.5700     2.2220 H     1 <1>   0.0800 
 46 H        2.9010     7.4280    -1.4990 H     1 <1>   0.1500 
 47 H        5.0350     8.9600    -1.8220 H     1 <1>   0.1500 
 48 H        6.2630    10.8360    -0.1660 H     1 <1>   0.0800 
 49 H        6.0560    10.3500     1.5030 H     1 <1>   0.0800 
 50 H        5.0450    11.6080     0.8270 H     1 <1>   0.0800 
@<TRIPOS>BOND
  1   1   2  2   
  2   2   3  am  
  3   2   4  1   
  4   3   5  1   
  5   3   6  1   
  6   4   7  1   
  7   4  27  1   
  8   4  28  1   
  9   5   8  1   
 10   5   9  1   
 11   5  29  1   
 12   6  10  1   
 13   6  11  1   
 14   6  30  1   
 15   7   9  1   
 16   8  12  ar  
 17   8  13  ar  
 18   9  14  1   
 19   9  31  1   
 20  10  32  1   
 21  10  33  1   
 22  10  34  1   
 23  11  35  1   
 24  11  36  1   
 25  11  37  1   
 26  12  15  ar  
 27  12  38  1   
 28  13  16  ar  
 29  13  39  1   
 30  14  17  2   
 31  14  18  am  
 32  15  19  ar  
 33  15  40  1   
 34  16  19  ar  
 35  16  41  1   
 36  18  20  1   
 37  18  42  1   
 38  19  43  1   
 39  20  21  1   
 40  20  44  1   
 41  20  45  1   
 42  21  22  1   
 43  21  23  2   
 44  22  24  1   
 45  23  25  1   
 46  23  46  1   
 47  24  25  2   
 48  24  26  1   
 49  25  47  1   
 50  26  48  1   
 51  26  49  1   
 52  26  50  1   
@<TRIPOS>SUBSTRUCTURE
  1 ****   9 GROUP 4 **** **** 0

# MOE 2024.06 (io_trps.svl 2023.06)
