@<TRIPOS>MOLECULE
NONAME
53 56 1 0 0 
SMALL
USER_CHARGES


@<TRIPOS>ATOM
  1 O       -0.3040     0.3050    -1.4100 O.2   1 <1>  -0.5700 
  2 C       -0.6140     1.4560    -1.1660 C.2   1 <1>   0.7800 
  3 O       -0.0360     2.5030    -1.7560 O.3   1 <1>  -0.2330 
  4 N       -1.5870     1.8640    -0.2960 N.am  1 <1>  -0.4770 
  5 C       -0.6370     3.6060    -1.2670 C.ar  1 <1>   0.0830 
  6 C       -1.6050     3.2420    -0.3560 C.ar  1 <1>   0.1170 
  7 C       -2.3990     0.9820     0.5710 C.3   1 <1>   0.1400 
  8 C       -0.3820     4.9290    -1.5790 C.ar  1 <1>  -0.1500 
  9 C       -2.3600     4.2130     0.2840 C.ar  1 <1>  -0.1500 
 10 C       -3.3790     0.1630    -0.2780 C.3   1 <1>   0.1100 
 11 C       -1.1370     5.9020    -0.9410 C.ar  1 <1>  -0.1500 
 12 C       -2.1170     5.5450    -0.0170 C.ar  1 <1>  -0.1500 
 13 N       -4.2020    -0.7230     0.5690 N.3   1 <1>  -0.8100 
 14 C       -4.6250    -1.9280    -0.1620 C.3   1 <1>   0.1100 
 15 C       -5.3270    -0.0360     1.2360 C.3   1 <1>   0.1100 
 16 C       -5.9330    -2.4530     0.4750 C.3   1 <1>   0.4230 
 17 C       -6.6820    -0.3130     0.5150 C.3   1 <1>  -0.1600 
 18 N       -5.8790    -3.9180     0.8100 N.4   1 <1>  -0.9590 
 19 C       -7.1650    -1.6970    -0.2050 C.3   1 <1>   0.0000 
 20 C       -5.9360    -4.7300    -0.3900 C.3   1 <1>   0.3430 
 21 C       -4.7260    -4.2730     1.6990 C.3   1 <1>   0.2630 
 22 C       -7.6900    -3.0020    -1.0150 C.3   1 <1>  -0.1600 
 23 C       -8.4180    -0.8790    -0.8050 C.3   1 <1>   0.1200 
 24 C       -7.3450    -4.4970    -0.8400 C.3   1 <1>  -0.1600 
 25 O       -9.4880    -1.0200     0.0780 O.3   1 <1>  -0.6800 
 26 H       -1.7400     0.3120     1.0960 H     1 <1>   0.0800 
 27 H       -2.9300     1.5790     1.2880 H     1 <1>   0.0800 
 28 H        0.3800     5.1830    -2.2940 H     1 <1>   0.1500 
 29 H       -3.1150     3.9370     0.9970 H     1 <1>   0.1500 
 30 H       -2.7990    -0.4360    -0.9600 H     1 <1>   0.0800 
 31 H       -4.0110     0.8200    -0.8520 H     1 <1>   0.0800 
 32 H       -0.9640     6.9420    -1.1600 H     1 <1>   0.1500 
 33 H       -2.6920     6.3170     0.4680 H     1 <1>   0.1500 
 34 H       -4.8140    -1.6830    -1.1940 H     1 <1>   0.0800 
 35 H       -3.8270    -2.6470    -0.1320 H     1 <1>   0.0800 
 36 H       -5.3850    -0.3880     2.2530 H     1 <1>   0.0800 
 37 H       -5.1490     1.0260     1.2930 H     1 <1>   0.0800 
 38 H       -5.9330    -2.0790     1.4800 H     1 <1>   0.0800 
 39 H       -7.4380     0.0160     1.2120 H     1 <1>   0.0800 
 40 H       -6.5860     0.4510    -0.2390 H     1 <1>   0.0800 
 41 H       -6.7490    -4.1030     1.3290 H     1 <1>   0.4500 
 42 H       -5.2220    -4.3960    -1.1260 H     1 <1>   0.0800 
 43 H       -5.7770    -5.7730    -0.1660 H     1 <1>   0.0800 
 44 H       -3.7910    -4.1560     1.1770 H     1 <1>   0.0800 
 45 H       -4.8090    -5.2960     2.0280 H     1 <1>   0.0800 
 46 H       -4.7150    -3.6330     2.5670 H     1 <1>   0.0800 
 47 H       -8.7680    -3.0860    -0.9970 H     1 <1>   0.0800 
 48 H       -7.4220    -2.8100    -2.0430 H     1 <1>   0.0800 
 49 H       -8.7610    -1.1980    -1.7780 H     1 <1>   0.0800 
 50 H       -8.3180     0.1810    -0.9640 H     1 <1>   0.0800 
 51 H       -7.5040    -5.0140    -1.7720 H     1 <1>   0.0800 
 52 H       -8.0170    -4.9430    -0.1250 H     1 <1>   0.0800 
 53 H      -10.2790    -0.5400    -0.2440 H     1 <1>   0.4000 
@<TRIPOS>BOND
  1   1   2  2   
  2   2   3  1   
  3   2   4  am  
  4   3   5  1   
  5   4   6  1   
  6   4   7  1   
  7   5   6  ar  
  8   5   8  ar  
  9   6   9  ar  
 10   7  10  1   
 11   7  26  1   
 12   7  27  1   
 13   8  11  ar  
 14   8  28  1   
 15   9  12  ar  
 16   9  29  1   
 17  10  13  1   
 18  10  30  1   
 19  10  31  1   
 20  11  12  ar  
 21  11  32  1   
 22  12  33  1   
 23  13  14  1   
 24  13  15  1   
 25  14  16  1   
 26  14  34  1   
 27  14  35  1   
 28  15  17  1   
 29  15  36  1   
 30  15  37  1   
 31  16  18  1   
 32  16  19  1   
 33  16  38  1   
 34  17  19  1   
 35  17  39  1   
 36  17  40  1   
 37  18  20  1   
 38  18  21  1   
 39  18  41  1   
 40  19  22  1   
 41  19  23  1   
 42  20  24  1   
 43  20  42  1   
 44  20  43  1   
 45  21  44  1   
 46  21  45  1   
 47  21  46  1   
 48  22  24  1   
 49  22  47  1   
 50  22  48  1   
 51  23  25  1   
 52  23  49  1   
 53  23  50  1   
 54  24  51  1   
 55  24  52  1   
 56  25  53  1   
@<TRIPOS>SUBSTRUCTURE
  1 ****  10 GROUP 4 **** **** 0

# MOE 2024.06 (io_trps.svl 2023.06)
