@<TRIPOS>MOLECULE
NONAME
53 56 1 0 0 
SMALL
USER_CHARGES


@<TRIPOS>ATOM
  1 O        0.7630     0.1460    -1.3820 O.3   1 <1>  -0.6800 
  2 C        1.7930    -0.2160    -2.2470 C.3   1 <1>   0.2000 
  3 C        2.4280    -1.5750    -1.8690 C.3   1 <1>  -0.0800 
  4 C        2.9310     0.7860    -2.0650 C.3   1 <1>   0.1100 
  5 C        3.8200    -1.2160    -1.3150 C.3   1 <1>   0.1100 
  6 C        1.6250    -2.4270    -0.8600 C.3   1 <1>  -0.0170 
  7 N        3.7510     0.2060    -0.9970 N.3   1 <1>  -0.8100 
  8 C        2.2320    -3.7890    -0.4920 C.ar  1 <1>  -0.1430 
  9 C        5.0550     0.8770    -0.7690 C.3   1 <1>   0.2540 
 10 C        1.8530    -4.4390     0.7100 C.ar  1 <1>   0.0000 
 11 C        3.1420    -4.4340    -1.2830 C.ar  1 <1>  -0.1500 
 12 C        4.8860     2.1690     0.0500 C.cat 1 <1>   0.6560 
 13 C        2.4780    -5.6730     1.0220 C.ar  1 <1>   0.3100 
 14 C        0.8860    -3.9470     1.6200 C.ar  1 <1>  -0.1500 
 15 C        3.6850    -5.6620    -0.8880 C.ar  1 <1>   0.1600 
 16 N        3.7480     2.4730     0.6440 N.pl3 1 <1>  -0.7000 
 17 N        5.7860     3.1270     0.2840 N.pl3 1 <1>  -0.7640 
 18 N        3.3890    -6.2680     0.2150 N.ar  1 <1>  -0.6200 
 19 C        2.1420    -6.3260     2.2190 C.ar  1 <1>  -0.1500 
 20 C        0.5780    -4.6110     2.7760 C.ar  1 <1>  -0.1500 
 21 C        3.8920     3.6630     1.2870 C.2   1 <1>   0.1820 
 22 C        5.1630     4.0770     1.0670 C.2   1 <1>   0.1820 
 23 C        7.1980     3.1940    -0.1830 C.3   1 <1>   0.2740 
 24 C        1.2160    -5.8140     3.0850 C.ar  1 <1>  -0.1500 
 25 C        2.7390     4.2710     2.0610 C.3   1 <1>  -0.0720 
 26 C        5.8740     5.3310     1.5420 C.3   1 <1>  -0.0720 
 27 H       -0.0080    -0.4400    -1.5070 H     1 <1>   0.4000 
 28 H        1.4080    -0.1990    -3.2530 H     1 <1>   0.0800 
 29 H        2.5580    -2.1340    -2.7770 H     1 <1>   0.0800 
 30 H        2.5590     1.7640    -1.8110 H     1 <1>   0.0800 
 31 H        3.5030     0.8440    -2.9760 H     1 <1>   0.0800 
 32 H        4.5670    -1.3880    -2.0730 H     1 <1>   0.0800 
 33 H        4.0700    -1.7870    -0.4360 H     1 <1>   0.0800 
 34 H        0.6330    -2.5970    -1.2410 H     1 <1>   0.0800 
 35 H        1.5430    -1.8410     0.0380 H     1 <1>   0.0800 
 36 H        5.6950     0.2180    -0.2080 H     1 <1>   0.0800 
 37 H        5.5270     1.0960    -1.7090 H     1 <1>   0.0800 
 38 H        3.4760    -4.0440    -2.2230 H     1 <1>   0.1500 
 39 H        0.3710    -3.0310     1.4070 H     1 <1>   0.1500 
 40 H        4.3990    -6.1320    -1.5440 H     1 <1>   0.1500 
 41 H        2.9320     1.8490     0.5680 H     1 <1>   0.4500 
 42 H        2.6430    -7.2520     2.4320 H     1 <1>   0.1500 
 43 H       -0.1570    -4.2200     3.4590 H     1 <1>   0.1500 
 44 H        7.3400     4.0700    -0.7920 H     1 <1>   0.0800 
 45 H        7.4520     2.3240    -0.7640 H     1 <1>   0.0800 
 46 H        7.8600     3.2460     0.6650 H     1 <1>   0.0800 
 47 H        0.9690    -6.3250     3.9990 H     1 <1>   0.1500 
 48 H        3.0220     5.2090     2.5010 H     1 <1>   0.0800 
 49 H        2.4330     3.6020     2.8450 H     1 <1>   0.0800 
 50 H        1.9050     4.4380     1.4030 H     1 <1>   0.0800 
 51 H        5.2180     5.9410     2.1350 H     1 <1>   0.0800 
 52 H        6.2030     5.9090     0.6980 H     1 <1>   0.0800 
 53 H        6.7250     5.0670     2.1420 H     1 <1>   0.0800 
@<TRIPOS>BOND
  1   1   2  1   
  2   1  27  1   
  3   2   3  1   
  4   2   4  1   
  5   2  28  1   
  6   3   5  1   
  7   3   6  1   
  8   3  29  1   
  9   4   7  1   
 10   4  30  1   
 11   4  31  1   
 12   5   7  1   
 13   5  32  1   
 14   5  33  1   
 15   6   8  1   
 16   6  34  1   
 17   6  35  1   
 18   7   9  1   
 19   8  10  ar  
 20   8  11  ar  
 21   9  12  1   
 22   9  36  1   
 23   9  37  1   
 24  10  13  ar  
 25  10  14  ar  
 26  11  15  ar  
 27  11  38  1   
 28  12  16  ar  
 29  12  17  ar  
 30  13  18  ar  
 31  13  19  ar  
 32  14  20  ar  
 33  14  39  1   
 34  15  18  ar  
 35  15  40  1   
 36  16  21  1   
 37  16  41  1   
 38  17  22  1   
 39  17  23  1   
 40  19  24  ar  
 41  19  42  1   
 42  20  24  ar  
 43  20  43  1   
 44  21  22  2   
 45  21  25  1   
 46  22  26  1   
 47  23  44  1   
 48  23  45  1   
 49  23  46  1   
 50  24  47  1   
 51  25  48  1   
 52  25  49  1   
 53  25  50  1   
 54  26  51  1   
 55  26  52  1   
 56  26  53  1   
@<TRIPOS>SUBSTRUCTURE
  1 ****   5 GROUP 4 **** **** 0

# MOE 2024.06 (io_trps.svl 2023.06)
