@<TRIPOS>MOLECULE
NONAME
39 40 1 0 0 
SMALL
USER_CHARGES


@<TRIPOS>ATOM
  1 S        1.0650    -0.0380     1.1440 S.3   1 <1>  -0.0800 
  2 C        1.5460    -1.5410     0.4020 C.2   1 <1>  -0.1400 
  3 C        2.3420     0.7750     0.2660 C.2   1 <1>   0.2280 
  4 C        2.5920    -1.3010    -0.4050 C.2   1 <1>   0.0770 
  5 C        0.7980    -2.8090     0.7480 C.3   1 <1>   0.5230 
  6 N        3.0300     0.0090    -0.4820 N.2   1 <1>  -0.5650 
  7 N       -0.4900    -2.8290     0.0160 N.4   1 <1>  -0.9590 
  8 C       -0.8520    -4.2540    -0.3090 C.3   1 <1>   0.3430 
  9 C       -1.5490    -2.1450     0.8290 C.3   1 <1>   0.3430 
 10 C       -2.2420    -4.3660    -0.9570 C.3   1 <1>   0.2000 
 11 C       -2.9440    -2.3160     0.2110 C.3   1 <1>  -0.1600 
 12 O       -2.4740    -5.6970    -1.2450 O.3   1 <1>  -0.6800 
 13 C       -3.3140    -3.8120     0.0080 C.3   1 <1>  -0.1060 
 14 C       -3.1910    -4.5960     1.3330 C.2   1 <1>   0.9060 
 15 C       -4.7320    -3.9510    -0.6160 C.3   1 <1>  -0.1600 
 16 O       -3.0640    -3.9770     2.3930 O.co2 1 <1>  -0.9000 
 17 O       -3.0390    -5.8220     1.2810 O.co2 1 <1>  -0.9000 
 18 C       -5.8730    -3.4060     0.2600 C.3   1 <1>  -0.1600 
 19 C       -7.2350    -3.6940    -0.3780 C.3   1 <1>  -0.2400 
 20 H        2.4510     1.8360     0.4180 H     1 <1>   0.1500 
 21 H        3.1220    -2.0290    -0.9980 H     1 <1>   0.1500 
 22 H        0.6330    -2.8780     1.8120 H     1 <1>   0.0800 
 23 H        1.3980    -3.6520     0.4460 H     1 <1>   0.0800 
 24 H       -0.3720    -2.3100    -0.8600 H     1 <1>   0.4500 
 25 H       -0.1260    -4.6740    -0.9840 H     1 <1>   0.0800 
 26 H       -0.8550    -4.8410     0.5970 H     1 <1>   0.0800 
 27 H       -1.5540    -2.5500     1.8280 H     1 <1>   0.0800 
 28 H       -1.3310    -1.0930     0.9110 H     1 <1>   0.0800 
 29 H       -2.2560    -3.8390    -1.8940 H     1 <1>   0.0800 
 30 H       -3.6420    -1.8640     0.8930 H     1 <1>   0.0800 
 31 H       -3.0040    -1.7770    -0.7180 H     1 <1>   0.0800 
 32 H       -2.7610    -6.1210    -0.3790 H     1 <1>   0.4000 
 33 H       -4.7550    -3.4580    -1.5720 H     1 <1>   0.0800 
 34 H       -4.9250    -4.9960    -0.7910 H     1 <1>   0.0800 
 35 H       -5.8380    -3.8670     1.2330 H     1 <1>   0.0800 
 36 H       -5.7750    -2.3430     0.3910 H     1 <1>   0.0800 
 37 H       -7.3780    -4.7550    -0.4870 H     1 <1>   0.0800 
 38 H       -7.3050    -3.2320    -1.3460 H     1 <1>   0.0800 
 39 H       -8.0210    -3.3070     0.2470 H     1 <1>   0.0800 
@<TRIPOS>BOND
  1   1   2  1   
  2   1   3  1   
  3   2   4  2   
  4   2   5  1   
  5   3   6  2   
  6   3  20  1   
  7   4   6  1   
  8   4  21  1   
  9   5   7  1   
 10   5  22  1   
 11   5  23  1   
 12   7   8  1   
 13   7   9  1   
 14   7  24  1   
 15   8  10  1   
 16   8  25  1   
 17   8  26  1   
 18   9  11  1   
 19   9  27  1   
 20   9  28  1   
 21  10  12  1   
 22  10  13  1   
 23  10  29  1   
 24  11  13  1   
 25  11  30  1   
 26  11  31  1   
 27  12  32  1   
 28  13  14  1   
 29  13  15  1   
 30  14  16  ar  
 31  14  17  ar  
 32  15  18  1   
 33  15  33  1   
 34  15  34  1   
 35  18  19  1   
 36  18  35  1   
 37  18  36  1   
 38  19  37  1   
 39  19  38  1   
 40  19  39  1   
@<TRIPOS>SUBSTRUCTURE
  1 ****   9 GROUP 4 **** **** 0

# MOE 2024.06 (io_trps.svl 2023.06)
