@<TRIPOS>MOLECULE
NONAME
52 54 1 0 0 
SMALL
USER_CHARGES


@<TRIPOS>ATOM
  1 O       -3.2400     2.1970     1.1260 O.2   1 <1>  -0.5700 
  2 C       -2.8220     1.7410     0.0860 C.2   1 <1>   0.5690 
  3 N       -3.3230     0.5450    -0.3800 N.am  1 <1>  -0.6600 
  4 C       -1.7350     2.5160    -0.6890 C.3   1 <1>   0.1250 
  5 C       -2.7520    -0.2420    -1.5100 C.3   1 <1>   0.3200 
  6 C       -4.5910     0.0030     0.2070 C.3   1 <1>   0.1400 
  7 C       -0.3310     2.0220    -0.3260 C.ar  1 <1>  -0.1440 
  8 C       -1.7990     4.0670    -0.6450 C.3   1 <1>  -0.0800 
  9 C       -2.5620    -1.6920    -1.1160 C.2   1 <1>  -0.3320 
 10 C       -4.3240    -0.7760     1.5000 C.3   1 <1>   0.1200 
 11 C        0.0540     1.8810     1.0010 C.ar  1 <1>  -0.1500 
 12 C        0.5800     1.7080    -1.3260 C.ar  1 <1>  -0.1500 
 13 C       -1.4530     4.7610     0.6770 C.3   1 <1>  -0.1600 
 14 C       -3.1550     4.6640    -1.0230 C.3   1 <1>  -0.1600 
 15 N       -1.6560    -2.1390    -0.2220 N.pl3 1 <1>   0.0480 
 16 C       -3.2240    -2.7820    -1.5660 C.2   1 <1>   0.0770 
 17 O       -5.4950    -0.8500     2.2420 O.3   1 <1>  -0.6800 
 18 C        1.3220     1.4290     1.3230 C.ar  1 <1>  -0.1500 
 19 C        1.8470     1.2540    -1.0060 C.ar  1 <1>  -0.1500 
 20 C       -2.0620     6.1620     0.5720 C.3   1 <1>  -0.1600 
 21 C       -3.0560     6.1270    -0.5940 C.3   1 <1>  -0.1600 
 22 C       -1.8370    -3.4780    -0.1920 C.2   1 <1>   0.0360 
 23 C       -0.6820    -1.3600     0.5610 C.3   1 <1>   0.0160 
 24 N       -2.7670    -3.9030    -0.9830 N.2   1 <1>  -0.5650 
 25 C        2.2190     1.1130     0.3190 C.ar  1 <1>  -0.1500 
 26 H       -1.9000     2.2890    -1.7240 H     1 <1>   0.0800 
 27 H       -1.8000     0.1470    -1.8170 H     1 <1>   0.0800 
 28 H       -3.4250    -0.1830    -2.3490 H     1 <1>   0.0800 
 29 H       -5.0870    -0.6370    -0.5010 H     1 <1>   0.0800 
 30 H       -5.2450     0.8310     0.4240 H     1 <1>   0.0800 
 31 H       -1.0870     4.4280    -1.3690 H     1 <1>   0.0800 
 32 H       -3.5840    -0.2800     2.1040 H     1 <1>   0.0800 
 33 H       -4.0070    -1.7800     1.2800 H     1 <1>   0.0800 
 34 H       -0.6330     2.1260     1.7940 H     1 <1>   0.1500 
 35 H        0.3140     1.8200    -2.3630 H     1 <1>   0.1500 
 36 H       -0.3900     4.8010     0.8370 H     1 <1>   0.0800 
 37 H       -1.9090     4.2500     1.5060 H     1 <1>   0.0800 
 38 H       -3.9430     4.1930    -0.4610 H     1 <1>   0.0800 
 39 H       -3.3650     4.5690    -2.0740 H     1 <1>   0.0800 
 40 H       -4.0200    -2.8230    -2.2910 H     1 <1>   0.1500 
 41 H       -5.7170     0.0320     2.6010 H     1 <1>   0.4000 
 42 H        1.6100     1.3290     2.3550 H     1 <1>   0.1500 
 43 H        2.5480     1.0150    -1.7880 H     1 <1>   0.1500 
 44 H       -1.2940     6.8910     0.3770 H     1 <1>   0.0800 
 45 H       -2.5590     6.4200     1.4920 H     1 <1>   0.0800 
 46 H       -4.0180     6.5170    -0.3090 H     1 <1>   0.0800 
 47 H       -2.6700     6.7150    -1.4090 H     1 <1>   0.0800 
 48 H       -1.2500    -4.1180     0.4420 H     1 <1>   0.1500 
 49 H       -1.2010    -0.6170     1.1370 H     1 <1>   0.0800 
 50 H        0.0100    -0.8810    -0.1060 H     1 <1>   0.0800 
 51 H       -0.1430    -2.0110     1.2250 H     1 <1>   0.0800 
 52 H        3.2070     0.7650     0.5680 H     1 <1>   0.1500 
@<TRIPOS>BOND
  1   1   2  2   
  2   2   3  am  
  3   2   4  1   
  4   3   5  1   
  5   3   6  1   
  6   4   7  1   
  7   4   8  1   
  8   4  26  1   
  9   5   9  1   
 10   5  27  1   
 11   5  28  1   
 12   6  10  1   
 13   6  29  1   
 14   6  30  1   
 15   7  11  ar  
 16   7  12  ar  
 17   8  13  1   
 18   8  14  1   
 19   8  31  1   
 20   9  15  1   
 21   9  16  2   
 22  10  17  1   
 23  10  32  1   
 24  10  33  1   
 25  11  18  ar  
 26  11  34  1   
 27  12  19  ar  
 28  12  35  1   
 29  13  20  1   
 30  13  36  1   
 31  13  37  1   
 32  14  21  1   
 33  14  38  1   
 34  14  39  1   
 35  15  22  1   
 36  15  23  1   
 37  16  24  1   
 38  16  40  1   
 39  17  41  1   
 40  18  25  ar  
 41  18  42  1   
 42  19  25  ar  
 43  19  43  1   
 44  20  21  1   
 45  20  44  1   
 46  20  45  1   
 47  21  46  1   
 48  21  47  1   
 49  22  24  2   
 50  22  48  1   
 51  23  49  1   
 52  23  50  1   
 53  23  51  1   
 54  25  52  1   
@<TRIPOS>SUBSTRUCTURE
  1 ****   2 GROUP 4 **** **** 0

# MOE 2024.06 (io_trps.svl 2023.06)
