@<TRIPOS>MOLECULE
NONAME
53 57 1 0 0 
SMALL
USER_CHARGES


@<TRIPOS>ATOM
  1 O        0.2480     0.4630    -0.2650 O.3   1 <1>  -0.5600 
  2 C        1.0500    -0.5180     0.3040 C.3   1 <1>   0.2800 
  3 C       -0.8020     0.4620     0.6070 C.3   1 <1>   0.2000 
  4 C        1.1770    -0.0550     1.7660 C.3   1 <1>  -0.0800 
  5 C        2.4530    -0.4950    -0.2990 C.3   1 <1>   0.2090 
  6 C        0.1130    -1.7160     0.2190 C.3   1 <1>  -0.1600 
  7 C       -0.0380     0.8970     1.8670 C.3   1 <1>  -0.0800 
  8 C       -1.2090    -1.0250     0.5900 C.3   1 <1>  -0.1600 
  9 C        2.6230     0.4620     1.9130 C.3   1 <1>   0.2090 
 10 N        3.1960     0.4880     0.5440 N.pl3 1 <1>  -0.8380 
 11 C        0.4340     2.3640     1.7930 C.3   1 <1>   0.3430 
 12 C        3.7480     1.6260    -0.0330 C.ar  1 <1>   0.4100 
 13 N       -0.6040     3.3260     1.3300 N.4   1 <1>  -0.9590 
 14 N        3.3920     2.8080     0.4690 N.ar  1 <1>  -0.6200 
 15 C        4.6510     1.5110    -1.1060 C.ar  1 <1>   0.1600 
 16 C       -0.4020     3.5930    -0.1250 C.3   1 <1>   0.5240 
 17 C       -0.5650     4.5940     2.1210 C.3   1 <1>   0.2630 
 18 C        4.0050     3.8150    -0.1350 C.ar  1 <1>   0.1600 
 19 N        5.2390     2.5180    -1.7220 N.ar  1 <1>  -0.6200 
 20 C       -1.6070     4.3580    -0.6190 C.2   1 <1>  -0.1810 
 21 C        4.8930     3.6800    -1.1930 C.ar  1 <1>   0.1600 
 22 C       -1.6380     5.7150    -0.9160 C.2   1 <1>   0.1390 
 23 C       -2.8650     3.9260    -0.8640 C.2   1 <1>  -0.3020 
 24 N       -2.8130     6.1020    -1.2950 N.2   1 <1>  -0.7070 
 25 N       -3.5750     4.9970    -1.2760 N.pl3 1 <1>   0.3140 
 26 C       -4.9860     5.0350    -1.6790 C.3   1 <1>   0.0160 
 27 H       -1.5870     1.1190     0.2760 H     1 <1>   0.0800 
 28 H        1.0540    -0.8830     2.4410 H     1 <1>   0.0800 
 29 H        2.4210    -0.2060    -1.3350 H     1 <1>   0.0800 
 30 H        2.9150    -1.4610    -0.2020 H     1 <1>   0.0800 
 31 H        0.0870    -2.0920    -0.7900 H     1 <1>   0.0800 
 32 H        0.3830    -2.5070     0.8950 H     1 <1>   0.0800 
 33 H       -0.6100     0.7240     2.7620 H     1 <1>   0.0800 
 34 H       -1.5860    -1.3420     1.5470 H     1 <1>   0.0800 
 35 H       -1.9560    -1.2040    -0.1630 H     1 <1>   0.0800 
 36 H        3.1930    -0.2460     2.4920 H     1 <1>   0.0800 
 37 H        2.7010     1.4120     2.4100 H     1 <1>   0.0800 
 38 H        1.2590     2.4080     1.1050 H     1 <1>   0.0800 
 39 H        0.8050     2.6560     2.7610 H     1 <1>   0.0800 
 40 H       -1.5390     2.9140     1.4210 H     1 <1>   0.4500 
 41 H        4.8870     0.5200    -1.4460 H     1 <1>   0.1500 
 42 H        0.5000     4.1600    -0.2840 H     1 <1>   0.0800 
 43 H       -0.3190     2.6680    -0.6720 H     1 <1>   0.0800 
 44 H        0.3920     5.0760     2.0100 H     1 <1>   0.0800 
 45 H       -0.7300     4.3890     3.1660 H     1 <1>   0.0800 
 46 H       -1.3350     5.2700     1.7810 H     1 <1>   0.0800 
 47 H        3.7970     4.8070     0.2240 H     1 <1>   0.1500 
 48 H        5.3370     4.5620    -1.6210 H     1 <1>   0.1500 
 49 H       -0.8000     6.3910    -0.8480 H     1 <1>   0.1500 
 50 H       -3.2980     2.9460    -0.7820 H     1 <1>   0.1500 
 51 H       -5.4110     4.0510    -1.6140 H     1 <1>   0.0800 
 52 H       -5.0490     5.3920    -2.6900 H     1 <1>   0.0800 
 53 H       -5.5160     5.7060    -1.0300 H     1 <1>   0.0800 
@<TRIPOS>BOND
  1   1   2  1   
  2   1   3  1   
  3   2   4  1   
  4   2   5  1   
  5   2   6  1   
  6   3   7  1   
  7   3   8  1   
  8   3  27  1   
  9   4   7  1   
 10   4   9  1   
 11   4  28  1   
 12   5  10  1   
 13   5  29  1   
 14   5  30  1   
 15   6   8  1   
 16   6  31  1   
 17   6  32  1   
 18   7  11  1   
 19   7  33  1   
 20   8  34  1   
 21   8  35  1   
 22   9  10  1   
 23   9  36  1   
 24   9  37  1   
 25  10  12  1   
 26  11  13  1   
 27  11  38  1   
 28  11  39  1   
 29  12  14  ar  
 30  12  15  ar  
 31  13  16  1   
 32  13  17  1   
 33  13  40  1   
 34  14  18  ar  
 35  15  19  ar  
 36  15  41  1   
 37  16  20  1   
 38  16  42  1   
 39  16  43  1   
 40  17  44  1   
 41  17  45  1   
 42  17  46  1   
 43  18  21  ar  
 44  18  47  1   
 45  19  21  ar  
 46  20  22  1   
 47  20  23  2   
 48  21  48  1   
 49  22  24  2   
 50  22  49  1   
 51  23  25  1   
 52  23  50  1   
 53  24  25  1   
 54  25  26  1   
 55  26  51  1   
 56  26  52  1   
 57  26  53  1   
@<TRIPOS>SUBSTRUCTURE
  1 ****  16 GROUP 4 **** **** 0

# MOE 2024.06 (io_trps.svl 2023.06)
