@<TRIPOS>MOLECULE
NONAME
52 54 1 0 0 
SMALL
USER_CHARGES


@<TRIPOS>ATOM
  1 F       -1.6300    -1.0060    -0.3550 F     1 <1>  -0.1900 
  2 C       -1.2100    -2.2050    -0.0510 C.ar  1 <1>   0.1900 
  3 C       -0.1710    -2.7680    -0.7760 C.ar  1 <1>  -0.1440 
  4 C       -1.8330    -2.8630     0.9930 C.ar  1 <1>  -0.1500 
  5 C        0.2470    -4.0410    -0.4210 C.ar  1 <1>  -0.1500 
  6 C        0.4940    -2.0190    -1.9220 C.3   1 <1>  -0.0960 
  7 C       -1.4120    -4.1400     1.3330 C.ar  1 <1>  -0.1430 
  8 C       -0.3670    -4.7170     0.6230 C.ar  1 <1>  -0.1500 
  9 C       -2.0870    -4.9050     2.4680 C.3   1 <1>   0.0450 
 10 C       -2.5090    -6.3150     2.0680 C.2   1 <1>   0.5690 
 11 O       -2.0430    -7.2350     2.7000 O.2   1 <1>  -0.5700 
 12 N       -3.3900    -6.5560     1.0380 N.am  1 <1>  -0.6600 
 13 C       -3.6250    -7.9440     0.5500 C.3   1 <1>   0.1400 
 14 C       -4.1750    -5.5130     0.3190 C.3   1 <1>   0.1400 
 15 C       -5.1240    -8.2980     0.6570 C.3   1 <1>   0.4230 
 16 C       -5.6660    -5.8510     0.4370 C.3   1 <1>  -0.1600 
 17 N       -5.4370    -9.7520     0.3250 N.4   1 <1>  -0.9590 
 18 C       -6.0280    -7.2700    -0.0870 C.3   1 <1>   0.0000 
 19 C       -6.8810   -10.0140     0.0160 C.3   1 <1>   0.3430 
 20 C       -4.5700   -10.3770    -0.7280 C.3   1 <1>   0.2630 
 21 C       -7.5210    -7.5600     0.2520 C.3   1 <1>  -0.1600 
 22 C       -5.7920    -7.3560    -1.6220 C.3   1 <1>   0.1200 
 23 C       -7.7840    -9.0040     0.7220 C.3   1 <1>  -0.1600 
 24 O       -6.4230    -6.3240    -2.2960 O.3   1 <1>  -0.6800 
 25 H       -2.6290    -2.3710     1.5210 H     1 <1>   0.1500 
 26 H        1.0540    -4.5140    -0.9530 H     1 <1>   0.1500 
 27 H        1.2490    -2.6230    -2.3910 H     1 <1>   0.0800 
 28 H        0.9530    -1.1200    -1.5510 H     1 <1>   0.0800 
 29 H       -0.2400    -1.7530    -2.6610 H     1 <1>   0.0800 
 30 H       -0.0200    -5.7040     0.8820 H     1 <1>   0.1500 
 31 H       -2.9510    -4.3760     2.8230 H     1 <1>   0.0800 
 32 H       -1.3950    -4.9740     3.2880 H     1 <1>   0.0800 
 33 H       -3.2820    -8.0030    -0.4660 H     1 <1>   0.0800 
 34 H       -3.0570    -8.6460     1.1350 H     1 <1>   0.0800 
 35 H       -4.0060    -4.5390     0.7400 H     1 <1>   0.0800 
 36 H       -3.8710    -5.4780    -0.7150 H     1 <1>   0.0800 
 37 H       -5.3610    -8.1720     1.7010 H     1 <1>   0.0800 
 38 H       -5.9320    -5.7640     1.4770 H     1 <1>   0.0800 
 39 H       -6.2310    -5.0980    -0.0870 H     1 <1>   0.0800 
 40 H       -5.2420   -10.2600     1.2020 H     1 <1>   0.4500 
 41 H       -7.0470    -9.9340    -1.0460 H     1 <1>   0.0800 
 42 H       -7.1450   -11.0150     0.3180 H     1 <1>   0.0800 
 43 H       -4.6890    -9.8650    -1.6690 H     1 <1>   0.0800 
 44 H       -4.8370   -11.4130    -0.8660 H     1 <1>   0.0800 
 45 H       -3.5320   -10.3340    -0.4400 H     1 <1>   0.0800 
 46 H       -7.8680    -6.9020     1.0310 H     1 <1>   0.0800 
 47 H       -8.1400    -7.3550    -0.6040 H     1 <1>   0.0800 
 48 H       -6.1630    -8.2780    -2.0300 H     1 <1>   0.0800 
 49 H       -4.7470    -7.2750    -1.8630 H     1 <1>   0.0800 
 50 H       -8.8130    -9.2540     0.5300 H     1 <1>   0.0800 
 51 H       -7.6360    -9.0820     1.7860 H     1 <1>   0.0800 
 52 H       -7.3960    -6.3590    -2.2050 H     1 <1>   0.4000 
@<TRIPOS>BOND
  1   1   2  1   
  2   2   3  ar  
  3   2   4  ar  
  4   3   5  ar  
  5   3   6  1   
  6   4   7  ar  
  7   4  25  1   
  8   5   8  ar  
  9   5  26  1   
 10   6  27  1   
 11   6  28  1   
 12   6  29  1   
 13   7   8  ar  
 14   7   9  1   
 15   8  30  1   
 16   9  10  1   
 17   9  31  1   
 18   9  32  1   
 19  10  11  2   
 20  10  12  am  
 21  12  13  1   
 22  12  14  1   
 23  13  15  1   
 24  13  33  1   
 25  13  34  1   
 26  14  16  1   
 27  14  35  1   
 28  14  36  1   
 29  15  17  1   
 30  15  18  1   
 31  15  37  1   
 32  16  18  1   
 33  16  38  1   
 34  16  39  1   
 35  17  19  1   
 36  17  20  1   
 37  17  40  1   
 38  18  21  1   
 39  18  22  1   
 40  19  23  1   
 41  19  41  1   
 42  19  42  1   
 43  20  43  1   
 44  20  44  1   
 45  20  45  1   
 46  21  23  1   
 47  21  46  1   
 48  21  47  1   
 49  22  24  1   
 50  22  48  1   
 51  22  49  1   
 52  23  50  1   
 53  23  51  1   
 54  24  52  1   
@<TRIPOS>SUBSTRUCTURE
  1 ****  14 GROUP 4 **** **** 0

# MOE 2024.06 (io_trps.svl 2023.06)
