@<TRIPOS>MOLECULE
NONAME
55 58 1 0 0 
SMALL
USER_CHARGES


@<TRIPOS>ATOM
  1 S        0.8980     0.5380     0.5090 S.3   1 <1>  -0.3320 
  2 C        0.4440    -1.1870     0.7810 C.ar  1 <1>   0.1020 
  3 C        2.2740     0.5770    -0.7240 C.3   1 <1>   0.1500 
  4 C        0.9980    -2.2340     0.0620 C.ar  1 <1>  -0.1500 
  5 C       -0.5060    -1.4290     1.7560 C.ar  1 <1>  -0.1500 
  6 C        3.5750     0.1850    -0.0210 C.3   1 <1>  -0.1600 
  7 C        2.3550     1.9970    -1.2830 C.3   1 <1>  -0.1600 
  8 C        0.5940    -3.5320     0.3310 C.ar  1 <1>  -0.1500 
  9 C       -0.9060    -2.7280     2.0190 C.ar  1 <1>  -0.1500 
 10 C        4.7620     0.3280    -0.9750 C.3   1 <1>   0.2090 
 11 C        3.5400     2.1320    -2.2390 C.3   1 <1>   0.2090 
 12 C       -0.3560    -3.7840     1.3090 C.ar  1 <1>  -0.1430 
 13 N        4.7870     1.7020    -1.5530 N.pl3 1 <1>  -0.8380 
 14 C       -0.7970    -5.2080     1.5980 C.3   1 <1>  -0.0970 
 15 C        5.6780     2.6420    -1.0770 C.ar  1 <1>   0.4100 
 16 N        6.0370     2.5540     0.2000 N.ar  1 <1>  -0.6200 
 17 C        6.1670     3.6400    -1.9180 C.ar  1 <1>  -0.1500 
 18 C        6.8740     3.4750     0.6430 C.ar  1 <1>   0.1600 
 19 C        7.0310     4.5950    -1.4390 C.ar  1 <1>  -0.1500 
 20 C        7.3970     4.5310    -0.0980 C.ar  1 <1>   0.0860 
 21 C        8.2820     5.4900     0.5200 C.2   1 <1>   0.5440 
 22 O        9.1380     5.0970     1.2910 O.2   1 <1>  -0.5700 
 23 N        8.1800     6.8450     0.2790 N.am  1 <1>  -0.6600 
 24 C        6.9040     7.5270    -0.0940 C.3   1 <1>   0.1400 
 25 C        9.2600     7.8010     0.6750 C.3   1 <1>   0.1400 
 26 C        6.5180     8.5740     0.9670 C.3   1 <1>   0.1200 
 27 C        8.7320     8.8200     1.6970 C.3   1 <1>   0.1200 
 28 O        7.5790     9.4510     1.2110 O.3   1 <1>  -0.5600 
 29 H        2.0260    -0.1100    -1.5120 H     1 <1>   0.0800 
 30 H        1.7310    -2.0670    -0.6990 H     1 <1>   0.1500 
 31 H       -0.9280    -0.6050     2.3040 H     1 <1>   0.1500 
 32 H        3.5220    -0.8250     0.3370 H     1 <1>   0.0800 
 33 H        3.7390     0.8290     0.8260 H     1 <1>   0.0800 
 34 H        2.4800     2.6980    -0.4760 H     1 <1>   0.0800 
 35 H        1.4440     2.2370    -1.8010 H     1 <1>   0.0800 
 36 H        1.0230    -4.3460    -0.2260 H     1 <1>   0.1500 
 37 H       -1.6460    -2.9120     2.7780 H     1 <1>   0.1500 
 38 H        4.6770    -0.3860    -1.7770 H     1 <1>   0.0800 
 39 H        5.6810     0.1260    -0.4500 H     1 <1>   0.0800 
 40 H        3.6210     3.1560    -2.5610 H     1 <1>   0.0800 
 41 H        3.3870     1.5160    -3.1090 H     1 <1>   0.0800 
 42 H       -0.0020    -5.9000     1.3830 H     1 <1>   0.0800 
 43 H       -1.6480    -5.4550     0.9900 H     1 <1>   0.0800 
 44 H       -1.0670    -5.3150     2.6330 H     1 <1>   0.0800 
 45 H        5.8660     3.6420    -2.9480 H     1 <1>   0.1500 
 46 H        7.1730     3.3990     1.6750 H     1 <1>   0.1500 
 47 H        7.4240     5.3670    -2.0750 H     1 <1>   0.1500 
 48 H        6.1030     6.8160    -0.1850 H     1 <1>   0.0800 
 49 H        7.0290     8.0170    -1.0440 H     1 <1>   0.0800 
 50 H        9.6050     8.3240    -0.1990 H     1 <1>   0.0800 
 51 H       10.1000     7.2770     1.0960 H     1 <1>   0.0800 
 52 H        6.2490     8.0930     1.8910 H     1 <1>   0.0800 
 53 H        5.6820     9.1580     0.6250 H     1 <1>   0.0800 
 54 H        9.4710     9.5800     1.8800 H     1 <1>   0.0800 
 55 H        8.4970     8.3330     2.6270 H     1 <1>   0.0800 
@<TRIPOS>BOND
  1   1   2  1   
  2   1   3  1   
  3   2   4  ar  
  4   2   5  ar  
  5   3   6  1   
  6   3   7  1   
  7   3  29  1   
  8   4   8  ar  
  9   4  30  1   
 10   5   9  ar  
 11   5  31  1   
 12   6  10  1   
 13   6  32  1   
 14   6  33  1   
 15   7  11  1   
 16   7  34  1   
 17   7  35  1   
 18   8  12  ar  
 19   8  36  1   
 20   9  12  ar  
 21   9  37  1   
 22  10  13  1   
 23  10  38  1   
 24  10  39  1   
 25  11  13  1   
 26  11  40  1   
 27  11  41  1   
 28  12  14  1   
 29  13  15  1   
 30  14  42  1   
 31  14  43  1   
 32  14  44  1   
 33  15  16  ar  
 34  15  17  ar  
 35  16  18  ar  
 36  17  19  ar  
 37  17  45  1   
 38  18  20  ar  
 39  18  46  1   
 40  19  20  ar  
 41  19  47  1   
 42  20  21  1   
 43  21  22  2   
 44  21  23  am  
 45  23  24  1   
 46  23  25  1   
 47  24  26  1   
 48  24  48  1   
 49  24  49  1   
 50  25  27  1   
 51  25  50  1   
 52  25  51  1   
 53  26  28  1   
 54  26  52  1   
 55  26  53  1   
 56  27  28  1   
 57  27  54  1   
 58  27  55  1   
@<TRIPOS>SUBSTRUCTURE
  1 ****  16 GROUP 4 **** **** 0

# MOE 2024.06 (io_trps.svl 2023.06)
