@<TRIPOS>MOLECULE
NONAME
48 50 1 0 0 
SMALL
USER_CHARGES


@<TRIPOS>ATOM
  1 S        0.5800    -0.0330    -0.3520 S.3   1 <1>  -0.0800 
  2 C        1.9050    -0.9460    -0.9980 C.2   1 <1>   0.4420 
  3 C       -0.4750    -1.2680    -0.9500 C.2   1 <1>   0.1980 
  4 N        1.5050    -2.0270    -1.5750 N.2   1 <1>  -0.3380 
  5 N        3.1510    -0.4090    -0.7990 N.am  1 <1>  -0.4940 
  6 N        0.1470    -2.2010    -1.5450 N.2   1 <1>  -0.3380 
  7 C       -1.9670    -1.1140    -0.7230 C.3   1 <1>   0.0200 
  8 C        4.3930    -0.7200    -1.2680 C.2   1 <1>   0.5350 
  9 C       -2.4770    -1.9430     0.4730 C.3   1 <1>  -0.0800 
 10 O        4.4940    -1.5440    -2.1680 O.2   1 <1>  -0.5700 
 11 C        5.4930    -0.0130    -0.7420 C.3   1 <1>  -0.7150 
 12 C       -4.0040    -1.8430     0.5770 C.3   1 <1>  -0.2400 
 13 C       -1.8410    -1.5020     1.7990 C.3   1 <1>  -0.2400 
 14 C        5.4290     1.3680    -0.4820 C.2   1 <1>   0.5350 
 15 C        6.7050    -0.6700    -0.4740 C.2   1 <1>   0.3890 
 16 O        4.3490     1.9560    -0.3770 O.2   1 <1>  -0.5700 
 17 N        6.5920     2.1120    -0.3070 N.am  1 <1>  -0.4770 
 18 O        6.7650    -1.9010    -0.3920 O.2   1 <1>  -0.5700 
 19 C        7.9100     0.0840    -0.2270 C.ar  1 <1>   0.0860 
 20 C        7.8400     1.4820    -0.1400 C.ar  1 <1>   0.1170 
 21 C        6.4820     3.5970    -0.3970 C.3   1 <1>   0.1400 
 22 C        9.1500    -0.5420    -0.0680 C.ar  1 <1>  -0.1500 
 23 C        9.0180     2.1940     0.1210 C.ar  1 <1>  -0.1500 
 24 C        6.3250     4.2030     1.0030 C.3   1 <1>  -0.1600 
 25 C       10.2990     0.1780     0.1790 C.ar  1 <1>  -0.1500 
 26 C       10.2300     1.5560     0.2770 C.ar  1 <1>  -0.1500 
 27 C        6.2680     5.7340     0.9490 C.3   1 <1>  -0.2400 
 28 H        3.2060     0.4880    -0.3130 H     1 <1>   0.3700 
 29 H       -2.4670    -1.4440    -1.6160 H     1 <1>   0.0800 
 30 H       -2.2020    -0.0750    -0.5810 H     1 <1>   0.0800 
 31 H       -2.2170    -2.9750     0.3000 H     1 <1>   0.0800 
 32 H       -4.3090    -0.8270     0.7560 H     1 <1>   0.0800 
 33 H       -4.3630    -2.4550     1.3860 H     1 <1>   0.0800 
 34 H       -4.4660    -2.1870    -0.3320 H     1 <1>   0.0800 
 35 H       -2.0290    -0.4590     1.9860 H     1 <1>   0.0800 
 36 H       -0.7770    -1.6640     1.7810 H     1 <1>   0.0800 
 37 H       -2.2450    -2.0750     2.6150 H     1 <1>   0.0800 
 38 H        5.6310     3.8610    -1.0000 H     1 <1>   0.0800 
 39 H        7.3460     3.9970    -0.8940 H     1 <1>   0.0800 
 40 H        9.1960    -1.6150    -0.1430 H     1 <1>   0.1500 
 41 H        9.0000     3.2610     0.2120 H     1 <1>   0.1500 
 42 H        7.1470     3.8980     1.6270 H     1 <1>   0.0800 
 43 H        5.4150     3.8290     1.4400 H     1 <1>   0.0800 
 44 H       11.2410    -0.3290     0.2970 H     1 <1>   0.1500 
 45 H       11.1220     2.1240     0.4750 H     1 <1>   0.1500 
 46 H        7.1740     6.1310     0.5280 H     1 <1>   0.0800 
 47 H        6.1480     6.1310     1.9420 H     1 <1>   0.0800 
 48 H        5.4340     6.0550     0.3500 H     1 <1>   0.0800 
@<TRIPOS>BOND
  1   1   2  1   
  2   1   3  1   
  3   2   4  2   
  4   2   5  1   
  5   3   6  2   
  6   3   7  1   
  7   4   6  1   
  8   5   8  am  
  9   5  28  1   
 10   7   9  1   
 11   7  29  1   
 12   7  30  1   
 13   8  10  2   
 14   8  11  1   
 15   9  12  1   
 16   9  13  1   
 17   9  31  1   
 18  11  14  1   
 19  11  15  1   
 20  12  32  1   
 21  12  33  1   
 22  12  34  1   
 23  13  35  1   
 24  13  36  1   
 25  13  37  1   
 26  14  16  2   
 27  14  17  am  
 28  15  18  2   
 29  15  19  1   
 30  17  20  1   
 31  17  21  1   
 32  19  20  ar  
 33  19  22  ar  
 34  20  23  ar  
 35  21  24  1   
 36  21  38  1   
 37  21  39  1   
 38  22  25  ar  
 39  22  40  1   
 40  23  26  ar  
 41  23  41  1   
 42  24  27  1   
 43  24  42  1   
 44  24  43  1   
 45  25  26  ar  
 46  25  44  1   
 47  26  45  1   
 48  27  46  1   
 49  27  47  1   
 50  27  48  1   
@<TRIPOS>SUBSTRUCTURE
  1 ****   5 GROUP 4 **** **** 0

# MOE 2024.06 (io_trps.svl 2023.06)
