@<TRIPOS>MOLECULE
NONAME
54 57 1 0 0 
SMALL
USER_CHARGES


@<TRIPOS>ATOM
  1 O        4.7990    -1.3790    -0.0620 O.2   1 <1>  -0.5700 
  2 C        3.6420    -1.5910    -0.3850 C.2   1 <1>   0.5440 
  3 N        3.1490    -0.8200    -1.4120 N.am  1 <1>  -0.6600 
  4 C        2.8120    -2.5450     0.3330 C.ar  1 <1>   0.0860 
  5 C        3.9960    -0.5580    -2.6200 C.3   1 <1>   0.1400 
  6 C        2.0760     0.1710    -1.1410 C.3   1 <1>   0.1400 
  7 C        1.6680    -3.0930    -0.2420 C.ar  1 <1>  -0.1500 
  8 C        3.1490    -2.9440     1.6430 C.ar  1 <1>  -0.1500 
  9 C        4.7670     0.7770    -2.5480 C.3   1 <1>   0.3430 
 10 C        2.5960     1.2650    -0.1950 C.3   1 <1>  -0.1600 
 11 C        0.8780    -3.9920     0.4690 C.ar  1 <1>   0.0000 
 12 C        2.3760    -3.8350     2.3570 C.ar  1 <1>  -0.1500 
 13 N        4.9190     1.2400    -1.1350 N.4   1 <1>  -0.9590 
 14 C        3.7760     2.0980    -0.7140 C.3   1 <1>   0.3430 
 15 C        1.2370    -4.3490     1.7550 C.ar  1 <1>   0.1400 
 16 C       -0.3070    -4.7140     0.2170 C.2   1 <1>  -0.1500 
 17 C        6.2460     1.8790    -0.9050 C.3   1 <1>   0.3430 
 18 O        0.3590    -5.2110     2.2620 O.3   1 <1>  -0.2800 
 19 C       -0.5640    -5.4240     1.3310 C.2   1 <1>  -0.0400 
 20 C        6.6880     1.7510     0.5550 C.3   1 <1>   0.0200 
 21 C       -1.6900    -6.3800     1.6580 C.3   1 <1>  -0.0600 
 22 C        7.9940     2.4980     0.7480 C.2   1 <1>   0.0060 
 23 N        8.4440     3.3480    -0.1190 N.2   1 <1>  -0.5650 
 24 N        8.7950     2.3490     1.8320 N.pl3 1 <1>   0.0480 
 25 C        9.5990     3.7780     0.4210 C.2   1 <1>   0.0770 
 26 C        9.8270     3.1790     1.6090 C.2   1 <1>  -0.3020 
 27 C        8.6190     1.4810     3.0120 C.3   1 <1>   0.0160 
 28 H        3.3830    -0.5770    -3.5050 H     1 <1>   0.0800 
 29 H        4.7120    -1.3570    -2.7170 H     1 <1>   0.0800 
 30 H        1.2390    -0.3280    -0.6820 H     1 <1>   0.0800 
 31 H        1.7320     0.6030    -2.0660 H     1 <1>   0.0800 
 32 H        1.3780    -2.8370    -1.2450 H     1 <1>   0.1500 
 33 H        4.0390    -2.5400     2.0950 H     1 <1>   0.1500 
 34 H        4.2500     1.5260    -3.1240 H     1 <1>   0.0800 
 35 H        5.7350     0.6320    -2.9980 H     1 <1>   0.0800 
 36 H        2.8620     0.8260     0.7510 H     1 <1>   0.0800 
 37 H        1.7840     1.9410     0.0060 H     1 <1>   0.0800 
 38 H        2.6280    -4.1420     3.3560 H     1 <1>   0.1500 
 39 H        4.8810     0.3550    -0.5790 H     1 <1>   0.4500 
 40 H        4.0940     2.7600     0.0750 H     1 <1>   0.0800 
 41 H        3.4570     2.7080    -1.5430 H     1 <1>   0.0800 
 42 H       -0.8620    -4.6740    -0.7020 H     1 <1>   0.1500 
 43 H        6.2100     2.9220    -1.1800 H     1 <1>   0.0800 
 44 H        6.9960     1.4060    -1.5180 H     1 <1>   0.0800 
 45 H        6.8290     0.7130     0.7950 H     1 <1>   0.0800 
 46 H        5.9520     2.1770     1.2120 H     1 <1>   0.0800 
 47 H       -2.3630    -6.4630     0.8250 H     1 <1>   0.0800 
 48 H       -2.2330    -6.0210     2.5140 H     1 <1>   0.0800 
 49 H       -1.2870    -7.3510     1.8830 H     1 <1>   0.0800 
 50 H       10.2160     4.5070    -0.0790 H     1 <1>   0.1500 
 51 H       10.6520     3.3010     2.2870 H     1 <1>   0.1500 
 52 H        7.6490     1.6500     3.4410 H     1 <1>   0.0800 
 53 H        9.3740     1.7110     3.7420 H     1 <1>   0.0800 
 54 H        8.7140     0.4520     2.7150 H     1 <1>   0.0800 
@<TRIPOS>BOND
  1   1   2  2   
  2   2   3  am  
  3   2   4  1   
  4   3   5  1   
  5   3   6  1   
  6   4   7  ar  
  7   4   8  ar  
  8   5   9  1   
  9   5  28  1   
 10   5  29  1   
 11   6  10  1   
 12   6  30  1   
 13   6  31  1   
 14   7  11  ar  
 15   7  32  1   
 16   8  12  ar  
 17   8  33  1   
 18   9  13  1   
 19   9  34  1   
 20   9  35  1   
 21  10  14  1   
 22  10  36  1   
 23  10  37  1   
 24  11  15  ar  
 25  11  16  1   
 26  12  15  ar  
 27  12  38  1   
 28  13  14  1   
 29  13  17  1   
 30  13  39  1   
 31  14  40  1   
 32  14  41  1   
 33  15  18  1   
 34  16  19  2   
 35  16  42  1   
 36  17  20  1   
 37  17  43  1   
 38  17  44  1   
 39  18  19  1   
 40  19  21  1   
 41  20  22  1   
 42  20  45  1   
 43  20  46  1   
 44  21  47  1   
 45  21  48  1   
 46  21  49  1   
 47  22  23  2   
 48  22  24  1   
 49  23  25  1   
 50  24  26  1   
 51  24  27  1   
 52  25  26  2   
 53  25  50  1   
 54  26  51  1   
 55  27  52  1   
 56  27  53  1   
 57  27  54  1   
@<TRIPOS>SUBSTRUCTURE
  1 ****   1 GROUP 4 **** **** 0

# MOE 2024.06 (io_trps.svl 2023.06)
