@<TRIPOS>MOLECULE
NONAME
52 55 1 0 0 
SMALL
USER_CHARGES


@<TRIPOS>ATOM
  1 O        1.1610    -0.3740     0.9620 O.3   1 <1>  -0.6800 
  2 C        1.7930     0.6560     0.2870 C.3   1 <1>   0.2000 
  3 C        2.9830     0.1060    -0.5430 C.3   1 <1>   0.0000 
  4 C        2.2050     1.7260     1.3060 C.3   1 <1>  -0.1600 
  5 C        3.6560     1.3230    -1.2070 C.3   1 <1>   0.2090 
  6 C        2.3860    -0.7840    -1.6600 C.3   1 <1>   0.1200 
  7 C        3.9560    -0.7470     0.3400 C.3   1 <1>  -0.0170 
  8 C        2.9260     2.8850     0.6170 C.3   1 <1>   0.2090 
  9 N        4.0560     2.3670    -0.2080 N.pl3 1 <1>  -0.8380 
 10 O        3.3550    -1.1060    -2.6030 O.3   1 <1>  -0.6800 
 11 C        5.4580    -0.4680     0.2540 C.ar  1 <1>  -0.1440 
 12 C        5.1670     3.1320    -0.4170 C.ar  1 <1>   0.7710 
 13 C        6.1060     0.1430     1.3170 C.ar  1 <1>  -0.1500 
 14 C        6.2020    -0.8900    -0.8360 C.ar  1 <1>  -0.1500 
 15 N        6.3320     2.4820    -0.7100 N.ar  1 <1>  -0.1790 
 16 N        5.0780     4.4360    -0.3570 N.ar  1 <1>  -0.5670 
 17 C        7.4800     0.3080     1.3020 C.ar  1 <1>  -0.1500 
 18 C        7.5770    -0.7260    -0.8560 C.ar  1 <1>  -0.1500 
 19 C        7.4530     3.1230    -1.0660 C.ar  1 <1>   0.4610 
 20 C        6.2040     5.1180    -0.6820 C.ar  1 <1>   0.1050 
 21 C        8.2180    -0.1380     0.2200 C.ar  1 <1>  -0.1500 
 22 N        8.5560     2.4410    -1.4120 N.pl3 1 <1>  -0.9000 
 23 C        7.3840     4.5190    -1.0480 C.ar  1 <1>   0.0000 
 24 N        6.4130     6.4560    -0.7340 N.pl3 1 <1>   0.3140 
 25 C        8.2460     5.5950    -1.3060 C.2   1 <1>   0.1390 
 26 N        7.6810     6.7400    -1.1220 N.2   1 <1>  -0.7070 
 27 C        5.4530     7.5290    -0.4370 C.3   1 <1>   0.0160 
 28 H        0.4080    -0.0390     1.4880 H     1 <1>   0.4000 
 29 H        1.0640     1.0870    -0.3810 H     1 <1>   0.0800 
 30 H        1.3310     2.1130     1.7980 H     1 <1>   0.0800 
 31 H        2.8540     1.3120     2.0560 H     1 <1>   0.0800 
 32 H        2.9600     1.7700    -1.8980 H     1 <1>   0.0800 
 33 H        4.5000     1.0010    -1.7910 H     1 <1>   0.0800 
 34 H        1.5900    -0.2720    -2.1740 H     1 <1>   0.0800 
 35 H        1.9920    -1.6990    -1.2480 H     1 <1>   0.0800 
 36 H        3.6760    -0.6650     1.3730 H     1 <1>   0.0800 
 37 H        3.8150    -1.7890     0.1120 H     1 <1>   0.0800 
 38 H        3.2920     3.5700     1.3640 H     1 <1>   0.0800 
 39 H        2.2390     3.4190    -0.0190 H     1 <1>   0.0800 
 40 H        2.9990    -1.7490    -3.2510 H     1 <1>   0.4000 
 41 H        5.5450     0.4700     2.1780 H     1 <1>   0.1500 
 42 H        5.7160    -1.3820    -1.6630 H     1 <1>   0.1500 
 43 H        6.3080     1.4690    -0.5700 H     1 <1>   0.4570 
 44 H        7.9780     0.7610     2.1440 H     1 <1>   0.1500 
 45 H        8.1450    -1.0880    -1.6980 H     1 <1>   0.1500 
 46 H        9.2920    -0.0400     0.2280 H     1 <1>   0.1500 
 47 H        8.6300     1.4160    -1.4140 H     1 <1>   0.4000 
 48 H        9.4310     2.8980    -1.7000 H     1 <1>   0.4000 
 49 H        9.2710     5.4870    -1.6230 H     1 <1>   0.1500 
 50 H        4.4850     7.1080    -0.2370 H     1 <1>   0.0800 
 51 H        5.3940     8.1890    -1.2830 H     1 <1>   0.0800 
 52 H        5.7960     8.0780     0.4200 H     1 <1>   0.0800 
@<TRIPOS>BOND
  1   1   2  1   
  2   1  28  1   
  3   2   3  1   
  4   2   4  1   
  5   2  29  1   
  6   3   5  1   
  7   3   6  1   
  8   3   7  1   
  9   4   8  1   
 10   4  30  1   
 11   4  31  1   
 12   5   9  1   
 13   5  32  1   
 14   5  33  1   
 15   6  10  1   
 16   6  34  1   
 17   6  35  1   
 18   7  11  1   
 19   7  36  1   
 20   7  37  1   
 21   8   9  1   
 22   8  38  1   
 23   8  39  1   
 24   9  12  1   
 25  10  40  1   
 26  11  13  ar  
 27  11  14  ar  
 28  12  15  ar  
 29  12  16  ar  
 30  13  17  ar  
 31  13  41  1   
 32  14  18  ar  
 33  14  42  1   
 34  15  19  ar  
 35  15  43  1   
 36  16  20  ar  
 37  17  21  ar  
 38  17  44  1   
 39  18  21  ar  
 40  18  45  1   
 41  19  22  1   
 42  19  23  ar  
 43  20  23  ar  
 44  20  24  1   
 45  21  46  1   
 46  22  47  1   
 47  22  48  1   
 48  23  25  1   
 49  24  26  1   
 50  24  27  1   
 51  25  26  2   
 52  25  49  1   
 53  27  50  1   
 54  27  51  1   
 55  27  52  1   
@<TRIPOS>SUBSTRUCTURE
  1 ****  12 GROUP 4 **** **** 0

# MOE 2024.06 (io_trps.svl 2023.06)
