@<TRIPOS>MOLECULE
NONAME
42 43 1 0 0 
SMALL
USER_CHARGES


@<TRIPOS>ATOM
  1 S       -0.1480     0.1070    -0.6040 S.3   1 <1>  -0.0800 
  2 C        1.1870    -0.6100     0.2750 C.2   1 <1>   0.1980 
  3 C       -0.8770    -1.4650    -0.7320 C.2   1 <1>  -0.1100 
  4 N        1.0780    -1.8690     0.4410 N.2   1 <1>  -0.5650 
  5 C        2.3000     0.3330     0.7270 C.3   1 <1>   0.1000 
  6 C       -0.0850    -2.3640    -0.1240 C.2   1 <1>   0.0460 
  7 C        3.2370     0.6590    -0.4430 C.3   1 <1>  -0.2400 
  8 C        3.1060    -0.2570     1.8940 C.3   1 <1>  -0.2400 
  9 C       -0.3030    -3.8600     0.0210 C.3   1 <1>   0.0210 
 10 C       -1.6690    -4.3140    -0.4940 C.3   1 <1>   0.1400 
 11 N       -1.8230    -5.7730    -0.2890 N.am  1 <1>  -0.7300 
 12 C       -1.9620    -6.7030    -1.2710 C.2   1 <1>   0.5690 
 13 O       -2.0210    -6.3930    -2.4360 O.2   1 <1>  -0.5700 
 14 C       -2.0430    -8.1780    -0.9080 C.3   1 <1>   0.1310 
 15 S       -1.7270    -8.4590     0.9050 S.3   1 <1>  -0.3310 
 16 C       -1.7990   -10.2300     1.0870 C.ar  1 <1>   0.7220 
 17 N       -2.0520   -10.9110    -0.0200 N.ar  1 <1>  -0.6200 
 18 N       -1.5900   -10.6670     2.3160 N.ar  1 <1>  -0.6200 
 19 C       -2.1000   -12.2130     0.1390 C.ar  1 <1>   0.1670 
 20 C       -1.6450   -11.9740     2.4390 C.ar  1 <1>   0.1600 
 21 C       -1.9000   -12.8000     1.3690 C.ar  1 <1>  -0.1500 
 22 C       -2.3860   -13.0440    -1.0940 C.3   1 <1>  -0.0970 
 23 H       -1.8150    -1.5380    -1.2500 H     1 <1>   0.1500 
 24 H        1.8420     1.2450     1.0680 H     1 <1>   0.0800 
 25 H        3.6950    -0.2420    -0.8120 H     1 <1>   0.0800 
 26 H        4.0090     1.3390    -0.1290 H     1 <1>   0.0800 
 27 H        2.6850     1.1150    -1.2450 H     1 <1>   0.0800 
 28 H        3.5890    -1.1690     1.5900 H     1 <1>   0.0800 
 29 H        2.4500    -0.4790     2.7160 H     1 <1>   0.0800 
 30 H        3.8540     0.4390     2.2270 H     1 <1>   0.0800 
 31 H       -0.2140    -4.1130     1.0620 H     1 <1>   0.0800 
 32 H        0.4710    -4.3700    -0.5230 H     1 <1>   0.0800 
 33 H       -1.7570    -4.0820    -1.5420 H     1 <1>   0.0800 
 34 H       -2.4520    -3.8000     0.0370 H     1 <1>   0.0800 
 35 H       -1.7650    -6.1080     0.6780 H     1 <1>   0.3700 
 36 H       -1.3020    -8.7330    -1.4520 H     1 <1>   0.0800 
 37 H       -3.0210    -8.5630    -1.1280 H     1 <1>   0.0800 
 38 H       -1.4830   -12.3940     3.4170 H     1 <1>   0.1500 
 39 H       -1.9390   -13.8650     1.4960 H     1 <1>   0.1500 
 40 H       -3.3380   -12.7630    -1.5050 H     1 <1>   0.0800 
 41 H       -2.4050   -14.0920    -0.8580 H     1 <1>   0.0800 
 42 H       -1.6250   -12.8670    -1.8320 H     1 <1>   0.0800 
@<TRIPOS>BOND
  1   1   2  1   
  2   1   3  1   
  3   2   4  2   
  4   2   5  1   
  5   3   6  2   
  6   3  23  1   
  7   4   6  1   
  8   5   7  1   
  9   5   8  1   
 10   5  24  1   
 11   6   9  1   
 12   7  25  1   
 13   7  26  1   
 14   7  27  1   
 15   8  28  1   
 16   8  29  1   
 17   8  30  1   
 18   9  10  1   
 19   9  31  1   
 20   9  32  1   
 21  10  11  1   
 22  10  33  1   
 23  10  34  1   
 24  11  12  am  
 25  11  35  1   
 26  12  13  2   
 27  12  14  1   
 28  14  15  1   
 29  14  36  1   
 30  14  37  1   
 31  15  16  1   
 32  16  17  ar  
 33  16  18  ar  
 34  17  19  ar  
 35  18  20  ar  
 36  19  21  ar  
 37  19  22  1   
 38  20  21  ar  
 39  20  38  1   
 40  21  39  1   
 41  22  40  1   
 42  22  41  1   
 43  22  42  1   
@<TRIPOS>SUBSTRUCTURE
  1 ****  11 GROUP 4 **** **** 0

# MOE 2024.06 (io_trps.svl 2023.06)
