@<TRIPOS>MOLECULE
NONAME
52 55 1 0 0 
SMALL
USER_CHARGES


@<TRIPOS>ATOM
  1 O        0.8710     0.1050     1.7020 O.2   1 <1>  -0.5700 
  2 C        1.6110    -0.7670     1.3080 C.2   1 <1>   0.5690 
  3 N        1.4070    -2.0340     1.7410 N.am  1 <1>  -0.7300 
  4 C        2.7480    -0.4470     0.3120 C.3   1 <1>   0.2810 
  5 C        2.1210    -3.2570     1.3270 C.3   1 <1>   0.1400 
  6 N        2.9150     1.0150     0.0770 N.am  1 <1>  -0.7300 
  7 C        2.5170    -1.1150    -1.0510 C.3   1 <1>  -0.1600 
  8 C        1.9520    -3.4960    -0.1770 C.3   1 <1>  -0.1600 
  9 C        3.9560     1.7740     0.5040 C.2   1 <1>   0.7160 
 10 C        2.8500    -2.6170    -1.0660 C.3   1 <1>  -0.1600 
 11 O        4.9440     1.2010     0.9220 O.2   1 <1>  -0.5700 
 12 C        3.8770     3.2050     0.4630 C.2   1 <1>  -0.0860 
 13 C        2.7230     3.9640     0.2160 C.2   1 <1>   0.3720 
 14 C        4.8330     4.1560     0.6580 C.2   1 <1>   0.0870 
 15 N        2.9720     5.2250     0.2700 N.2   1 <1>  -0.4100 
 16 N        1.4440     3.4520    -0.0460 N.pl3 1 <1>  -0.8210 
 17 O        4.2440     5.3190     0.5400 O.3   1 <1>  -0.0190 
 18 C        6.2470     4.1180     0.9360 C.ar  1 <1>   0.0530 
 19 C        0.6150     3.2990     1.1920 C.3   1 <1>   0.2090 
 20 C        0.6730     4.2150    -1.0780 C.3   1 <1>   0.2090 
 21 C        6.8130     5.0110     1.8470 C.ar  1 <1>  -0.1500 
 22 C        7.1040     3.2170     0.3040 C.ar  1 <1>  -0.1500 
 23 C       -0.7740     2.7180     0.8640 C.3   1 <1>   0.1200 
 24 C       -0.7110     3.5840    -1.3130 C.3   1 <1>   0.1200 
 25 C        8.1690     5.0030     2.1190 C.ar  1 <1>  -0.1500 
 26 C        8.4600     3.2020     0.5730 C.ar  1 <1>  -0.1500 
 27 O       -1.4230     3.4880    -0.1110 O.3   1 <1>  -0.5600 
 28 C        8.9970     4.0960     1.4820 C.ar  1 <1>  -0.1500 
 29 H        0.6280    -2.1580     2.3910 H     1 <1>   0.3700 
 30 H        3.6610    -0.8310     0.7310 H     1 <1>   0.0800 
 31 H        1.7060    -4.0920     1.8670 H     1 <1>   0.0800 
 32 H        3.1640    -3.1790     1.5840 H     1 <1>   0.0800 
 33 H        2.0420     1.5370    -0.0850 H     1 <1>   0.3700 
 34 H        3.1530    -0.6390    -1.7770 H     1 <1>   0.0800 
 35 H        1.4960    -0.9640    -1.3570 H     1 <1>   0.0800 
 36 H        0.9180    -3.3780    -0.4520 H     1 <1>   0.0800 
 37 H        2.2130    -4.5220    -0.3710 H     1 <1>   0.0800 
 38 H        3.8800    -2.7560    -0.7840 H     1 <1>   0.0800 
 39 H        2.7540    -2.9660    -2.0810 H     1 <1>   0.0800 
 40 H        0.4930     4.2590     1.6660 H     1 <1>   0.0800 
 41 H        1.1180     2.6500     1.8870 H     1 <1>   0.0800 
 42 H        1.2260     4.2230    -2.0010 H     1 <1>   0.0800 
 43 H        0.5410     5.2360    -0.7590 H     1 <1>   0.0800 
 44 H        6.1780     5.7200     2.3470 H     1 <1>   0.1500 
 45 H        6.7030     2.5180    -0.4070 H     1 <1>   0.1500 
 46 H       -1.3890     2.7130     1.7460 H     1 <1>   0.0800 
 47 H       -0.6850     1.7100     0.5020 H     1 <1>   0.0800 
 48 H       -0.6090     2.5990    -1.7330 H     1 <1>   0.0800 
 49 H       -1.2860     4.1920    -1.9870 H     1 <1>   0.0800 
 50 H        8.5810     5.7010     2.8270 H     1 <1>   0.1500 
 51 H        9.0990     2.4930     0.0750 H     1 <1>   0.1500 
 52 H       10.0520     4.0850     1.6920 H     1 <1>   0.1500 
@<TRIPOS>BOND
  1   1   2  2   
  2   2   3  am  
  3   2   4  1   
  4   3   5  1   
  5   3  29  1   
  6   4   6  1   
  7   4   7  1   
  8   4  30  1   
  9   5   8  1   
 10   5  31  1   
 11   5  32  1   
 12   6   9  am  
 13   6  33  1   
 14   7  10  1   
 15   7  34  1   
 16   7  35  1   
 17   8  10  1   
 18   8  36  1   
 19   8  37  1   
 20   9  11  2   
 21   9  12  1   
 22  10  38  1   
 23  10  39  1   
 24  12  13  1   
 25  12  14  2   
 26  13  15  2   
 27  13  16  1   
 28  14  17  1   
 29  14  18  1   
 30  15  17  1   
 31  16  19  1   
 32  16  20  1   
 33  18  21  ar  
 34  18  22  ar  
 35  19  23  1   
 36  19  40  1   
 37  19  41  1   
 38  20  24  1   
 39  20  42  1   
 40  20  43  1   
 41  21  25  ar  
 42  21  44  1   
 43  22  26  ar  
 44  22  45  1   
 45  23  27  1   
 46  23  46  1   
 47  23  47  1   
 48  24  27  1   
 49  24  48  1   
 50  24  49  1   
 51  25  28  ar  
 52  25  50  1   
 53  26  28  ar  
 54  26  51  1   
 55  28  52  1   
@<TRIPOS>SUBSTRUCTURE
  1 ****   9 GROUP 4 **** **** 0

# MOE 2024.06 (io_trps.svl 2023.06)
