@<TRIPOS>MOLECULE
NONAME
52 55 1 0 0 
SMALL
USER_CHARGES


@<TRIPOS>ATOM
  1 O       -1.3430     0.6850     2.7360 O.2   1 <1>  -0.5700 
  2 C       -1.9720     0.9730     1.7410 C.2   1 <1>   0.5690 
  3 N       -3.2180     0.3970     1.5370 N.am  1 <1>  -0.6600 
  4 C       -1.3440     1.9910     0.7440 C.3   1 <1>   0.3410 
  5 C       -4.1670     0.6560     0.4180 C.3   1 <1>   0.1400 
  6 C       -3.7770    -0.5780     2.5240 C.3   1 <1>   0.1400 
  7 O        0.0190     2.2570     1.0780 O.3   1 <1>  -0.2170 
  8 C       -1.2240     1.4460    -0.6900 C.3   1 <1>  -0.0990 
  9 C       -2.0430     3.3640     0.7960 C.3   1 <1>  -0.2400 
 10 C       -4.4330    -0.6540    -0.3280 C.3   1 <1>  -0.1600 
 11 C       -4.0510    -1.9090     1.8210 C.3   1 <1>  -0.1600 
 12 N        0.8390     2.1320     0.0470 N.2   1 <1>  -0.5130 
 13 C        0.2270     1.6910    -0.9470 C.2   1 <1>   0.3280 
 14 C       -4.9840    -1.7410     0.6130 C.3   1 <1>   0.4240 
 15 C        0.8160     1.4030    -2.3090 C.3   1 <1>  -0.1790 
 16 O       -6.2000    -1.2720     1.1460 O.3   1 <1>  -0.5600 
 17 C       -5.1570    -3.0850    -0.1280 C.ar  1 <1>  -0.1440 
 18 C       -7.3560    -1.4620     0.3890 C.3   1 <1>   0.1200 
 19 C       -6.4130    -3.6620    -0.2870 C.ar  1 <1>  -0.1440 
 20 C       -4.0530    -3.7460    -0.6570 C.ar  1 <1>  -0.1500 
 21 C       -7.6310    -2.9580     0.2740 C.3   1 <1>  -0.0170 
 22 C       -6.5590    -4.8690    -0.9520 C.ar  1 <1>  -0.1500 
 23 C       -4.1970    -4.9490    -1.3230 C.ar  1 <1>  -0.1500 
 24 C       -5.4470    -5.5210    -1.4750 C.ar  1 <1>   0.0820 
 25 O       -5.5030    -6.7030    -2.1390 O.3   1 <1>  -0.3620 
 26 C       -6.7250    -7.3790    -2.3310 C.3   1 <1>   0.0400 
 27 H       -3.7880     1.3850    -0.2690 H     1 <1>   0.0800 
 28 H       -5.0900     1.0370     0.8240 H     1 <1>   0.0800 
 29 H       -4.6920    -0.1820     2.9330 H     1 <1>   0.0800 
 30 H       -3.0980    -0.7420     3.3420 H     1 <1>   0.0800 
 31 H       -1.8430     1.9800    -1.3860 H     1 <1>   0.0800 
 32 H       -1.4290     0.3930    -0.7320 H     1 <1>   0.0800 
 33 H       -2.0040     3.7420     1.8020 H     1 <1>   0.0800 
 34 H       -3.0730     3.2950     0.5060 H     1 <1>   0.0800 
 35 H       -1.5460     4.0600     0.1440 H     1 <1>   0.0800 
 36 H       -3.5120    -0.9920    -0.7630 H     1 <1>   0.0800 
 37 H       -5.1200    -0.4880    -1.1350 H     1 <1>   0.0800 
 38 H       -4.4940    -2.6020     2.5120 H     1 <1>   0.0800 
 39 H       -3.1090    -2.3210     1.5130 H     1 <1>   0.0800 
 40 H        0.6930     0.3630    -2.5490 H     1 <1>   0.0800 
 41 H        1.8650     1.6370    -2.3050 H     1 <1>   0.0800 
 42 H        0.3290     2.0040    -3.0550 H     1 <1>   0.0800 
 43 H       -7.2230    -1.0180    -0.5810 H     1 <1>   0.0800 
 44 H       -8.1660    -0.9680     0.8950 H     1 <1>   0.0800 
 45 H       -3.0660    -3.3320    -0.5560 H     1 <1>   0.1500 
 46 H       -8.4800    -3.1120    -0.3660 H     1 <1>   0.0800 
 47 H       -7.8630    -3.3540     1.2470 H     1 <1>   0.0800 
 48 H       -7.5400    -5.2900    -1.0550 H     1 <1>   0.1500 
 49 H       -3.3400    -5.4550    -1.7280 H     1 <1>   0.1500 
 50 H       -6.5230    -8.2870    -2.8690 H     1 <1>   0.0800 
 51 H       -7.3840    -6.7520    -2.9050 H     1 <1>   0.0800 
 52 H       -7.1500    -7.6100    -1.3700 H     1 <1>   0.0800 
@<TRIPOS>BOND
  1   1   2  2   
  2   2   3  am  
  3   2   4  1   
  4   3   5  1   
  5   3   6  1   
  6   4   7  1   
  7   4   8  1   
  8   4   9  1   
  9   5  10  1   
 10   5  27  1   
 11   5  28  1   
 12   6  11  1   
 13   6  29  1   
 14   6  30  1   
 15   7  12  1   
 16   8  13  1   
 17   8  31  1   
 18   8  32  1   
 19   9  33  1   
 20   9  34  1   
 21   9  35  1   
 22  10  14  1   
 23  10  36  1   
 24  10  37  1   
 25  11  14  1   
 26  11  38  1   
 27  11  39  1   
 28  12  13  2   
 29  13  15  1   
 30  14  16  1   
 31  14  17  1   
 32  15  40  1   
 33  15  41  1   
 34  15  42  1   
 35  16  18  1   
 36  17  19  ar  
 37  17  20  ar  
 38  18  21  1   
 39  18  43  1   
 40  18  44  1   
 41  19  21  1   
 42  19  22  ar  
 43  20  23  ar  
 44  20  45  1   
 45  21  46  1   
 46  21  47  1   
 47  22  24  ar  
 48  22  48  1   
 49  23  24  ar  
 50  23  49  1   
 51  24  25  1   
 52  25  26  1   
 53  26  50  1   
 54  26  51  1   
 55  26  52  1   
@<TRIPOS>SUBSTRUCTURE
  1 ****  10 GROUP 4 **** **** 0

# MOE 2024.06 (io_trps.svl 2023.06)
