@<TRIPOS>MOLECULE
NONAME
42 44 1 0 0 
SMALL
USER_CHARGES


@<TRIPOS>ATOM
  1 O        1.4560     0.5300     2.2060 O.3   1 <1>  -0.6800 
  2 C        1.5060    -0.0520     0.9440 C.3   1 <1>   0.2000 
  3 C        2.1870    -1.4110     1.0770 C.3   1 <1>  -0.0800 
  4 C        2.4900     0.7480     0.0860 C.3   1 <1>   0.3430 
  5 C        3.6730    -1.0460     1.1850 C.3   1 <1>   0.3430 
  6 C        1.9040    -2.3210    -0.1360 C.3   1 <1>  -0.0170 
  7 N        3.8500     0.2450     0.4570 N.4   1 <1>  -0.9590 
  8 C        2.8070    -3.5440    -0.1180 C.ar  1 <1>  -0.1440 
  9 C        4.5910     1.2410     1.2670 C.3   1 <1>   0.4860 
 10 C        3.8150    -3.7200    -1.0460 C.ar  1 <1>  -0.1500 
 11 C        2.6720    -4.5370     0.8320 C.ar  1 <1>  -0.1500 
 12 C        4.9240     2.4230     0.3830 C.ar  1 <1>  -0.1440 
 13 C        4.6290    -4.8380    -0.9690 C.ar  1 <1>   0.1600 
 14 C        3.5400    -5.6160     0.8220 C.ar  1 <1>   0.1600 
 15 C        5.6370     2.2350    -0.8030 C.ar  1 <1>   0.4100 
 16 C        4.5150     3.6950     0.7210 C.ar  1 <1>  -0.1500 
 17 N        4.5210    -5.7810    -0.0500 N.ar  1 <1>  -0.6200 
 18 N        5.9350     3.1900    -1.6520 N.ar  1 <1>  -0.6200 
 19 N        6.0850     1.0190    -1.2120 N.pl3 1 <1>  -0.9000 
 20 C        4.8390     4.7090    -0.1590 C.ar  1 <1>  -0.1500 
 21 C        5.5370     4.4060    -1.3140 C.ar  1 <1>   0.1600 
 22 H        0.7060     0.1770     2.7310 H     1 <1>   0.4000 
 23 H        0.5120    -0.0830     0.5300 H     1 <1>   0.0800 
 24 H        1.8670    -1.9240     1.9670 H     1 <1>   0.0800 
 25 H        2.3830     1.8070     0.2570 H     1 <1>   0.0800 
 26 H        2.3060     0.5410    -0.9550 H     1 <1>   0.0800 
 27 H        4.3070    -1.8180     0.7790 H     1 <1>   0.0800 
 28 H        3.9170    -0.9090     2.2260 H     1 <1>   0.0800 
 29 H        2.0540    -1.7880    -1.0590 H     1 <1>   0.0800 
 30 H        0.8770    -2.6450    -0.1160 H     1 <1>   0.0800 
 31 H        4.4320     0.1330    -0.3960 H     1 <1>   0.4500 
 32 H        3.9910     1.5560     2.1060 H     1 <1>   0.0800 
 33 H        5.5060     0.8090     1.6360 H     1 <1>   0.0800 
 34 H        3.9810    -3.0080    -1.8340 H     1 <1>   0.1500 
 35 H        1.9030    -4.4910     1.5810 H     1 <1>   0.1500 
 36 H        5.4100    -4.9640    -1.7010 H     1 <1>   0.1500 
 37 H        3.4240    -6.3830     1.5690 H     1 <1>   0.1500 
 38 H        3.9670     3.9100     1.6240 H     1 <1>   0.1500 
 39 H        6.2260     1.0740    -2.2290 H     1 <1>   0.4000 
 40 H        7.0180     0.8210    -0.8380 H     1 <1>   0.4000 
 41 H        4.5520     5.7260     0.0470 H     1 <1>   0.1500 
 42 H        5.7810     5.2060    -1.9950 H     1 <1>   0.1500 
@<TRIPOS>BOND
  1   1   2  1   
  2   1  22  1   
  3   2   3  1   
  4   2   4  1   
  5   2  23  1   
  6   3   5  1   
  7   3   6  1   
  8   3  24  1   
  9   4   7  1   
 10   4  25  1   
 11   4  26  1   
 12   5   7  1   
 13   5  27  1   
 14   5  28  1   
 15   6   8  1   
 16   6  29  1   
 17   6  30  1   
 18   7   9  1   
 19   7  31  1   
 20   8  10  ar  
 21   8  11  ar  
 22   9  12  1   
 23   9  32  1   
 24   9  33  1   
 25  10  13  ar  
 26  10  34  1   
 27  11  14  ar  
 28  11  35  1   
 29  12  15  ar  
 30  12  16  ar  
 31  13  17  ar  
 32  13  36  1   
 33  14  17  ar  
 34  14  37  1   
 35  15  18  ar  
 36  15  19  1   
 37  16  20  ar  
 38  16  38  1   
 39  18  21  ar  
 40  19  39  1   
 41  19  40  1   
 42  20  21  ar  
 43  20  41  1   
 44  21  42  1   
@<TRIPOS>SUBSTRUCTURE
  1 ****   7 GROUP 4 **** **** 0

# MOE 2024.06 (io_trps.svl 2023.06)
