@<TRIPOS>MOLECULE
NONAME
46 48 1 0 0 
SMALL
USER_CHARGES


@<TRIPOS>ATOM
  1 O       -0.7030     0.0060     1.5730 O.2   1 <1>  -0.5700 
  2 C       -1.6700     0.4940     1.0420 C.2   1 <1>   0.5690 
  3 N       -2.9130    -0.0110     1.2250 N.am  1 <1>  -0.7300 
  4 C       -1.4860     1.6980     0.1230 C.3   1 <1>  -0.0190 
  5 C       -3.2130    -1.2830     1.9060 C.3   1 <1>   0.2840 
  6 C       -2.3080     2.9160     0.5870 C.3   1 <1>  -0.1600 
  7 C       -1.7880     1.3410    -1.3540 C.3   1 <1>  -0.1600 
  8 C       -4.1970    -2.0560     1.0410 C.ar  1 <1>  -0.1440 
  9 C       -1.9940     4.1750    -0.2470 C.3   1 <1>   0.2000 
 10 C       -2.1530     2.5610    -2.2230 C.3   1 <1>  -0.1600 
 11 C       -3.7690    -2.6810    -0.1600 C.ar  1 <1>   0.0000 
 12 C       -5.5070    -2.1300     1.4380 C.ar  1 <1>  -0.1500 
 13 O       -3.1640     4.9530    -0.3150 O.3   1 <1>  -0.5600 
 14 C       -1.5140     3.8450    -1.6860 C.3   1 <1>   0.2000 
 15 C       -4.7290    -3.3700    -0.9380 C.ar  1 <1>   0.0000 
 16 C       -2.4360    -2.6590    -0.6370 C.ar  1 <1>  -0.1500 
 17 C       -6.4490    -2.8180     0.6680 C.ar  1 <1>  -0.1500 
 18 C       -3.4030     5.7610     0.7960 C.3   1 <1>   0.0400 
 19 O       -1.8600     4.8800    -2.5300 O.3   1 <1>  -0.6800 
 20 C       -6.0650    -3.4220    -0.4940 C.ar  1 <1>  -0.1500 
 21 C       -4.3290    -3.9890    -2.1400 C.ar  1 <1>  -0.1500 
 22 C       -2.0760    -3.2690    -1.8060 C.ar  1 <1>  -0.1500 
 23 C       -3.0330    -3.9420    -2.5690 C.ar  1 <1>  -0.1500 
 24 H       -3.6960     0.3680     0.6910 H     1 <1>   0.3700 
 25 H       -0.4470     1.9740     0.1870 H     1 <1>   0.0800 
 26 H       -2.3140    -1.8550     2.0630 H     1 <1>   0.0800 
 27 H       -3.6430    -1.0710     2.8690 H     1 <1>   0.0800 
 28 H       -2.0960     3.1150     1.6220 H     1 <1>   0.0800 
 29 H       -3.3540     2.6810     0.4930 H     1 <1>   0.0800 
 30 H       -0.9190     0.8570    -1.7660 H     1 <1>   0.0800 
 31 H       -2.5970     0.6340    -1.4130 H     1 <1>   0.0800 
 32 H       -1.2190     4.7520     0.2290 H     1 <1>   0.0800 
 33 H       -3.2230     2.6860    -2.2190 H     1 <1>   0.0800 
 34 H       -1.8370     2.3900    -3.2370 H     1 <1>   0.0800 
 35 H       -5.8420    -1.6610     2.3470 H     1 <1>   0.1500 
 36 H       -0.4430     3.7450    -1.7090 H     1 <1>   0.0800 
 37 H       -1.6800    -2.1510    -0.0680 H     1 <1>   0.1500 
 38 H       -7.4700    -2.8620     1.0030 H     1 <1>   0.1500 
 39 H       -4.3150     6.3050     0.6230 H     1 <1>   0.0800 
 40 H       -2.5870     6.4540     0.9140 H     1 <1>   0.0800 
 41 H       -3.5100     5.1480     1.6730 H     1 <1>   0.0800 
 42 H       -2.6810     5.2690    -2.1510 H     1 <1>   0.4000 
 43 H       -6.7830    -3.9520    -1.0920 H     1 <1>   0.1500 
 44 H       -5.0710    -4.5070    -2.7200 H     1 <1>   0.1500 
 45 H       -1.0570    -3.2400    -2.1510 H     1 <1>   0.1500 
 46 H       -2.7340    -4.4180    -3.4870 H     1 <1>   0.1500 
@<TRIPOS>BOND
  1   1   2  2   
  2   2   3  am  
  3   2   4  1   
  4   3   5  1   
  5   3  24  1   
  6   4   6  1   
  7   4   7  1   
  8   4  25  1   
  9   5   8  1   
 10   5  26  1   
 11   5  27  1   
 12   6   9  1   
 13   6  28  1   
 14   6  29  1   
 15   7  10  1   
 16   7  30  1   
 17   7  31  1   
 18   8  11  ar  
 19   8  12  ar  
 20   9  13  1   
 21   9  14  1   
 22   9  32  1   
 23  10  14  1   
 24  10  33  1   
 25  10  34  1   
 26  11  15  ar  
 27  11  16  ar  
 28  12  17  ar  
 29  12  35  1   
 30  13  18  1   
 31  14  19  1   
 32  14  36  1   
 33  15  20  ar  
 34  15  21  ar  
 35  16  22  ar  
 36  16  37  1   
 37  17  20  ar  
 38  17  38  1   
 39  18  39  1   
 40  18  40  1   
 41  18  41  1   
 42  19  42  1   
 43  20  43  1   
 44  21  23  ar  
 45  21  44  1   
 46  22  23  ar  
 47  22  45  1   
 48  23  46  1   
@<TRIPOS>SUBSTRUCTURE
  1 ****   3 GROUP 4 **** **** 0

# MOE 2024.06 (io_trps.svl 2023.06)
