@<TRIPOS>MOLECULE
NONAME
47 49 1 0 0 
SMALL
USER_CHARGES


@<TRIPOS>ATOM
  1 O       -0.6210     0.4630     1.4960 O.2   1 <1>  -0.5700 
  2 C       -1.4950     1.0770     0.9140 C.2   1 <1>   0.5440 
  3 N       -2.6150     0.3930     0.5000 N.am  1 <1>  -0.6600 
  4 C       -1.3370     2.4930     0.6570 C.ar  1 <1>   0.0860 
  5 C       -3.5670     0.8850    -0.5310 C.3   1 <1>   0.1400 
  6 C       -2.7610    -1.0750     0.6720 C.3   1 <1>   0.1400 
  7 C       -0.2500     2.9710    -0.0680 C.ar  1 <1>  -0.1500 
  8 C       -2.2610     3.4280     1.1210 C.ar  1 <1>  -0.1500 
  9 C       -4.5720    -0.2530    -0.6990 C.3   1 <1>   0.2000 
 10 C       -3.7430    -1.5120    -0.4210 C.3   1 <1>  -0.0800 
 11 C       -0.0850     4.3160    -0.3430 C.ar  1 <1>   0.0830 
 12 C       -2.1200     4.7770     0.8520 C.ar  1 <1>  -0.1500 
 13 O       -5.5460    -0.1140     0.2780 O.3   1 <1>  -0.6800 
 14 C       -4.5640    -2.7650    -0.0610 C.3   1 <1>   0.0200 
 15 O        1.0250     4.6320    -1.0640 O.3   1 <1>  -0.3630 
 16 C       -1.0380     5.2430     0.1070 C.ar  1 <1>   0.0830 
 17 C       -3.7130    -4.0180     0.0690 C.2   1 <1>  -0.0400 
 18 C        1.7860     5.7710    -0.7280 C.3   1 <1>   0.0400 
 19 O       -0.9000     6.5620    -0.2010 O.3   1 <1>  -0.3630 
 20 O       -4.2780    -5.1160     0.4940 O.3   1 <1>  -0.0190 
 21 C       -2.4200    -4.2920    -0.1700 C.2   1 <1>  -0.1500 
 22 C       -1.8630     7.5300     0.1510 C.3   1 <1>   0.0400 
 23 N       -3.4360    -6.1060     0.5570 N.2   1 <1>  -0.4100 
 24 C       -2.3070    -5.6380     0.1630 C.2   1 <1>   0.1080 
 25 C       -1.0330    -6.4500     0.0770 C.3   1 <1>  -0.0590 
 26 H       -4.0520     1.7980    -0.2330 H     1 <1>   0.0800 
 27 H       -3.0340     1.0440    -1.4520 H     1 <1>   0.0800 
 28 H       -1.8090    -1.5690     0.5720 H     1 <1>   0.0800 
 29 H       -3.1580    -1.2730     1.6530 H     1 <1>   0.0800 
 30 H        0.4880     2.2730    -0.4220 H     1 <1>   0.1500 
 31 H       -3.0980     3.0850     1.7030 H     1 <1>   0.1500 
 32 H       -5.0510    -0.2570    -1.6630 H     1 <1>   0.0800 
 33 H       -3.1720    -1.7230    -1.3080 H     1 <1>   0.0800 
 34 H       -2.8650     5.4490     1.2320 H     1 <1>   0.1500 
 35 H       -5.1070     0.0300     1.1410 H     1 <1>   0.4000 
 36 H       -5.3060    -2.9360    -0.8200 H     1 <1>   0.0800 
 37 H       -5.0830    -2.6110     0.8690 H     1 <1>   0.0800 
 38 H        2.7860     5.6260    -1.0930 H     1 <1>   0.0800 
 39 H        1.7950     5.8870     0.3420 H     1 <1>   0.0800 
 40 H        1.3490     6.6320    -1.2000 H     1 <1>   0.0800 
 41 H       -1.6260    -3.6650    -0.5300 H     1 <1>   0.1500 
 42 H       -1.5360     8.4800    -0.2340 H     1 <1>   0.0800 
 43 H       -1.9360     7.5770     1.2230 H     1 <1>   0.0800 
 44 H       -2.8060     7.2630    -0.2920 H     1 <1>   0.0800 
 45 H       -0.6820    -6.4710    -0.9380 H     1 <1>   0.0800 
 46 H       -1.2170    -7.4570     0.4030 H     1 <1>   0.0800 
 47 H       -0.2790    -6.0130     0.7050 H     1 <1>   0.0800 
@<TRIPOS>BOND
  1   1   2  2   
  2   2   3  am  
  3   2   4  1   
  4   3   5  1   
  5   3   6  1   
  6   4   7  ar  
  7   4   8  ar  
  8   5   9  1   
  9   5  26  1   
 10   5  27  1   
 11   6  10  1   
 12   6  28  1   
 13   6  29  1   
 14   7  11  ar  
 15   7  30  1   
 16   8  12  ar  
 17   8  31  1   
 18   9  10  1   
 19   9  13  1   
 20   9  32  1   
 21  10  14  1   
 22  10  33  1   
 23  11  15  1   
 24  11  16  ar  
 25  12  16  ar  
 26  12  34  1   
 27  13  35  1   
 28  14  17  1   
 29  14  36  1   
 30  14  37  1   
 31  15  18  1   
 32  16  19  1   
 33  17  20  1   
 34  17  21  2   
 35  18  38  1   
 36  18  39  1   
 37  18  40  1   
 38  19  22  1   
 39  20  23  1   
 40  21  24  1   
 41  21  41  1   
 42  22  42  1   
 43  22  43  1   
 44  22  44  1   
 45  23  24  2   
 46  24  25  1   
 47  25  45  1   
 48  25  46  1   
 49  25  47  1   
@<TRIPOS>SUBSTRUCTURE
  1 ****   3 GROUP 4 **** **** 0

# MOE 2024.06 (io_trps.svl 2023.06)
