@<TRIPOS>MOLECULE
NONAME
51 53 1 0 0 
SMALL
USER_CHARGES


@<TRIPOS>ATOM
  1 O       -0.5700     0.4180    -1.5610 O.2   1 <1>  -0.5700 
  2 C       -1.1450     0.9420    -0.6350 C.2   1 <1>   0.5690 
  3 N       -2.2930     0.4030    -0.1150 N.am  1 <1>  -0.6600 
  4 C       -0.5760     2.2300    -0.0570 C.3   1 <1>  -0.0990 
  5 C       -2.8280    -0.8960    -0.6300 C.3   1 <1>   0.1400 
  6 C       -3.1420     1.0410     0.9310 C.3   1 <1>   0.1400 
  7 C        0.7340     2.6790    -0.7180 C.3   1 <1>   0.0210 
  8 C       -3.9890    -0.6960    -1.6170 C.3   1 <1>   0.1400 
  9 C       -4.1540     2.0250     0.3240 C.3   1 <1>  -0.1600 
 10 C        1.2310     3.9620    -0.0800 C.2   1 <1>  -0.1810 
 11 N       -5.0810     0.1510    -1.0390 N.am  1 <1>  -0.6600 
 12 C       -4.7620     1.6050    -1.0210 C.3   1 <1>   0.1400 
 13 C        0.7120     5.2400    -0.2680 C.2   1 <1>   0.1390 
 14 C        2.2540     4.1330     0.7840 C.2   1 <1>  -0.3020 
 15 C       -6.2600    -0.3090    -0.5140 C.2   1 <1>   0.5690 
 16 N        1.3480     6.1370     0.4220 N.2   1 <1>  -0.7070 
 17 N        2.3070     5.4490     1.0710 N.pl3 1 <1>   0.3000 
 18 O       -7.0650     0.4450    -0.0190 O.2   1 <1>  -0.5700 
 19 C       -6.5710    -1.8020    -0.5230 C.3   1 <1>  -0.0990 
 20 C       -7.9000    -2.1740     0.1610 C.3   1 <1>  -0.1600 
 21 C       -8.1190    -3.6940     0.1720 C.3   1 <1>   0.0960 
 22 N       -9.4330    -4.0460     0.7450 N.pl3 1 <1>   0.3140 
 23 N      -10.3440    -4.7260     0.0660 N.2   1 <1>  -0.7070 
 24 C       -9.9120    -3.7940     1.9670 C.2   1 <1>   0.0360 
 25 C      -11.3070    -4.8320     0.9230 C.2   1 <1>   0.3660 
 26 N      -11.0930    -4.2730     2.1210 N.2   1 <1>  -0.5650 
 27 H       -0.3950     2.0840     0.9910 H     1 <1>   0.0800 
 28 H       -1.3050     3.0080    -0.1720 H     1 <1>   0.0800 
 29 H       -3.1590    -1.5000     0.1960 H     1 <1>   0.0800 
 30 H       -2.0440    -1.4440    -1.1250 H     1 <1>   0.0800 
 31 H       -2.5310     1.5460     1.6580 H     1 <1>   0.0800 
 32 H       -3.6840     0.2720     1.4560 H     1 <1>   0.0800 
 33 H        0.5820     2.8380    -1.7710 H     1 <1>   0.0800 
 34 H        1.4790     1.9100    -0.6020 H     1 <1>   0.0800 
 35 H       -4.3690    -1.6570    -1.9100 H     1 <1>   0.0800 
 36 H       -3.6060    -0.2270    -2.5080 H     1 <1>   0.0800 
 37 H       -3.6870     2.9840     0.2000 H     1 <1>   0.0800 
 38 H       -4.9540     2.1630     1.0300 H     1 <1>   0.0800 
 39 H       -4.0680     1.8290    -1.8120 H     1 <1>   0.0800 
 40 H       -5.6570     2.1750    -1.2050 H     1 <1>   0.0800 
 41 H       -0.1210     5.4720    -0.9100 H     1 <1>   0.1500 
 42 H        2.9320     3.4110     1.2000 H     1 <1>   0.1500 
 43 H        2.9780     5.9070     1.6990 H     1 <1>   0.2700 
 44 H       -5.7660    -2.3110    -0.0260 H     1 <1>   0.0800 
 45 H       -6.6030    -2.1290    -1.5470 H     1 <1>   0.0800 
 46 H       -8.7100    -1.7000    -0.3690 H     1 <1>   0.0800 
 47 H       -7.8930    -1.8010     1.1710 H     1 <1>   0.0800 
 48 H       -7.3570    -4.1800     0.7510 H     1 <1>   0.0800 
 49 H       -8.0830    -4.0770    -0.8320 H     1 <1>   0.0800 
 50 H       -9.3590    -3.2540     2.7140 H     1 <1>   0.1500 
 51 H      -12.2360    -5.3360     0.7090 H     1 <1>   0.1500 
@<TRIPOS>BOND
  1   1   2  2   
  2   2   3  am  
  3   2   4  1   
  4   3   5  1   
  5   3   6  1   
  6   4   7  1   
  7   4  27  1   
  8   4  28  1   
  9   5   8  1   
 10   5  29  1   
 11   5  30  1   
 12   6   9  1   
 13   6  31  1   
 14   6  32  1   
 15   7  10  1   
 16   7  33  1   
 17   7  34  1   
 18   8  11  1   
 19   8  35  1   
 20   8  36  1   
 21   9  12  1   
 22   9  37  1   
 23   9  38  1   
 24  10  13  1   
 25  10  14  2   
 26  11  12  1   
 27  11  15  am  
 28  12  39  1   
 29  12  40  1   
 30  13  16  2   
 31  13  41  1   
 32  14  17  1   
 33  14  42  1   
 34  15  18  2   
 35  15  19  1   
 36  16  17  1   
 37  17  43  1   
 38  19  20  1   
 39  19  44  1   
 40  19  45  1   
 41  20  21  1   
 42  20  46  1   
 43  20  47  1   
 44  21  22  1   
 45  21  48  1   
 46  21  49  1   
 47  22  23  1   
 48  22  24  1   
 49  23  25  2   
 50  24  26  2   
 51  24  50  1   
 52  25  26  1   
 53  25  51  1   
@<TRIPOS>SUBSTRUCTURE
  1 ****  11 GROUP 4 **** **** 0

# MOE 2024.06 (io_trps.svl 2023.06)
