@<TRIPOS>MOLECULE
NONAME
51 53 1 0 0 
SMALL
USER_CHARGES


@<TRIPOS>ATOM
  1 O        3.7640     1.9400     3.0290 O.3   1 <1>  -0.6800 
  2 C        3.2380     1.0760     2.0850 C.3   1 <1>   0.1200 
  3 C        4.4060     0.4620     1.3020 C.3   1 <1>   0.3430 
  4 N        3.9430    -0.5490     0.3060 N.4   1 <1>  -0.9590 
  5 C        3.4750    -1.8280     0.8960 C.3   1 <1>   0.5240 
  6 C        4.9120    -0.7760    -0.7880 C.3   1 <1>   0.5240 
  7 C        2.4950    -2.4380    -0.0980 C.2   1 <1>   0.0460 
  8 C        4.8940     0.4420    -1.6810 C.2   1 <1>  -0.1810 
  9 N        1.6530    -1.6270    -0.7760 N.2   1 <1>  -0.5650 
 10 C        2.3160    -3.7310    -0.4560 C.2   1 <1>  -0.3320 
 11 C        5.8250     1.4840    -1.6470 C.2   1 <1>   0.2350 
 12 C        4.0140     0.7710    -2.6490 C.2   1 <1>  -0.3020 
 13 C        0.9720    -2.4400    -1.5180 C.2   1 <1>   0.0360 
 14 N        1.3270    -3.7340    -1.3720 N.pl3 1 <1>   0.0330 
 15 C        3.0000    -5.0090     0.0020 C.3   1 <1>  -0.0600 
 16 N        5.5260     2.3960    -2.5340 N.2   1 <1>  -0.7070 
 17 C        6.9480     1.5370    -0.7340 C.ar  1 <1>   0.0540 
 18 N        4.4210     1.9520    -3.1530 N.pl3 1 <1>   0.3000 
 19 C        7.0620     2.5080     0.2680 C.ar  1 <1>  -0.1430 
 20 C        7.9410     0.5620    -0.8230 C.ar  1 <1>  -0.1500 
 21 C        8.1130     2.4530     1.1670 C.ar  1 <1>  -0.1500 
 22 C        6.0590     3.6500     0.3840 C.3   1 <1>  -0.0970 
 23 C        8.9910     0.5090     0.0750 C.ar  1 <1>  -0.1430 
 24 C        9.0680     1.4570     1.0790 C.ar  1 <1>  -0.1500 
 25 C       10.0640    -0.5600    -0.0330 C.3   1 <1>  -0.0970 
 26 H        3.0580     2.3980     3.5340 H     1 <1>   0.4000 
 27 H        2.5970     1.6440     1.4320 H     1 <1>   0.0800 
 28 H        2.6710     0.3260     2.6070 H     1 <1>   0.0800 
 29 H        5.1030     0.0110     1.9890 H     1 <1>   0.0800 
 30 H        4.9100     1.2620     0.7900 H     1 <1>   0.0800 
 31 H        3.0990    -0.2030    -0.1860 H     1 <1>   0.4500 
 32 H        2.9510    -1.6420     1.8170 H     1 <1>   0.0800 
 33 H        4.2970    -2.4970     1.0870 H     1 <1>   0.0800 
 34 H        4.6140    -1.6330    -1.3710 H     1 <1>   0.0800 
 35 H        5.9000    -0.9480    -0.3930 H     1 <1>   0.0800 
 36 H        3.1400     0.2530    -3.0080 H     1 <1>   0.1500 
 37 H        0.1900    -2.1390    -2.1960 H     1 <1>   0.1500 
 38 H        0.9160    -4.5410    -1.8540 H     1 <1>   0.2700 
 39 H        3.7480    -4.8040     0.7460 H     1 <1>   0.0800 
 40 H        3.4750    -5.4970    -0.8320 H     1 <1>   0.0800 
 41 H        2.2770    -5.6850     0.4270 H     1 <1>   0.0800 
 42 H        3.9720     2.4790    -3.9140 H     1 <1>   0.2700 
 43 H        7.8880    -0.1570    -1.6200 H     1 <1>   0.1500 
 44 H        8.2030     3.1950     1.9430 H     1 <1>   0.1500 
 45 H        5.0500     3.2980     0.2790 H     1 <1>   0.0800 
 46 H        6.2480     4.3680    -0.3960 H     1 <1>   0.0800 
 47 H        6.1460     4.1470     1.3330 H     1 <1>   0.0800 
 48 H        9.8790     1.4340     1.7870 H     1 <1>   0.1500 
 49 H        9.9420    -1.1420    -0.9290 H     1 <1>   0.0800 
 50 H       10.0160    -1.2170     0.8170 H     1 <1>   0.0800 
 51 H       11.0360    -0.1000    -0.0590 H     1 <1>   0.0800 
@<TRIPOS>BOND
  1   1   2  1   
  2   1  26  1   
  3   2   3  1   
  4   2  27  1   
  5   2  28  1   
  6   3   4  1   
  7   3  29  1   
  8   3  30  1   
  9   4   5  1   
 10   4   6  1   
 11   4  31  1   
 12   5   7  1   
 13   5  32  1   
 14   5  33  1   
 15   6   8  1   
 16   6  34  1   
 17   6  35  1   
 18   7   9  1   
 19   7  10  2   
 20   8  11  1   
 21   8  12  2   
 22   9  13  2   
 23  10  14  1   
 24  10  15  1   
 25  11  16  2   
 26  11  17  1   
 27  12  18  1   
 28  12  36  1   
 29  13  14  1   
 30  13  37  1   
 31  14  38  1   
 32  15  39  1   
 33  15  40  1   
 34  15  41  1   
 35  16  18  1   
 36  17  19  ar  
 37  17  20  ar  
 38  18  42  1   
 39  19  21  ar  
 40  19  22  1   
 41  20  23  ar  
 42  20  43  1   
 43  21  24  ar  
 44  21  44  1   
 45  22  45  1   
 46  22  46  1   
 47  22  47  1   
 48  23  24  ar  
 49  23  25  1   
 50  24  48  1   
 51  25  49  1   
 52  25  50  1   
 53  25  51  1   
@<TRIPOS>SUBSTRUCTURE
  1 ****   6 GROUP 4 **** **** 0

# MOE 2024.06 (io_trps.svl 2023.06)
