@<TRIPOS>MOLECULE
NONAME
47 49 1 0 0 
SMALL
USER_CHARGES


@<TRIPOS>ATOM
  1 O        0.8050    -1.2880    -2.5510 O.2   1 <1>  -0.5700 
  2 C        1.5030    -1.7230    -1.6670 C.2   1 <1>   0.5690 
  3 N        1.2280    -1.5530    -0.3380 N.am  1 <1>  -0.6600 
  4 C        2.7510    -2.5030    -2.0260 C.3   1 <1>  -0.0990 
  5 C        2.1560    -2.0950     0.6860 C.3   1 <1>   0.1400 
  6 C        0.0640    -0.7690     0.1510 C.3   1 <1>   0.0600 
  7 C        2.8510    -3.7790    -1.1690 C.3   1 <1>  -0.0800 
  8 C        2.5510    -3.5420     0.3300 C.3   1 <1>  -0.0800 
  9 C        4.2340    -4.4360    -1.2470 C.3   1 <1>  -0.1600 
 10 C        3.7940    -4.0130     1.0970 C.3   1 <1>  -0.1600 
 11 C        4.4980    -4.9840     0.1530 C.3   1 <1>   0.2200 
 12 N        5.9520    -5.1900     0.4320 N.am  1 <1>  -0.6600 
 13 C        6.9140    -4.2340     0.1630 C.2   1 <1>   0.5440 
 14 C        6.3540    -6.6240     0.4190 C.3   1 <1>   0.0600 
 15 O        7.8220    -4.5250    -0.5980 O.2   1 <1>  -0.5700 
 16 C        6.8780    -2.9270     0.7680 C.ar  1 <1>   0.0860 
 17 C        6.8100    -1.7610    -0.0160 C.ar  1 <1>   0.4100 
 18 C        6.8900    -2.7850     2.1490 C.ar  1 <1>  -0.1500 
 19 N        6.7040    -0.5350     0.4950 N.ar  1 <1>  -0.6200 
 20 N        6.8540    -1.8430    -1.3900 N.pl3 1 <1>  -0.8690 
 21 C        6.8040    -1.5160     2.6720 C.ar  1 <1>  -0.1500 
 22 C        6.7090    -0.4390     1.8090 C.ar  1 <1>   0.1600 
 23 C        6.9580    -0.6680    -2.2900 C.3   1 <1>   0.1290 
 24 H        2.7310    -2.7580    -3.0700 H     1 <1>   0.0800 
 25 H        3.5970    -1.8640    -1.8510 H     1 <1>   0.0800 
 26 H        3.0300    -1.4650     0.7110 H     1 <1>   0.0800 
 27 H        1.6940    -2.0720     1.6590 H     1 <1>   0.0800 
 28 H       -0.5620    -1.3910     0.7650 H     1 <1>   0.0800 
 29 H       -0.5200    -0.4040    -0.6770 H     1 <1>   0.0800 
 30 H        0.4080     0.0720     0.7260 H     1 <1>   0.0800 
 31 H        2.1190    -4.4800    -1.5360 H     1 <1>   0.0800 
 32 H        1.7280    -4.1810     0.6020 H     1 <1>   0.0800 
 33 H        4.9670    -3.6970    -1.5050 H     1 <1>   0.0800 
 34 H        4.2570    -5.2200    -1.9830 H     1 <1>   0.0800 
 35 H        3.5310    -4.4890     2.0240 H     1 <1>   0.0800 
 36 H        4.4090    -3.1630     1.2980 H     1 <1>   0.0800 
 37 H        3.9870    -5.9300     0.2300 H     1 <1>   0.0800 
 38 H        5.8000    -7.1680     1.1640 H     1 <1>   0.0800 
 39 H        7.4050    -6.7170     0.6350 H     1 <1>   0.0800 
 40 H        6.1640    -7.0460    -0.5520 H     1 <1>   0.0800 
 41 H        6.9580    -3.6520     2.7830 H     1 <1>   0.1500 
 42 H        7.2950    -2.7050    -1.7440 H     1 <1>   0.4000 
 43 H        6.8100    -1.3560     3.7360 H     1 <1>   0.1500 
 44 H        6.6360     0.5520     2.2240 H     1 <1>   0.1500 
 45 H        6.2200     0.0680    -2.0210 H     1 <1>   0.0800 
 46 H        6.7910    -0.9720    -3.3090 H     1 <1>   0.0800 
 47 H        7.9370    -0.2300    -2.2030 H     1 <1>   0.0800 
@<TRIPOS>BOND
  1   1   2  2   
  2   2   3  am  
  3   2   4  1   
  4   3   5  1   
  5   3   6  1   
  6   4   7  1   
  7   4  24  1   
  8   4  25  1   
  9   5   8  1   
 10   5  26  1   
 11   5  27  1   
 12   6  28  1   
 13   6  29  1   
 14   6  30  1   
 15   7   8  1   
 16   7   9  1   
 17   7  31  1   
 18   8  10  1   
 19   8  32  1   
 20   9  11  1   
 21   9  33  1   
 22   9  34  1   
 23  10  11  1   
 24  10  35  1   
 25  10  36  1   
 26  11  12  1   
 27  11  37  1   
 28  12  13  am  
 29  12  14  1   
 30  13  15  2   
 31  13  16  1   
 32  14  38  1   
 33  14  39  1   
 34  14  40  1   
 35  16  17  ar  
 36  16  18  ar  
 37  17  19  ar  
 38  17  20  1   
 39  18  21  ar  
 40  18  41  1   
 41  19  22  ar  
 42  20  23  1   
 43  20  42  1   
 44  21  22  ar  
 45  21  43  1   
 46  22  44  1   
 47  23  45  1   
 48  23  46  1   
 49  23  47  1   
@<TRIPOS>SUBSTRUCTURE
  1 ****  10 GROUP 4 **** **** 0

# MOE 2024.06 (io_trps.svl 2023.06)
