@<TRIPOS>MOLECULE
NONAME
50 52 1 0 0 
SMALL
USER_CHARGES


@<TRIPOS>ATOM
  1 O        1.6510     0.5690     1.3410 O.co2 1 <1>  -0.9000 
  2 C        2.0940     1.5200     0.6790 C.2   1 <1>   1.0330 
  3 O        3.1410     1.3610     0.0150 O.co2 1 <1>  -0.9000 
  4 C        1.4880     2.8430     0.7540 C.2   1 <1>  -0.0060 
  5 N        1.7880     3.8900    -0.0760 N.2   1 <1>  -0.5650 
  6 C        0.6150     3.3050     1.6720 C.2   1 <1>  -0.0100 
  7 C        1.1580     4.8870     0.4290 C.2   1 <1>   0.2980 
  8 O        0.4180     4.5790     1.4690 O.3   1 <1>  -0.2800 
  9 C        1.2440     6.3400    -0.0480 C.3   1 <1>   0.2900 
 10 N        2.5160     7.0840     0.2820 N.3   1 <1>  -0.8100 
 11 C        3.8220     6.4180     0.0260 C.3   1 <1>   0.1900 
 12 C        2.4580     8.4630    -0.2360 C.3   1 <1>   0.1100 
 13 C        3.9070     5.7780    -1.3780 C.3   1 <1>  -0.1600 
 14 C        4.1750     5.5180     1.2290 C.3   1 <1>  -0.1600 
 15 C        3.1320     9.4380     0.7350 C.3   1 <1>  -0.0170 
 16 C        4.9430     4.6640    -1.4940 C.3   1 <1>   0.3430 
 17 C        5.1560     4.3880     0.9310 C.3   1 <1>   0.3430 
 18 C        3.0060    10.8580     0.2100 C.ar  1 <1>  -0.1440 
 19 N        4.8350     3.7340    -0.3520 N.4   1 <1>  -0.9590 
 20 C        1.9010    11.6280     0.5390 C.ar  1 <1>  -0.1500 
 21 C        3.9890    11.3950    -0.6070 C.ar  1 <1>  -0.1500 
 22 C        5.6350     2.4930    -0.5520 C.3   1 <1>   0.2630 
 23 C        1.7790    12.9200     0.0570 C.ar  1 <1>  -0.1500 
 24 C        3.8690    12.6870    -1.0910 C.ar  1 <1>  -0.1500 
 25 C        2.7630    13.4490    -0.7590 C.ar  1 <1>  -0.1500 
 26 H        0.1340     2.7950     2.4880 H     1 <1>   0.1500 
 27 H        0.4170     6.8690     0.3900 H     1 <1>   0.0800 
 28 H        1.0950     6.3460    -1.1130 H     1 <1>   0.0800 
 29 H        4.5870     7.1760     0.0330 H     1 <1>   0.0800 
 30 H        1.4320     8.7730    -0.3430 H     1 <1>   0.0800 
 31 H        2.9200     8.5220    -1.2060 H     1 <1>   0.0800 
 32 H        4.1570     6.5430    -2.0890 H     1 <1>   0.0800 
 33 H        2.9770     5.3630    -1.7030 H     1 <1>   0.0800 
 34 H        3.3060     5.0800     1.6710 H     1 <1>   0.0800 
 35 H        4.6020     6.1370     1.9960 H     1 <1>   0.0800 
 36 H        4.1710     9.1950     0.8560 H     1 <1>   0.0800 
 37 H        2.6560     9.3660     1.6970 H     1 <1>   0.0800 
 38 H        5.9320     5.0890    -1.5150 H     1 <1>   0.0800 
 39 H        4.7820     4.1270    -2.4150 H     1 <1>   0.0800 
 40 H        5.1100     3.6630     1.7290 H     1 <1>   0.0800 
 41 H        6.1570     4.7840     0.8880 H     1 <1>   0.0800 
 42 H        3.8410     3.3870    -0.2890 H     1 <1>   0.4500 
 43 H        1.1310    11.2260     1.1740 H     1 <1>   0.1500 
 44 H        4.8540    10.8130    -0.8710 H     1 <1>   0.1500 
 45 H        6.6840     2.7180    -0.6340 H     1 <1>   0.0800 
 46 H        5.3030     1.9850    -1.4430 H     1 <1>   0.0800 
 47 H        5.4750     1.8210     0.2770 H     1 <1>   0.0800 
 48 H        0.9200    13.5120     0.3160 H     1 <1>   0.1500 
 49 H        4.6350    13.1000    -1.7230 H     1 <1>   0.1500 
 50 H        2.6690    14.4540    -1.1340 H     1 <1>   0.1500 
@<TRIPOS>BOND
  1   1   2  ar  
  2   2   3  ar  
  3   2   4  1   
  4   4   5  1   
  5   4   6  2   
  6   5   7  2   
  7   6   8  1   
  8   6  26  1   
  9   7   8  1   
 10   7   9  1   
 11   9  10  1   
 12   9  27  1   
 13   9  28  1   
 14  10  11  1   
 15  10  12  1   
 16  11  13  1   
 17  11  14  1   
 18  11  29  1   
 19  12  15  1   
 20  12  30  1   
 21  12  31  1   
 22  13  16  1   
 23  13  32  1   
 24  13  33  1   
 25  14  17  1   
 26  14  34  1   
 27  14  35  1   
 28  15  18  1   
 29  15  36  1   
 30  15  37  1   
 31  16  19  1   
 32  16  38  1   
 33  16  39  1   
 34  17  19  1   
 35  17  40  1   
 36  17  41  1   
 37  18  20  ar  
 38  18  21  ar  
 39  19  22  1   
 40  19  42  1   
 41  20  23  ar  
 42  20  43  1   
 43  21  24  ar  
 44  21  44  1   
 45  22  45  1   
 46  22  46  1   
 47  22  47  1   
 48  23  25  ar  
 49  23  48  1   
 50  24  25  ar  
 51  24  49  1   
 52  25  50  1   
@<TRIPOS>SUBSTRUCTURE
  1 ****  10 GROUP 4 **** **** 0

# MOE 2024.06 (io_trps.svl 2023.06)
