@<TRIPOS>MOLECULE
NONAME
50 52 1 0 0 
SMALL
USER_CHARGES


@<TRIPOS>ATOM
  1 O        0.9330     0.0710     1.0690 O.3   1 <1>  -0.6800 
  2 C        1.5820    -0.2230    -0.1090 C.3   1 <1>   0.3440 
  3 C        1.5860    -1.7320    -0.3000 C.ar  1 <1>  -0.1440 
  4 C        3.0000     0.3410    -0.0170 C.3   1 <1>  -0.1600 
  5 C        1.2390    -2.2680    -1.5330 C.ar  1 <1>  -0.1500 
  6 C        1.9350    -2.5920     0.7340 C.ar  1 <1>  -0.1500 
  7 C        2.9630     1.8310     0.3370 C.3   1 <1>   0.3430 
  8 C        1.2460    -3.6380    -1.7300 C.ar  1 <1>  -0.1500 
  9 C        1.9420    -3.9620     0.5380 C.ar  1 <1>  -0.1500 
 10 N        4.3250     2.3830     0.5880 N.4   1 <1>  -0.9590 
 11 C        1.5980    -4.4850    -0.6950 C.ar  1 <1>  -0.1500 
 12 C        5.2620     2.3140    -0.5670 C.3   1 <1>   0.5230 
 13 C        4.9480     1.8890     1.8540 C.3   1 <1>   0.2630 
 14 C        6.1240     3.5690    -0.5240 C.2   1 <1>   0.0060 
 15 N        5.8270     4.6040     0.1910 N.2   1 <1>  -0.5650 
 16 N        7.2740     3.7090    -1.2390 N.pl3 1 <1>   0.0330 
 17 C        6.8370     5.4870    -0.0540 C.ar  1 <1>   0.2270 
 18 C        7.7440     4.9440    -0.9400 C.ar  1 <1>  -0.1520 
 19 C        7.0400     6.7690     0.4470 C.ar  1 <1>  -0.1500 
 20 C        8.8710     5.6580    -1.3450 C.ar  1 <1>  -0.1500 
 21 C        8.1510     7.4900     0.0570 C.ar  1 <1>  -0.1430 
 22 C        9.0730     6.9280    -0.8470 C.ar  1 <1>  -0.1430 
 23 C        8.3560     8.8910     0.6170 C.3   1 <1>  -0.0970 
 24 C       10.3030     7.7090    -1.2890 C.3   1 <1>  -0.0970 
 25 H        0.1730    -0.5420     1.1610 H     1 <1>   0.4000 
 26 H        1.0330     0.2510    -0.9060 H     1 <1>   0.0800 
 27 H        3.5320    -0.2130     0.7340 H     1 <1>   0.0800 
 28 H        3.4810     0.1880    -0.9640 H     1 <1>   0.0800 
 29 H        0.9600    -1.6290    -2.3520 H     1 <1>   0.1500 
 30 H        2.2030    -2.2020     1.7010 H     1 <1>   0.1500 
 31 H        2.3590     1.9660     1.2210 H     1 <1>   0.0800 
 32 H        2.4900     2.3760    -0.4640 H     1 <1>   0.0800 
 33 H        0.9760    -4.0480    -2.6880 H     1 <1>   0.1500 
 34 H        2.2130    -4.6220     1.3440 H     1 <1>   0.1500 
 35 H        4.2450     3.4130     0.7130 H     1 <1>   0.4500 
 36 H        1.6030    -5.5510    -0.8480 H     1 <1>   0.1500 
 37 H        5.8700     1.4270    -0.5080 H     1 <1>   0.0800 
 38 H        4.7100     2.3040    -1.4920 H     1 <1>   0.0800 
 39 H        5.1670     0.8360     1.7840 H     1 <1>   0.0800 
 40 H        4.2790     2.0490     2.6840 H     1 <1>   0.0800 
 41 H        5.8640     2.4240     2.0480 H     1 <1>   0.0800 
 42 H        7.7270     3.0540    -1.8830 H     1 <1>   0.2700 
 43 H        6.3170     7.1670     1.1330 H     1 <1>   0.1500 
 44 H        9.5660     5.2150    -2.0370 H     1 <1>   0.1500 
 45 H        7.5600     9.1570     1.2890 H     1 <1>   0.0800 
 46 H        8.3740     9.6090    -0.1830 H     1 <1>   0.0800 
 47 H        9.2830     8.9400     1.1570 H     1 <1>   0.0800 
 48 H       10.8980     7.1360    -1.9770 H     1 <1>   0.0800 
 49 H       10.9130     7.9500    -0.4370 H     1 <1>   0.0800 
 50 H       10.0070     8.6190    -1.7770 H     1 <1>   0.0800 
@<TRIPOS>BOND
  1   1   2  1   
  2   1  25  1   
  3   2   3  1   
  4   2   4  1   
  5   2  26  1   
  6   3   5  ar  
  7   3   6  ar  
  8   4   7  1   
  9   4  27  1   
 10   4  28  1   
 11   5   8  ar  
 12   5  29  1   
 13   6   9  ar  
 14   6  30  1   
 15   7  10  1   
 16   7  31  1   
 17   7  32  1   
 18   8  11  ar  
 19   8  33  1   
 20   9  11  ar  
 21   9  34  1   
 22  10  12  1   
 23  10  13  1   
 24  10  35  1   
 25  11  36  1   
 26  12  14  1   
 27  12  37  1   
 28  12  38  1   
 29  13  39  1   
 30  13  40  1   
 31  13  41  1   
 32  14  15  2   
 33  14  16  1   
 34  15  17  1   
 35  16  18  1   
 36  16  42  1   
 37  17  18  ar  
 38  17  19  ar  
 39  18  20  ar  
 40  19  21  ar  
 41  19  43  1   
 42  20  22  ar  
 43  20  44  1   
 44  21  22  ar  
 45  21  23  1   
 46  22  24  1   
 47  23  45  1   
 48  23  46  1   
 49  23  47  1   
 50  24  48  1   
 51  24  49  1   
 52  24  50  1   
@<TRIPOS>SUBSTRUCTURE
  1 ****  12 GROUP 4 **** **** 0

# MOE 2024.06 (io_trps.svl 2023.06)
