@<TRIPOS>MOLECULE
NONAME
48 52 1 0 0 
SMALL
USER_CHARGES


@<TRIPOS>ATOM
  1 CL      -2.0800     1.8830    -2.1960 Cl    1 <1>  -0.1770 
  2 C       -1.8170     2.8540    -0.7660 C.ar  1 <1>   0.1770 
  3 C       -2.3300     2.4220     0.4580 C.ar  1 <1>  -0.1440 
  4 C       -1.1170     4.0440    -0.8960 C.ar  1 <1>  -0.1500 
  5 C       -2.1380     3.2060     1.5930 C.ar  1 <1>  -0.1500 
  6 C       -3.1000     1.1190     0.5510 C.3   1 <1>   0.4870 
  7 C       -0.9500     4.8000     0.2460 C.ar  1 <1>   0.0820 
  8 C       -1.4460     4.3930     1.4510 C.ar  1 <1>   0.0820 
  9 N       -4.4050     1.2800    -0.1440 N.4   1 <1>  -0.9590 
 10 O       -0.3310     5.9760     0.3780 O.3   1 <1>  -0.3630 
 11 O       -1.1610     5.2930     2.3940 O.3   1 <1>  -0.3620 
 12 C       -5.2460     2.3510     0.4970 C.3   1 <1>   0.3430 
 13 C       -5.1460    -0.0080    -0.2410 C.3   1 <1>   0.3430 
 14 C       -0.4340     6.3430     1.7540 C.3   1 <1>   0.4000 
 15 C       -6.5310     2.6230    -0.3000 C.3   1 <1>   0.1430 
 16 C       -6.4160     0.1900    -1.0770 C.3   1 <1>  -0.1600 
 17 C       -7.3630     3.6130     0.4800 C.ar  1 <1>   0.1670 
 18 C       -7.3130     1.3110    -0.5180 C.3   1 <1>  -0.1600 
 19 C       -6.2690     3.3790    -1.6310 C.3   1 <1>  -0.1600 
 20 N       -7.6170     3.5180     1.7610 N.ar  1 <1>  -0.6200 
 21 C       -7.8010     4.6380    -0.3030 C.ar  1 <1>  -0.1440 
 22 C       -7.3380     4.4860    -1.7300 C.3   1 <1>  -0.0170 
 23 C       -8.3440     4.5220     2.2340 C.ar  1 <1>   0.7200 
 24 C       -8.5570     5.6160     0.2970 C.ar  1 <1>   0.1600 
 25 N       -8.8380     5.5630     1.5800 N.ar  1 <1>  -0.6200 
 26 N       -8.6290     4.4720     3.5350 N.pl3 1 <1>  -0.9000 
 27 H       -0.7210     4.3720    -1.8400 H     1 <1>   0.1500 
 28 H       -2.5040     2.9270     2.5670 H     1 <1>   0.1500 
 29 H       -3.2580     0.8570     1.5850 H     1 <1>   0.0800 
 30 H       -2.5260     0.3340     0.0830 H     1 <1>   0.0800 
 31 H       -4.1820     1.5890    -1.1020 H     1 <1>   0.4500 
 32 H       -4.6900     3.2710     0.5780 H     1 <1>   0.0800 
 33 H       -5.5210     2.0460     1.4940 H     1 <1>   0.0800 
 34 H       -5.4180    -0.3490     0.7450 H     1 <1>   0.0800 
 35 H       -4.5270    -0.7610    -0.7040 H     1 <1>   0.0800 
 36 H       -0.9770     7.2670     1.8430 H     1 <1>   0.0800 
 37 H        0.5500     6.4160     2.1840 H     1 <1>   0.0800 
 38 H       -6.9720    -0.7320    -1.0860 H     1 <1>   0.0800 
 39 H       -6.1420     0.4020    -2.0950 H     1 <1>   0.0800 
 40 H       -8.1480     1.4820    -1.1760 H     1 <1>   0.0800 
 41 H       -7.7180     0.9880     0.4280 H     1 <1>   0.0800 
 42 H       -6.2990     2.7380    -2.4950 H     1 <1>   0.0800 
 43 H       -5.3040     3.8550    -1.5950 H     1 <1>   0.0800 
 44 H       -8.1630     4.1690    -2.3450 H     1 <1>   0.0800 
 45 H       -6.9280     5.4040    -2.1170 H     1 <1>   0.0800 
 46 H       -8.9330     6.4470    -0.2760 H     1 <1>   0.1500 
 47 H       -9.3720     5.1000     3.8310 H     1 <1>   0.4000 
 48 H       -8.6220     3.5520     3.9630 H     1 <1>   0.4000 
@<TRIPOS>BOND
  1   1   2  1   
  2   2   3  ar  
  3   2   4  ar  
  4   3   5  ar  
  5   3   6  1   
  6   4   7  ar  
  7   4  27  1   
  8   5   8  ar  
  9   5  28  1   
 10   6   9  1   
 11   6  29  1   
 12   6  30  1   
 13   7   8  ar  
 14   7  10  1   
 15   8  11  1   
 16   9  12  1   
 17   9  13  1   
 18   9  31  1   
 19  10  14  1   
 20  11  14  1   
 21  12  15  1   
 22  12  32  1   
 23  12  33  1   
 24  13  16  1   
 25  13  34  1   
 26  13  35  1   
 27  14  36  1   
 28  14  37  1   
 29  15  17  1   
 30  15  18  1   
 31  15  19  1   
 32  16  18  1   
 33  16  38  1   
 34  16  39  1   
 35  17  20  ar  
 36  17  21  ar  
 37  18  40  1   
 38  18  41  1   
 39  19  22  1   
 40  19  42  1   
 41  19  43  1   
 42  20  23  ar  
 43  21  22  1   
 44  21  24  ar  
 45  22  44  1   
 46  22  45  1   
 47  23  25  ar  
 48  23  26  1   
 49  24  25  ar  
 50  24  46  1   
 51  26  47  1   
 52  26  48  1   
@<TRIPOS>SUBSTRUCTURE
  1 ****  12 GROUP 4 **** **** 0

# MOE 2024.06 (io_trps.svl 2023.06)
