@<TRIPOS>MOLECULE
NONAME
46 50 1 0 0 
SMALL
USER_CHARGES


@<TRIPOS>ATOM
  1 O        1.1900     0.3340    -1.3350 O.2   1 <1>  -0.5700 
  2 C        1.3230    -0.7990    -0.9400 C.2   1 <1>   0.5690 
  3 N        0.3690    -1.5170    -0.2920 N.am  1 <1>  -0.6600 
  4 C        2.5630    -1.6130    -1.2280 C.3   1 <1>  -0.0190 
  5 C        0.8130    -2.9000    -0.0060 C.3   1 <1>   0.1400 
  6 C       -0.9590    -1.0260     0.1480 C.3   1 <1>   0.0600 
  7 C        2.3040    -2.8410    -0.3520 C.3   1 <1>   0.4180 
  8 C        4.0080    -1.2170    -0.7790 C.3   1 <1>  -0.0190 
  9 O        3.0530    -2.5090     0.7650 O.3   1 <1>  -0.5600 
 10 C        3.1270    -3.9980    -0.8600 C.2   1 <1>  -0.2880 
 11 C        4.2780     0.1380    -0.1230 C.2   1 <1>   0.5690 
 12 C        4.3060    -2.3620     0.2060 C.3   1 <1>   0.3380 
 13 C        4.3760    -3.6890    -0.5330 C.2   1 <1>  -0.2880 
 14 O        5.1200     0.1900     0.7390 O.2   1 <1>  -0.5700 
 15 N        3.6440     1.2650    -0.5560 N.am  1 <1>  -0.4940 
 16 C        3.9510     2.5930    -0.2690 C.2   1 <1>   0.2040 
 17 O        2.9770     3.4540    -0.1140 O.3   1 <1>  -0.0190 
 18 C        5.1240     3.2630    -0.1270 C.2   1 <1>  -0.0540 
 19 N        3.4180     4.6580     0.1460 N.2   1 <1>  -0.4100 
 20 C        6.4910     2.8350    -0.2680 C.ar  1 <1>   0.0540 
 21 C        4.6970     4.5660     0.1480 C.2   1 <1>   0.1080 
 22 C        7.1150     2.8610    -1.5120 C.ar  1 <1>  -0.1500 
 23 C        7.2320     2.4040     0.8270 C.ar  1 <1>  -0.1500 
 24 C        5.6240     5.7340     0.4110 C.3   1 <1>  -0.0590 
 25 C        8.4360     2.4780    -1.6580 C.ar  1 <1>  -0.1500 
 26 C        8.5530     2.0190     0.6890 C.ar  1 <1>  -0.1500 
 27 C        9.1580     2.0570    -0.5550 C.ar  1 <1>  -0.1500 
 28 H        2.5430    -1.8920    -2.2640 H     1 <1>   0.0800 
 29 H        0.6650    -3.1620     1.0270 H     1 <1>   0.0800 
 30 H        0.2970    -3.5860    -0.6530 H     1 <1>   0.0800 
 31 H       -1.7360    -1.6170    -0.3040 H     1 <1>   0.0800 
 32 H       -1.0870     0.0020    -0.1450 H     1 <1>   0.0800 
 33 H       -1.0340    -1.0940     1.2200 H     1 <1>   0.0800 
 34 H        4.6850    -1.3000    -1.6080 H     1 <1>   0.0800 
 35 H        2.6890    -4.8280    -1.3840 H     1 <1>   0.1500 
 36 H        5.0520    -2.2120     0.9690 H     1 <1>   0.0800 
 37 H        5.3180    -4.1840    -0.6980 H     1 <1>   0.1500 
 38 H        2.7270     1.1320    -1.0020 H     1 <1>   0.3700 
 39 H        6.5540     3.1880    -2.3700 H     1 <1>   0.1500 
 40 H        6.7570     2.3610     1.7920 H     1 <1>   0.1500 
 41 H        6.2460     5.5200     1.2610 H     1 <1>   0.0800 
 42 H        5.0520     6.6220     0.6120 H     1 <1>   0.0800 
 43 H        6.2470     5.9050    -0.4470 H     1 <1>   0.0800 
 44 H        8.9030     2.5050    -2.6270 H     1 <1>   0.1500 
 45 H        9.1080     1.6850     1.5490 H     1 <1>   0.1500 
 46 H       10.1860     1.7560    -0.6640 H     1 <1>   0.1500 
@<TRIPOS>BOND
  1   1   2  2   
  2   2   3  am  
  3   2   4  1   
  4   3   5  1   
  5   3   6  1   
  6   4   7  1   
  7   4   8  1   
  8   4  28  1   
  9   5   7  1   
 10   5  29  1   
 11   5  30  1   
 12   6  31  1   
 13   6  32  1   
 14   6  33  1   
 15   7   9  1   
 16   7  10  1   
 17   8  11  1   
 18   8  12  1   
 19   8  34  1   
 20   9  12  1   
 21  10  13  2   
 22  10  35  1   
 23  11  14  2   
 24  11  15  am  
 25  12  13  1   
 26  12  36  1   
 27  13  37  1   
 28  15  16  1   
 29  15  38  1   
 30  16  17  1   
 31  16  18  2   
 32  17  19  1   
 33  18  20  1   
 34  18  21  1   
 35  19  21  2   
 36  20  22  ar  
 37  20  23  ar  
 38  21  24  1   
 39  22  25  ar  
 40  22  39  1   
 41  23  26  ar  
 42  23  40  1   
 43  24  41  1   
 44  24  42  1   
 45  24  43  1   
 46  25  27  ar  
 47  25  44  1   
 48  26  27  ar  
 49  26  45  1   
 50  27  46  1   
@<TRIPOS>SUBSTRUCTURE
  1 ****  11 GROUP 4 **** **** 0

# MOE 2024.06 (io_trps.svl 2023.06)
