@<TRIPOS>MOLECULE
NONAME
53 56 1 0 0 
SMALL
USER_CHARGES


@<TRIPOS>ATOM
  1 O        0.8790    -0.3190     0.8920 O.3   1 <1>  -0.5600 
  2 C        1.9740    -1.0140     0.3470 C.3   1 <1>   0.4240 
  3 C       -0.3990    -0.7110     0.4930 C.3   1 <1>   0.1200 
  4 C        1.6830    -2.5180     0.1780 C.ar  1 <1>  -0.1440 
  5 C        3.1140    -0.8120     1.3560 C.3   1 <1>  -0.1600 
  6 C        2.3290    -0.3530    -0.9960 C.3   1 <1>  -0.1600 
  7 C       -0.6590    -2.1320     0.9830 C.3   1 <1>  -0.0160 
  8 C        0.4400    -3.0510     0.4880 C.ar  1 <1>  -0.1440 
  9 C        2.6660    -3.3770    -0.2950 C.ar  1 <1>  -0.1500 
 10 C        3.4790     0.6640     1.4990 C.3   1 <1>   0.2090 
 11 C        2.7220     1.1150    -0.8220 C.3   1 <1>   0.2090 
 12 C        0.2010    -4.4090     0.3480 C.ar  1 <1>  -0.1500 
 13 C        2.4450    -4.7340    -0.4520 C.ar  1 <1>   0.0820 
 14 N        3.8520     1.2000     0.1530 N.pl3 1 <1>  -0.8380 
 15 C        1.1930    -5.2720    -0.1120 C.ar  1 <1>   0.0820 
 16 O        3.5210    -5.4200    -0.9380 O.3   1 <1>  -0.3630 
 17 C        5.0190     1.8530    -0.1290 C.ar  1 <1>   0.4610 
 18 O        0.9650    -6.6140    -0.2200 O.3   1 <1>  -0.3630 
 19 C        3.3900    -6.6640    -1.5890 C.3   1 <1>   0.0400 
 20 N        6.1570     1.3860     0.4080 N.ar  1 <1>  -0.1790 
 21 C        5.1410     2.9520    -0.9440 C.ar  1 <1>  -0.1500 
 22 C       -0.1780    -7.2290     0.3350 C.3   1 <1>   0.0400 
 23 C        7.3480     1.9640     0.1620 C.ar  1 <1>   0.7710 
 24 C        6.3950     3.5010    -1.1540 C.ar  1 <1>   0.4100 
 25 N        7.4950     3.0100    -0.6040 N.ar  1 <1>  -0.6200 
 26 N        8.4580     1.4620     0.7130 N.pl3 1 <1>  -0.9000 
 27 N        6.5830     4.5740    -1.9330 N.pl3 1 <1>  -0.9000 
 28 H       -0.4700    -0.6530    -0.5790 H     1 <1>   0.0800 
 29 H       -1.1070    -0.0280     0.9300 H     1 <1>   0.0800 
 30 H        3.9840    -1.3600     1.0460 H     1 <1>   0.0800 
 31 H        2.8060    -1.2070     2.3070 H     1 <1>   0.0800 
 32 H        1.5000    -0.4340    -1.6720 H     1 <1>   0.0800 
 33 H        3.1530    -0.8720    -1.4490 H     1 <1>   0.0800 
 34 H       -1.6140    -2.4630     0.6170 H     1 <1>   0.0800 
 35 H       -0.6860    -2.1420     2.0580 H     1 <1>   0.0800 
 36 H        3.6380    -3.0060    -0.5590 H     1 <1>   0.1500 
 37 H        4.2810     0.7820     2.2060 H     1 <1>   0.0800 
 38 H        2.6300     1.2120     1.8760 H     1 <1>   0.0800 
 39 H        1.8810     1.6790    -0.4510 H     1 <1>   0.0800 
 40 H        3.0070     1.5190    -1.7780 H     1 <1>   0.0800 
 41 H       -0.7730    -4.7780     0.6040 H     1 <1>   0.1500 
 42 H        4.3090    -6.8700    -2.1060 H     1 <1>   0.0800 
 43 H        2.5760    -6.6090    -2.2900 H     1 <1>   0.0800 
 44 H        3.2090    -7.4240    -0.8510 H     1 <1>   0.0800 
 45 H        6.1150     0.5410     0.9550 H     1 <1>   0.4570 
 46 H        4.2830     3.3960    -1.4080 H     1 <1>   0.1500 
 47 H       -0.0750    -8.2920     0.2150 H     1 <1>   0.0800 
 48 H       -1.0500    -6.8870    -0.1930 H     1 <1>   0.0800 
 49 H       -0.2340    -6.9840     1.3810 H     1 <1>   0.0800 
 50 H        9.3420     1.9350     0.4980 H     1 <1>   0.4000 
 51 H        8.5550     0.6580     1.3340 H     1 <1>   0.4000 
 52 H        7.5260     4.9550    -2.0590 H     1 <1>   0.4000 
 53 H        5.8460     5.0920    -2.4170 H     1 <1>   0.4000 
@<TRIPOS>BOND
  1   1   2  1   
  2   1   3  1   
  3   2   4  1   
  4   2   5  1   
  5   2   6  1   
  6   3   7  1   
  7   3  28  1   
  8   3  29  1   
  9   4   8  ar  
 10   4   9  ar  
 11   5  10  1   
 12   5  30  1   
 13   5  31  1   
 14   6  11  1   
 15   6  32  1   
 16   6  33  1   
 17   7   8  1   
 18   7  34  1   
 19   7  35  1   
 20   8  12  ar  
 21   9  13  ar  
 22   9  36  1   
 23  10  14  1   
 24  10  37  1   
 25  10  38  1   
 26  11  14  1   
 27  11  39  1   
 28  11  40  1   
 29  12  15  ar  
 30  12  41  1   
 31  13  15  ar  
 32  13  16  1   
 33  14  17  1   
 34  15  18  1   
 35  16  19  1   
 36  17  20  ar  
 37  17  21  ar  
 38  18  22  1   
 39  19  42  1   
 40  19  43  1   
 41  19  44  1   
 42  20  23  ar  
 43  20  45  1   
 44  21  24  ar  
 45  21  46  1   
 46  22  47  1   
 47  22  48  1   
 48  22  49  1   
 49  23  25  ar  
 50  23  26  1   
 51  24  25  ar  
 52  24  27  1   
 53  26  50  1   
 54  26  51  1   
 55  27  52  1   
 56  27  53  1   
@<TRIPOS>SUBSTRUCTURE
  1 ****   2 GROUP 4 **** **** 0

# MOE 2024.06 (io_trps.svl 2023.06)
