@<TRIPOS>MOLECULE
NONAME
56 58 1 0 0 
SMALL
USER_CHARGES


@<TRIPOS>ATOM
  1 O        3.9990    -0.4770     1.0350 O.2   1 <1>  -0.5700 
  2 C        3.0350    -0.7850     0.3550 C.2   1 <1>   0.7160 
  3 N        2.5140     0.2040    -0.4430 N.am  1 <1>  -0.6600 
  4 C        2.5730    -2.1480     0.2810 C.2   1 <1>  -0.0860 
  5 C        2.9360     0.2640    -1.8750 C.3   1 <1>   0.1400 
  6 C        2.0080     1.4760     0.1420 C.3   1 <1>   0.1400 
  7 C        1.3470    -2.6460    -0.1850 C.2   1 <1>   0.1080 
  8 C        3.2370    -3.2790     0.6510 C.2   1 <1>  -0.3020 
  9 C        4.4290     0.6430    -2.0190 C.3   1 <1>   0.3430 
 10 C        3.1300     2.4790     0.4640 C.3   1 <1>  -0.1600 
 11 N        1.2780    -3.9360    -0.1310 N.2   1 <1>  -0.7070 
 12 C        0.1710    -1.8390    -0.6940 C.3   1 <1>  -0.0590 
 13 N        2.4460    -4.3310     0.3970 N.pl3 1 <1>   0.3140 
 14 N        4.9250     1.4460    -0.8550 N.4   1 <1>  -0.9590 
 15 C        4.1580     2.7040    -0.6470 C.3   1 <1>   0.3430 
 16 C        2.7470    -5.7540     0.6470 C.3   1 <1>   0.0960 
 17 C        6.4140     1.6390    -0.8530 C.3   1 <1>   0.3430 
 18 C        2.3940    -6.1430     2.0900 C.3   1 <1>  -0.1600 
 19 C        7.0040     1.8560     0.5570 C.3   1 <1>   0.2000 
 20 C        2.7020    -7.6200     2.3610 C.3   1 <1>  -0.2400 
 21 O        6.4000     2.9680     1.1670 O.3   1 <1>  -0.5600 
 22 C        8.5290     2.0720     0.4940 C.3   1 <1>   0.1200 
 23 C        6.8990     3.2350     2.4510 C.3   1 <1>   0.1200 
 24 O        9.0250     2.3270     1.7730 O.3   1 <1>  -0.5600 
 25 C        8.4260     3.4230     2.4030 C.3   1 <1>   0.1200 
 26 H        2.3320     0.9850    -2.3980 H     1 <1>   0.0800 
 27 H        2.7680    -0.6920    -2.3420 H     1 <1>   0.0800 
 28 H        1.4700     1.2530     1.0500 H     1 <1>   0.0800 
 29 H        1.3070     1.9220    -0.5430 H     1 <1>   0.0800 
 30 H        4.2170    -3.3700     1.0800 H     1 <1>   0.1500 
 31 H        4.5790     1.1800    -2.9400 H     1 <1>   0.0800 
 32 H        4.9980    -0.2710    -2.0780 H     1 <1>   0.0800 
 33 H        3.6400     2.1730     1.3610 H     1 <1>   0.0800 
 34 H        2.6700     3.4240     0.6890 H     1 <1>   0.0800 
 35 H       -0.0270    -1.0150    -0.0350 H     1 <1>   0.0800 
 36 H       -0.7050    -2.4610    -0.7340 H     1 <1>   0.0800 
 37 H        0.3760    -1.4730    -1.6820 H     1 <1>   0.0800 
 38 H        4.6960     0.8700    -0.0150 H     1 <1>   0.4500 
 39 H        4.8250     3.4960    -0.3470 H     1 <1>   0.0800 
 40 H        3.6690     3.0060    -1.5580 H     1 <1>   0.0800 
 41 H        3.7910    -5.9220     0.4580 H     1 <1>   0.0800 
 42 H        2.1720    -6.3430    -0.0450 H     1 <1>   0.0800 
 43 H        6.6760     2.4770    -1.4780 H     1 <1>   0.0800 
 44 H        6.8820     0.7630    -1.2680 H     1 <1>   0.0800 
 45 H        1.3450    -5.9630     2.2550 H     1 <1>   0.0800 
 46 H        2.9570    -5.5320     2.7750 H     1 <1>   0.0800 
 47 H        6.7980     0.9870     1.1600 H     1 <1>   0.0800 
 48 H        2.1330    -8.2510     1.7010 H     1 <1>   0.0800 
 49 H        2.4420    -7.8670     3.3760 H     1 <1>   0.0800 
 50 H        3.7500    -7.8210     2.2190 H     1 <1>   0.0800 
 51 H        8.7780     2.9050    -0.1410 H     1 <1>   0.0800 
 52 H        9.0240     1.1910     0.1260 H     1 <1>   0.0800 
 53 H        6.6420     2.4170     3.1020 H     1 <1>   0.0800 
 54 H        6.4240     4.1290     2.8150 H     1 <1>   0.0800 
 55 H        8.8270     3.4920     3.3980 H     1 <1>   0.0800 
 56 H        8.6840     4.3170     1.8630 H     1 <1>   0.0800 
@<TRIPOS>BOND
  1   1   2  2   
  2   2   3  am  
  3   2   4  1   
  4   3   5  1   
  5   3   6  1   
  6   4   7  1   
  7   4   8  2   
  8   5   9  1   
  9   5  26  1   
 10   5  27  1   
 11   6  10  1   
 12   6  28  1   
 13   6  29  1   
 14   7  11  2   
 15   7  12  1   
 16   8  13  1   
 17   8  30  1   
 18   9  14  1   
 19   9  31  1   
 20   9  32  1   
 21  10  15  1   
 22  10  33  1   
 23  10  34  1   
 24  11  13  1   
 25  12  35  1   
 26  12  36  1   
 27  12  37  1   
 28  13  16  1   
 29  14  15  1   
 30  14  17  1   
 31  14  38  1   
 32  15  39  1   
 33  15  40  1   
 34  16  18  1   
 35  16  41  1   
 36  16  42  1   
 37  17  19  1   
 38  17  43  1   
 39  17  44  1   
 40  18  20  1   
 41  18  45  1   
 42  18  46  1   
 43  19  21  1   
 44  19  22  1   
 45  19  47  1   
 46  20  48  1   
 47  20  49  1   
 48  20  50  1   
 49  21  23  1   
 50  22  24  1   
 51  22  51  1   
 52  22  52  1   
 53  23  25  1   
 54  23  53  1   
 55  23  54  1   
 56  24  25  1   
 57  25  55  1   
 58  25  56  1   
@<TRIPOS>SUBSTRUCTURE
  1 ****   1 GROUP 4 **** **** 0

# MOE 2024.06 (io_trps.svl 2023.06)
