@<TRIPOS>MOLECULE
NONAME
44 45 1 0 0 
SMALL
USER_CHARGES


@<TRIPOS>ATOM
  1 N        0.2200     0.2940     0.4220 N.pl3 1 <1>   0.0480 
  2 C       -0.0670     0.0670     1.7310 C.2   1 <1>  -0.3020 
  3 C        0.6370    -0.8860    -0.1090 C.2   1 <1>  -0.3020 
  4 C        0.1520     1.5890    -0.2750 C.3   1 <1>   0.0960 
  5 C        0.1620    -1.2390     2.0250 C.2   1 <1>  -0.1500 
  6 C        0.6120    -1.8480     0.8490 C.2   1 <1>  -0.1500 
  7 C        1.4940     2.3170    -0.1260 C.3   1 <1>  -0.1600 
  8 C        1.4720     3.6670    -0.8400 C.3   1 <1>   0.3430 
  9 N        2.7400     4.4060    -0.5890 N.4   1 <1>  -0.9590 
 10 C        2.6060     5.8470    -0.9490 C.3   1 <1>   0.4860 
 11 C        3.9260     3.7910    -1.2730 C.3   1 <1>   0.2630 
 12 C        3.8020     6.5910    -0.3910 C.ar  1 <1>  -0.1430 
 13 C        4.8150     7.0210    -1.2360 C.ar  1 <1>  -0.1500 
 14 C        3.8970     6.8450     0.9700 C.ar  1 <1>  -0.1500 
 15 C        5.9150     7.6830    -0.7220 C.ar  1 <1>  -0.1500 
 16 C        5.0000     7.5070     1.4790 C.ar  1 <1>  -0.1500 
 17 C        6.0160     7.9260     0.6370 C.ar  1 <1>  -0.1430 
 18 C        7.2260     8.6560     1.1990 C.3   1 <1>  -0.0170 
 19 C        6.9800    10.1660     1.2210 C.3   1 <1>  -0.2400 
 20 H       -0.4220     0.8370     2.3920 H     1 <1>   0.1500 
 21 H        0.9290    -0.9910    -1.1390 H     1 <1>   0.1500 
 22 H       -0.6480     2.1640     0.1570 H     1 <1>   0.0800 
 23 H       -0.0740     1.4050    -1.3100 H     1 <1>   0.0800 
 24 H        0.0310    -1.7400     2.9690 H     1 <1>   0.1500 
 25 H        0.8780    -2.8870     0.7540 H     1 <1>   0.1500 
 26 H        2.2630     1.6900    -0.5430 H     1 <1>   0.0800 
 27 H        1.6880     2.4650     0.9220 H     1 <1>   0.0800 
 28 H        0.6400     4.2430    -0.4640 H     1 <1>   0.0800 
 29 H        1.3300     3.5230    -1.8990 H     1 <1>   0.0800 
 30 H        2.9370     4.3970     0.4230 H     1 <1>   0.4500 
 31 H        1.7070     6.2570    -0.5200 H     1 <1>   0.0800 
 32 H        2.5620     5.9650    -2.0190 H     1 <1>   0.0800 
 33 H        3.7900     3.7970    -2.3420 H     1 <1>   0.0800 
 34 H        4.0660     2.7740    -0.9460 H     1 <1>   0.0800 
 35 H        4.8220     4.3440    -1.0370 H     1 <1>   0.0800 
 36 H        4.7640     6.8530    -2.2980 H     1 <1>   0.1500 
 37 H        3.1210     6.5400     1.6510 H     1 <1>   0.1500 
 38 H        6.6970     8.0160    -1.3850 H     1 <1>   0.1500 
 39 H        5.0670     7.7020     2.5360 H     1 <1>   0.1500 
 40 H        8.0930     8.4420     0.5980 H     1 <1>   0.0800 
 41 H        7.4300     8.3100     2.1980 H     1 <1>   0.0800 
 42 H        6.7940    10.5270     0.2250 H     1 <1>   0.0800 
 43 H        7.8390    10.6750     1.6190 H     1 <1>   0.0800 
 44 H        6.1270    10.3950     1.8350 H     1 <1>   0.0800 
@<TRIPOS>BOND
  1   1   2  1   
  2   1   3  1   
  3   1   4  1   
  4   2   5  2   
  5   2  20  1   
  6   3   6  2   
  7   3  21  1   
  8   4   7  1   
  9   4  22  1   
 10   4  23  1   
 11   5   6  1   
 12   5  24  1   
 13   6  25  1   
 14   7   8  1   
 15   7  26  1   
 16   7  27  1   
 17   8   9  1   
 18   8  28  1   
 19   8  29  1   
 20   9  10  1   
 21   9  11  1   
 22   9  30  1   
 23  10  12  1   
 24  10  31  1   
 25  10  32  1   
 26  11  33  1   
 27  11  34  1   
 28  11  35  1   
 29  12  13  ar  
 30  12  14  ar  
 31  13  15  ar  
 32  13  36  1   
 33  14  16  ar  
 34  14  37  1   
 35  15  17  ar  
 36  15  38  1   
 37  16  17  ar  
 38  16  39  1   
 39  17  18  1   
 40  18  19  1   
 41  18  40  1   
 42  18  41  1   
 43  19  42  1   
 44  19  43  1   
 45  19  44  1   
@<TRIPOS>SUBSTRUCTURE
  1 ****   9 GROUP 4 **** **** 0

# MOE 2024.06 (io_trps.svl 2023.06)
