@<TRIPOS>MOLECULE
NONAME
54 56 1 0 0 
SMALL
USER_CHARGES


@<TRIPOS>ATOM
  1 O        0.0830    -0.1920    -0.6340 O.3   1 <1>  -0.5600 
  2 C        1.0600     0.5760    -1.2820 C.3   1 <1>   0.1200 
  3 C        0.4160    -1.5380    -0.4190 C.3   1 <1>   0.1200 
  4 C        2.3930     0.5370    -0.5020 C.3   1 <1>   0.4230 
  5 C        1.7220    -1.6590     0.4040 C.3   1 <1>   0.4230 
  6 N        2.8280    -0.8880    -0.2450 N.4   1 <1>  -0.9590 
  7 C        3.5030     1.3520    -1.2130 C.3   1 <1>   0.1100 
  8 C        2.1480    -3.1160     0.6460 C.3   1 <1>  -0.1600 
  9 C        3.4280    -1.4960    -1.4840 C.3   1 <1>   0.3430 
 10 N        4.7800     0.6030    -1.2590 N.3   1 <1>  -0.8100 
 11 C        1.2040    -3.8510     1.6110 C.3   1 <1>  -0.1600 
 12 C        4.6320    -0.6670    -1.9950 C.3   1 <1>   0.1100 
 13 C        5.9340     1.4000    -1.7220 C.3   1 <1>   0.2530 
 14 C        1.7060    -5.2700     1.8890 C.3   1 <1>  -0.2400 
 15 C        6.1720     2.5910    -0.8040 C.ar  1 <1>  -0.1430 
 16 C        6.7590     2.4250     0.4480 C.ar  1 <1>   0.0820 
 17 C        5.8050     3.8620    -1.2220 C.ar  1 <1>  -0.1500 
 18 O        7.1290     1.1680     0.8160 O.3   1 <1>  -0.3630 
 19 C        6.9500     3.5340     1.2700 C.ar  1 <1>  -0.1500 
 20 C        6.0020     4.9570    -0.4010 C.ar  1 <1>  -0.1500 
 21 C        7.9220     0.9390     1.9600 C.3   1 <1>   0.0400 
 22 C        6.5710     4.7980     0.8500 C.ar  1 <1>  -0.1430 
 23 C        6.7840     6.0050     1.7460 C.3   1 <1>  -0.0970 
 24 H        1.1810     0.2030    -2.2840 H     1 <1>   0.0800 
 25 H        0.6930     1.5860    -1.3360 H     1 <1>   0.0800 
 26 H       -0.4040    -1.9840     0.1150 H     1 <1>   0.0800 
 27 H        0.5070    -2.0270    -1.3730 H     1 <1>   0.0800 
 28 H        2.2120     1.0140     0.4470 H     1 <1>   0.0800 
 29 H        1.5270    -1.2170     1.3680 H     1 <1>   0.0800 
 30 H        3.6270    -0.7810     0.3990 H     1 <1>   0.4500 
 31 H        3.6320     2.2710    -0.6680 H     1 <1>   0.0800 
 32 H        3.2020     1.6110    -2.2140 H     1 <1>   0.0800 
 33 H        2.1750    -3.6560    -0.2840 H     1 <1>   0.0800 
 34 H        3.1340    -3.1220     1.0780 H     1 <1>   0.0800 
 35 H        3.7660    -2.4990    -1.2820 H     1 <1>   0.0800 
 36 H        2.6840    -1.5520    -2.2610 H     1 <1>   0.0800 
 37 H        1.1410    -3.3160     2.5440 H     1 <1>   0.0800 
 38 H        0.2120    -3.9160     1.1960 H     1 <1>   0.0800 
 39 H        4.5120    -0.4740    -3.0480 H     1 <1>   0.0800 
 40 H        5.5300    -1.2490    -1.8720 H     1 <1>   0.0800 
 41 H        6.8180     0.7850    -1.7190 H     1 <1>   0.0800 
 42 H        5.7680     1.7370    -2.7310 H     1 <1>   0.0800 
 43 H        2.6830    -5.2490     2.3400 H     1 <1>   0.0800 
 44 H        1.7560    -5.8430     0.9790 H     1 <1>   0.0800 
 45 H        1.0350    -5.7710     2.5650 H     1 <1>   0.0800 
 46 H        5.3630     4.0090    -2.1920 H     1 <1>   0.1500 
 47 H        7.3940     3.4290     2.2400 H     1 <1>   0.1500 
 48 H        5.7120     5.9360    -0.7410 H     1 <1>   0.1500 
 49 H        8.1640    -0.1080     1.9960 H     1 <1>   0.0800 
 50 H        7.3610     1.2140     2.8350 H     1 <1>   0.0800 
 51 H        8.8240     1.5200     1.8820 H     1 <1>   0.0800 
 52 H        5.9670     6.6960     1.6410 H     1 <1>   0.0800 
 53 H        7.6970     6.5030     1.4750 H     1 <1>   0.0800 
 54 H        6.8440     5.7070     2.7770 H     1 <1>   0.0800 
@<TRIPOS>BOND
  1   1   2  1   
  2   1   3  1   
  3   2   4  1   
  4   2  24  1   
  5   2  25  1   
  6   3   5  1   
  7   3  26  1   
  8   3  27  1   
  9   4   6  1   
 10   4   7  1   
 11   4  28  1   
 12   5   6  1   
 13   5   8  1   
 14   5  29  1   
 15   6   9  1   
 16   6  30  1   
 17   7  10  1   
 18   7  31  1   
 19   7  32  1   
 20   8  11  1   
 21   8  33  1   
 22   8  34  1   
 23   9  12  1   
 24   9  35  1   
 25   9  36  1   
 26  10  12  1   
 27  10  13  1   
 28  11  14  1   
 29  11  37  1   
 30  11  38  1   
 31  12  39  1   
 32  12  40  1   
 33  13  15  1   
 34  13  41  1   
 35  13  42  1   
 36  14  43  1   
 37  14  44  1   
 38  14  45  1   
 39  15  16  ar  
 40  15  17  ar  
 41  16  18  1   
 42  16  19  ar  
 43  17  20  ar  
 44  17  46  1   
 45  18  21  1   
 46  19  22  ar  
 47  19  47  1   
 48  20  22  ar  
 49  20  48  1   
 50  21  49  1   
 51  21  50  1   
 52  21  51  1   
 53  22  23  1   
 54  23  52  1   
 55  23  53  1   
 56  23  54  1   
@<TRIPOS>SUBSTRUCTURE
  1 ****  10 GROUP 4 **** **** 0

# MOE 2024.06 (io_trps.svl 2023.06)
