@<TRIPOS>MOLECULE
NONAME
41 42 1 0 0 
SMALL
USER_CHARGES


@<TRIPOS>ATOM
  1 S       -0.9440    -0.4640     1.3040 S.3   1 <1>  -0.4600 
  2 C       -2.2430    -0.4790     0.0210 C.3   1 <1>   0.1310 
  3 C        0.5100    -1.0840     0.4180 C.3   1 <1>   0.0700 
  4 C       -2.4770    -1.8880    -0.5120 C.2   1 <1>   0.5690 
  5 C        1.6380    -1.2360     1.4340 C.3   1 <1>  -0.2400 
  6 O       -2.2660    -2.0980    -1.6840 O.2   1 <1>  -0.5700 
  7 N       -2.9690    -2.8560     0.3160 N.am  1 <1>  -0.6600 
  8 C       -2.5600    -4.2870     0.2020 C.3   1 <1>   0.3640 
  9 C       -4.3740    -2.7550     0.7920 C.3   1 <1>   0.1400 
 10 C       -1.0620    -4.4700    -0.0750 C.ar  1 <1>  -0.1440 
 11 C       -3.5240    -5.0220    -0.7580 C.3   1 <1>   0.2000 
 12 C       -5.2960    -3.5690    -0.1400 C.3   1 <1>   0.1200 
 13 C       -0.2010    -4.6170     1.0050 C.ar  1 <1>  -0.1500 
 14 C       -0.5320    -4.5050    -1.3590 C.ar  1 <1>  -0.1500 
 15 O       -4.8450    -4.8910    -0.2770 O.3   1 <1>  -0.5600 
 16 C       -3.1960    -6.5200    -0.9310 C.3   1 <1>   0.1200 
 17 C        1.1550    -4.8070     0.8080 C.ar  1 <1>  -0.1500 
 18 C        0.8250    -4.6940    -1.5580 C.ar  1 <1>  -0.1500 
 19 O       -2.9420    -7.1600     0.2820 O.3   1 <1>  -0.6800 
 20 C        1.6700    -4.8470    -0.4740 C.ar  1 <1>  -0.1500 
 21 H       -3.1340    -0.0840     0.4680 H     1 <1>   0.0800 
 22 H       -1.9140     0.1690    -0.7690 H     1 <1>   0.0800 
 23 H        0.2520    -2.0280    -0.0280 H     1 <1>   0.0800 
 24 H        0.7560    -0.3690    -0.3480 H     1 <1>   0.0800 
 25 H        1.3470    -1.9280     2.2030 H     1 <1>   0.0800 
 26 H        1.8640    -0.2850     1.8820 H     1 <1>   0.0800 
 27 H        2.5190    -1.6110     0.9470 H     1 <1>   0.0800 
 28 H       -2.7300    -4.7290     1.1690 H     1 <1>   0.0800 
 29 H       -4.4450    -3.1380     1.7960 H     1 <1>   0.0800 
 30 H       -4.6950    -1.7280     0.8040 H     1 <1>   0.0800 
 31 H       -3.4870    -4.5560    -1.7270 H     1 <1>   0.0800 
 32 H       -5.3320    -3.1210    -1.1180 H     1 <1>   0.0800 
 33 H       -6.2930    -3.6050     0.2600 H     1 <1>   0.0800 
 34 H       -0.5830    -4.5770     2.0110 H     1 <1>   0.1500 
 35 H       -1.1680    -4.3740    -2.2170 H     1 <1>   0.1500 
 36 H       -2.3250    -6.6440    -1.5500 H     1 <1>   0.0800 
 37 H       -4.0250    -7.0170    -1.4030 H     1 <1>   0.0800 
 38 H        1.8110    -4.9200     1.6550 H     1 <1>   0.1500 
 39 H        1.2220    -4.7160    -2.5580 H     1 <1>   0.1500 
 40 H       -2.0390    -6.9550     0.5960 H     1 <1>   0.4000 
 41 H        2.7250    -4.9940    -0.6290 H     1 <1>   0.1500 
@<TRIPOS>BOND
  1   1   2  1   
  2   1   3  1   
  3   2   4  1   
  4   2  21  1   
  5   2  22  1   
  6   3   5  1   
  7   3  23  1   
  8   3  24  1   
  9   4   6  2   
 10   4   7  am  
 11   5  25  1   
 12   5  26  1   
 13   5  27  1   
 14   7   8  1   
 15   7   9  1   
 16   8  10  1   
 17   8  11  1   
 18   8  28  1   
 19   9  12  1   
 20   9  29  1   
 21   9  30  1   
 22  10  13  ar  
 23  10  14  ar  
 24  11  15  1   
 25  11  16  1   
 26  11  31  1   
 27  12  15  1   
 28  12  32  1   
 29  12  33  1   
 30  13  17  ar  
 31  13  34  1   
 32  14  18  ar  
 33  14  35  1   
 34  16  19  1   
 35  16  36  1   
 36  16  37  1   
 37  17  20  ar  
 38  17  38  1   
 39  18  20  ar  
 40  18  39  1   
 41  19  40  1   
 42  20  41  1   
@<TRIPOS>SUBSTRUCTURE
  1 ****  10 GROUP 4 **** **** 0

# MOE 2024.06 (io_trps.svl 2023.06)
