@<TRIPOS>MOLECULE
NONAME
35 37 1 0 0 
SMALL
USER_CHARGES


@<TRIPOS>ATOM
  1 S        0.1170     0.0560     0.9740 S.3   1 <1>  -0.0800 
  2 C       -0.1870    -1.6610     1.0990 C.2   1 <1>  -0.1100 
  3 C        1.3170    -0.2100    -0.2720 C.2   1 <1>  -0.1100 
  4 C        0.5700    -2.3790     0.2310 C.2   1 <1>  -0.0860 
  5 C        1.4350    -1.5220    -0.5410 C.2   1 <1>  -0.1500 
  6 C        0.5820    -3.8190     0.0510 C.2   1 <1>   0.7160 
  7 O        1.6220    -4.3810    -0.2320 O.2   1 <1>  -0.5700 
  8 N       -0.5620    -4.5750     0.1750 N.am  1 <1>  -0.6600 
  9 C       -1.9440    -4.0480     0.0490 C.3   1 <1>   0.1400 
 10 C       -0.5510    -6.0490    -0.0120 C.3   1 <1>   0.1400 
 11 C       -2.7840    -5.2440    -0.3970 C.3   1 <1>   0.2000 
 12 C       -2.0170    -6.4780     0.0720 C.3   1 <1>  -0.0800 
 13 O       -4.0470    -5.2250     0.1750 O.3   1 <1>  -0.6800 
 14 C       -2.3570    -7.7330    -0.7510 C.3   1 <1>  -0.0170 
 15 C       -1.6380    -8.9660    -0.2260 C.ar  1 <1>   0.1670 
 16 N       -0.3790    -9.1220    -0.6040 N.ar  1 <1>  -0.6200 
 17 C       -2.3050    -9.8590     0.6110 C.ar  1 <1>   0.1600 
 18 C        0.1620   -10.2160    -0.0950 C.ar  1 <1>   0.1600 
 19 N       -1.7660   -10.9520     1.1230 N.ar  1 <1>  -0.6200 
 20 C       -0.5090   -11.1010     0.7410 C.ar  1 <1>   0.1600 
 21 H       -0.9110    -1.9760     1.8280 H     1 <1>   0.1500 
 22 H        1.8160     0.6550    -0.6740 H     1 <1>   0.1500 
 23 H        2.1100    -1.9500    -1.2630 H     1 <1>   0.1500 
 24 H       -2.2740    -3.6900     1.0080 H     1 <1>   0.0800 
 25 H       -1.9860    -3.2580    -0.6810 H     1 <1>   0.0800 
 26 H       -0.1370    -6.2790    -0.9800 H     1 <1>   0.0800 
 27 H        0.0470    -6.5270     0.7460 H     1 <1>   0.0800 
 28 H       -2.8940    -5.2330    -1.4680 H     1 <1>   0.0800 
 29 H       -2.2340    -6.6620     1.1100 H     1 <1>   0.0800 
 30 H       -3.9840    -5.2480     1.1490 H     1 <1>   0.4000 
 31 H       -2.0860    -7.5830    -1.7820 H     1 <1>   0.0800 
 32 H       -3.4190    -7.8990    -0.7190 H     1 <1>   0.0800 
 33 H       -3.3300    -9.6600     0.8700 H     1 <1>   0.1500 
 34 H        1.1860   -10.4230    -0.3500 H     1 <1>   0.1500 
 35 H        0.0170   -11.9650     1.1060 H     1 <1>   0.1500 
@<TRIPOS>BOND
  1   1   2  1   
  2   1   3  1   
  3   2   4  2   
  4   2  21  1   
  5   3   5  2   
  6   3  22  1   
  7   4   5  1   
  8   4   6  1   
  9   5  23  1   
 10   6   7  2   
 11   6   8  am  
 12   8   9  1   
 13   8  10  1   
 14   9  11  1   
 15   9  24  1   
 16   9  25  1   
 17  10  12  1   
 18  10  26  1   
 19  10  27  1   
 20  11  12  1   
 21  11  13  1   
 22  11  28  1   
 23  12  14  1   
 24  12  29  1   
 25  13  30  1   
 26  14  15  1   
 27  14  31  1   
 28  14  32  1   
 29  15  16  ar  
 30  15  17  ar  
 31  16  18  ar  
 32  17  19  ar  
 33  17  33  1   
 34  18  20  ar  
 35  18  34  1   
 36  19  20  ar  
 37  20  35  1   
@<TRIPOS>SUBSTRUCTURE
  1 ****  10 GROUP 4 **** **** 0

# MOE 2024.06 (io_trps.svl 2023.06)
