@<TRIPOS>MOLECULE
NONAME
47 48 1 0 0 
SMALL
USER_CHARGES


@<TRIPOS>ATOM
  1 F       -2.3880    -1.3830     0.7210 F     1 <1>  -0.3400 
  2 C       -2.4580    -0.4210    -0.1890 C.3   1 <1>   1.1640 
  3 F       -1.2280    -0.2920    -0.6680 F     1 <1>  -0.3400 
  4 F       -3.1850    -0.9030    -1.1900 F     1 <1>  -0.3400 
  5 C       -3.0350     0.9010     0.3480 C.ar  1 <1>  -0.1440 
  6 C       -4.1420     0.9130     1.2140 C.ar  1 <1>   0.0860 
  7 C       -2.4500     2.1080    -0.0270 C.ar  1 <1>  -0.1500 
  8 C       -4.8600    -0.2800     1.6260 C.2   1 <1>   0.5440 
  9 C       -4.5860     2.1420     1.7010 C.ar  1 <1>  -0.1500 
 10 C       -2.9240     3.3140     0.4530 C.ar  1 <1>  -0.1500 
 11 O       -4.9340    -0.5730     2.8010 O.2   1 <1>  -0.5700 
 12 N       -5.5240    -1.0740     0.7280 N.am  1 <1>  -0.6600 
 13 C       -3.9930     3.3300     1.3260 C.ar  1 <1>  -0.1500 
 14 C       -5.6260    -2.5440     1.0370 C.3   1 <1>   0.3210 
 15 C       -6.2140    -0.4980    -0.4760 C.3   1 <1>   0.1400 
 16 C       -6.2700    -3.3830    -0.0660 C.2   1 <1>   0.0460 
 17 C       -7.6080     0.0880    -0.1550 C.3   1 <1>   0.3430 
 18 N       -7.6130    -3.4430    -0.2160 N.2   1 <1>  -0.5650 
 19 C       -5.6490    -4.1490    -0.9950 C.2   1 <1>  -0.3320 
 20 N       -8.4700    -0.8270     0.6610 N.4   1 <1>  -0.9590 
 21 C       -7.7760    -4.2540    -1.2120 C.2   1 <1>   0.0360 
 22 N       -6.6210    -4.7170    -1.7320 N.pl3 1 <1>   0.0330 
 23 C       -4.1730    -4.4060    -1.2550 C.3   1 <1>  -0.0600 
 24 C       -9.9040    -0.7570     0.2620 C.3   1 <1>   0.2630 
 25 C       -8.3070    -0.6170     2.1330 C.3   1 <1>   0.2630 
 26 H       -1.6070     2.1290    -0.7000 H     1 <1>   0.1500 
 27 H       -5.4090     2.1630     2.3950 H     1 <1>   0.1500 
 28 H       -2.4570     4.2380     0.1550 H     1 <1>   0.1500 
 29 H       -4.3550     4.2680     1.7160 H     1 <1>   0.1500 
 30 H       -6.1900    -2.6800     1.9430 H     1 <1>   0.0800 
 31 H       -4.6370    -2.9200     1.2280 H     1 <1>   0.0800 
 32 H       -6.3040    -1.2350    -1.2530 H     1 <1>   0.0800 
 33 H       -5.6110     0.2920    -0.8900 H     1 <1>   0.0800 
 34 H       -8.0970     0.3000    -1.0910 H     1 <1>   0.0800 
 35 H       -7.4860     1.0240     0.3640 H     1 <1>   0.0800 
 36 H       -8.1390    -1.7970     0.4450 H     1 <1>   0.4500 
 37 H       -8.7320    -4.5540    -1.6080 H     1 <1>   0.1500 
 38 H       -6.5110    -5.3710    -2.5130 H     1 <1>   0.2700 
 39 H       -3.5580    -3.8450    -0.5740 H     1 <1>   0.0800 
 40 H       -3.9160    -4.1120    -2.2570 H     1 <1>   0.0800 
 41 H       -3.9500    -5.4510    -1.1310 H     1 <1>   0.0800 
 42 H      -10.2990     0.2280     0.4520 H     1 <1>   0.0800 
 43 H      -10.4780    -1.4770     0.8220 H     1 <1>   0.0800 
 44 H      -10.0080    -0.9800    -0.7870 H     1 <1>   0.0800 
 45 H       -8.6290     0.3730     2.4100 H     1 <1>   0.0800 
 46 H       -7.2760    -0.7360     2.4210 H     1 <1>   0.0800 
 47 H       -8.8930    -1.3380     2.6770 H     1 <1>   0.0800 
@<TRIPOS>BOND
  1   1   2  1   
  2   2   3  1   
  3   2   4  1   
  4   2   5  1   
  5   5   6  ar  
  6   5   7  ar  
  7   6   8  1   
  8   6   9  ar  
  9   7  10  ar  
 10   7  26  1   
 11   8  11  2   
 12   8  12  am  
 13   9  13  ar  
 14   9  27  1   
 15  10  13  ar  
 16  10  28  1   
 17  12  14  1   
 18  12  15  1   
 19  13  29  1   
 20  14  16  1   
 21  14  30  1   
 22  14  31  1   
 23  15  17  1   
 24  15  32  1   
 25  15  33  1   
 26  16  18  1   
 27  16  19  2   
 28  17  20  1   
 29  17  34  1   
 30  17  35  1   
 31  18  21  2   
 32  19  22  1   
 33  19  23  1   
 34  20  24  1   
 35  20  25  1   
 36  20  36  1   
 37  21  22  1   
 38  21  37  1   
 39  22  38  1   
 40  23  39  1   
 41  23  40  1   
 42  23  41  1   
 43  24  42  1   
 44  24  43  1   
 45  24  44  1   
 46  25  45  1   
 47  25  46  1   
 48  25  47  1   
@<TRIPOS>SUBSTRUCTURE
  1 ****  12 GROUP 4 **** **** 0

# MOE 2024.06 (io_trps.svl 2023.06)
