@<TRIPOS>MOLECULE
NONAME
51 53 1 0 0 
SMALL
USER_CHARGES


@<TRIPOS>ATOM
  1 O       -2.1240    -0.4370    -2.8240 O.2   1 <1>  -0.5700 
  2 C       -2.2710    -0.8600    -1.7110 C.2   1 <1>   0.5690 
  3 N       -2.1230    -0.0480    -0.6510 N.am  1 <1>  -0.7300 
  4 C       -2.6630    -2.2980    -1.5060 C.3   1 <1>  -0.0190 
  5 C       -2.2880    -0.4400     0.7680 C.3   1 <1>   0.2200 
  6 C       -1.5990    -3.0700    -0.6940 C.3   1 <1>   0.1200 
  7 C       -4.1030    -2.3400    -0.9740 C.3   1 <1>   0.3430 
  8 C       -1.2780    -1.5550     1.1390 C.3   1 <1>   0.1200 
  9 C       -3.7690    -0.8160     1.0600 C.3   1 <1>   0.3430 
 10 O       -1.6720    -2.8270     0.6880 O.3   1 <1>  -0.5600 
 11 N       -4.2110    -2.1510     0.5150 N.4   1 <1>  -0.9590 
 12 C       -5.5250    -2.5900     1.0580 C.3   1 <1>   0.4860 
 13 C       -5.7290    -4.0520     0.7060 C.ar  1 <1>  -0.1430 
 14 C       -6.7250    -4.4190    -0.1900 C.ar  1 <1>  -0.1500 
 15 C       -4.9060    -5.0250     1.2570 C.ar  1 <1>  -0.1500 
 16 C       -6.8950    -5.7520    -0.5510 C.ar  1 <1>   0.0830 
 17 C       -5.0660    -6.3520     0.9010 C.ar  1 <1>  -0.1500 
 18 O       -7.8540    -6.1620    -1.4280 O.3   1 <1>  -0.3630 
 19 C       -6.0540    -6.7180     0.0020 C.ar  1 <1>   0.0830 
 20 C       -8.9100    -5.3210    -1.8320 C.3   1 <1>   0.0400 
 21 O       -6.1740    -8.0200    -0.3540 O.3   1 <1>  -0.3630 
 22 C       -6.6850    -8.9210     0.6020 C.3   1 <1>   0.2000 
 23 C       -6.2400   -10.3210     0.1880 C.3   1 <1>  -0.2400 
 24 C       -8.2100    -8.8040     0.6260 C.3   1 <1>  -0.2400 
 25 H       -1.7990     0.9050    -0.8570 H     1 <1>   0.3700 
 26 H       -2.6820    -2.7390    -2.4870 H     1 <1>   0.0800 
 27 H       -2.0470     0.4270     1.3600 H     1 <1>   0.0800 
 28 H       -0.6050    -2.8300    -1.0360 H     1 <1>   0.0800 
 29 H       -1.7470    -4.1280    -0.8290 H     1 <1>   0.0800 
 30 H       -4.5080    -3.3050    -1.2320 H     1 <1>   0.0800 
 31 H       -4.6930    -1.5950    -1.4840 H     1 <1>   0.0800 
 32 H       -1.2030    -1.6210     2.2110 H     1 <1>   0.0800 
 33 H       -0.2970    -1.3320     0.7540 H     1 <1>   0.0800 
 34 H       -4.4040    -0.0360     0.6730 H     1 <1>   0.0800 
 35 H       -3.8910    -0.8310     2.1300 H     1 <1>   0.0800 
 36 H       -3.5030    -2.8210     0.8770 H     1 <1>   0.4500 
 37 H       -5.5400    -2.4800     2.1300 H     1 <1>   0.0800 
 38 H       -6.3190    -1.9940     0.6390 H     1 <1>   0.0800 
 39 H       -7.3640    -3.6660    -0.6110 H     1 <1>   0.1500 
 40 H       -4.1310    -4.7710     1.9620 H     1 <1>   0.1500 
 41 H       -4.4220    -7.1090     1.3130 H     1 <1>   0.1500 
 42 H       -9.5900    -5.9060    -2.4270 H     1 <1>   0.0800 
 43 H       -8.5120    -4.5170    -2.4240 H     1 <1>   0.0800 
 44 H       -9.4170    -4.9500    -0.9590 H     1 <1>   0.0800 
 45 H       -6.2730    -8.6770     1.5660 H     1 <1>   0.0800 
 46 H       -6.6280   -10.5620    -0.7860 H     1 <1>   0.0800 
 47 H       -6.6030   -11.0470     0.8930 H     1 <1>   0.0800 
 48 H       -5.1670   -10.3720     0.1660 H     1 <1>   0.0800 
 49 H       -8.6110    -8.9850    -0.3550 H     1 <1>   0.0800 
 50 H       -8.5020    -7.8220     0.9500 H     1 <1>   0.0800 
 51 H       -8.6240    -9.5220     1.3090 H     1 <1>   0.0800 
@<TRIPOS>BOND
  1   1   2  2   
  2   2   3  am  
  3   2   4  1   
  4   3   5  1   
  5   3  25  1   
  6   4   6  1   
  7   4   7  1   
  8   4  26  1   
  9   5   8  1   
 10   5   9  1   
 11   5  27  1   
 12   6  10  1   
 13   6  28  1   
 14   6  29  1   
 15   7  11  1   
 16   7  30  1   
 17   7  31  1   
 18   8  10  1   
 19   8  32  1   
 20   8  33  1   
 21   9  11  1   
 22   9  34  1   
 23   9  35  1   
 24  11  12  1   
 25  11  36  1   
 26  12  13  1   
 27  12  37  1   
 28  12  38  1   
 29  13  14  ar  
 30  13  15  ar  
 31  14  16  ar  
 32  14  39  1   
 33  15  17  ar  
 34  15  40  1   
 35  16  18  1   
 36  16  19  ar  
 37  17  19  ar  
 38  17  41  1   
 39  18  20  1   
 40  19  21  1   
 41  20  42  1   
 42  20  43  1   
 43  20  44  1   
 44  21  22  1   
 45  22  23  1   
 46  22  24  1   
 47  22  45  1   
 48  23  46  1   
 49  23  47  1   
 50  23  48  1   
 51  24  49  1   
 52  24  50  1   
 53  24  51  1   
@<TRIPOS>SUBSTRUCTURE
  1 ****  13 GROUP 4 **** **** 0

# MOE 2024.06 (io_trps.svl 2023.06)
