@<TRIPOS>MOLECULE
NONAME
59 62 1 0 0 
SMALL
USER_CHARGES


@<TRIPOS>ATOM
  1 O        0.4780    -1.9550     2.8020 O.2   1 <1>  -0.5700 
  2 C        0.8410    -2.4070     1.7430 C.2   1 <1>   0.5690 
  3 N        0.5230    -1.7740     0.5670 N.am  1 <1>  -0.6600 
  4 C        1.6570    -3.6840     1.8220 C.3   1 <1>  -0.0990 
  5 C        1.1090    -2.0720    -0.7780 C.3   1 <1>   0.1400 
  6 C       -0.4380    -0.6210     0.5920 C.3   1 <1>   0.1400 
  7 C        1.9600    -4.3940     0.5050 C.3   1 <1>   0.1200 
  8 C        2.6250    -2.4180    -0.7710 C.3   1 <1>   0.2800 
  9 C        0.2910     0.7160     0.7720 C.3   1 <1>   0.1200 
 10 O        2.9100    -3.6950    -0.2500 O.3   1 <1>  -0.5600 
 11 C        3.1530    -2.4520    -2.2140 C.3   1 <1>  -0.1600 
 12 C        3.4650    -1.3970     0.0320 C.3   1 <1>  -0.1600 
 13 O        0.9840     1.0420    -0.4210 O.3   1 <1>  -0.3630 
 14 C        4.6290    -2.8680    -2.2950 C.3   1 <1>   0.3430 
 15 C        4.9220    -1.2670    -0.4140 C.3   1 <1>   0.3430 
 16 C        1.9600     1.9820    -0.4550 C.ar  1 <1>   0.0820 
 17 N        5.3510    -2.5400    -1.0360 N.4   1 <1>  -0.9590 
 18 C        2.5660     2.2000    -1.6820 C.ar  1 <1>  -0.1500 
 19 C        2.3870     2.7020     0.6580 C.ar  1 <1>  -0.1500 
 20 C        6.8320    -2.7190    -1.0980 C.3   1 <1>   0.4860 
 21 C        3.5980     3.1130    -1.8030 C.ar  1 <1>  -0.1500 
 22 C        3.4210     3.6140     0.5350 C.ar  1 <1>  -0.1500 
 23 C        7.4010    -2.8470     0.3150 C.ar  1 <1>   0.1670 
 24 C        4.0280     3.8190    -0.6930 C.ar  1 <1>  -0.1500 
 25 N        6.6840    -3.5620     1.1760 N.ar  1 <1>  -0.6200 
 26 C        8.6000    -2.2240     0.6320 C.ar  1 <1>  -0.1500 
 27 C        7.1880    -3.6630     2.3980 C.ar  1 <1>   0.1600 
 28 C        9.1080    -2.3370     1.9080 C.ar  1 <1>  -0.1500 
 29 C        8.3740    -3.0790     2.8070 C.ar  1 <1>  -0.1500 
 30 H        1.0980    -4.3650     2.4360 H     1 <1>   0.0800 
 31 H        2.5760    -3.4840     2.3420 H     1 <1>   0.0800 
 32 H        0.9840    -1.2030    -1.3990 H     1 <1>   0.0800 
 33 H        0.5460    -2.8570    -1.2510 H     1 <1>   0.0800 
 34 H       -1.1200    -0.7500     1.4150 H     1 <1>   0.0800 
 35 H       -1.0260    -0.6020    -0.3090 H     1 <1>   0.0800 
 36 H        1.0700    -4.5600    -0.0770 H     1 <1>   0.0800 
 37 H        2.3900    -5.3570     0.7220 H     1 <1>   0.0800 
 38 H        0.9890     0.6270     1.5850 H     1 <1>   0.0800 
 39 H       -0.4090     1.5070     0.9740 H     1 <1>   0.0800 
 40 H        3.0460    -1.4750    -2.6530 H     1 <1>   0.0800 
 41 H        2.5640    -3.1270    -2.8070 H     1 <1>   0.0800 
 42 H        3.4420    -1.6380     1.0780 H     1 <1>   0.0800 
 43 H        3.0310    -0.4240    -0.0590 H     1 <1>   0.0800 
 44 H        5.0930    -2.3780    -3.1350 H     1 <1>   0.0800 
 45 H        4.6800    -3.9340    -2.4540 H     1 <1>   0.0800 
 46 H        5.5360    -1.0370     0.4430 H     1 <1>   0.0800 
 47 H        5.0140    -0.4650    -1.1290 H     1 <1>   0.0800 
 48 H        5.0460    -3.2540    -0.3410 H     1 <1>   0.4500 
 49 H        2.2200     1.6570    -2.5430 H     1 <1>   0.1500 
 50 H        1.9320     2.5720     1.6210 H     1 <1>   0.1500 
 51 H        7.2890    -1.8890    -1.6090 H     1 <1>   0.0800 
 52 H        7.0620    -3.6240    -1.6330 H     1 <1>   0.0800 
 53 H        4.0620     3.2830    -2.7600 H     1 <1>   0.1500 
 54 H        3.7520     4.1700     1.3950 H     1 <1>   0.1500 
 55 H        4.8290     4.5320    -0.7840 H     1 <1>   0.1500 
 56 H        9.1430    -1.6550    -0.1020 H     1 <1>   0.1500 
 57 H        6.6270    -4.2430     3.1130 H     1 <1>   0.1500 
 58 H       10.0360    -1.8690     2.1930 H     1 <1>   0.1500 
 59 H        8.7170    -3.2080     3.8190 H     1 <1>   0.1500 
@<TRIPOS>BOND
  1   1   2  2   
  2   2   3  am  
  3   2   4  1   
  4   3   5  1   
  5   3   6  1   
  6   4   7  1   
  7   4  30  1   
  8   4  31  1   
  9   5   8  1   
 10   5  32  1   
 11   5  33  1   
 12   6   9  1   
 13   6  34  1   
 14   6  35  1   
 15   7  10  1   
 16   7  36  1   
 17   7  37  1   
 18   8  10  1   
 19   8  11  1   
 20   8  12  1   
 21   9  13  1   
 22   9  38  1   
 23   9  39  1   
 24  11  14  1   
 25  11  40  1   
 26  11  41  1   
 27  12  15  1   
 28  12  42  1   
 29  12  43  1   
 30  13  16  1   
 31  14  17  1   
 32  14  44  1   
 33  14  45  1   
 34  15  17  1   
 35  15  46  1   
 36  15  47  1   
 37  16  18  ar  
 38  16  19  ar  
 39  17  20  1   
 40  17  48  1   
 41  18  21  ar  
 42  18  49  1   
 43  19  22  ar  
 44  19  50  1   
 45  20  23  1   
 46  20  51  1   
 47  20  52  1   
 48  21  24  ar  
 49  21  53  1   
 50  22  24  ar  
 51  22  54  1   
 52  23  25  ar  
 53  23  26  ar  
 54  24  55  1   
 55  25  27  ar  
 56  26  28  ar  
 57  26  56  1   
 58  27  29  ar  
 59  27  57  1   
 60  28  29  ar  
 61  28  58  1   
 62  29  59  1   
@<TRIPOS>SUBSTRUCTURE
  1 ****  12 GROUP 4 **** **** 0

# MOE 2024.06 (io_trps.svl 2023.06)
