@<TRIPOS>MOLECULE
NONAME
42 45 1 0 0 
SMALL
USER_CHARGES


@<TRIPOS>ATOM
  1 O        0.0890     0.3440    -2.7390 O.2   1 <1>  -0.5700 
  2 C        0.9530    -0.2020    -2.1020 C.2   1 <1>   0.5690 
  3 N        1.9480     0.4940    -1.5130 N.am  1 <1>  -0.7300 
  4 C        0.9170    -1.7080    -1.9450 C.3   1 <1>  -0.0990 
  5 C        2.0660     1.9740    -1.5690 C.3   1 <1>   0.3210 
  6 C        0.2340    -2.1230    -0.6320 C.3   1 <1>  -0.1600 
  7 C        3.2160     2.4890    -0.7030 C.2   1 <1>   0.3350 
  8 C        0.1210    -3.6490    -0.5160 C.3   1 <1>   0.0960 
  9 N        4.0100     1.7500    -0.0220 N.2   1 <1>  -0.4100 
 10 N        3.4670     3.8000    -0.6050 N.2   1 <1>  -0.5650 
 11 N       -0.4780    -4.0310     0.7770 N.pl3 1 <1>   0.3140 
 12 O        4.7990     2.5930     0.5360 O.3   1 <1>  -0.0190 
 13 C        4.4800     3.8120     0.1920 C.2   1 <1>   0.4250 
 14 N        0.2490    -4.2980     1.8520 N.2   1 <1>  -0.7070 
 15 C       -1.7690    -4.1680     1.0900 C.2   1 <1>   0.0360 
 16 C        5.2190     4.9520     0.6880 C.ar  1 <1>   0.0530 
 17 C       -0.6530    -4.5760     2.7350 C.2   1 <1>   0.3660 
 18 N       -1.9240    -4.5110     2.3170 N.2   1 <1>  -0.5650 
 19 C        4.8600     6.2510     0.3060 C.ar  1 <1>  -0.1500 
 20 C        6.3110     4.8000     1.5610 C.ar  1 <1>  -0.1500 
 21 C        5.5810     7.3200     0.7920 C.ar  1 <1>   0.0820 
 22 C        7.0260     5.8870     2.0420 C.ar  1 <1>  -0.1500 
 23 O        5.3980     8.6230     0.5490 O.3   1 <1>  -0.3620 
 24 C        6.6360     7.1470     1.6380 C.ar  1 <1>   0.0820 
 25 C        6.3990     9.3220     1.2850 C.3   1 <1>   0.4000 
 26 O        7.1640     8.3280     1.9640 O.3   1 <1>  -0.3630 
 27 H        2.6670     0.0390    -0.9430 H     1 <1>   0.3700 
 28 H        1.9220    -2.0890    -1.9790 H     1 <1>   0.0800 
 29 H        0.3780    -2.1170    -2.7810 H     1 <1>   0.0800 
 30 H        1.1460     2.4160    -1.2320 H     1 <1>   0.0800 
 31 H        2.2310     2.2770    -2.5880 H     1 <1>   0.0800 
 32 H       -0.7500    -1.6860    -0.5950 H     1 <1>   0.0800 
 33 H        0.8050    -1.7440     0.2000 H     1 <1>   0.0800 
 34 H        1.0960    -4.0990    -0.5750 H     1 <1>   0.0800 
 35 H       -0.4890    -4.0430    -1.3080 H     1 <1>   0.0800 
 36 H       -2.5650    -4.0040     0.3870 H     1 <1>   0.1500 
 37 H       -0.4220    -4.8450     3.7530 H     1 <1>   0.1500 
 38 H        4.0330     6.4230    -0.3590 H     1 <1>   0.1500 
 39 H        6.6080     3.8130     1.8710 H     1 <1>   0.1500 
 40 H        7.8610     5.7690     2.7100 H     1 <1>   0.1500 
 41 H        5.9320     9.9720     2.0030 H     1 <1>   0.0800 
 42 H        7.0330     9.8650     0.6070 H     1 <1>   0.0800 
@<TRIPOS>BOND
  1   1   2  2   
  2   2   3  am  
  3   2   4  1   
  4   3   5  1   
  5   3  27  1   
  6   4   6  1   
  7   4  28  1   
  8   4  29  1   
  9   5   7  1   
 10   5  30  1   
 11   5  31  1   
 12   6   8  1   
 13   6  32  1   
 14   6  33  1   
 15   7   9  2   
 16   7  10  1   
 17   8  11  1   
 18   8  34  1   
 19   8  35  1   
 20   9  12  1   
 21  10  13  2   
 22  11  14  1   
 23  11  15  1   
 24  12  13  1   
 25  13  16  1   
 26  14  17  2   
 27  15  18  2   
 28  15  36  1   
 29  16  19  ar  
 30  16  20  ar  
 31  17  18  1   
 32  17  37  1   
 33  19  21  ar  
 34  19  38  1   
 35  20  22  ar  
 36  20  39  1   
 37  21  23  1   
 38  21  24  ar  
 39  22  24  ar  
 40  22  40  1   
 41  23  25  1   
 42  24  26  1   
 43  25  26  1   
 44  25  41  1   
 45  25  42  1   
@<TRIPOS>SUBSTRUCTURE
  1 ****   9 GROUP 4 **** **** 0

# MOE 2024.06 (io_trps.svl 2023.06)
