@<TRIPOS>MOLECULE
NONAME
46 49 1 0 0 
SMALL
USER_CHARGES


@<TRIPOS>ATOM
  1 CL      -4.0870    -1.2290     3.0040 Cl    1 <1>  -0.1770 
  2 C       -3.3170    -0.8260     1.4890 C.ar  1 <1>   0.1770 
  3 C       -3.3680    -1.7470     0.4350 C.ar  1 <1>   0.0000 
  4 C       -2.6750     0.3790     1.3390 C.ar  1 <1>  -0.1500 
  5 C       -2.7550    -1.4180    -0.7690 C.ar  1 <1>  -0.1520 
  6 C       -3.9190    -3.0300     0.2610 C.2   1 <1>  -0.1500 
  7 C       -2.0600     0.6950     0.1200 C.ar  1 <1>  -0.1500 
  8 N       -2.9360    -2.4630    -1.6340 N.pl3 1 <1>   0.0330 
  9 C       -2.0970    -0.1940    -0.9310 C.ar  1 <1>  -0.1500 
 10 C       -3.6590    -3.4500    -1.0140 C.2   1 <1>  -0.2370 
 11 C       -3.9700    -4.6710    -1.7110 C.2   1 <1>   0.7150 
 12 O       -3.3090    -4.9640    -2.6910 O.2   1 <1>  -0.5700 
 13 N       -4.9900    -5.4950    -1.3120 N.am  1 <1>  -0.6600 
 14 C       -4.8950    -6.9780    -1.4640 C.3   1 <1>   0.1400 
 15 C       -6.3190    -4.9980    -0.8500 C.3   1 <1>   0.1400 
 16 C       -5.1270    -7.7150    -0.1180 C.3   1 <1>  -0.1060 
 17 C       -6.9640    -5.9620     0.1570 C.3   1 <1>  -0.1600 
 18 C       -5.9240    -8.9780    -0.4850 C.2   1 <1>   0.9060 
 19 C       -5.8910    -6.7830     0.8700 C.3   1 <1>   0.2000 
 20 C       -3.7840    -8.1820     0.5110 C.3   1 <1>  -0.0650 
 21 O       -5.5040    -9.6920    -1.4030 O.co2 1 <1>  -0.9000 
 22 O       -6.9640    -9.2750     0.1220 O.co2 1 <1>  -0.9000 
 23 O       -6.4890    -7.4980     1.8850 O.3   1 <1>  -0.6800 
 24 C       -2.7540    -7.0820     0.8280 C.3   1 <1>  -0.1950 
 25 C       -1.7380    -6.6320    -0.1740 C.3   1 <1>  -0.2000 
 26 C       -1.3170    -7.4550     1.0080 C.3   1 <1>  -0.2000 
 27 H       -2.6410     1.0790     2.1540 H     1 <1>   0.1500 
 28 H       -4.4410    -3.5680     1.0330 H     1 <1>   0.1500 
 29 H       -1.5590     1.6420     0.0150 H     1 <1>   0.1500 
 30 H       -2.5620    -2.5480    -2.5870 H     1 <1>   0.2700 
 31 H       -1.6270     0.0410    -1.8710 H     1 <1>   0.1500 
 32 H       -5.6470    -7.2770    -2.1760 H     1 <1>   0.0800 
 33 H       -3.9470    -7.2630    -1.8840 H     1 <1>   0.0800 
 34 H       -6.2120    -4.0300    -0.3970 H     1 <1>   0.0800 
 35 H       -6.9670    -4.8890    -1.7030 H     1 <1>   0.0800 
 36 H       -7.6340    -6.6240    -0.3630 H     1 <1>   0.0800 
 37 H       -7.5360    -5.3990     0.8720 H     1 <1>   0.0800 
 38 H       -5.2160    -6.0930     1.3390 H     1 <1>   0.0800 
 39 H       -4.0080    -8.7070     1.4240 H     1 <1>   0.0800 
 40 H       -3.3280    -8.8990    -0.1510 H     1 <1>   0.0800 
 41 H       -6.8810    -8.3090     1.4340 H     1 <1>   0.4000 
 42 H       -3.1240    -6.3480     1.5210 H     1 <1>   0.1000 
 43 H       -1.7320    -7.0850    -1.1510 H     1 <1>   0.1000 
 44 H       -1.4830    -5.5870    -0.2060 H     1 <1>   0.1000 
 45 H       -0.7570    -6.9830     1.7960 H     1 <1>   0.1000 
 46 H       -1.0180    -8.4760     0.8420 H     1 <1>   0.1000 
@<TRIPOS>BOND
  1   1   2  1   
  2   2   3  ar  
  3   2   4  ar  
  4   3   5  ar  
  5   3   6  1   
  6   4   7  ar  
  7   4  27  1   
  8   5   8  1   
  9   5   9  ar  
 10   6  10  2   
 11   6  28  1   
 12   7   9  ar  
 13   7  29  1   
 14   8  10  1   
 15   8  30  1   
 16   9  31  1   
 17  10  11  1   
 18  11  12  2   
 19  11  13  am  
 20  13  14  1   
 21  13  15  1   
 22  14  16  1   
 23  14  32  1   
 24  14  33  1   
 25  15  17  1   
 26  15  34  1   
 27  15  35  1   
 28  16  18  1   
 29  16  19  1   
 30  16  20  1   
 31  17  19  1   
 32  17  36  1   
 33  17  37  1   
 34  18  21  ar  
 35  18  22  ar  
 36  19  23  1   
 37  19  38  1   
 38  20  24  1   
 39  20  39  1   
 40  20  40  1   
 41  23  41  1   
 42  24  25  1   
 43  24  26  1   
 44  24  42  1   
 45  25  26  1   
 46  25  43  1   
 47  25  44  1   
 48  26  45  1   
 49  26  46  1   
@<TRIPOS>SUBSTRUCTURE
  1 ****  11 GROUP 4 **** **** 0

# MOE 2024.06 (io_trps.svl 2023.06)
