@<TRIPOS>MOLECULE
NONAME
54 58 1 0 0 
SMALL
USER_CHARGES


@<TRIPOS>ATOM
  1 O       -3.7260     1.5300    -3.9860 O.2   1 <1>  -0.5700 
  2 C       -3.8110     1.8360    -2.8110 C.2   1 <1>   0.7160 
  3 N       -4.9490     1.4280    -2.1400 N.am  1 <1>  -0.6600 
  4 C       -2.7050     2.4940    -2.1140 C.2   1 <1>   0.1410 
  5 C       -5.5280     2.1920    -0.9900 C.3   1 <1>   0.1400 
  6 C       -5.2490    -0.0290    -2.0970 C.3   1 <1>   0.1400 
  7 N       -2.4720     2.3010    -0.7800 N.2   1 <1>  -0.5650 
  8 C       -1.7260     3.3140    -2.6040 C.2   1 <1>  -0.3320 
  9 C       -5.2610     1.5050     0.3770 C.3   1 <1>   0.4230 
 10 C       -4.7040    -0.6640    -0.7940 C.3   1 <1>   0.3430 
 11 C       -1.3850     2.9590    -0.5060 C.2   1 <1>   0.1330 
 12 N       -0.8990     3.6020    -1.5930 N.pl3 1 <1>   0.0330 
 13 C       -1.5060     3.8500    -4.0120 C.3   1 <1>  -0.0600 
 14 N       -4.3000     0.3530     0.2500 N.4   1 <1>  -0.9590 
 15 C       -6.5490     1.0400     1.0920 C.3   1 <1>   0.1200 
 16 C       -0.7570     2.9960     0.7900 C.ar  1 <1>   0.0530 
 17 C       -4.0110    -0.1950     1.6020 C.3   1 <1>   0.5180 
 18 O       -6.2370     0.4760     2.3400 O.3   1 <1>  -0.5600 
 19 C        0.5640     2.5900     0.9650 C.ar  1 <1>  -0.1500 
 20 C       -1.4640     3.4230     1.9120 C.ar  1 <1>  -0.1500 
 21 C       -3.0110    -1.3500     1.4850 C.3   1 <1>  -0.1950 
 22 C       -5.3200    -0.5920     2.3230 C.3   1 <1>   0.1200 
 23 C        1.1560     2.6060     2.2140 C.ar  1 <1>  -0.1500 
 24 C       -0.8770     3.4420     3.1630 C.ar  1 <1>  -0.1500 
 25 C       -1.8980    -1.4810     2.4790 C.3   1 <1>  -0.2000 
 26 C       -1.5950    -1.1010     1.0590 C.3   1 <1>  -0.2000 
 27 C        0.4360     3.0320     3.3160 C.ar  1 <1>  -0.1500 
 28 H       -5.1030     3.1810    -0.9680 H     1 <1>   0.0800 
 29 H       -6.5860     2.3120    -1.1450 H     1 <1>   0.0800 
 30 H       -6.3140    -0.1710    -2.1540 H     1 <1>   0.0800 
 31 H       -4.8140    -0.5260    -2.9490 H     1 <1>   0.0800 
 32 H       -4.8150     2.2530     1.0120 H     1 <1>   0.0800 
 33 H       -3.8470    -1.2690    -1.0430 H     1 <1>   0.0800 
 34 H       -5.4550    -1.3240    -0.3950 H     1 <1>   0.0800 
 35 H       -0.0590     4.1880    -1.6110 H     1 <1>   0.2700 
 36 H       -2.3160     3.5710    -4.6620 H     1 <1>   0.0800 
 37 H       -0.5940     3.4530    -4.4220 H     1 <1>   0.0800 
 38 H       -1.4430     4.9230    -3.9980 H     1 <1>   0.0800 
 39 H       -3.4230     0.7940    -0.0940 H     1 <1>   0.4500 
 40 H       -7.0840     0.3130     0.5070 H     1 <1>   0.0800 
 41 H       -7.1980     1.8790     1.2720 H     1 <1>   0.0800 
 42 H       -3.5420     0.5800     2.1860 H     1 <1>   0.0800 
 43 H        1.1320     2.2480     0.1170 H     1 <1>   0.1500 
 44 H       -2.4810     3.7480     1.7960 H     1 <1>   0.1500 
 45 H       -3.4710    -2.2750     1.1820 H     1 <1>   0.1000 
 46 H       -5.1070    -0.8550     3.3450 H     1 <1>   0.0800 
 47 H       -5.7850    -1.4360     1.8460 H     1 <1>   0.0800 
 48 H        2.1770     2.2870     2.3330 H     1 <1>   0.1500 
 49 H       -1.4350     3.7780     4.0210 H     1 <1>   0.1500 
 50 H       -1.7520    -0.7310     3.2390 H     1 <1>   0.1000 
 51 H       -1.6050    -2.4620     2.8160 H     1 <1>   0.1000 
 52 H       -1.0960    -1.8250     0.4360 H     1 <1>   0.1000 
 53 H       -1.2500    -0.0970     0.8730 H     1 <1>   0.1000 
 54 H        0.8970     3.0470     4.2900 H     1 <1>   0.1500 
@<TRIPOS>BOND
  1   1   2  2   
  2   2   3  am  
  3   2   4  1   
  4   3   5  1   
  5   3   6  1   
  6   4   7  1   
  7   4   8  2   
  8   5   9  1   
  9   5  28  1   
 10   5  29  1   
 11   6  10  1   
 12   6  30  1   
 13   6  31  1   
 14   7  11  2   
 15   8  12  1   
 16   8  13  1   
 17   9  14  1   
 18   9  15  1   
 19   9  32  1   
 20  10  14  1   
 21  10  33  1   
 22  10  34  1   
 23  11  12  1   
 24  11  16  1   
 25  12  35  1   
 26  13  36  1   
 27  13  37  1   
 28  13  38  1   
 29  14  17  1   
 30  14  39  1   
 31  15  18  1   
 32  15  40  1   
 33  15  41  1   
 34  16  19  ar  
 35  16  20  ar  
 36  17  21  1   
 37  17  22  1   
 38  17  42  1   
 39  18  22  1   
 40  19  23  ar  
 41  19  43  1   
 42  20  24  ar  
 43  20  44  1   
 44  21  25  1   
 45  21  26  1   
 46  21  45  1   
 47  22  46  1   
 48  22  47  1   
 49  23  27  ar  
 50  23  48  1   
 51  24  27  ar  
 52  24  49  1   
 53  25  26  1   
 54  25  50  1   
 55  25  51  1   
 56  26  52  1   
 57  26  53  1   
 58  27  54  1   
@<TRIPOS>SUBSTRUCTURE
  1 ****   7 GROUP 4 **** **** 0

# MOE 2024.06 (io_trps.svl 2023.06)
