@<TRIPOS>MOLECULE
NONAME
46 48 1 0 0 
SMALL
USER_CHARGES


@<TRIPOS>ATOM
  1 O       -2.5870     0.6990    -2.1600 O.2   1 <1>  -0.5700 
  2 C       -2.2500     1.0500    -1.0470 C.2   1 <1>   0.5440 
  3 N       -2.4150     0.1370    -0.0310 N.am  1 <1>  -0.6600 
  4 C       -1.7730     2.3970    -0.8040 C.ar  1 <1>   0.0860 
  5 C       -3.2770     0.4610     1.1440 C.3   1 <1>   0.1400 
  6 C       -2.3630    -1.3200    -0.3460 C.3   1 <1>   0.1400 
  7 C       -2.0940     3.4330    -1.6830 C.ar  1 <1>   0.1600 
  8 C       -0.9930     2.7230     0.2980 C.ar  1 <1>  -0.1500 
  9 C       -4.7070    -0.1100     0.9680 C.3   1 <1>   0.4230 
 10 C       -3.7850    -1.8580    -0.5790 C.3   1 <1>   0.3430 
 11 N       -1.7490     4.7050    -1.5450 N.ar  1 <1>  -0.6200 
 12 C       -0.6180     4.0370     0.4610 C.ar  1 <1>   0.0830 
 13 N       -4.6970    -1.5870     0.6010 N.4   1 <1>  -0.9590 
 14 C       -5.5070     0.7100    -0.0730 C.3   1 <1>   0.1200 
 15 C       -1.0170     4.9820    -0.4780 C.ar  1 <1>   0.1600 
 16 O        0.1260     4.3650     1.5320 O.3   1 <1>  -0.5330 
 17 C       -6.1120    -2.0520     0.3770 C.3   1 <1>   0.4230 
 18 O       -6.8000     0.1950    -0.2020 O.3   1 <1>  -0.5600 
 19 C       -6.8590    -1.1380    -0.6250 C.3   1 <1>   0.1200 
 20 C       -6.1390    -3.5340    -0.0310 C.3   1 <1>  -0.1600 
 21 C       -7.5400    -4.1530     0.1030 C.3   1 <1>  -0.1600 
 22 C       -7.5090    -5.6470    -0.2310 C.3   1 <1>  -0.2400 
 23 H       -2.8320     0.0480     2.0320 H     1 <1>   0.0800 
 24 H       -3.3350     1.5280     1.2810 H     1 <1>   0.0800 
 25 H       -1.7720    -1.4810    -1.2330 H     1 <1>   0.0800 
 26 H       -1.8890    -1.8500     0.4620 H     1 <1>   0.0800 
 27 H       -2.6790     3.1900    -2.5550 H     1 <1>   0.1500 
 28 H       -0.6780     1.9810     1.0090 H     1 <1>   0.1500 
 29 H       -5.2190     0.0100     1.9080 H     1 <1>   0.0800 
 30 H       -3.7280    -2.9170    -0.7670 H     1 <1>   0.0800 
 31 H       -4.1790    -1.3850    -1.4640 H     1 <1>   0.0800 
 32 H       -4.3280    -2.1040     1.4060 H     1 <1>   0.4500 
 33 H       -5.0340     0.7000    -1.0400 H     1 <1>   0.0800 
 34 H       -5.5980     1.7330     0.2490 H     1 <1>   0.0800 
 35 H       -0.7230     6.0080    -0.3450 H     1 <1>   0.1500 
 36 H        0.3930     5.3030     1.5690 H     1 <1>   0.4500 
 37 H       -6.6400    -1.9730     1.3140 H     1 <1>   0.0800 
 38 H       -7.8990    -1.4070    -0.6760 H     1 <1>   0.0800 
 39 H       -6.4410    -1.2080    -1.6140 H     1 <1>   0.0800 
 40 H       -5.8140    -3.6480    -1.0510 H     1 <1>   0.0800 
 41 H       -5.4720    -4.0880     0.6070 H     1 <1>   0.0800 
 42 H       -7.9040    -4.0310     1.1100 H     1 <1>   0.0800 
 43 H       -8.2350    -3.6700    -0.5630 H     1 <1>   0.0800 
 44 H       -6.8530    -6.1770     0.4380 H     1 <1>   0.0800 
 45 H       -7.1760    -5.8060    -1.2420 H     1 <1>   0.0800 
 46 H       -8.4970    -6.0650    -0.1330 H     1 <1>   0.0800 
@<TRIPOS>BOND
  1   1   2  2   
  2   2   3  am  
  3   2   4  1   
  4   3   5  1   
  5   3   6  1   
  6   4   7  ar  
  7   4   8  ar  
  8   5   9  1   
  9   5  23  1   
 10   5  24  1   
 11   6  10  1   
 12   6  25  1   
 13   6  26  1   
 14   7  11  ar  
 15   7  27  1   
 16   8  12  ar  
 17   8  28  1   
 18   9  13  1   
 19   9  14  1   
 20   9  29  1   
 21  10  13  1   
 22  10  30  1   
 23  10  31  1   
 24  11  15  ar  
 25  12  15  ar  
 26  12  16  1   
 27  13  17  1   
 28  13  32  1   
 29  14  18  1   
 30  14  33  1   
 31  14  34  1   
 32  15  35  1   
 33  16  36  1   
 34  17  19  1   
 35  17  20  1   
 36  17  37  1   
 37  18  19  1   
 38  19  38  1   
 39  19  39  1   
 40  20  21  1   
 41  20  40  1   
 42  20  41  1   
 43  21  22  1   
 44  21  42  1   
 45  21  43  1   
 46  22  44  1   
 47  22  45  1   
 48  22  46  1   
@<TRIPOS>SUBSTRUCTURE
  1 ****   3 GROUP 4 **** **** 0

# MOE 2024.06 (io_trps.svl 2023.06)
