@<TRIPOS>MOLECULE
NONAME
55 58 1 0 0 
SMALL
USER_CHARGES


@<TRIPOS>ATOM
  1 O       -2.2930     1.1600    -2.1970 O.2   1 <1>  -0.5700 
  2 C       -1.7290     1.8440    -1.3710 C.2   1 <1>   0.6900 
  3 N       -2.3340     2.4100    -0.2890 N.am  1 <1>  -0.4200 
  4 N       -0.4060     2.0990    -1.3940 N.am  1 <1>  -0.7300 
  5 C       -1.3900     2.9840     0.5040 C.2   1 <1>   0.5690 
  6 C       -3.6540     1.9650     0.2160 C.3   1 <1>   0.2010 
  7 C       -0.0120     2.7820    -0.1550 C.3   1 <1>   0.3610 
  8 O       -1.6000     3.5550     1.5500 O.2   1 <1>  -0.5700 
  9 C       -3.5850     0.6530     1.0070 C.2   1 <1>   0.5690 
 10 C        0.9000     1.8530     0.6490 C.3   1 <1>  -0.2400 
 11 C        0.6860     4.0940    -0.5180 C.3   1 <1>  -0.2400 
 12 O       -2.5100     0.1250     1.1970 O.2   1 <1>  -0.5700 
 13 N       -4.7380     0.0940     1.4950 N.am  1 <1>  -0.6600 
 14 C       -6.1190     0.5920     1.3000 C.3   1 <1>   0.1400 
 15 C       -4.7680    -1.2310     2.1430 C.3   1 <1>   0.1400 
 16 C       -7.0150    -0.6530     1.3840 C.3   1 <1>  -0.0800 
 17 C       -6.0870    -1.8540     1.6870 C.3   1 <1>  -0.0800 
 18 C       -7.9680    -0.8380     0.1740 C.3   1 <1>   0.4240 
 19 C       -5.8820    -2.7830     0.4770 C.3   1 <1>  -0.1600 
 20 O       -7.2750    -0.5770    -0.9960 O.3   1 <1>  -0.6800 
 21 C       -9.1740     0.1200     0.2790 C.ar  1 <1>  -0.1440 
 22 C       -8.3950    -2.3120     0.0720 C.3   1 <1>  -0.1600 
 23 C       -7.2140    -3.2940    -0.1060 C.3   1 <1>  -0.1600 
 24 C      -10.1300    -0.0730     1.2730 C.ar  1 <1>  -0.1500 
 25 C       -9.3470     1.1970    -0.5870 C.ar  1 <1>  -0.1500 
 26 C      -11.2180     0.7740     1.3960 C.ar  1 <1>  -0.1500 
 27 C      -10.4330     2.0470    -0.4660 C.ar  1 <1>  -0.1500 
 28 C      -11.3710     1.8360     0.5260 C.ar  1 <1>  -0.1500 
 29 H        0.2270     1.4710    -1.8850 H     1 <1>   0.3700 
 30 H       -4.0590     2.7300     0.8530 H     1 <1>   0.0800 
 31 H       -4.3130     1.8310    -0.6220 H     1 <1>   0.0800 
 32 H        1.1480     2.3150     1.5880 H     1 <1>   0.0800 
 33 H        1.8100     1.6530     0.1140 H     1 <1>   0.0800 
 34 H        0.3950     0.9260     0.8590 H     1 <1>   0.0800 
 35 H        0.9280     4.6350     0.3800 H     1 <1>   0.0800 
 36 H        0.0370     4.7080    -1.1170 H     1 <1>   0.0800 
 37 H        1.5940     3.9030    -1.0600 H     1 <1>   0.0800 
 38 H       -6.3670     1.2770     2.0920 H     1 <1>   0.0800 
 39 H       -6.2170     1.1050     0.3600 H     1 <1>   0.0800 
 40 H       -3.9180    -1.8290     1.8600 H     1 <1>   0.0800 
 41 H       -4.7650    -1.0940     3.2110 H     1 <1>   0.0800 
 42 H       -7.6300    -0.5240     2.2560 H     1 <1>   0.0800 
 43 H       -6.4960    -2.4430     2.4900 H     1 <1>   0.0800 
 44 H       -5.3330    -2.2520    -0.2830 H     1 <1>   0.0800 
 45 H       -5.2750    -3.6250     0.7630 H     1 <1>   0.0800 
 46 H       -6.5720    -1.2460    -1.0780 H     1 <1>   0.4000 
 47 H       -8.9110    -2.5790     0.9760 H     1 <1>   0.0800 
 48 H       -9.0990    -2.4260    -0.7340 H     1 <1>   0.0800 
 49 H       -7.4750    -4.2270     0.3640 H     1 <1>   0.0800 
 50 H       -7.0750    -3.4990    -1.1550 H     1 <1>   0.0800 
 51 H      -10.0400    -0.8880     1.9680 H     1 <1>   0.1500 
 52 H       -8.6370     1.3890    -1.3730 H     1 <1>   0.1500 
 53 H      -11.9470     0.6060     2.1700 H     1 <1>   0.1500 
 54 H      -10.5470     2.8710    -1.1480 H     1 <1>   0.1500 
 55 H      -12.2170     2.4950     0.6200 H     1 <1>   0.1500 
@<TRIPOS>BOND
  1   1   2  2   
  2   2   3  am  
  3   2   4  am  
  4   3   5  am  
  5   3   6  1   
  6   4   7  1   
  7   4  29  1   
  8   5   7  1   
  9   5   8  2   
 10   6   9  1   
 11   6  30  1   
 12   6  31  1   
 13   7  10  1   
 14   7  11  1   
 15   9  12  2   
 16   9  13  am  
 17  10  32  1   
 18  10  33  1   
 19  10  34  1   
 20  11  35  1   
 21  11  36  1   
 22  11  37  1   
 23  13  14  1   
 24  13  15  1   
 25  14  16  1   
 26  14  38  1   
 27  14  39  1   
 28  15  17  1   
 29  15  40  1   
 30  15  41  1   
 31  16  17  1   
 32  16  18  1   
 33  16  42  1   
 34  17  19  1   
 35  17  43  1   
 36  18  20  1   
 37  18  21  1   
 38  18  22  1   
 39  19  23  1   
 40  19  44  1   
 41  19  45  1   
 42  20  46  1   
 43  21  24  ar  
 44  21  25  ar  
 45  22  23  1   
 46  22  47  1   
 47  22  48  1   
 48  23  49  1   
 49  23  50  1   
 50  24  26  ar  
 51  24  51  1   
 52  25  27  ar  
 53  25  52  1   
 54  26  28  ar  
 55  26  53  1   
 56  27  28  ar  
 57  27  54  1   
 58  28  55  1   
@<TRIPOS>SUBSTRUCTURE
  1 ****  14 GROUP 4 **** **** 0

# MOE 2024.06 (io_trps.svl 2023.06)
