@<TRIPOS>MOLECULE
NONAME
35 37 1 0 0 
SMALL
USER_CHARGES


@<TRIPOS>ATOM
  1 S        0.1860     0.1100    -0.3390 S.o2  1 <1>   1.0900 
  2 O       -0.4400     0.6100    -1.5390 O.2   1 <1>  -0.6500 
  3 O        1.5270     0.4820     0.0430 O.2   1 <1>  -0.6500 
  4 C        0.0510    -1.6580    -0.3360 C.3   1 <1>  -0.0550 
  5 C       -0.9370     0.3720     1.0270 C.3   1 <1>  -0.0550 
  6 C       -1.3030    -1.9450     0.2890 C.3   1 <1>   0.2890 
  7 C       -1.4640    -0.9980     1.4800 C.3   1 <1>  -0.1600 
  8 N       -1.3720    -3.3440     0.7530 N.pl3 1 <1>  -0.8690 
  9 C       -2.3660    -4.2530     0.4180 C.ar  1 <1>   0.1000 
 10 C       -2.1030    -5.6460     0.3960 C.ar  1 <1>   0.0000 
 11 C       -3.6430    -3.8590     0.1110 C.ar  1 <1>  -0.1500 
 12 C       -3.1650    -6.5240     0.0560 C.ar  1 <1>   0.3100 
 13 C       -0.8340    -6.1980     0.6880 C.ar  1 <1>  -0.1500 
 14 C       -4.6210    -4.7950    -0.2170 C.ar  1 <1>   0.1660 
 15 N       -4.4110    -6.0750    -0.2510 N.ar  1 <1>  -0.6200 
 16 C       -2.8820    -7.9130     0.0400 C.ar  1 <1>   0.1900 
 17 C       -0.6390    -7.5500     0.6500 C.ar  1 <1>   0.1900 
 18 C       -6.0230    -4.3330    -0.5560 C.3   1 <1>  -0.0970 
 19 F       -3.8400    -8.7500    -0.2650 F     1 <1>  -0.1900 
 20 C       -1.6550    -8.4430     0.3270 C.ar  1 <1>  -0.1500 
 21 F        0.5410    -8.0370     0.9240 F     1 <1>  -0.1900 
 22 H        0.8260    -2.0750     0.2770 H     1 <1>   0.0800 
 23 H        0.1130    -2.0590    -1.3290 H     1 <1>   0.0800 
 24 H       -1.7560     0.9830     0.6980 H     1 <1>   0.0800 
 25 H       -0.4450     0.8730     1.8400 H     1 <1>   0.0800 
 26 H       -2.0700    -1.7470    -0.4430 H     1 <1>   0.0800 
 27 H       -2.4910    -0.9380     1.7920 H     1 <1>   0.0800 
 28 H       -0.8640    -1.3500     2.3010 H     1 <1>   0.0800 
 29 H       -0.5130    -3.7050     1.1800 H     1 <1>   0.4000 
 30 H       -3.9120    -2.8220     0.1310 H     1 <1>   0.1500 
 31 H       -0.0100    -5.5600     0.9400 H     1 <1>   0.1500 
 32 H       -6.1020    -3.2630    -0.5250 H     1 <1>   0.0800 
 33 H       -6.7180    -4.7550     0.1480 H     1 <1>   0.0800 
 34 H       -6.2830    -4.6730    -1.5410 H     1 <1>   0.0800 
 35 H       -1.4700    -9.5010     0.3080 H     1 <1>   0.1500 
@<TRIPOS>BOND
  1   1   2  2   
  2   1   3  2   
  3   1   4  1   
  4   1   5  1   
  5   4   6  1   
  6   4  22  1   
  7   4  23  1   
  8   5   7  1   
  9   5  24  1   
 10   5  25  1   
 11   6   7  1   
 12   6   8  1   
 13   6  26  1   
 14   7  27  1   
 15   7  28  1   
 16   8   9  1   
 17   8  29  1   
 18   9  10  ar  
 19   9  11  ar  
 20  10  12  ar  
 21  10  13  ar  
 22  11  14  ar  
 23  11  30  1   
 24  12  15  ar  
 25  12  16  ar  
 26  13  17  ar  
 27  13  31  1   
 28  14  15  ar  
 29  14  18  1   
 30  16  19  1   
 31  16  20  ar  
 32  17  20  ar  
 33  17  21  1   
 34  18  32  1   
 35  18  33  1   
 36  18  34  1   
 37  20  35  1   
@<TRIPOS>SUBSTRUCTURE
  1 ****   9 GROUP 4 **** **** 0

# MOE 2024.06 (io_trps.svl 2023.06)
