@<TRIPOS>MOLECULE
NONAME
57 60 1 0 0 
SMALL
USER_CHARGES


@<TRIPOS>ATOM
  1 O       -0.5220     0.0860     0.9040 O.2   1 <1>  -0.5700 
  2 C       -1.5340     0.4640     0.3490 C.2   1 <1>   0.5690 
  3 N       -2.7240    -0.1340     0.7250 N.am  1 <1>  -0.6600 
  4 C       -1.3950     1.5910    -0.7570 C.3   1 <1>   0.3310 
  5 C       -4.1260     0.2900     0.4720 C.3   1 <1>   0.1400 
  6 C       -2.7220    -1.2890     1.6640 C.3   1 <1>   0.1400 
  7 N       -1.3420     2.9810    -0.1840 N.3   1 <1>  -0.8100 
  8 C       -2.4900     1.5140    -1.8440 C.3   1 <1>  -0.2400 
  9 C       -0.0520     1.3600    -1.4820 C.3   1 <1>  -0.2400 
 10 C       -4.9300    -0.3330     1.6110 C.3   1 <1>   0.2000 
 11 C       -4.1960    -1.6370     1.9270 C.3   1 <1>  -0.0800 
 12 C       -1.2810     4.1150    -1.1400 C.3   1 <1>   0.1100 
 13 C       -2.3330     3.2760     0.8740 C.3   1 <1>   0.1100 
 14 O       -4.8260     0.4960     2.7160 O.3   1 <1>  -0.6800 
 15 C       -4.6810    -2.7810     1.0120 C.3   1 <1>  -0.0170 
 16 C       -1.0500     5.4490    -0.4080 C.3   1 <1>   0.1200 
 17 C       -2.0590     4.6410     1.5300 C.3   1 <1>   0.1200 
 18 C       -4.0540    -4.1610     1.2520 C.ar  1 <1>  -0.1440 
 19 O       -2.0320     5.6520     0.5660 O.3   1 <1>  -0.5600 
 20 C       -4.2780    -5.2080     0.3230 C.ar  1 <1>   0.0000 
 21 C       -3.2770    -4.4550     2.3390 C.ar  1 <1>  -0.1500 
 22 C       -3.6620    -6.4600     0.5700 C.ar  1 <1>   0.3100 
 23 C       -5.0820    -5.0900    -0.8360 C.ar  1 <1>  -0.1500 
 24 C       -2.7230    -5.7310     2.4920 C.ar  1 <1>   0.1600 
 25 N       -2.8900    -6.7040     1.6570 N.ar  1 <1>  -0.6200 
 26 C       -3.8560    -7.5090    -0.3430 C.ar  1 <1>  -0.1500 
 27 C       -5.2540    -6.1330    -1.7050 C.ar  1 <1>  -0.1500 
 28 C       -4.6320    -7.3590    -1.4590 C.ar  1 <1>  -0.1500 
 29 H       -4.2410     1.3570     0.4680 H     1 <1>   0.0800 
 30 H       -4.4520    -0.1150    -0.4690 H     1 <1>   0.0800 
 31 H       -2.1770    -2.1140     1.2360 H     1 <1>   0.0800 
 32 H       -2.2390    -0.9940     2.5810 H     1 <1>   0.0800 
 33 H       -2.6420     0.4890    -2.1320 H     1 <1>   0.0800 
 34 H       -2.2010     2.0550    -2.7250 H     1 <1>   0.0800 
 35 H       -3.4170     1.9240    -1.4980 H     1 <1>   0.0800 
 36 H        0.0190     0.3340    -1.7950 H     1 <1>   0.0800 
 37 H        0.7650     1.5590    -0.8110 H     1 <1>   0.0800 
 38 H        0.0590     1.9740    -2.3550 H     1 <1>   0.0800 
 39 H       -5.9740    -0.4600     1.3790 H     1 <1>   0.0800 
 40 H       -4.3630    -1.9160     2.9530 H     1 <1>   0.0800 
 41 H       -0.4750     3.9770    -1.8360 H     1 <1>   0.0800 
 42 H       -2.2000     4.1860    -1.6940 H     1 <1>   0.0800 
 43 H       -3.3230     3.2940     0.4570 H     1 <1>   0.0800 
 44 H       -2.2920     2.5260     1.6430 H     1 <1>   0.0800 
 45 H       -3.8800     0.6730     2.8890 H     1 <1>   0.4000 
 46 H       -4.4850    -2.4980    -0.0070 H     1 <1>   0.0800 
 47 H       -5.7470    -2.8830     1.1250 H     1 <1>   0.0800 
 48 H       -1.1000     6.2690    -1.1010 H     1 <1>   0.0800 
 49 H       -0.0850     5.4530     0.0690 H     1 <1>   0.0800 
 50 H       -1.1130     4.6270     2.0450 H     1 <1>   0.0800 
 51 H       -2.8350     4.8790     2.2350 H     1 <1>   0.0800 
 52 H       -3.0580    -3.7420     3.1090 H     1 <1>   0.1500 
 53 H       -5.5770    -4.1620    -1.0480 H     1 <1>   0.1500 
 54 H       -2.1150    -5.9130     3.3630 H     1 <1>   0.1500 
 55 H       -3.3700    -8.4430    -0.1310 H     1 <1>   0.1500 
 56 H       -5.8670    -6.0270    -2.5830 H     1 <1>   0.1500 
 57 H       -4.7720    -8.1730    -2.1500 H     1 <1>   0.1500 
@<TRIPOS>BOND
  1   1   2  2   
  2   2   3  am  
  3   2   4  1   
  4   3   5  1   
  5   3   6  1   
  6   4   7  1   
  7   4   8  1   
  8   4   9  1   
  9   5  10  1   
 10   5  29  1   
 11   5  30  1   
 12   6  11  1   
 13   6  31  1   
 14   6  32  1   
 15   7  12  1   
 16   7  13  1   
 17   8  33  1   
 18   8  34  1   
 19   8  35  1   
 20   9  36  1   
 21   9  37  1   
 22   9  38  1   
 23  10  11  1   
 24  10  14  1   
 25  10  39  1   
 26  11  15  1   
 27  11  40  1   
 28  12  16  1   
 29  12  41  1   
 30  12  42  1   
 31  13  17  1   
 32  13  43  1   
 33  13  44  1   
 34  14  45  1   
 35  15  18  1   
 36  15  46  1   
 37  15  47  1   
 38  16  19  1   
 39  16  48  1   
 40  16  49  1   
 41  17  19  1   
 42  17  50  1   
 43  17  51  1   
 44  18  20  ar  
 45  18  21  ar  
 46  20  22  ar  
 47  20  23  ar  
 48  21  24  ar  
 49  21  52  1   
 50  22  25  ar  
 51  22  26  ar  
 52  23  27  ar  
 53  23  53  1   
 54  24  25  ar  
 55  24  54  1   
 56  26  28  ar  
 57  26  55  1   
 58  27  28  ar  
 59  27  56  1   
 60  28  57  1   
@<TRIPOS>SUBSTRUCTURE
  1 ****   3 GROUP 4 **** **** 0

# MOE 2024.06 (io_trps.svl 2023.06)
