@<TRIPOS>MOLECULE
NONAME
45 46 1 0 0 
SMALL
USER_CHARGES


@<TRIPOS>ATOM
  1 F        0.1470    -1.4560    -1.2180 F     1 <1>  -0.3400 
  2 C        0.4050    -2.3590    -0.2820 C.3   1 <1>   1.1640 
  3 F        1.7140    -2.3050    -0.0630 F     1 <1>  -0.3400 
  4 F       -0.1720    -1.9180     0.8300 F     1 <1>  -0.3400 
  5 C       -0.0780    -3.7600    -0.6870 C.ar  1 <1>  -0.1440 
  6 C       -1.3800    -4.1700    -0.4090 C.ar  1 <1>  -0.1500 
  7 C        0.7710    -4.6450    -1.3450 C.ar  1 <1>  -0.1500 
  8 C       -1.8290    -5.4310    -0.7720 C.ar  1 <1>  -0.1440 
  9 C        0.3300    -5.9050    -1.7090 C.ar  1 <1>  -0.1500 
 10 C       -0.9640    -6.2950    -1.4230 C.ar  1 <1>  -0.1500 
 11 C       -3.2610    -5.8640    -0.4640 C.3   1 <1>   0.2840 
 12 N       -3.2960    -7.1840     0.2260 N.am  1 <1>  -0.6600 
 13 C       -4.0630    -8.2340    -0.2630 C.2   1 <1>   0.5440 
 14 C       -2.4110    -7.3190     1.4210 C.3   1 <1>   0.0600 
 15 O       -4.9450    -7.9470    -1.0610 O.2   1 <1>  -0.5700 
 16 C       -3.8980    -9.6380     0.1440 C.ar  1 <1>   0.3960 
 17 N       -2.7280   -10.1080     0.5380 N.ar  1 <1>  -0.6200 
 18 C       -4.9970   -10.4820     0.1050 C.ar  1 <1>  -0.1500 
 19 C       -2.6820   -11.3920     0.9220 C.ar  1 <1>   0.4490 
 20 C       -4.8530   -11.7920     0.4930 C.ar  1 <1>   0.1670 
 21 O       -1.5920   -11.8130     1.3320 O.3   1 <1>  -0.8290 
 22 N       -3.7130   -12.2580     0.9090 N.ar  1 <1>  -0.6200 
 23 C       -6.0390   -12.7430     0.4550 C.3   1 <1>  -0.0170 
 24 C       -6.4500   -13.1330    -0.9790 C.3   1 <1>  -0.0800 
 25 C       -7.7180   -13.9960    -0.9550 C.3   1 <1>  -0.2400 
 26 C       -5.3240   -13.8870    -1.7010 C.3   1 <1>  -0.2400 
 27 H       -2.0560    -3.4990     0.0950 H     1 <1>   0.1500 
 28 H        1.7830    -4.3620    -1.5790 H     1 <1>   0.1500 
 29 H        0.9930    -6.5880    -2.2110 H     1 <1>   0.1500 
 30 H       -1.3000    -7.2820    -1.7010 H     1 <1>   0.1500 
 31 H       -3.8060    -5.9070    -1.3910 H     1 <1>   0.0800 
 32 H       -3.7420    -5.1370     0.1660 H     1 <1>   0.0800 
 33 H       -2.2890    -6.3690     1.9090 H     1 <1>   0.0800 
 34 H       -1.4470    -7.6890     1.1160 H     1 <1>   0.0800 
 35 H       -2.8350    -8.0160     2.1240 H     1 <1>   0.0800 
 36 H       -5.9450   -10.1110    -0.2280 H     1 <1>   0.1500 
 37 H       -6.8640   -12.2680     0.9520 H     1 <1>   0.0800 
 38 H       -5.7910   -13.6280     1.0140 H     1 <1>   0.0800 
 39 H       -6.6630   -12.2340    -1.5320 H     1 <1>   0.0800 
 40 H       -7.5410   -14.9090    -0.4130 H     1 <1>   0.0800 
 41 H       -8.0180   -14.2440    -1.9570 H     1 <1>   0.0800 
 42 H       -8.5240   -13.4650    -0.4820 H     1 <1>   0.0800 
 43 H       -5.0610   -14.7800    -1.1610 H     1 <1>   0.0800 
 44 H       -4.4450   -13.2700    -1.7720 H     1 <1>   0.0800 
 45 H       -5.6260   -14.1580    -2.6970 H     1 <1>   0.0800 
@<TRIPOS>BOND
  1   1   2  1   
  2   2   3  1   
  3   2   4  1   
  4   2   5  1   
  5   5   6  ar  
  6   5   7  ar  
  7   6   8  ar  
  8   6  27  1   
  9   7   9  ar  
 10   7  28  1   
 11   8  10  ar  
 12   8  11  1   
 13   9  10  ar  
 14   9  29  1   
 15  10  30  1   
 16  11  12  1   
 17  11  31  1   
 18  11  32  1   
 19  12  13  am  
 20  12  14  1   
 21  13  15  2   
 22  13  16  1   
 23  14  33  1   
 24  14  34  1   
 25  14  35  1   
 26  16  17  ar  
 27  16  18  ar  
 28  17  19  ar  
 29  18  20  ar  
 30  18  36  1   
 31  19  21  1   
 32  19  22  ar  
 33  20  22  ar  
 34  20  23  1   
 35  23  24  1   
 36  23  37  1   
 37  23  38  1   
 38  24  25  1   
 39  24  26  1   
 40  24  39  1   
 41  25  40  1   
 42  25  41  1   
 43  25  42  1   
 44  26  43  1   
 45  26  44  1   
 46  26  45  1   
@<TRIPOS>SUBSTRUCTURE
  1 ****  12 GROUP 4 **** **** 0

# MOE 2024.06 (io_trps.svl 2023.06)
