@<TRIPOS>MOLECULE
NONAME
49 52 1 0 0 
SMALL
USER_CHARGES


@<TRIPOS>ATOM
  1 O       -0.6990     1.1010    -2.1690 O.co2 1 <1>  -0.9000 
  2 C       -1.2310     1.3170    -1.0750 C.2   1 <1>   0.9060 
  3 O       -2.0770     0.5500    -0.5940 O.co2 1 <1>  -0.9000 
  4 C       -0.8340     2.5580    -0.2790 C.3   1 <1>  -0.1060 
  5 C       -2.1620     3.2090     0.1810 C.3   1 <1>   0.2000 
  6 C       -0.1270     3.5200    -1.2570 C.3   1 <1>   0.2090 
  7 C        0.1120     2.0420     0.8530 C.3   1 <1>  -0.0650 
  8 O       -2.7520     2.4610     1.1740 O.3   1 <1>  -0.6800 
  9 C       -2.0530     4.6500     0.6700 C.3   1 <1>  -0.1600 
 10 N       -0.0220     4.9240    -0.7120 N.pl3 1 <1>  -0.8380 
 11 C        0.9500     3.0400     1.6710 C.3   1 <1>  -0.1950 
 12 C       -1.3640     5.4980    -0.3920 C.3   1 <1>   0.2090 
 13 C        1.1580     5.5550    -0.5630 C.ar  1 <1>   0.4610 
 14 C        2.4000     3.2820     1.3740 C.3   1 <1>  -0.2000 
 15 C        2.0040     2.4790     2.5740 C.3   1 <1>  -0.2000 
 16 N        1.2660     6.5000     0.3660 N.ar  1 <1>  -0.1790 
 17 C        2.3240     5.2610    -1.3150 C.ar  1 <1>  -0.1500 
 18 C        2.4270     7.1900     0.6560 C.ar  1 <1>   0.3610 
 19 C        3.5090     5.8960    -1.0930 C.ar  1 <1>  -0.1440 
 20 C        3.5930     6.8970    -0.0770 C.ar  1 <1>   0.0000 
 21 C        2.4550     8.1590     1.6650 C.ar  1 <1>  -0.1500 
 22 C        4.7350     5.5410    -1.9260 C.3   1 <1>  -0.0970 
 23 C        4.7620     7.6070     0.2420 C.ar  1 <1>  -0.1500 
 24 C        3.6150     8.8360     1.9530 C.ar  1 <1>  -0.1500 
 25 C        4.7730     8.5560     1.2350 C.ar  1 <1>  -0.1500 
 26 H       -2.8450     3.1940    -0.6540 H     1 <1>   0.0800 
 27 H       -0.6810     3.5600    -2.1820 H     1 <1>   0.0800 
 28 H        0.8380     3.1040    -1.4840 H     1 <1>   0.0800 
 29 H       -0.4710     1.4600     1.5460 H     1 <1>   0.0800 
 30 H        0.7970     1.3420     0.4040 H     1 <1>   0.0800 
 31 H       -2.7630     1.5260     0.8220 H     1 <1>   0.4000 
 32 H       -3.0450     5.0310     0.8330 H     1 <1>   0.0800 
 33 H       -1.5230     4.6990     1.5990 H     1 <1>   0.0800 
 34 H        0.3630     3.8210     2.1110 H     1 <1>   0.1000 
 35 H       -1.2930     6.5190    -0.0620 H     1 <1>   0.0800 
 36 H       -1.9640     5.4920    -1.2880 H     1 <1>   0.0800 
 37 H        2.8530     2.7690     0.5430 H     1 <1>   0.1000 
 38 H        2.8440     4.2430     1.5560 H     1 <1>   0.1000 
 39 H        2.1210     2.9070     3.5540 H     1 <1>   0.1000 
 40 H        2.1860     1.4180     2.5660 H     1 <1>   0.1000 
 41 H        0.4500     6.6300     0.9500 H     1 <1>   0.4570 
 42 H        2.2440     4.5190    -2.0880 H     1 <1>   0.1500 
 43 H        1.5650     8.3820     2.2260 H     1 <1>   0.1500 
 44 H        4.5040     4.7770    -2.6480 H     1 <1>   0.0800 
 45 H        5.5220     5.1730    -1.2920 H     1 <1>   0.0800 
 46 H        5.0880     6.4070    -2.4590 H     1 <1>   0.0800 
 47 H        5.6730     7.4120    -0.2960 H     1 <1>   0.1500 
 48 H        3.6440     9.5850     2.7290 H     1 <1>   0.1500 
 49 H        5.6800     9.0930     1.4670 H     1 <1>   0.1500 
@<TRIPOS>BOND
  1   1   2  ar  
  2   2   3  ar  
  3   2   4  1   
  4   4   5  1   
  5   4   6  1   
  6   4   7  1   
  7   5   8  1   
  8   5   9  1   
  9   5  26  1   
 10   6  10  1   
 11   6  27  1   
 12   6  28  1   
 13   7  11  1   
 14   7  29  1   
 15   7  30  1   
 16   8  31  1   
 17   9  12  1   
 18   9  32  1   
 19   9  33  1   
 20  10  12  1   
 21  10  13  1   
 22  11  14  1   
 23  11  15  1   
 24  11  34  1   
 25  12  35  1   
 26  12  36  1   
 27  13  16  ar  
 28  13  17  ar  
 29  14  15  1   
 30  14  37  1   
 31  14  38  1   
 32  15  39  1   
 33  15  40  1   
 34  16  18  ar  
 35  16  41  1   
 36  17  19  ar  
 37  17  42  1   
 38  18  20  ar  
 39  18  21  ar  
 40  19  20  ar  
 41  19  22  1   
 42  20  23  ar  
 43  21  24  ar  
 44  21  43  1   
 45  22  44  1   
 46  22  45  1   
 47  22  46  1   
 48  23  25  ar  
 49  23  47  1   
 50  24  25  ar  
 51  24  48  1   
 52  25  49  1   
@<TRIPOS>SUBSTRUCTURE
  1 ****  13 GROUP 4 **** **** 0

# MOE 2024.06 (io_trps.svl 2023.06)
