@<TRIPOS>MOLECULE
NONAME
45 47 1 0 0 
SMALL
USER_CHARGES


@<TRIPOS>ATOM
  1 S       -4.9560    -0.6390    -3.1070 S.3   1 <1>  -0.0800 
  2 C       -4.5780    -1.6410    -1.7170 C.2   1 <1>  -0.1100 
  3 C       -4.8400     0.8180    -2.1380 C.2   1 <1>  -0.1100 
  4 C       -4.3850    -0.8860    -0.6170 C.2   1 <1>  -0.1810 
  5 C       -4.5350     0.5180    -0.8620 C.2   1 <1>  -0.1500 
  6 C       -4.0270    -1.3990     0.7750 C.3   1 <1>   0.0820 
  7 C       -4.1420    -2.9140     0.9130 C.2   1 <1>   0.5690 
  8 O       -3.1220    -3.5530     0.7870 O.2   1 <1>  -0.5700 
  9 N       -5.3460    -3.5180     1.1890 N.am  1 <1>  -0.6600 
 10 C       -5.4410    -5.0190     1.1970 C.3   1 <1>   0.1400 
 11 C       -6.5680    -2.7500     1.5930 C.3   1 <1>   0.1400 
 12 C       -6.7660    -5.6080     0.6630 C.3   1 <1>   0.2000 
 13 C       -7.8320    -3.6130     1.6800 C.3   1 <1>  -0.1600 
 14 O       -6.5650    -6.2760    -0.5350 O.3   1 <1>  -0.6800 
 15 C       -7.9440    -4.6190     0.5070 C.3   1 <1>  -0.1060 
 16 C       -9.1910    -5.5020     0.6000 C.2   1 <1>   0.9060 
 17 C       -7.9350    -3.8770    -0.8680 C.3   1 <1>  -0.0170 
 18 O      -10.0120    -5.3360     1.5090 O.co2 1 <1>  -0.9000 
 19 O       -9.3160    -6.4170    -0.2300 O.co2 1 <1>  -0.9000 
 20 C       -8.8580    -2.6590    -0.9710 C.ar  1 <1>  -0.1430 
 21 C       -8.3300    -1.4020    -1.2290 C.ar  1 <1>  -0.1500 
 22 C      -10.2310    -2.7880    -0.8260 C.ar  1 <1>  -0.1500 
 23 C       -9.1530    -0.2940    -1.3270 C.ar  1 <1>  -0.1500 
 24 C      -11.0580    -1.6830    -0.9210 C.ar  1 <1>  -0.1500 
 25 C      -10.5210    -0.4330    -1.1720 C.ar  1 <1>  -0.1500 
 26 H       -4.5370    -2.7060    -1.8720 H     1 <1>   0.1500 
 27 H       -5.0130     1.7560    -2.6350 H     1 <1>   0.1500 
 28 H       -4.4050     1.2390    -0.0730 H     1 <1>   0.1500 
 29 H       -4.6440    -0.9200     1.5080 H     1 <1>   0.0800 
 30 H       -3.0110    -1.1210     0.9860 H     1 <1>   0.0800 
 31 H       -4.6250    -5.4480     0.6410 H     1 <1>   0.0800 
 32 H       -5.3320    -5.3360     2.2180 H     1 <1>   0.0800 
 33 H       -6.3970    -2.2880     2.5490 H     1 <1>   0.0800 
 34 H       -6.7360    -1.9690     0.8740 H     1 <1>   0.0800 
 35 H       -7.0590    -6.3700     1.3670 H     1 <1>   0.0800 
 36 H       -7.8320    -4.1510     2.6120 H     1 <1>   0.0800 
 37 H       -8.6980    -2.9750     1.7000 H     1 <1>   0.0800 
 38 H       -7.4650    -6.6070    -0.8010 H     1 <1>   0.4000 
 39 H       -6.9290    -3.5720    -1.0920 H     1 <1>   0.0800 
 40 H       -8.2160    -4.5640    -1.6470 H     1 <1>   0.0800 
 41 H       -7.2710    -1.2800    -1.3560 H     1 <1>   0.1500 
 42 H      -10.6690    -3.7550    -0.6340 H     1 <1>   0.1500 
 43 H       -8.7270     0.6730    -1.5270 H     1 <1>   0.1500 
 44 H      -12.1200    -1.8050    -0.7980 H     1 <1>   0.1500 
 45 H      -11.1640     0.4250    -1.2460 H     1 <1>   0.1500 
@<TRIPOS>BOND
  1   1   2  1   
  2   1   3  1   
  3   2   4  2   
  4   2  26  1   
  5   3   5  2   
  6   3  27  1   
  7   4   5  1   
  8   4   6  1   
  9   5  28  1   
 10   6   7  1   
 11   6  29  1   
 12   6  30  1   
 13   7   8  2   
 14   7   9  am  
 15   9  10  1   
 16   9  11  1   
 17  10  12  1   
 18  10  31  1   
 19  10  32  1   
 20  11  13  1   
 21  11  33  1   
 22  11  34  1   
 23  12  14  1   
 24  12  15  1   
 25  12  35  1   
 26  13  15  1   
 27  13  36  1   
 28  13  37  1   
 29  14  38  1   
 30  15  16  1   
 31  15  17  1   
 32  16  18  ar  
 33  16  19  ar  
 34  17  20  1   
 35  17  39  1   
 36  17  40  1   
 37  20  21  ar  
 38  20  22  ar  
 39  21  23  ar  
 40  21  41  1   
 41  22  24  ar  
 42  22  42  1   
 43  23  25  ar  
 44  23  43  1   
 45  24  25  ar  
 46  24  44  1   
 47  25  45  1   
@<TRIPOS>SUBSTRUCTURE
  1 ****  17 GROUP 4 **** **** 0

# MOE 2024.06 (io_trps.svl 2023.06)
