@<TRIPOS>MOLECULE
NONAME
56 58 1 0 0 
SMALL
USER_CHARGES


@<TRIPOS>ATOM
  1 O        1.1370    -1.1050     1.0290 O.co2 1 <1>  -0.9000 
  2 C        1.8220    -0.8180     0.0370 C.2   1 <1>   0.9060 
  3 O        2.1610    -1.6760    -0.7940 O.co2 1 <1>  -0.9000 
  4 C        2.3180     0.6350    -0.1630 C.3   1 <1>  -0.1060 
  5 C        3.6320     0.2120     0.6590 C.3   1 <1>   0.2000 
  6 C        2.8410     2.1440    -0.4410 C.3   1 <1>  -0.1600 
  7 C        0.9460     0.9660    -0.9390 C.3   1 <1>  -0.0160 
  8 O        4.4850    -0.4970    -0.1950 O.3   1 <1>  -0.6800 
  9 C        4.4570     1.2640     1.4430 C.3   1 <1>   0.1100 
 10 C        4.3380     2.4210    -0.6580 C.3   1 <1>   0.1100 
 11 C        0.0950     2.0840    -0.3210 C.ar  1 <1>  -0.1430 
 12 N        5.0810     2.3050     0.6020 N.3   1 <1>  -0.8100 
 13 C       -0.3080     1.9840     1.0010 C.ar  1 <1>  -0.1500 
 14 C       -0.2830     3.1930    -1.0640 C.ar  1 <1>  -0.1500 
 15 C        6.5150     1.9830     0.3190 C.3   1 <1>   0.1710 
 16 C       -1.0680     2.9850     1.5800 C.ar  1 <1>  -0.1500 
 17 C       -1.0440     4.1960    -0.4870 C.ar  1 <1>  -0.1500 
 18 C        7.3030     3.1800    -0.2190 C.2   1 <1>   0.5690 
 19 C       -1.4350     4.0940     0.8370 C.ar  1 <1>  -0.1500 
 20 O        8.3010     3.0010    -0.8770 O.2   1 <1>  -0.5700 
 21 N        6.8000     4.4090     0.0940 N.am  1 <1>  -0.5470 
 22 C        7.1510     5.6880    -0.3580 C.ar  1 <1>   0.1170 
 23 C        8.4240     6.2520    -0.2000 C.ar  1 <1>  -0.1430 
 24 C        6.1540     6.4260    -0.9830 C.ar  1 <1>  -0.1500 
 25 C        8.6790     7.5260    -0.7060 C.ar  1 <1>  -0.1430 
 26 C        9.5250     5.4780     0.5260 C.3   1 <1>  -0.0970 
 27 C        6.4050     7.6920    -1.4670 C.ar  1 <1>  -0.1500 
 28 C        7.6670     8.2370    -1.3310 C.ar  1 <1>  -0.1500 
 29 C       10.0510     8.1800    -0.6010 C.3   1 <1>  -0.0970 
 30 H        3.3980    -0.4800     1.4570 H     1 <1>   0.0800 
 31 H        2.5140     2.7760     0.3680 H     1 <1>   0.0800 
 32 H        2.4450     2.6020    -1.3290 H     1 <1>   0.0800 
 33 H        1.1530     1.1680    -1.9770 H     1 <1>   0.0800 
 34 H        0.2270     0.1610    -1.0350 H     1 <1>   0.0800 
 35 H        3.9060    -1.1800    -0.6360 H     1 <1>   0.4000 
 36 H        5.1960     0.7590     2.0390 H     1 <1>   0.0800 
 37 H        3.7860     1.7500     2.1300 H     1 <1>   0.0800 
 38 H        4.4680     3.4150    -1.0490 H     1 <1>   0.0800 
 39 H        4.7130     1.7280    -1.3940 H     1 <1>   0.0800 
 40 H       -0.0280     1.1160     1.5780 H     1 <1>   0.1500 
 41 H        0.0150     3.2770    -2.0930 H     1 <1>   0.1500 
 42 H        6.9980     1.6760     1.2280 H     1 <1>   0.0800 
 43 H        6.5840     1.1660    -0.3780 H     1 <1>   0.0800 
 44 H       -1.3710     2.8940     2.6080 H     1 <1>   0.1500 
 45 H       -1.3320     5.0530    -1.0680 H     1 <1>   0.1500 
 46 H       -2.0240     4.8710     1.2880 H     1 <1>   0.1500 
 47 H        5.8840     4.3140     0.5470 H     1 <1>   0.3700 
 48 H        5.1750     5.9990    -1.0960 H     1 <1>   0.1500 
 49 H       10.1780     6.1350     1.0680 H     1 <1>   0.0800 
 50 H       10.1030     4.9200    -0.1890 H     1 <1>   0.0800 
 51 H        9.1110     4.7910     1.2400 H     1 <1>   0.0800 
 52 H        5.6240     8.2520    -1.9510 H     1 <1>   0.1500 
 53 H        7.8550     9.2230    -1.7190 H     1 <1>   0.1500 
 54 H       10.1050     9.0640    -1.2100 H     1 <1>   0.0800 
 55 H       10.8130     7.5000    -0.9360 H     1 <1>   0.0800 
 56 H       10.2470     8.4580     0.4190 H     1 <1>   0.0800 
@<TRIPOS>BOND
  1   1   2  ar  
  2   2   3  ar  
  3   2   4  1   
  4   4   5  1   
  5   4   6  1   
  6   4   7  1   
  7   5   8  1   
  8   5   9  1   
  9   5  30  1   
 10   6  10  1   
 11   6  31  1   
 12   6  32  1   
 13   7  11  1   
 14   7  33  1   
 15   7  34  1   
 16   8  35  1   
 17   9  12  1   
 18   9  36  1   
 19   9  37  1   
 20  10  12  1   
 21  10  38  1   
 22  10  39  1   
 23  11  13  ar  
 24  11  14  ar  
 25  12  15  1   
 26  13  16  ar  
 27  13  40  1   
 28  14  17  ar  
 29  14  41  1   
 30  15  18  1   
 31  15  42  1   
 32  15  43  1   
 33  16  19  ar  
 34  16  44  1   
 35  17  19  ar  
 36  17  45  1   
 37  18  20  2   
 38  18  21  am  
 39  19  46  1   
 40  21  22  1   
 41  21  47  1   
 42  22  23  ar  
 43  22  24  ar  
 44  23  25  ar  
 45  23  26  1   
 46  24  27  ar  
 47  24  48  1   
 48  25  28  ar  
 49  25  29  1   
 50  26  49  1   
 51  26  50  1   
 52  26  51  1   
 53  27  28  ar  
 54  27  52  1   
 55  28  53  1   
 56  29  54  1   
 57  29  55  1   
 58  29  56  1   
@<TRIPOS>SUBSTRUCTURE
  1 ****  10 GROUP 4 **** **** 0

# MOE 2024.06 (io_trps.svl 2023.06)
