@<TRIPOS>MOLECULE
NONAME
53 56 1 0 0 
SMALL
USER_CHARGES


@<TRIPOS>ATOM
  1 O       -4.4260     1.5700    -1.1520 O.3   1 <1>  -0.5600 
  2 C       -3.3370     2.4400    -1.2450 C.3   1 <1>   0.1200 
  3 C       -4.1260     0.2730    -1.5750 C.3   1 <1>   0.0400 
  4 C       -3.8050     3.8790    -1.0140 C.3   1 <1>   0.0960 
  5 N       -4.0000     4.2580     0.4130 N.pl3 1 <1>   0.0480 
  6 C       -4.5790     3.6640     1.4910 C.2   1 <1>  -0.3320 
  7 C       -3.6110     5.4670     0.8820 C.2   1 <1>   0.0360 
  8 C       -4.4870     4.5430     2.5130 C.2   1 <1>   0.0770 
  9 C       -5.2130     2.2970     1.5940 C.3   1 <1>   0.5230 
 10 N       -3.8850     5.6730     2.1250 N.2   1 <1>  -0.5650 
 11 N       -6.3780     2.2240     0.6890 N.4   1 <1>  -0.9590 
 12 C       -7.3310     3.3750     0.8670 C.3   1 <1>   0.3430 
 13 C       -7.0650     0.9130     0.8060 C.3   1 <1>   0.3430 
 14 C       -8.4680     3.3440    -0.1690 C.3   1 <1>   0.1430 
 15 C       -8.1540     0.8080    -0.2630 C.3   1 <1>  -0.1600 
 16 C       -9.4650     4.4240     0.1740 C.ar  1 <1>   0.1670 
 17 C       -9.1640     1.9660    -0.1700 C.3   1 <1>  -0.1600 
 18 C       -8.0030     3.7620    -1.5900 C.3   1 <1>  -0.1600 
 19 N       -9.9410     4.6420     1.3780 N.ar  1 <1>  -0.6200 
 20 C       -9.8120     5.1610    -0.9160 C.ar  1 <1>  -0.1430 
 21 C       -9.0980     4.6880    -2.1570 C.3   1 <1>  -0.0170 
 22 C      -10.8060     5.6470     1.4430 C.ar  1 <1>   0.4770 
 23 C      -10.7140     6.1790    -0.7340 C.ar  1 <1>   0.1600 
 24 N      -11.2210     6.4300     0.4560 N.ar  1 <1>  -0.6200 
 25 C      -11.3870     5.9430     2.8050 C.3   1 <1>  -0.0970 
 26 H       -2.9290     2.3610    -2.2390 H     1 <1>   0.0800 
 27 H       -2.5830     2.1550    -0.5300 H     1 <1>   0.0800 
 28 H       -5.0040    -0.3390    -1.4620 H     1 <1>   0.0800 
 29 H       -3.3260    -0.1270    -0.9740 H     1 <1>   0.0800 
 30 H       -3.8380     0.2920    -2.6130 H     1 <1>   0.0800 
 31 H       -4.7120     4.0600    -1.5590 H     1 <1>   0.0800 
 32 H       -3.0530     4.5320    -1.4190 H     1 <1>   0.0800 
 33 H       -3.1160     6.1930     0.2590 H     1 <1>   0.1500 
 34 H       -4.8260     4.4320     3.5310 H     1 <1>   0.1500 
 35 H       -5.5280     2.1260     2.6110 H     1 <1>   0.0800 
 36 H       -4.4910     1.5410     1.3290 H     1 <1>   0.0800 
 37 H       -5.9550     2.2580    -0.2560 H     1 <1>   0.4500 
 38 H       -6.8100     4.3150     0.7830 H     1 <1>   0.0800 
 39 H       -7.7670     3.3310     1.8510 H     1 <1>   0.0800 
 40 H       -7.5120     0.8210     1.7840 H     1 <1>   0.0800 
 41 H       -6.3560     0.1110     0.6760 H     1 <1>   0.0800 
 42 H       -8.6770    -0.1250    -0.1370 H     1 <1>   0.0800 
 43 H       -7.6960     0.7840    -1.2370 H     1 <1>   0.0800 
 44 H       -9.8710     1.9080    -0.9810 H     1 <1>   0.0800 
 45 H       -9.7240     1.8610     0.7450 H     1 <1>   0.0800 
 46 H       -7.8230     2.9260    -2.2410 H     1 <1>   0.0800 
 47 H       -7.0970     4.3380    -1.5150 H     1 <1>   0.0800 
 48 H       -9.7830     4.1360    -2.7780 H     1 <1>   0.0800 
 49 H       -8.6800     5.5080    -2.7150 H     1 <1>   0.0800 
 50 H      -11.0260     6.7940    -1.5610 H     1 <1>   0.1500 
 51 H      -11.3210     5.0770     3.4370 H     1 <1>   0.0800 
 52 H      -12.4190     6.2250     2.7070 H     1 <1>   0.0800 
 53 H      -10.8430     6.7520     3.2540 H     1 <1>   0.0800 
@<TRIPOS>BOND
  1   1   2  1   
  2   1   3  1   
  3   2   4  1   
  4   2  26  1   
  5   2  27  1   
  6   3  28  1   
  7   3  29  1   
  8   3  30  1   
  9   4   5  1   
 10   4  31  1   
 11   4  32  1   
 12   5   6  1   
 13   5   7  1   
 14   6   8  2   
 15   6   9  1   
 16   7  10  2   
 17   7  33  1   
 18   8  10  1   
 19   8  34  1   
 20   9  11  1   
 21   9  35  1   
 22   9  36  1   
 23  11  12  1   
 24  11  13  1   
 25  11  37  1   
 26  12  14  1   
 27  12  38  1   
 28  12  39  1   
 29  13  15  1   
 30  13  40  1   
 31  13  41  1   
 32  14  16  1   
 33  14  17  1   
 34  14  18  1   
 35  15  17  1   
 36  15  42  1   
 37  15  43  1   
 38  16  19  ar  
 39  16  20  ar  
 40  17  44  1   
 41  17  45  1   
 42  18  21  1   
 43  18  46  1   
 44  18  47  1   
 45  19  22  ar  
 46  20  21  1   
 47  20  23  ar  
 48  21  48  1   
 49  21  49  1   
 50  22  24  ar  
 51  22  25  1   
 52  23  24  ar  
 53  23  50  1   
 54  25  51  1   
 55  25  52  1   
 56  25  53  1   
@<TRIPOS>SUBSTRUCTURE
  1 ****  12 GROUP 4 **** **** 0

# MOE 2024.06 (io_trps.svl 2023.06)
