@<TRIPOS>MOLECULE
NONAME
52 54 1 0 0 
SMALL
USER_CHARGES


@<TRIPOS>ATOM
  1 O       -1.0570    -2.5270     2.2280 O.2   1 <1>  -0.5700 
  2 C       -0.1690    -2.9640     1.5430 C.2   1 <1>   0.5690 
  3 N       -0.3820    -3.3480     0.2680 N.am  1 <1>  -0.7300 
  4 C        1.2330    -3.1120     2.0930 C.3   1 <1>  -0.0990 
  5 C        0.6750    -3.9200    -0.5920 C.3   1 <1>   0.1400 
  6 C        2.2710    -2.6460     1.0540 C.3   1 <1>  -0.0800 
  7 C        1.9960    -3.1490    -0.3870 C.3   1 <1>  -0.0800 
  8 C        3.7030    -3.0730     1.4040 C.3   1 <1>  -0.1600 
  9 C        3.2320    -3.9650    -0.7860 C.3   1 <1>  -0.1600 
 10 C        4.3580    -3.3730     0.0610 C.3   1 <1>   0.2200 
 11 N        5.5640    -4.2480     0.2000 N.am  1 <1>  -0.6600 
 12 C        6.8530    -3.7770     0.0950 C.2   1 <1>   0.5690 
 13 C        5.3400    -5.7040     0.4670 C.3   1 <1>   0.0600 
 14 O        7.8010    -4.5280     0.1180 O.2   1 <1>  -0.5700 
 15 C        7.1260    -2.2860    -0.0540 C.3   1 <1>  -0.0990 
 16 C        8.6060    -1.9010     0.0900 C.3   1 <1>  -0.0170 
 17 C        8.7690    -0.3950    -0.0360 C.ar  1 <1>  -0.1440 
 18 C        8.9520     0.1870    -1.2800 C.ar  1 <1>  -0.1500 
 19 C        8.7320     0.4120     1.0900 C.ar  1 <1>  -0.1500 
 20 C        9.0930     1.5590    -1.3970 C.ar  1 <1>  -0.1500 
 21 C        8.8730     1.7840     0.9720 C.ar  1 <1>  -0.1500 
 22 C        9.0530     2.3670    -0.2720 C.ar  1 <1>  -0.1440 
 23 C        9.2100     3.8730    -0.4000 C.3   1 <1>  -0.0170 
 24 C       10.6840     4.2700    -0.3000 C.3   1 <1>  -0.2400 
 25 H       -1.3370    -3.2840    -0.0920 H     1 <1>   0.3700 
 26 H        1.3270    -2.5370     2.9960 H     1 <1>   0.0800 
 27 H        1.3790    -4.1480     2.3350 H     1 <1>   0.0800 
 28 H        0.8000    -4.9560    -0.3240 H     1 <1>   0.0800 
 29 H        0.3750    -3.8690    -1.6250 H     1 <1>   0.0800 
 30 H        2.2350    -1.5690     1.0250 H     1 <1>   0.0800 
 31 H        1.9600    -2.2810    -1.0240 H     1 <1>   0.0800 
 32 H        3.6880    -3.9590     2.0120 H     1 <1>   0.0800 
 33 H        4.2280    -2.2940     1.9290 H     1 <1>   0.0800 
 34 H        3.4440    -3.8780    -1.8370 H     1 <1>   0.0800 
 35 H        3.0660    -4.9960    -0.5360 H     1 <1>   0.0800 
 36 H        4.6270    -2.4360    -0.3940 H     1 <1>   0.0800 
 37 H        4.5110    -5.8460     1.1360 H     1 <1>   0.0800 
 38 H        6.2120    -6.1460     0.9200 H     1 <1>   0.0800 
 39 H        5.1430    -6.2140    -0.4590 H     1 <1>   0.0800 
 40 H        6.7830    -1.9720    -1.0220 H     1 <1>   0.0800 
 41 H        6.5680    -1.7570     0.6960 H     1 <1>   0.0800 
 42 H        9.1870    -2.3950    -0.6690 H     1 <1>   0.0800 
 43 H        8.9760    -2.2300     1.0460 H     1 <1>   0.0800 
 44 H        8.9860    -0.4260    -2.1630 H     1 <1>   0.1500 
 45 H        8.5940    -0.0250     2.0630 H     1 <1>   0.1500 
 46 H        9.2360     1.9950    -2.3690 H     1 <1>   0.1500 
 47 H        8.8440     2.3970     1.8560 H     1 <1>   0.1500 
 48 H        8.8110     4.2000    -1.3450 H     1 <1>   0.0800 
 49 H        8.6500     4.3640     0.3770 H     1 <1>   0.0800 
 50 H       11.2490     3.7960    -1.0830 H     1 <1>   0.0800 
 51 H       11.0860     3.9610     0.6490 H     1 <1>   0.0800 
 52 H       10.7890     5.3360    -0.3910 H     1 <1>   0.0800 
@<TRIPOS>BOND
  1   1   2  2   
  2   2   3  am  
  3   2   4  1   
  4   3   5  1   
  5   3  25  1   
  6   4   6  1   
  7   4  26  1   
  8   4  27  1   
  9   5   7  1   
 10   5  28  1   
 11   5  29  1   
 12   6   7  1   
 13   6   8  1   
 14   6  30  1   
 15   7   9  1   
 16   7  31  1   
 17   8  10  1   
 18   8  32  1   
 19   8  33  1   
 20   9  10  1   
 21   9  34  1   
 22   9  35  1   
 23  10  11  1   
 24  10  36  1   
 25  11  12  am  
 26  11  13  1   
 27  12  14  2   
 28  12  15  1   
 29  13  37  1   
 30  13  38  1   
 31  13  39  1   
 32  15  16  1   
 33  15  40  1   
 34  15  41  1   
 35  16  17  1   
 36  16  42  1   
 37  16  43  1   
 38  17  18  ar  
 39  17  19  ar  
 40  18  20  ar  
 41  18  44  1   
 42  19  21  ar  
 43  19  45  1   
 44  20  22  ar  
 45  20  46  1   
 46  21  22  ar  
 47  21  47  1   
 48  22  23  1   
 49  23  24  1   
 50  23  48  1   
 51  23  49  1   
 52  24  50  1   
 53  24  51  1   
 54  24  52  1   
@<TRIPOS>SUBSTRUCTURE
  1 ****  15 GROUP 4 **** **** 0

# MOE 2024.06 (io_trps.svl 2023.06)
