@<TRIPOS>MOLECULE
NONAME
47 49 1 0 0 
SMALL
USER_CHARGES


@<TRIPOS>ATOM
  1 O       -1.0230     1.3060    -2.5890 O.co2 1 <1>  -0.9000 
  2 C       -1.5790     1.7100    -1.5610 C.2   1 <1>   0.9060 
  3 O       -2.7920     1.5130    -1.3850 O.co2 1 <1>  -0.9000 
  4 C       -0.7340     2.4560    -0.5160 C.3   1 <1>  -0.1060 
  5 C       -1.5880     3.0940     0.6170 C.3   1 <1>   0.2000 
  6 C       -0.0140     3.5670    -1.3210 C.3   1 <1>   0.2090 
  7 C        0.2730     1.4330     0.0830 C.3   1 <1>  -0.0650 
  8 O       -2.5940     2.2500     1.0400 O.3   1 <1>  -0.6800 
  9 C       -2.2100     4.4130     0.1730 C.3   1 <1>  -0.1600 
 10 N        0.1560     4.8480    -0.5470 N.pl3 1 <1>  -0.8380 
 11 C        1.3650     2.0080     1.0040 C.3   1 <1>  -0.1950 
 12 C       -1.0950     5.4490     0.0060 C.3   1 <1>   0.2090 
 13 C        1.3340     5.5670    -0.5570 C.ar  1 <1>   0.7200 
 14 C        2.6810     2.4660     0.4640 C.3   1 <1>  -0.2000 
 15 C        2.5990     1.2120     1.2850 C.3   1 <1>  -0.2000 
 16 N        1.4450     6.5540     0.3330 N.ar  1 <1>  -0.6200 
 17 N        2.2590     5.2300    -1.4550 N.ar  1 <1>  -0.6200 
 18 C        2.5720     7.2220     0.3260 C.ar  1 <1>   0.1600 
 19 C        3.3730     5.9170    -1.4360 C.ar  1 <1>   0.1600 
 20 C        3.5970     6.9450    -0.5500 C.ar  1 <1>  -0.1440 
 21 C        4.9090     7.7220    -0.5530 C.3   1 <1>   0.0630 
 22 C        5.6400     7.5570     0.7830 C.3   1 <1>  -0.2400 
 23 C        4.6650     9.2030    -0.8580 C.3   1 <1>  -0.2400 
 24 H       -0.9800     3.2980     1.4790 H     1 <1>   0.0800 
 25 H       -0.5930     3.8060    -2.1980 H     1 <1>   0.0800 
 26 H        0.9270     3.1890    -1.6770 H     1 <1>   0.0800 
 27 H       -0.2860     0.6980     0.6360 H     1 <1>   0.0800 
 28 H        0.7530     0.9100    -0.7270 H     1 <1>   0.0800 
 29 H       -2.9530     1.8360     0.1940 H     1 <1>   0.4000 
 30 H       -2.7310     4.2810    -0.7590 H     1 <1>   0.0800 
 31 H       -2.9080     4.7630     0.9110 H     1 <1>   0.0800 
 32 H        0.9650     2.5570     1.8380 H     1 <1>   0.1000 
 33 H       -0.8790     5.8670     0.9750 H     1 <1>   0.0800 
 34 H       -1.4250     6.2460    -0.6370 H     1 <1>   0.0800 
 35 H        2.8560     2.3900    -0.5960 H     1 <1>   0.1000 
 36 H        3.1000     3.3640     0.8820 H     1 <1>   0.1000 
 37 H        3.0000     1.2190     2.2830 H     1 <1>   0.1000 
 38 H        2.7300     0.2650     0.7910 H     1 <1>   0.1000 
 39 H        2.6800     8.0150     1.0440 H     1 <1>   0.1500 
 40 H        4.1280     5.6470    -2.1530 H     1 <1>   0.1500 
 41 H        5.5440     7.3260    -1.3280 H     1 <1>   0.0800 
 42 H        5.0680     7.9790     1.5900 H     1 <1>   0.0800 
 43 H        6.5960     8.0480     0.7480 H     1 <1>   0.0800 
 44 H        5.8010     6.5130     0.9870 H     1 <1>   0.0800 
 45 H        4.0730     9.6640    -0.0870 H     1 <1>   0.0800 
 46 H        4.1460     9.3050    -1.7950 H     1 <1>   0.0800 
 47 H        5.6010     9.7280    -0.9300 H     1 <1>   0.0800 
@<TRIPOS>BOND
  1   1   2  ar  
  2   2   3  ar  
  3   2   4  1   
  4   4   5  1   
  5   4   6  1   
  6   4   7  1   
  7   5   8  1   
  8   5   9  1   
  9   5  24  1   
 10   6  10  1   
 11   6  25  1   
 12   6  26  1   
 13   7  11  1   
 14   7  27  1   
 15   7  28  1   
 16   8  29  1   
 17   9  12  1   
 18   9  30  1   
 19   9  31  1   
 20  10  12  1   
 21  10  13  1   
 22  11  14  1   
 23  11  15  1   
 24  11  32  1   
 25  12  33  1   
 26  12  34  1   
 27  13  16  ar  
 28  13  17  ar  
 29  14  15  1   
 30  14  35  1   
 31  14  36  1   
 32  15  37  1   
 33  15  38  1   
 34  16  18  ar  
 35  17  19  ar  
 36  18  20  ar  
 37  18  39  1   
 38  19  20  ar  
 39  19  40  1   
 40  20  21  1   
 41  21  22  1   
 42  21  23  1   
 43  21  41  1   
 44  22  42  1   
 45  22  43  1   
 46  22  44  1   
 47  23  45  1   
 48  23  46  1   
 49  23  47  1   
@<TRIPOS>SUBSTRUCTURE
  1 ****  10 GROUP 4 **** **** 0

# MOE 2024.06 (io_trps.svl 2023.06)
