@<TRIPOS>MOLECULE
NONAME
55 58 1 0 0 
SMALL
USER_CHARGES


@<TRIPOS>ATOM
  1 F       -1.2600     0.9740    -2.7790 F     1 <1>  -0.1900 
  2 C       -2.2330     1.4430    -2.0480 C.ar  1 <1>   0.1900 
  3 C       -2.8870     0.5930    -1.1780 C.ar  1 <1>  -0.1500 
  4 C       -2.5770     2.7760    -2.1700 C.ar  1 <1>  -0.1500 
  5 C       -3.9180     1.1000    -0.4070 C.ar  1 <1>  -0.1500 
  6 C       -3.6120     3.2660    -1.3920 C.ar  1 <1>  -0.1500 
  7 C       -4.2970     2.4390    -0.5000 C.ar  1 <1>   0.0000 
  8 C       -5.3780     2.9560     0.3080 C.ar  1 <1>   0.0000 
  9 C       -6.6360     2.3640     0.2780 C.ar  1 <1>  -0.1500 
 10 C       -5.1930     4.0550     1.1400 C.ar  1 <1>  -0.1500 
 11 C       -7.7010     2.8340     1.0410 C.ar  1 <1>   0.0860 
 12 C       -6.2290     4.5400     1.9160 C.ar  1 <1>  -0.1500 
 13 C       -9.0000     2.1920     0.9720 C.2   1 <1>   0.5440 
 14 C       -7.4690     3.9320     1.8690 C.ar  1 <1>  -0.1500 
 15 O       -9.0770     0.9870     1.1240 O.2   1 <1>  -0.5700 
 16 N      -10.1530     2.9070     0.7230 N.am  1 <1>  -0.6600 
 17 C      -10.1340     4.2830     0.1460 C.3   1 <1>   0.1400 
 18 C      -11.4870     2.2560     0.8770 C.3   1 <1>   0.1400 
 19 C      -11.3500     4.4810    -0.7570 C.3   1 <1>  -0.1600 
 20 C      -12.5680     3.3060     1.1480 C.3   1 <1>  -0.1600 
 21 C      -12.6660     4.3890     0.0450 C.3   1 <1>   0.2800 
 22 O      -12.8460     5.5990     0.7430 O.3   1 <1>  -0.5600 
 23 C      -13.8720     4.1290    -0.8940 C.3   1 <1>  -0.1600 
 24 C      -13.3830     6.6910     0.0510 C.3   1 <1>   0.1200 
 25 C      -15.1340     4.8960    -0.4760 C.3   1 <1>   0.2800 
 26 C      -14.8170     6.3970    -0.4210 C.3   1 <1>  -0.1600 
 27 O      -15.4410     4.5230     0.8130 O.3   1 <1>  -0.6800 
 28 C      -16.3600     4.5510    -1.3510 C.3   1 <1>   0.1200 
 29 O      -16.1630     4.9050    -2.6870 O.3   1 <1>  -0.6800 
 30 H       -2.5920    -0.4390    -1.1090 H     1 <1>   0.1500 
 31 H       -2.0470     3.4080    -2.8580 H     1 <1>   0.1500 
 32 H       -4.4370     0.4530     0.2800 H     1 <1>   0.1500 
 33 H       -3.8970     4.3000    -1.4770 H     1 <1>   0.1500 
 34 H       -6.8000     1.5110    -0.3560 H     1 <1>   0.1500 
 35 H       -4.2270     4.5270     1.1830 H     1 <1>   0.1500 
 36 H       -6.0670     5.3870     2.5610 H     1 <1>   0.1500 
 37 H       -8.2720     4.3020     2.4820 H     1 <1>   0.1500 
 38 H       -9.2350     4.4290    -0.4280 H     1 <1>   0.0800 
 39 H      -10.1550     5.0060     0.9450 H     1 <1>   0.0800 
 40 H      -11.4530     1.5550     1.6940 H     1 <1>   0.0800 
 41 H      -11.7160     1.7100    -0.0220 H     1 <1>   0.0800 
 42 H      -11.3270     3.7140    -1.5110 H     1 <1>   0.0800 
 43 H      -11.2740     5.4210    -1.2670 H     1 <1>   0.0800 
 44 H      -12.3330     3.7650     2.0930 H     1 <1>   0.0800 
 45 H      -13.5060     2.7970     1.2690 H     1 <1>   0.0800 
 46 H      -14.0800     3.0770    -0.9640 H     1 <1>   0.0800 
 47 H      -13.6150     4.4430    -1.8900 H     1 <1>   0.0800 
 48 H      -12.7470     6.9170    -0.7860 H     1 <1>   0.0800 
 49 H      -13.3760     7.5360     0.7180 H     1 <1>   0.0800 
 50 H      -14.9180     6.8280    -1.3990 H     1 <1>   0.0800 
 51 H      -15.5260     6.9010     0.2120 H     1 <1>   0.0800 
 52 H      -14.6730     4.7850     1.3670 H     1 <1>   0.4000 
 53 H      -17.2350     5.0640    -0.9930 H     1 <1>   0.0800 
 54 H      -16.5350     3.4900    -1.3220 H     1 <1>   0.0800 
 55 H      -16.2800     5.8670    -2.8090 H     1 <1>   0.4000 
@<TRIPOS>BOND
  1   1   2  1   
  2   2   3  ar  
  3   2   4  ar  
  4   3   5  ar  
  5   3  30  1   
  6   4   6  ar  
  7   4  31  1   
  8   5   7  ar  
  9   5  32  1   
 10   6   7  ar  
 11   6  33  1   
 12   7   8  1   
 13   8   9  ar  
 14   8  10  ar  
 15   9  11  ar  
 16   9  34  1   
 17  10  12  ar  
 18  10  35  1   
 19  11  13  1   
 20  11  14  ar  
 21  12  14  ar  
 22  12  36  1   
 23  13  15  2   
 24  13  16  am  
 25  14  37  1   
 26  16  17  1   
 27  16  18  1   
 28  17  19  1   
 29  17  38  1   
 30  17  39  1   
 31  18  20  1   
 32  18  40  1   
 33  18  41  1   
 34  19  21  1   
 35  19  42  1   
 36  19  43  1   
 37  20  21  1   
 38  20  44  1   
 39  20  45  1   
 40  21  22  1   
 41  21  23  1   
 42  22  24  1   
 43  23  25  1   
 44  23  46  1   
 45  23  47  1   
 46  24  26  1   
 47  24  48  1   
 48  24  49  1   
 49  25  26  1   
 50  25  27  1   
 51  25  28  1   
 52  26  50  1   
 53  26  51  1   
 54  27  52  1   
 55  28  29  1   
 56  28  53  1   
 57  28  54  1   
 58  29  55  1   
@<TRIPOS>SUBSTRUCTURE
  1 ****  17 GROUP 4 **** **** 0

# MOE 2024.06 (io_trps.svl 2023.06)
