@<TRIPOS>MOLECULE
NONAME
46 48 1 0 0 
SMALL
USER_CHARGES


@<TRIPOS>ATOM
  1 F        0.6670    -1.4930    -0.9660 F     1 <1>  -0.3400 
  2 C        1.6670    -1.7290    -0.1300 C.3   1 <1>   1.0200 
  3 F        1.7160    -0.7090     0.7120 F     1 <1>  -0.3400 
  4 F        2.7770    -1.6850    -0.8530 F     1 <1>  -0.3400 
  5 C        1.5100    -3.0690     0.5900 C.3   1 <1>  -0.1600 
  6 C        1.4510    -4.2810    -0.3690 C.3   1 <1>  -0.0990 
  7 C        1.3260    -5.6020     0.3730 C.2   1 <1>   0.5690 
  8 O        0.5470    -5.6880     1.2900 O.2   1 <1>  -0.5700 
  9 N        2.0340    -6.7010    -0.0220 N.am  1 <1>  -0.6600 
 10 C        2.2910    -7.7910     0.9960 C.3   1 <1>   0.2200 
 11 C        2.2240    -7.0200    -1.4690 C.3   1 <1>   0.1400 
 12 C        3.5690    -8.5970     0.7100 C.3   1 <1>   0.1200 
 13 C        1.0670    -8.7290     1.1300 C.3   1 <1>   0.3430 
 14 C        1.9850    -8.5040    -1.8190 C.3   1 <1>  -0.0800 
 15 O        3.2940    -9.6660    -0.1430 O.3   1 <1>  -0.5600 
 16 N        0.1240    -8.5760    -0.0250 N.4   1 <1>  -0.9590 
 17 C        3.2140    -9.3710    -1.4970 C.3   1 <1>   0.1200 
 18 C        0.6720    -9.1440    -1.3040 C.3   1 <1>   0.3430 
 19 C       -1.2240    -9.1370     0.3040 C.3   1 <1>   0.5240 
 20 C       -1.1700   -10.6400     0.5790 C.2   1 <1>   0.0460 
 21 N       -0.9620   -11.5270    -0.4170 N.2   1 <1>  -0.5650 
 22 C       -1.3180   -11.2800     1.7620 C.2   1 <1>  -0.3020 
 23 C       -0.9890   -12.6770     0.1760 C.2   1 <1>   0.0360 
 24 N       -1.2020   -12.5960     1.5050 N.pl3 1 <1>   0.0330 
 25 H        2.3370    -3.1850     1.2660 H     1 <1>   0.0800 
 26 H        0.6090    -3.0260     1.1750 H     1 <1>   0.0800 
 27 H        2.3430    -4.2950    -0.9700 H     1 <1>   0.0800 
 28 H        0.6040    -4.1820    -1.0250 H     1 <1>   0.0800 
 29 H        2.4430    -7.3150     1.9500 H     1 <1>   0.0800 
 30 H        1.5420    -6.4240    -2.0520 H     1 <1>   0.0800 
 31 H        3.2230    -6.7370    -1.7590 H     1 <1>   0.0800 
 32 H        3.9250    -9.0270     1.6290 H     1 <1>   0.0800 
 33 H        4.3530    -7.9830     0.3000 H     1 <1>   0.0800 
 34 H        0.5550    -8.4700     2.0410 H     1 <1>   0.0800 
 35 H        1.3900    -9.7540     1.2160 H     1 <1>   0.0800 
 36 H        1.9200    -8.5380    -2.8920 H     1 <1>   0.0800 
 37 H        0.0360    -7.5560    -0.1340 H     1 <1>   0.4500 
 38 H        4.1310    -8.8970    -1.8050 H     1 <1>   0.0800 
 39 H        3.1390   -10.3140    -2.0130 H     1 <1>   0.0800 
 40 H        0.8410   -10.2020    -1.1790 H     1 <1>   0.0800 
 41 H       -0.0770    -9.0340    -2.0700 H     1 <1>   0.0800 
 42 H       -1.6160    -8.6400     1.1750 H     1 <1>   0.0800 
 43 H       -1.9030    -8.9640    -0.5140 H     1 <1>   0.0800 
 44 H       -1.5010   -10.8930     2.7500 H     1 <1>   0.1500 
 45 H       -0.8590   -13.6220    -0.3250 H     1 <1>   0.1500 
 46 H       -1.2670   -13.3790     2.1660 H     1 <1>   0.2700 
@<TRIPOS>BOND
  1   1   2  1   
  2   2   3  1   
  3   2   4  1   
  4   2   5  1   
  5   5   6  1   
  6   5  25  1   
  7   5  26  1   
  8   6   7  1   
  9   6  27  1   
 10   6  28  1   
 11   7   8  2   
 12   7   9  am  
 13   9  10  1   
 14   9  11  1   
 15  10  12  1   
 16  10  13  1   
 17  10  29  1   
 18  11  14  1   
 19  11  30  1   
 20  11  31  1   
 21  12  15  1   
 22  12  32  1   
 23  12  33  1   
 24  13  16  1   
 25  13  34  1   
 26  13  35  1   
 27  14  17  1   
 28  14  18  1   
 29  14  36  1   
 30  15  17  1   
 31  16  18  1   
 32  16  19  1   
 33  16  37  1   
 34  17  38  1   
 35  17  39  1   
 36  18  40  1   
 37  18  41  1   
 38  19  20  1   
 39  19  42  1   
 40  19  43  1   
 41  20  21  1   
 42  20  22  2   
 43  21  23  2   
 44  22  24  1   
 45  22  44  1   
 46  23  24  1   
 47  23  45  1   
 48  24  46  1   
@<TRIPOS>SUBSTRUCTURE
  1 ****   9 GROUP 4 **** **** 0

# MOE 2024.06 (io_trps.svl 2023.06)
