@<TRIPOS>MOLECULE
NONAME
52 55 1 0 0 
SMALL
USER_CHARGES


@<TRIPOS>ATOM
  1 O       -1.0060    -0.8220    -1.3130 O.co2 1 <1>  -0.9000 
  2 C       -1.6530    -1.8560    -1.1120 C.2   1 <1>   0.9060 
  3 O       -1.6090    -2.8350    -1.8570 O.co2 1 <1>  -0.9000 
  4 C       -2.6300    -1.8760     0.0720 C.3   1 <1>   0.2370 
  5 N       -3.9160    -1.0790    -0.1050 N.4   1 <1>  -0.9590 
  6 C       -4.8280    -1.1420     1.0720 C.3   1 <1>   0.3430 
  7 C       -3.6310     0.3030    -0.6030 C.3   1 <1>   0.3430 
  8 C       -6.2800    -0.7880     0.6690 C.3   1 <1>   0.1900 
  9 C       -4.8800     1.0880    -1.0530 C.3   1 <1>  -0.0800 
 10 N       -6.4500    -0.9020    -0.8170 N.3   1 <1>  -0.8100 
 11 C       -6.6960     0.5780     1.2460 C.3   1 <1>   0.1200 
 12 C       -5.3650     2.0880     0.0090 C.3   1 <1>   0.1200 
 13 C       -6.0370     0.2510    -1.6390 C.3   1 <1>   0.1100 
 14 C       -7.7350    -1.4840    -1.2450 C.3   1 <1>   0.2530 
 15 O       -5.6290     1.4780     1.2290 O.3   1 <1>  -0.5600 
 16 C       -7.8950    -2.8850    -0.6590 C.ar  1 <1>  -0.1430 
 17 C       -8.9650    -3.2480     0.1600 C.ar  1 <1>  -0.1430 
 18 C       -6.9120    -3.8210    -0.9540 C.ar  1 <1>  -0.1500 
 19 C       -9.0240    -4.5340     0.6800 C.ar  1 <1>  -0.1500 
 20 C      -10.0840    -2.2770     0.5100 C.3   1 <1>  -0.0970 
 21 C       -6.9750    -5.1000    -0.4350 C.ar  1 <1>   0.0830 
 22 C       -8.0340    -5.4570     0.3960 C.ar  1 <1>   0.0830 
 23 O       -5.9980    -5.9860    -0.7500 O.3   1 <1>  -0.3620 
 24 O       -8.1130    -6.6980     0.9410 O.3   1 <1>  -0.3620 
 25 C       -6.2710    -7.3500    -0.4960 C.3   1 <1>   0.1200 
 26 C       -6.9530    -7.5080     0.8700 C.3   1 <1>   0.1200 
 27 H       -2.0910    -1.4970     0.9200 H     1 <1>   0.0800 
 28 H       -2.8700    -2.9070     0.2580 H     1 <1>   0.0800 
 29 H       -4.4720    -1.5150    -0.8620 H     1 <1>   0.4500 
 30 H       -4.8280    -2.1460     1.4600 H     1 <1>   0.0800 
 31 H       -4.4830    -0.4830     1.8520 H     1 <1>   0.0800 
 32 H       -3.1020     0.8600     0.1530 H     1 <1>   0.0800 
 33 H       -2.9770     0.2270    -1.4560 H     1 <1>   0.0800 
 34 H       -6.9080    -1.5150     1.1510 H     1 <1>   0.0800 
 35 H       -4.5420     1.7110    -1.8620 H     1 <1>   0.0800 
 36 H       -6.9670     0.4500     2.2790 H     1 <1>   0.0800 
 37 H       -7.5420     0.9930     0.7250 H     1 <1>   0.0800 
 38 H       -6.2510     2.6070    -0.3150 H     1 <1>   0.0800 
 39 H       -4.5980     2.8220     0.1910 H     1 <1>   0.0800 
 40 H       -5.7360    -0.1230    -2.6040 H     1 <1>   0.0800 
 41 H       -6.8850     0.8970    -1.7980 H     1 <1>   0.0800 
 42 H       -8.5390    -0.8320    -0.9550 H     1 <1>   0.0800 
 43 H       -7.7490    -1.5670    -2.3190 H     1 <1>   0.0800 
 44 H       -6.0840    -3.5640    -1.5910 H     1 <1>   0.1500 
 45 H       -9.8360    -4.8390     1.3150 H     1 <1>   0.1500 
 46 H      -10.8170    -2.7450     1.1430 H     1 <1>   0.0800 
 47 H      -10.5800    -1.9480    -0.3850 H     1 <1>   0.0800 
 48 H       -9.6880    -1.4240     1.0310 H     1 <1>   0.0800 
 49 H       -6.9120    -7.7150    -1.2790 H     1 <1>   0.0800 
 50 H       -5.3390    -7.8850    -0.5240 H     1 <1>   0.0800 
 51 H       -6.2860    -7.2040     1.6570 H     1 <1>   0.0800 
 52 H       -7.2510    -8.5280     1.0330 H     1 <1>   0.0800 
@<TRIPOS>BOND
  1   1   2  ar  
  2   2   3  ar  
  3   2   4  1   
  4   4   5  1   
  5   4  27  1   
  6   4  28  1   
  7   5   6  1   
  8   5   7  1   
  9   5  29  1   
 10   6   8  1   
 11   6  30  1   
 12   6  31  1   
 13   7   9  1   
 14   7  32  1   
 15   7  33  1   
 16   8  10  1   
 17   8  11  1   
 18   8  34  1   
 19   9  12  1   
 20   9  13  1   
 21   9  35  1   
 22  10  13  1   
 23  10  14  1   
 24  11  15  1   
 25  11  36  1   
 26  11  37  1   
 27  12  15  1   
 28  12  38  1   
 29  12  39  1   
 30  13  40  1   
 31  13  41  1   
 32  14  16  1   
 33  14  42  1   
 34  14  43  1   
 35  16  17  ar  
 36  16  18  ar  
 37  17  19  ar  
 38  17  20  1   
 39  18  21  ar  
 40  18  44  1   
 41  19  22  ar  
 42  19  45  1   
 43  20  46  1   
 44  20  47  1   
 45  20  48  1   
 46  21  22  ar  
 47  21  23  1   
 48  22  24  1   
 49  23  25  1   
 50  24  26  1   
 51  25  26  1   
 52  25  49  1   
 53  25  50  1   
 54  26  51  1   
 55  26  52  1   
@<TRIPOS>SUBSTRUCTURE
  1 ****  10 GROUP 4 **** **** 0

# MOE 2024.06 (io_trps.svl 2023.06)
