@<TRIPOS>MOLECULE
NONAME
53 56 1 0 0 
SMALL
USER_CHARGES


@<TRIPOS>ATOM
  1 O        0.1620    -1.2530    -1.3220 O.3   1 <1>  -0.6800 
  2 C       -0.0720    -1.9800    -0.1660 C.3   1 <1>   0.1200 
  3 C        1.2340    -2.2810     0.6280 C.3   1 <1>   0.0000 
  4 C        2.4340    -2.7760    -0.2350 C.3   1 <1>   0.4230 
  5 C        1.6670    -1.0090     1.4070 C.3   1 <1>  -0.1600 
  6 C        0.9070    -3.3950     1.6660 C.3   1 <1>  -0.1600 
  7 N        2.1330    -4.0430    -1.0290 N.4   1 <1>  -0.9590 
  8 C        3.1480    -1.6540    -1.0370 C.3   1 <1>   0.2090 
  9 C        2.3040     0.0800     0.5370 C.3   1 <1>   0.2090 
 10 C        1.2640    -4.8190     1.1870 C.3   1 <1>  -0.1600 
 11 C        1.1880    -4.9770    -0.3340 C.3   1 <1>   0.3430 
 12 C        1.6390    -3.7850    -2.4220 C.3   1 <1>   0.2630 
 13 N        3.4980    -0.4850    -0.1640 N.pl3 1 <1>  -0.8380 
 14 C        4.7520     0.0230    -0.0310 C.ar  1 <1>   0.1000 
 15 C        5.0330     1.4300     0.0240 C.ar  1 <1>   0.0000 
 16 C        5.8380    -0.8460     0.1100 C.ar  1 <1>  -0.1500 
 17 C        6.3230     1.8570     0.4030 C.ar  1 <1>   0.3610 
 18 C        4.1150     2.4390    -0.3350 C.ar  1 <1>  -0.1500 
 19 C        7.0960    -0.3960     0.4190 C.ar  1 <1>   0.2170 
 20 N        7.3100     0.9190     0.5880 N.ar  1 <1>  -0.1790 
 21 C        6.6090     3.2230     0.5440 C.ar  1 <1>  -0.1500 
 22 C        4.4140     3.7710    -0.2150 C.ar  1 <1>  -0.1500 
 23 C        8.2690    -1.3480     0.5960 C.3   1 <1>  -0.0970 
 24 C        5.6650     4.1710     0.2460 C.ar  1 <1>  -0.1500 
 25 H       -0.6670    -0.8340    -1.6420 H     1 <1>   0.4000 
 26 H       -0.7540    -1.4140     0.4470 H     1 <1>   0.0800 
 27 H       -0.5700    -2.8870    -0.4580 H     1 <1>   0.0800 
 28 H        3.1700    -3.0640     0.4960 H     1 <1>   0.0800 
 29 H        2.3950    -1.2630     2.1590 H     1 <1>   0.0800 
 30 H        0.8230    -0.5880     1.9240 H     1 <1>   0.0800 
 31 H        1.4420    -3.2300     2.5870 H     1 <1>   0.0800 
 32 H       -0.1390    -3.3560     1.9240 H     1 <1>   0.0800 
 33 H        3.0280    -4.5440    -1.1120 H     1 <1>   0.4500 
 34 H        2.5180    -1.2930    -1.8290 H     1 <1>   0.0800 
 35 H        4.0390    -2.0470    -1.4900 H     1 <1>   0.0800 
 36 H        2.6010     0.8940     1.1770 H     1 <1>   0.0800 
 37 H        1.6000     0.4600    -0.1830 H     1 <1>   0.0800 
 38 H        0.5940    -5.5230     1.6490 H     1 <1>   0.0800 
 39 H        2.2580    -5.0760     1.5120 H     1 <1>   0.0800 
 40 H        0.1780    -4.7700    -0.6470 H     1 <1>   0.0800 
 41 H        1.4130    -5.9960    -0.6070 H     1 <1>   0.0800 
 42 H        0.6990    -3.2600    -2.3970 H     1 <1>   0.0800 
 43 H        1.4960    -4.7150    -2.9480 H     1 <1>   0.0800 
 44 H        2.3470    -3.1900    -2.9740 H     1 <1>   0.0800 
 45 H        5.6710    -1.9010     0.0100 H     1 <1>   0.1500 
 46 H        3.1540     2.1610    -0.7290 H     1 <1>   0.1500 
 47 H        8.2400     1.2600     0.8350 H     1 <1>   0.4570 
 48 H        7.5800     3.5410     0.8800 H     1 <1>   0.1500 
 49 H        3.6860     4.5220    -0.4800 H     1 <1>   0.1500 
 50 H        7.9610    -2.3660     0.4350 H     1 <1>   0.0800 
 51 H        8.6660    -1.2730     1.5930 H     1 <1>   0.0800 
 52 H        9.0480    -1.1200    -0.1100 H     1 <1>   0.0800 
 53 H        5.8760     5.2240     0.3490 H     1 <1>   0.1500 
@<TRIPOS>BOND
  1   1   2  1   
  2   1  25  1   
  3   2   3  1   
  4   2  26  1   
  5   2  27  1   
  6   3   4  1   
  7   3   5  1   
  8   3   6  1   
  9   4   7  1   
 10   4   8  1   
 11   4  28  1   
 12   5   9  1   
 13   5  29  1   
 14   5  30  1   
 15   6  10  1   
 16   6  31  1   
 17   6  32  1   
 18   7  11  1   
 19   7  12  1   
 20   7  33  1   
 21   8  13  1   
 22   8  34  1   
 23   8  35  1   
 24   9  13  1   
 25   9  36  1   
 26   9  37  1   
 27  10  11  1   
 28  10  38  1   
 29  10  39  1   
 30  11  40  1   
 31  11  41  1   
 32  12  42  1   
 33  12  43  1   
 34  12  44  1   
 35  13  14  1   
 36  14  15  ar  
 37  14  16  ar  
 38  15  17  ar  
 39  15  18  ar  
 40  16  19  ar  
 41  16  45  1   
 42  17  20  ar  
 43  17  21  ar  
 44  18  22  ar  
 45  18  46  1   
 46  19  20  ar  
 47  19  23  1   
 48  20  47  1   
 49  21  24  ar  
 50  21  48  1   
 51  22  24  ar  
 52  22  49  1   
 53  23  50  1   
 54  23  51  1   
 55  23  52  1   
 56  24  53  1   
@<TRIPOS>SUBSTRUCTURE
  1 ****  13 GROUP 4 **** **** 0

# MOE 2024.06 (io_trps.svl 2023.06)
