@<TRIPOS>MOLECULE
NONAME
40 40 1 0 0 
SMALL
USER_CHARGES


@<TRIPOS>ATOM
  1 O       -0.1770    -1.0720    -1.6560 O.2   1 <1>  -0.5700 
  2 C        0.5890    -1.3860    -0.7670 C.2   1 <1>   0.7800 
  3 O        1.4160    -0.4940    -0.2160 O.3   1 <1>  -0.4300 
  4 N        0.6390    -2.6580    -0.2780 N.am  1 <1>  -0.6600 
  5 C        1.4970     0.8850    -0.5040 C.3   1 <1>   0.2800 
  6 C       -0.1980    -3.7770    -0.8200 C.3   1 <1>   0.2810 
  7 C        1.7680    -3.1720     0.5230 C.3   1 <1>   0.1400 
  8 C        1.9340     1.0990    -1.9580 C.3   1 <1>  -0.2400 
  9 C        2.5790     1.4240     0.4320 C.3   1 <1>  -0.2400 
 10 C        0.1640     1.5720    -0.1850 C.3   1 <1>  -0.2400 
 11 C       -1.7110    -3.6990    -0.4850 C.2   1 <1>   0.5690 
 12 C        0.4920    -5.0420    -0.2790 C.3   1 <1>  -0.1600 
 13 C        1.9150    -4.6170     0.0710 C.3   1 <1>  -0.1600 
 14 O       -2.3110    -4.6930    -0.1390 O.2   1 <1>  -0.5700 
 15 N       -2.3670    -2.5220    -0.6080 N.am  1 <1>  -0.7300 
 16 C       -3.7430    -2.2900    -0.2310 C.3   1 <1>   0.4200 
 17 O       -3.8280    -0.9250    -0.0420 O.3   1 <1>  -0.5600 
 18 C       -5.0870    -0.4970     0.3630 C.3   1 <1>   0.0400 
 19 H       -0.1030    -3.7660    -1.8920 H     1 <1>   0.0800 
 20 H        2.6700    -2.6100     0.3480 H     1 <1>   0.0800 
 21 H        1.5070    -3.1240     1.5670 H     1 <1>   0.0800 
 22 H        2.1310     2.1420    -2.1310 H     1 <1>   0.0800 
 23 H        1.1650     0.7970    -2.6440 H     1 <1>   0.0800 
 24 H        2.8310     0.5440    -2.1650 H     1 <1>   0.0800 
 25 H        2.7100     2.4810     0.2830 H     1 <1>   0.0800 
 26 H        3.5160     0.9350     0.2400 H     1 <1>   0.0800 
 27 H        2.3000     1.2590     1.4570 H     1 <1>   0.0800 
 28 H        0.2710     2.6380    -0.2660 H     1 <1>   0.0800 
 29 H       -0.1480     1.3360     0.8170 H     1 <1>   0.0800 
 30 H       -0.6050     1.2720    -0.8720 H     1 <1>   0.0800 
 31 H       -0.0040    -5.3690     0.6190 H     1 <1>   0.0800 
 32 H        0.4630    -5.8430    -0.9950 H     1 <1>   0.0800 
 33 H        2.5380    -4.6510    -0.8060 H     1 <1>   0.0800 
 34 H        2.3510    -5.2340     0.8370 H     1 <1>   0.0800 
 35 H       -1.8690    -1.6790    -0.9230 H     1 <1>   0.3700 
 36 H       -3.9810    -2.8020     0.6870 H     1 <1>   0.0800 
 37 H       -4.4100    -2.5860    -1.0230 H     1 <1>   0.0800 
 38 H       -5.0530     0.5720     0.4820 H     1 <1>   0.0800 
 39 H       -5.3330    -0.9580     1.3040 H     1 <1>   0.0800 
 40 H       -5.8110    -0.7560    -0.3900 H     1 <1>   0.0800 
@<TRIPOS>BOND
  1   1   2  2   
  2   2   3  1   
  3   2   4  am  
  4   3   5  1   
  5   4   6  1   
  6   4   7  1   
  7   5   8  1   
  8   5   9  1   
  9   5  10  1   
 10   6  11  1   
 11   6  12  1   
 12   6  19  1   
 13   7  13  1   
 14   7  20  1   
 15   7  21  1   
 16   8  22  1   
 17   8  23  1   
 18   8  24  1   
 19   9  25  1   
 20   9  26  1   
 21   9  27  1   
 22  10  28  1   
 23  10  29  1   
 24  10  30  1   
 25  11  14  2   
 26  11  15  am  
 27  12  13  1   
 28  12  31  1   
 29  12  32  1   
 30  13  33  1   
 31  13  34  1   
 32  15  16  1   
 33  15  35  1   
 34  16  17  1   
 35  16  36  1   
 36  16  37  1   
 37  17  18  1   
 38  18  38  1   
 39  18  39  1   
 40  18  40  1   
@<TRIPOS>SUBSTRUCTURE
  1 ****   2 GROUP 4 **** **** 0

# MOE 2024.06 (io_trps.svl 2023.06)
