@<TRIPOS>MOLECULE
NONAME
54 57 1 0 0 
SMALL
USER_CHARGES


@<TRIPOS>ATOM
  1 S       -0.1810     0.3830    -0.8440 S.3   1 <1>  -0.3320 
  2 C        0.0080    -1.3940    -0.8070 C.ar  1 <1>   0.4120 
  3 C        1.0540     0.9760     0.3940 C.3   1 <1>   0.2140 
  4 N        0.9240    -1.8700     0.0220 N.ar  1 <1>  -0.6200 
  5 C       -0.8060    -2.1440    -1.6380 C.ar  1 <1>  -0.1500 
  6 C        0.9900     2.4940     0.4460 C.ar  1 <1>  -0.1440 
  7 C        1.0280    -3.1910     0.0160 C.ar  1 <1>   0.1600 
  8 C       -0.6790    -3.5160    -1.6270 C.ar  1 <1>  -0.1500 
  9 C        1.5260     3.2520    -0.5820 C.ar  1 <1>  -0.1500 
 10 C        0.3970     3.1390     1.5180 C.ar  1 <1>  -0.1500 
 11 C        0.2690    -4.0420    -0.7720 C.ar  1 <1>  -0.1500 
 12 C        1.4750     4.6330    -0.5340 C.ar  1 <1>  -0.1500 
 13 C        0.3500     4.5200     1.5620 C.ar  1 <1>  -0.1500 
 14 C        0.8930     5.3050     0.5440 C.ar  1 <1>   0.0860 
 15 C        0.8490     6.7550     0.6150 C.2   1 <1>   0.5440 
 16 O       -0.0110     7.3110     1.2740 O.2   1 <1>  -0.5700 
 17 N        1.8040     7.4880    -0.0350 N.am  1 <1>  -0.4930 
 18 C        2.0300     8.8850    -0.1010 C.2   1 <1>   0.0630 
 19 C        3.3170     9.4330    -0.1280 C.2   1 <1>   0.3720 
 20 C        1.1980     9.9490    -0.1690 C.2   1 <1>  -0.3320 
 21 N        3.3070    10.7280    -0.1810 N.2   1 <1>  -0.7070 
 22 N        4.4960     8.6620    -0.0920 N.pl3 1 <1>  -0.8210 
 23 N        1.9930    11.0480    -0.1980 N.pl3 1 <1>   0.3140 
 24 C       -0.3220     9.9940    -0.2210 C.3   1 <1>  -0.0600 
 25 C        5.1580     8.7650     1.2360 C.3   1 <1>   0.2090 
 26 C        5.4830     9.0700    -1.1310 C.3   1 <1>   0.2090 
 27 C        1.5640    12.4510    -0.2440 C.3   1 <1>   0.0160 
 28 C        6.6470     8.9040     0.9570 C.3   1 <1>  -0.1600 
 29 C        6.6950     9.6120    -0.3860 C.3   1 <1>  -0.1600 
 30 H        2.0210     0.6310     0.0730 H     1 <1>   0.0800 
 31 H        0.7990     0.5290     1.3380 H     1 <1>   0.0800 
 32 H       -1.5190    -1.6520    -2.2730 H     1 <1>   0.1500 
 33 H        1.7620    -3.6210     0.6760 H     1 <1>   0.1500 
 34 H       -1.2880    -4.1450    -2.2540 H     1 <1>   0.1500 
 35 H        1.9790     2.7620    -1.4280 H     1 <1>   0.1500 
 36 H       -0.0350     2.5680     2.3220 H     1 <1>   0.1500 
 37 H        0.4190    -5.1050    -0.7150 H     1 <1>   0.1500 
 38 H        1.8860     5.1930    -1.3550 H     1 <1>   0.1500 
 39 H       -0.1170     5.0090     2.4000 H     1 <1>   0.1500 
 40 H        2.6610     6.9860    -0.2730 H     1 <1>   0.3700 
 41 H       -0.7160     9.0260    -0.4700 H     1 <1>   0.0800 
 42 H       -0.6570    10.6890    -0.9690 H     1 <1>   0.0800 
 43 H       -0.7140    10.2850     0.7370 H     1 <1>   0.0800 
 44 H        4.9510     7.8900     1.8270 H     1 <1>   0.0800 
 45 H        4.8030     9.6370     1.7620 H     1 <1>   0.0800 
 46 H        5.0800     9.8080    -1.8050 H     1 <1>   0.0800 
 47 H        5.7600     8.1990    -1.6990 H     1 <1>   0.0800 
 48 H        0.8450    12.6250     0.5340 H     1 <1>   0.0800 
 49 H        1.1280    12.6520    -1.2030 H     1 <1>   0.0800 
 50 H        2.4180    13.0850    -0.0940 H     1 <1>   0.0800 
 51 H        7.0830     7.9240     0.8760 H     1 <1>   0.0800 
 52 H        7.1490     9.4560     1.7320 H     1 <1>   0.0800 
 53 H        6.5650    10.6710    -0.2470 H     1 <1>   0.0800 
 54 H        7.6100     9.4320    -0.9200 H     1 <1>   0.0800 
@<TRIPOS>BOND
  1   1   2  1   
  2   1   3  1   
  3   2   4  ar  
  4   2   5  ar  
  5   3   6  1   
  6   3  30  1   
  7   3  31  1   
  8   4   7  ar  
  9   5   8  ar  
 10   5  32  1   
 11   6   9  ar  
 12   6  10  ar  
 13   7  11  ar  
 14   7  33  1   
 15   8  11  ar  
 16   8  34  1   
 17   9  12  ar  
 18   9  35  1   
 19  10  13  ar  
 20  10  36  1   
 21  11  37  1   
 22  12  14  ar  
 23  12  38  1   
 24  13  14  ar  
 25  13  39  1   
 26  14  15  1   
 27  15  16  2   
 28  15  17  am  
 29  17  18  1   
 30  17  40  1   
 31  18  19  1   
 32  18  20  2   
 33  19  21  2   
 34  19  22  1   
 35  20  23  1   
 36  20  24  1   
 37  21  23  1   
 38  22  25  1   
 39  22  26  1   
 40  23  27  1   
 41  24  41  1   
 42  24  42  1   
 43  24  43  1   
 44  25  28  1   
 45  25  44  1   
 46  25  45  1   
 47  26  29  1   
 48  26  46  1   
 49  26  47  1   
 50  27  48  1   
 51  27  49  1   
 52  27  50  1   
 53  28  29  1   
 54  28  51  1   
 55  28  52  1   
 56  29  53  1   
 57  29  54  1   
@<TRIPOS>SUBSTRUCTURE
  1 ****  12 GROUP 4 **** **** 0

# MOE 2024.06 (io_trps.svl 2023.06)
