@<TRIPOS>MOLECULE
NONAME
50 52 1 0 0 
SMALL
USER_CHARGES


@<TRIPOS>ATOM
  1 O        0.0390    -0.3460     0.1960 O.3   1 <1>  -0.3630 
  2 C       -0.2010    -1.6660     0.3760 C.ar  1 <1>   0.0830 
  3 C        1.3440     0.1490    -0.0230 C.3   1 <1>   0.2640 
  4 C        0.7740    -2.6560     0.2870 C.ar  1 <1>  -0.1500 
  5 C       -1.5060    -2.0230     0.6700 C.ar  1 <1>  -0.1500 
  6 C        1.2910     1.6660    -0.1140 C.ar  1 <1>  -0.1440 
  7 C        0.4340    -3.9830     0.4860 C.ar  1 <1>  -0.1500 
  8 C       -1.8450    -3.3480     0.8700 C.ar  1 <1>  -0.1500 
  9 C        1.6750     2.3190    -1.2760 C.ar  1 <1>  -0.1500 
 10 C        0.8630     2.4130     0.9730 C.ar  1 <1>  -0.1500 
 11 C       -0.8780    -4.3390     0.7720 C.ar  1 <1>  -0.1430 
 12 C        1.6360     3.7010    -1.3480 C.ar  1 <1>  -0.1500 
 13 C        0.8240     3.7950     0.9030 C.ar  1 <1>  -0.1500 
 14 C       -1.2590    -5.7940     0.9720 C.3   1 <1>   0.4860 
 15 C        1.2120     4.4400    -0.2580 C.ar  1 <1>  -0.1500 
 16 N       -1.2750    -6.4720    -0.3560 N.4   1 <1>  -0.9590 
 17 C       -1.3580    -7.9640    -0.1750 C.3   1 <1>   0.3430 
 18 C       -2.3330    -5.9160    -1.2550 C.3   1 <1>   0.3430 
 19 C       -2.7130    -8.5670    -0.5780 C.3   1 <1>  -0.0800 
 20 C       -3.7500    -6.2600    -0.7690 C.3   1 <1>  -0.1600 
 21 C       -3.8710    -7.6590    -0.1450 C.3   1 <1>   0.2000 
 22 C       -2.8490    -9.9820    -0.0040 C.3   1 <1>   0.1200 
 23 O       -3.8290    -7.5230     1.2330 O.3   1 <1>  -0.6800 
 24 O       -1.7210   -10.6990    -0.3670 O.3   1 <1>  -0.6800 
 25 H        1.9630    -0.1480     0.8050 H     1 <1>   0.0800 
 26 H        1.7170    -0.2760    -0.9370 H     1 <1>   0.0800 
 27 H        1.7960    -2.4120     0.0670 H     1 <1>   0.1500 
 28 H       -2.2500    -1.2480     0.7440 H     1 <1>   0.1500 
 29 H        1.2060    -4.7300     0.4200 H     1 <1>   0.1500 
 30 H       -2.8670    -3.5910     1.1060 H     1 <1>   0.1500 
 31 H        2.0060     1.7570    -2.1320 H     1 <1>   0.1500 
 32 H        0.5540     1.9180     1.8770 H     1 <1>   0.1500 
 33 H        1.9350     4.2010    -2.2530 H     1 <1>   0.1500 
 34 H        0.4890     4.3670     1.7510 H     1 <1>   0.1500 
 35 H       -2.2260    -5.8610     1.4420 H     1 <1>   0.0800 
 36 H       -0.5370    -6.2640     1.6200 H     1 <1>   0.0800 
 37 H        1.1810     5.5140    -0.3140 H     1 <1>   0.1500 
 38 H       -0.3670    -6.2520    -0.7820 H     1 <1>   0.4500 
 39 H       -0.5890    -8.4490    -0.7560 H     1 <1>   0.0800 
 40 H       -1.1770    -8.2080     0.8590 H     1 <1>   0.0800 
 41 H       -2.2270    -4.8450    -1.3420 H     1 <1>   0.0800 
 42 H       -2.1990    -6.3360    -2.2390 H     1 <1>   0.0800 
 43 H       -2.7420    -8.6610    -1.6490 H     1 <1>   0.0800 
 44 H       -4.3920    -6.2170    -1.6300 H     1 <1>   0.0800 
 45 H       -4.1020    -5.5060    -0.0880 H     1 <1>   0.0800 
 46 H       -4.8190    -8.1080    -0.4000 H     1 <1>   0.0800 
 47 H       -3.7160   -10.4810    -0.4050 H     1 <1>   0.0800 
 48 H       -2.9070    -9.9690     1.0720 H     1 <1>   0.0800 
 49 H       -4.7060    -7.2540     1.5790 H     1 <1>   0.4000 
 50 H       -1.8000   -11.6380    -0.0940 H     1 <1>   0.4000 
@<TRIPOS>BOND
  1   1   2  1   
  2   1   3  1   
  3   2   4  ar  
  4   2   5  ar  
  5   3   6  1   
  6   3  25  1   
  7   3  26  1   
  8   4   7  ar  
  9   4  27  1   
 10   5   8  ar  
 11   5  28  1   
 12   6   9  ar  
 13   6  10  ar  
 14   7  11  ar  
 15   7  29  1   
 16   8  11  ar  
 17   8  30  1   
 18   9  12  ar  
 19   9  31  1   
 20  10  13  ar  
 21  10  32  1   
 22  11  14  1   
 23  12  15  ar  
 24  12  33  1   
 25  13  15  ar  
 26  13  34  1   
 27  14  16  1   
 28  14  35  1   
 29  14  36  1   
 30  15  37  1   
 31  16  17  1   
 32  16  18  1   
 33  16  38  1   
 34  17  19  1   
 35  17  39  1   
 36  17  40  1   
 37  18  20  1   
 38  18  41  1   
 39  18  42  1   
 40  19  21  1   
 41  19  22  1   
 42  19  43  1   
 43  20  21  1   
 44  20  44  1   
 45  20  45  1   
 46  21  23  1   
 47  21  46  1   
 48  22  24  1   
 49  22  47  1   
 50  22  48  1   
 51  23  49  1   
 52  24  50  1   
@<TRIPOS>SUBSTRUCTURE
  1 ****   8 GROUP 4 **** **** 0

# MOE 2024.06 (io_trps.svl 2023.06)
