@<TRIPOS>MOLECULE
NONAME
47 48 1 0 0 
SMALL
USER_CHARGES


@<TRIPOS>ATOM
  1 F       -1.6170    -0.5680     0.2850 F     1 <1>  -0.1900 
  2 C       -2.0830     0.6080    -0.0620 C.ar  1 <1>   0.1900 
  3 C       -1.5840     1.7480     0.5580 C.ar  1 <1>   0.0830 
  4 C       -3.0670     0.6530    -1.0350 C.ar  1 <1>  -0.1440 
  5 O       -0.6190     1.6050     1.5070 O.3   1 <1>  -0.3630 
  6 C       -2.1050     2.9800     0.1720 C.ar  1 <1>  -0.1500 
  7 C       -3.5710     1.8920    -1.4050 C.ar  1 <1>  -0.1500 
  8 C       -3.5690    -0.6280    -1.6720 C.3   1 <1>   0.4870 
  9 C       -0.0250     2.7220     2.1320 C.3   1 <1>   0.0400 
 10 C       -3.0890     3.0450    -0.8020 C.ar  1 <1>  -0.1500 
 11 N       -4.3100    -1.4280    -0.6650 N.4   1 <1>  -0.9590 
 12 C       -4.6610    -2.7820    -1.2060 C.3   1 <1>   0.3430 
 13 C       -5.5060    -0.7140    -0.1340 C.3   1 <1>   0.3430 
 14 C       -5.3480    -3.6590    -0.1540 C.3   1 <1>   0.2000 
 15 C       -6.1860    -1.5540     0.9430 C.3   1 <1>  -0.1600 
 16 O       -5.7100    -4.8530    -0.7420 O.3   1 <1>  -0.6800 
 17 C       -6.5740    -3.0040     0.5260 C.3   1 <1>  -0.1060 
 18 C       -6.8370    -3.8490     1.7850 C.2   1 <1>   0.9060 
 19 C       -7.8990    -3.0220    -0.3070 C.3   1 <1>  -0.1600 
 20 O       -7.0320    -3.2890     2.8660 O.co2 1 <1>  -0.9000 
 21 O       -6.8150    -5.0830     1.6730 O.co2 1 <1>  -0.9000 
 22 C       -7.8960    -2.4980    -1.7540 C.3   1 <1>  -0.1600 
 23 C       -9.3010    -2.5890    -2.3570 C.3   1 <1>  -0.2400 
 24 H       -1.7580     3.8960     0.6150 H     1 <1>   0.1500 
 25 H       -4.3330     1.9790    -2.1610 H     1 <1>   0.1500 
 26 H       -2.7250    -1.1910    -2.0370 H     1 <1>   0.0800 
 27 H       -4.2110    -0.3970    -2.5060 H     1 <1>   0.0800 
 28 H        0.7210     2.3630     2.8190 H     1 <1>   0.0800 
 29 H       -0.7810     3.2680     2.6690 H     1 <1>   0.0800 
 30 H        0.4390     3.3380     1.3830 H     1 <1>   0.0800 
 31 H       -3.4820     4.0060    -1.0940 H     1 <1>   0.1500 
 32 H       -3.6700    -1.5670     0.1320 H     1 <1>   0.4500 
 33 H       -5.3190    -2.6730    -2.0480 H     1 <1>   0.0800 
 34 H       -3.7690    -3.2880    -1.5330 H     1 <1>   0.0800 
 35 H       -5.2080     0.2270     0.3010 H     1 <1>   0.0800 
 36 H       -6.1960    -0.5040    -0.9300 H     1 <1>   0.0800 
 37 H       -4.6200    -3.9030     0.6040 H     1 <1>   0.0800 
 38 H       -5.5140    -1.5990     1.7840 H     1 <1>   0.0800 
 39 H       -7.0640    -1.0390     1.2940 H     1 <1>   0.0800 
 40 H       -6.1960    -5.3550    -0.0230 H     1 <1>   0.4000 
 41 H       -8.2420    -4.0440    -0.3460 H     1 <1>   0.0800 
 42 H       -8.6480    -2.4890     0.2550 H     1 <1>   0.0800 
 43 H       -7.5850    -1.4740    -1.7970 H     1 <1>   0.0800 
 44 H       -7.2400    -3.0990    -2.3570 H     1 <1>   0.0800 
 45 H       -9.9950    -1.9940    -1.7900 H     1 <1>   0.0800 
 46 H       -9.6430    -3.6090    -2.3550 H     1 <1>   0.0800 
 47 H       -9.2940    -2.2340    -3.3720 H     1 <1>   0.0800 
@<TRIPOS>BOND
  1   1   2  1   
  2   2   3  ar  
  3   2   4  ar  
  4   3   5  1   
  5   3   6  ar  
  6   4   7  ar  
  7   4   8  1   
  8   5   9  1   
  9   6  10  ar  
 10   6  24  1   
 11   7  10  ar  
 12   7  25  1   
 13   8  11  1   
 14   8  26  1   
 15   8  27  1   
 16   9  28  1   
 17   9  29  1   
 18   9  30  1   
 19  10  31  1   
 20  11  12  1   
 21  11  13  1   
 22  11  32  1   
 23  12  14  1   
 24  12  33  1   
 25  12  34  1   
 26  13  15  1   
 27  13  35  1   
 28  13  36  1   
 29  14  16  1   
 30  14  17  1   
 31  14  37  1   
 32  15  17  1   
 33  15  38  1   
 34  15  39  1   
 35  16  40  1   
 36  17  18  1   
 37  17  19  1   
 38  18  20  ar  
 39  18  21  ar  
 40  19  22  1   
 41  19  41  1   
 42  19  42  1   
 43  22  23  1   
 44  22  43  1   
 45  22  44  1   
 46  23  45  1   
 47  23  46  1   
 48  23  47  1   
@<TRIPOS>SUBSTRUCTURE
  1 ****  11 GROUP 4 **** **** 0

# MOE 2024.06 (io_trps.svl 2023.06)
