@<TRIPOS>MOLECULE
NONAME
55 58 1 0 0 
SMALL
USER_CHARGES


@<TRIPOS>ATOM
  1 O       -0.6980     0.8400     2.2210 O.2   1 <1>  -0.5700 
  2 C       -1.4160     1.6000     1.6090 C.2   1 <1>   0.6300 
  3 N       -2.7660     1.3520     1.4700 N.am  1 <1>  -0.6600 
  4 C       -0.7560     2.8500     0.9970 C.3   1 <1>   0.0320 
  5 C       -3.6640     2.2260     0.6600 C.3   1 <1>   0.2200 
  6 C       -3.3550     0.1280     2.1020 C.3   1 <1>   0.0600 
  7 C       -0.6080     2.7600    -0.5210 C.ar  1 <1>  -0.0320 
  8 C       -0.9260     4.1760     1.6970 C.3   1 <1>  -0.2000 
  9 C        0.3980     3.4900     1.7210 C.3   1 <1>  -0.2000 
 10 C       -5.0140     2.5360     1.3070 C.3   1 <1>  -0.1600 
 11 C       -4.0260     1.6000    -0.6850 C.3   1 <1>  -0.1600 
 12 C        0.0760     1.6850    -1.0670 C.ar  1 <1>  -0.1500 
 13 C       -1.1430     3.7190    -1.3710 C.ar  1 <1>  -0.1500 
 14 C       -5.9030     2.9670     0.1310 C.3   1 <1>  -0.0800 
 15 C       -5.2780     2.3660    -1.1340 C.3   1 <1>  -0.0800 
 16 C        0.2190     1.5630    -2.4390 C.ar  1 <1>  -0.1500 
 17 C       -1.0000     3.6010    -2.7430 C.ar  1 <1>  -0.1500 
 18 C       -7.3570     2.4700     0.1890 C.3   1 <1>  -0.1600 
 19 C       -6.3650     1.5120    -1.8060 C.3   1 <1>  -0.1600 
 20 C       -0.3200     2.5210    -3.2770 C.ar  1 <1>  -0.1500 
 21 C       -7.7050     1.9400    -1.2070 C.3   1 <1>   0.4230 
 22 N       -8.3930     2.9490    -2.0770 N.4   1 <1>  -0.9590 
 23 C       -7.6980     4.2700    -2.2050 C.3   1 <1>   0.2630 
 24 C       -9.8110     3.1500    -1.6420 C.3   1 <1>   0.2630 
 25 H       -3.1880     3.1700     0.4670 H     1 <1>   0.0800 
 26 H       -4.1020    -0.3100     1.4670 H     1 <1>   0.0800 
 27 H       -3.7990     0.3900     3.0460 H     1 <1>   0.0800 
 28 H       -2.5950    -0.6140     2.2790 H     1 <1>   0.0800 
 29 H       -0.9950     5.0920     1.1400 H     1 <1>   0.1000 
 30 H       -1.5000     4.2040     2.6070 H     1 <1>   0.1000 
 31 H        0.7390     3.0410     2.6380 H     1 <1>   0.1000 
 32 H        1.2060     3.8910     1.1350 H     1 <1>   0.1000 
 33 H       -5.4190     1.6590     1.7750 H     1 <1>   0.0800 
 34 H       -4.9200     3.3170     2.0410 H     1 <1>   0.0800 
 35 H       -3.2230     1.7050    -1.3930 H     1 <1>   0.0800 
 36 H       -4.2410     0.5560    -0.5550 H     1 <1>   0.0800 
 37 H        0.5010     0.9360    -0.4190 H     1 <1>   0.1500 
 38 H       -1.6730     4.5640    -0.9730 H     1 <1>   0.1500 
 39 H       -5.8800     4.0410     0.0520 H     1 <1>   0.0800 
 40 H       -4.9770     3.1680    -1.7880 H     1 <1>   0.0800 
 41 H        0.7510     0.7220    -2.8500 H     1 <1>   0.1500 
 42 H       -1.4120     4.3500    -3.3950 H     1 <1>   0.1500 
 43 H       -8.0300     3.2310     0.5380 H     1 <1>   0.0800 
 44 H       -7.4250     1.6370     0.8670 H     1 <1>   0.0800 
 45 H       -6.2170     0.4770    -1.5480 H     1 <1>   0.0800 
 46 H       -6.3370     1.5910    -2.8780 H     1 <1>   0.0800 
 47 H       -0.2070     2.4280    -4.3440 H     1 <1>   0.1500 
 48 H       -8.3420     1.0740    -1.1150 H     1 <1>   0.0800 
 49 H       -8.4230     2.5310    -3.0190 H     1 <1>   0.4500 
 50 H       -7.6260     4.7510    -1.2440 H     1 <1>   0.0800 
 51 H       -8.2440     4.9170    -2.8730 H     1 <1>   0.0800 
 52 H       -6.7050     4.1350    -2.6000 H     1 <1>   0.0800 
 53 H       -9.8440     3.5980    -0.6620 H     1 <1>   0.0800 
 54 H      -10.3300     2.2060    -1.6070 H     1 <1>   0.0800 
 55 H      -10.3260     3.7980    -2.3330 H     1 <1>   0.0800 
@<TRIPOS>BOND
  1   1   2  2   
  2   2   3  am  
  3   2   4  1   
  4   3   5  1   
  5   3   6  1   
  6   4   7  1   
  7   4   8  1   
  8   4   9  1   
  9   5  10  1   
 10   5  11  1   
 11   5  25  1   
 12   6  26  1   
 13   6  27  1   
 14   6  28  1   
 15   7  12  ar  
 16   7  13  ar  
 17   8   9  1   
 18   8  29  1   
 19   8  30  1   
 20   9  31  1   
 21   9  32  1   
 22  10  14  1   
 23  10  33  1   
 24  10  34  1   
 25  11  15  1   
 26  11  35  1   
 27  11  36  1   
 28  12  16  ar  
 29  12  37  1   
 30  13  17  ar  
 31  13  38  1   
 32  14  15  1   
 33  14  18  1   
 34  14  39  1   
 35  15  19  1   
 36  15  40  1   
 37  16  20  ar  
 38  16  41  1   
 39  17  20  ar  
 40  17  42  1   
 41  18  21  1   
 42  18  43  1   
 43  18  44  1   
 44  19  21  1   
 45  19  45  1   
 46  19  46  1   
 47  20  47  1   
 48  21  22  1   
 49  21  48  1   
 50  22  23  1   
 51  22  24  1   
 52  22  49  1   
 53  23  50  1   
 54  23  51  1   
 55  23  52  1   
 56  24  53  1   
 57  24  54  1   
 58  24  55  1   
@<TRIPOS>SUBSTRUCTURE
  1 ****   5 GROUP 4 **** **** 0

# MOE 2024.06 (io_trps.svl 2023.06)
