@<TRIPOS>MOLECULE
NONAME
54 58 1 0 0 
SMALL
USER_CHARGES


@<TRIPOS>ATOM
  1 O       -0.7710    -1.0730     1.7440 O.2   1 <1>  -0.5700 
  2 C       -1.1700    -1.2950     0.6170 C.2   1 <1>   0.7160 
  3 N       -0.5260    -2.2470    -0.1200 N.am  1 <1>  -0.7300 
  4 C       -2.2980    -0.5900     0.0510 C.2   1 <1>  -0.0860 
  5 C        0.6850    -2.9810     0.3130 C.3   1 <1>   0.1400 
  6 C       -2.9490     0.5300     0.4800 C.2   1 <1>  -0.0400 
  7 C       -2.9900    -0.9500    -1.1280 C.2   1 <1>  -0.1500 
  8 C        0.3040    -4.1520     1.2320 C.3   1 <1>  -0.0800 
  9 O       -3.9310     0.8450    -0.3280 O.3   1 <1>  -0.2800 
 10 C       -2.7270     1.4290     1.6810 C.3   1 <1>  -0.0600 
 11 C       -3.9660    -0.0380    -1.2980 C.2   1 <1>  -0.0400 
 12 C       -0.4930    -5.2240     0.4730 C.3   1 <1>   0.2000 
 13 C        1.4880    -4.9990     1.7580 C.3   1 <1>  -0.0800 
 14 C       -5.0250     0.1050    -2.3680 C.3   1 <1>  -0.0600 
 15 O        0.5360    -5.9800    -0.0410 O.3   1 <1>  -0.5600 
 16 C       -1.1490    -6.2300     1.4330 C.3   1 <1>  -0.1600 
 17 C        1.1750    -6.3540     1.1260 C.3   1 <1>   0.2800 
 18 C        2.9410    -4.6920     1.3360 C.3   1 <1>   0.2090 
 19 C        0.0510    -7.0830     1.8620 C.3   1 <1>  -0.1600 
 20 C        2.5100    -7.0190     0.8260 C.3   1 <1>   0.2090 
 21 N        3.4300    -5.8720     0.5510 N.pl3 1 <1>  -0.8380 
 22 C        4.3770    -5.7480    -0.4100 C.ar  1 <1>   0.7710 
 23 N        5.0610    -4.6140    -0.4980 N.ar  1 <1>  -0.6200 
 24 N        4.5950    -6.7780    -1.2480 N.ar  1 <1>  -0.1790 
 25 C        5.9710    -4.5220    -1.4370 C.ar  1 <1>   0.4100 
 26 C        5.5280    -6.7100    -2.2310 C.ar  1 <1>   0.2110 
 27 N        6.6410    -3.3700    -1.4950 N.pl3 1 <1>  -0.9000 
 28 C        6.2400    -5.5640    -2.3390 C.ar  1 <1>  -0.1500 
 29 H       -0.8100    -2.3700    -1.0910 H     1 <1>   0.3700 
 30 H        1.2100    -3.3420    -0.5560 H     1 <1>   0.0800 
 31 H        1.3280    -2.3000     0.8450 H     1 <1>   0.0800 
 32 H       -2.7700    -1.7960    -1.7520 H     1 <1>   0.1500 
 33 H       -0.2720    -3.7660     2.0560 H     1 <1>   0.0800 
 34 H       -1.8790     1.1130     2.2570 H     1 <1>   0.0800 
 35 H       -3.5980     1.4100     2.3090 H     1 <1>   0.0800 
 36 H       -2.5610     2.4370     1.3490 H     1 <1>   0.0800 
 37 H       -1.1430    -4.8580    -0.3040 H     1 <1>   0.0800 
 38 H        1.4520    -5.0640     2.8310 H     1 <1>   0.0800 
 39 H       -4.9340    -0.6830    -3.0920 H     1 <1>   0.0800 
 40 H       -4.9120     1.0520    -2.8640 H     1 <1>   0.0800 
 41 H       -6.0010     0.0610    -1.9200 H     1 <1>   0.0800 
 42 H       -1.6280    -5.7360     2.2600 H     1 <1>   0.0800 
 43 H       -1.8750    -6.8230     0.9050 H     1 <1>   0.0800 
 44 H        3.5560    -4.5740     2.2130 H     1 <1>   0.0800 
 45 H        3.0200    -3.7910     0.7550 H     1 <1>   0.0800 
 46 H       -0.0440    -8.0910     1.4990 H     1 <1>   0.0800 
 47 H        0.1970    -7.0900     2.9270 H     1 <1>   0.0800 
 48 H        2.4050    -7.6970    -0.0010 H     1 <1>   0.0800 
 49 H        2.8520    -7.5490     1.6990 H     1 <1>   0.0800 
 50 H        4.0060    -7.5890    -1.1040 H     1 <1>   0.4570 
 51 H        5.6710    -7.5560    -2.8850 H     1 <1>   0.1500 
 52 H        6.4360    -2.6280    -0.8200 H     1 <1>   0.4000 
 53 H        7.3810    -3.1440    -2.1620 H     1 <1>   0.4000 
 54 H        6.9980    -5.4220    -3.0880 H     1 <1>   0.1500 
@<TRIPOS>BOND
  1   1   2  2   
  2   2   3  am  
  3   2   4  1   
  4   3   5  1   
  5   3  29  1   
  6   4   6  2   
  7   4   7  1   
  8   5   8  1   
  9   5  30  1   
 10   5  31  1   
 11   6   9  1   
 12   6  10  1   
 13   7  11  2   
 14   7  32  1   
 15   8  12  1   
 16   8  13  1   
 17   8  33  1   
 18   9  11  1   
 19  10  34  1   
 20  10  35  1   
 21  10  36  1   
 22  11  14  1   
 23  12  15  1   
 24  12  16  1   
 25  12  37  1   
 26  13  17  1   
 27  13  18  1   
 28  13  38  1   
 29  14  39  1   
 30  14  40  1   
 31  14  41  1   
 32  15  17  1   
 33  16  19  1   
 34  16  42  1   
 35  16  43  1   
 36  17  19  1   
 37  17  20  1   
 38  18  21  1   
 39  18  44  1   
 40  18  45  1   
 41  19  46  1   
 42  19  47  1   
 43  20  21  1   
 44  20  48  1   
 45  20  49  1   
 46  21  22  1   
 47  22  23  ar  
 48  22  24  ar  
 49  23  25  ar  
 50  24  26  ar  
 51  24  50  1   
 52  25  27  1   
 53  25  28  ar  
 54  26  28  ar  
 55  26  51  1   
 56  27  52  1   
 57  27  53  1   
 58  28  54  1   
@<TRIPOS>SUBSTRUCTURE
  1 ****   5 GROUP 4 **** **** 0

# MOE 2024.06 (io_trps.svl 2023.06)
