@<TRIPOS>MOLECULE
NONAME
50 53 1 0 0 
SMALL
USER_CHARGES


@<TRIPOS>ATOM
  1 S       -0.1520    -0.2100    -1.3340 S.3   1 <1>  -0.0800 
  2 C       -1.5630     0.7280    -0.8620 C.2   1 <1>   0.4620 
  3 C        0.8720     1.0390    -0.6950 C.2   1 <1>  -0.1100 
  4 N       -1.2610     1.8350    -0.2940 N.2   1 <1>  -0.5650 
  5 N       -2.8360     0.2440    -1.1100 N.pl3 1 <1>  -0.8220 
  6 C        0.1130     2.0320    -0.1870 C.2   1 <1>   0.1730 
  7 C       -3.1410    -1.1550    -1.5100 C.3   1 <1>   0.2090 
  8 C       -4.0250     1.0910    -0.8110 C.3   1 <1>   0.2090 
  9 C        0.6080     3.2470     0.4390 C.ar  1 <1>   0.0540 
 10 C       -3.9880    -1.8460    -0.4110 C.3   1 <1>   0.4230 
 11 C       -4.8340     0.4160     0.3000 C.3   1 <1>  -0.1600 
 12 C       -0.1550     4.4130     0.4710 C.ar  1 <1>  -0.1500 
 13 C        1.8710     3.2920     1.0320 C.ar  1 <1>  -0.1500 
 14 N       -4.2490    -3.3300    -0.6640 N.4   1 <1>  -0.9590 
 15 C       -5.2690    -1.0370    -0.0440 C.3   1 <1>   0.0000 
 16 C        0.3170     5.5720     1.0620 C.ar  1 <1>  -0.1500 
 17 C        2.3500     4.4470     1.6230 C.ar  1 <1>  -0.1500 
 18 C       -5.3760    -3.9010     0.1430 C.3   1 <1>   0.3430 
 19 C       -4.4130    -3.7200    -2.1040 C.3   1 <1>   0.2630 
 20 C       -5.9320    -1.6640     1.2180 C.3   1 <1>  -0.1600 
 21 C       -6.2640    -1.0350    -1.2400 C.3   1 <1>   0.1200 
 22 C        1.5730     5.5910     1.6390 C.ar  1 <1>  -0.1500 
 23 C       -5.5520    -3.1380     1.4540 C.3   1 <1>  -0.1600 
 24 O       -7.3150    -0.1590    -1.0320 O.3   1 <1>  -0.6800 
 25 H        1.9350     0.9050    -0.7670 H     1 <1>   0.1500 
 26 H       -3.6690    -1.1260    -2.4450 H     1 <1>   0.0800 
 27 H       -2.2360    -1.7140    -1.6520 H     1 <1>   0.0800 
 28 H       -3.7260     2.0750    -0.4910 H     1 <1>   0.0800 
 29 H       -4.6210     1.2090    -1.7010 H     1 <1>   0.0800 
 30 H       -3.3730    -1.7970     0.4730 H     1 <1>   0.0800 
 31 H       -4.2190     0.4210     1.1840 H     1 <1>   0.0800 
 32 H       -5.6910     1.0290     0.5200 H     1 <1>   0.0800 
 33 H       -1.1340     4.4110     0.0250 H     1 <1>   0.1500 
 34 H        2.4880     2.4130     1.0370 H     1 <1>   0.1500 
 35 H       -3.3980    -3.8040    -0.3250 H     1 <1>   0.4500 
 36 H       -0.2940     6.4580     1.0710 H     1 <1>   0.1500 
 37 H        3.3270     4.4570     2.0740 H     1 <1>   0.1500 
 38 H       -6.2960    -3.8360    -0.4150 H     1 <1>   0.0800 
 39 H       -5.1880    -4.9440     0.3500 H     1 <1>   0.0800 
 40 H       -5.2690    -3.2260    -2.5350 H     1 <1>   0.0800 
 41 H       -4.5550    -4.7860    -2.1890 H     1 <1>   0.0800 
 42 H       -3.5370    -3.4520    -2.6730 H     1 <1>   0.0800 
 43 H       -5.6530    -1.1170     2.1040 H     1 <1>   0.0800 
 44 H       -7.0030    -1.5870     1.1490 H     1 <1>   0.0800 
 45 H       -6.6880    -2.0090    -1.4020 H     1 <1>   0.0800 
 46 H       -5.7840    -0.7190    -2.1490 H     1 <1>   0.0800 
 47 H        1.9430     6.4910     2.0980 H     1 <1>   0.1500 
 48 H       -6.3230    -3.6100     2.0390 H     1 <1>   0.0800 
 49 H       -4.6420    -3.2010     2.0250 H     1 <1>   0.0800 
 50 H       -7.8440    -0.3900    -0.2430 H     1 <1>   0.4000 
@<TRIPOS>BOND
  1   1   2  1   
  2   1   3  1   
  3   2   4  2   
  4   2   5  1   
  5   3   6  2   
  6   3  25  1   
  7   4   6  1   
  8   5   7  1   
  9   5   8  1   
 10   6   9  1   
 11   7  10  1   
 12   7  26  1   
 13   7  27  1   
 14   8  11  1   
 15   8  28  1   
 16   8  29  1   
 17   9  12  ar  
 18   9  13  ar  
 19  10  14  1   
 20  10  15  1   
 21  10  30  1   
 22  11  15  1   
 23  11  31  1   
 24  11  32  1   
 25  12  16  ar  
 26  12  33  1   
 27  13  17  ar  
 28  13  34  1   
 29  14  18  1   
 30  14  19  1   
 31  14  35  1   
 32  15  20  1   
 33  15  21  1   
 34  16  22  ar  
 35  16  36  1   
 36  17  22  ar  
 37  17  37  1   
 38  18  23  1   
 39  18  38  1   
 40  18  39  1   
 41  19  40  1   
 42  19  41  1   
 43  19  42  1   
 44  20  23  1   
 45  20  43  1   
 46  20  44  1   
 47  21  24  1   
 48  21  45  1   
 49  21  46  1   
 50  22  47  1   
 51  23  48  1   
 52  23  49  1   
 53  24  50  1   
@<TRIPOS>SUBSTRUCTURE
  1 ****   5 GROUP 4 **** **** 0

# MOE 2024.06 (io_trps.svl 2023.06)
