@<TRIPOS>MOLECULE
NONAME
52 54 1 0 0 
SMALL
USER_CHARGES


@<TRIPOS>ATOM
  1 O       -0.6800    -0.0580     0.7040 O.2   1 <1>  -0.5700 
  2 C       -1.5170     0.4940     0.0300 C.2   1 <1>   0.5770 
  3 N       -2.3890    -0.2410    -0.7470 N.am  1 <1>  -0.6600 
  4 C       -1.6000     2.0210     0.0710 C.3   1 <1>   0.0530 
  5 C       -2.2850    -1.7210    -0.8120 C.3   1 <1>   0.1400 
  6 C       -3.5140     0.3200    -1.5340 C.3   1 <1>   0.1400 
  7 C       -0.6330     2.7590     1.0430 C.3   1 <1>   0.0000 
  8 C       -2.7580     2.5750     0.9450 C.3   1 <1>   0.0000 
  9 C       -3.5590    -2.3180    -0.2160 C.3   1 <1>  -0.1600 
 10 C       -4.8170    -0.2320    -0.9510 C.3   1 <1>  -0.1600 
 11 C       -1.8040     3.7310     1.3400 C.3   1 <1>   0.0000 
 12 C       -4.8040    -1.7640    -0.9220 C.3   1 <1>   0.4230 
 13 N       -6.0240    -2.2200    -0.2200 N.4   1 <1>  -0.9060 
 14 C       -6.3000    -3.6700    -0.3590 C.3   1 <1>   0.3430 
 15 C       -7.5930    -4.0020     0.3810 C.3   1 <1>  -0.1600 
 16 C       -7.9080    -5.5020     0.2600 C.3   1 <1>  -0.1600 
 17 C       -9.1950    -5.9110     1.0060 C.3   1 <1>  -0.0800 
 18 C       -9.3770    -7.4250     0.9610 C.3   1 <1>   0.1200 
 19 C      -10.4660    -5.4450     0.2990 C.3   1 <1>  -0.1600 
 20 O       -9.9880    -7.6630    -0.2600 O.3   1 <1>  -0.5600 
 21 C      -10.9040    -6.6530    -0.5310 C.3   1 <1>   0.1200 
 22 H       -1.5810     2.4700    -0.9080 H     1 <1>   0.0000 
 23 H       -1.4260    -2.0750    -0.2650 H     1 <1>   0.0800 
 24 H       -2.1630    -2.0230    -1.8390 H     1 <1>   0.0800 
 25 H       -3.4050     0.0250    -2.5650 H     1 <1>   0.0800 
 26 H       -3.5240     1.3950    -1.5020 H     1 <1>   0.0800 
 27 H        0.2040     3.2260     0.5540 H     1 <1>   0.0000 
 28 H       -0.3580     2.1870     1.9130 H     1 <1>   0.0000 
 29 H       -3.0020     1.9360     1.7770 H     1 <1>   0.0000 
 30 H       -3.6180     2.8960     0.3840 H     1 <1>   0.0000 
 31 H       -3.5780    -2.0760     0.8320 H     1 <1>   0.0800 
 32 H       -3.5060    -3.3850    -0.3220 H     1 <1>   0.0800 
 33 H       -5.6350     0.1190    -1.5550 H     1 <1>   0.0800 
 34 H       -4.9290     0.1640     0.0440 H     1 <1>   0.0800 
 35 H       -1.8440     4.5580     0.6520 H     1 <1>   0.0000 
 36 H       -1.8770     4.0230     2.3730 H     1 <1>   0.0000 
 37 H       -4.8140    -2.1230    -1.9400 H     1 <1>   0.0800 
 38 H       -6.8300    -1.6940    -0.5750 H     1 <1>   0.4500 
 39 H       -5.9330    -1.9830     0.7750 H     1 <1>   0.4500 
 40 H       -5.4900    -4.2470     0.0590 H     1 <1>   0.0800 
 41 H       -6.4040    -3.9310    -1.4010 H     1 <1>   0.0800 
 42 H       -8.4020    -3.4300    -0.0360 H     1 <1>   0.0800 
 43 H       -7.4910    -3.7540     1.4240 H     1 <1>   0.0800 
 44 H       -7.0860    -6.0640     0.6710 H     1 <1>   0.0800 
 45 H       -8.0010    -5.7800    -0.7780 H     1 <1>   0.0800 
 46 H       -9.1580    -5.5730     2.0280 H     1 <1>   0.0800 
 47 H      -10.0440    -7.7610     1.7370 H     1 <1>   0.0800 
 48 H       -8.4520    -7.9720     1.0090 H     1 <1>   0.0800 
 49 H      -10.3280    -4.5830    -0.3270 H     1 <1>   0.0800 
 50 H      -11.2340    -5.2230     1.0180 H     1 <1>   0.0800 
 51 H      -10.8810    -6.4520    -1.5880 H     1 <1>   0.0800 
 52 H      -11.8830    -6.9970    -0.2420 H     1 <1>   0.0800 
@<TRIPOS>BOND
  1   1   2  2   
  2   2   3  am  
  3   2   4  1   
  4   3   5  1   
  5   3   6  1   
  6   4   7  1   
  7   4   8  1   
  8   4  22  1   
  9   5   9  1   
 10   5  23  1   
 11   5  24  1   
 12   6  10  1   
 13   6  25  1   
 14   6  26  1   
 15   7  11  1   
 16   7  27  1   
 17   7  28  1   
 18   8  11  1   
 19   8  29  1   
 20   8  30  1   
 21   9  12  1   
 22   9  31  1   
 23   9  32  1   
 24  10  12  1   
 25  10  33  1   
 26  10  34  1   
 27  11  35  1   
 28  11  36  1   
 29  12  13  1   
 30  12  37  1   
 31  13  14  1   
 32  13  38  1   
 33  13  39  1   
 34  14  15  1   
 35  14  40  1   
 36  14  41  1   
 37  15  16  1   
 38  15  42  1   
 39  15  43  1   
 40  16  17  1   
 41  16  44  1   
 42  16  45  1   
 43  17  18  1   
 44  17  19  1   
 45  17  46  1   
 46  18  20  1   
 47  18  47  1   
 48  18  48  1   
 49  19  21  1   
 50  19  49  1   
 51  19  50  1   
 52  20  21  1   
 53  21  51  1   
 54  21  52  1   
@<TRIPOS>SUBSTRUCTURE
  1 ****  13 GROUP 4 **** **** 0

# MOE 2024.06 (io_trps.svl 2023.06)
