@<TRIPOS>MOLECULE
NONAME
39 41 1 0 0 
SMALL
USER_CHARGES


@<TRIPOS>ATOM
  1 CL      -0.8890     0.6750    -0.9680 Cl    1 <1>  -0.1770 
  2 C        0.0400     2.1460    -1.1460 C.ar  1 <1>   0.1770 
  3 C       -0.0390     2.9040    -2.3000 C.ar  1 <1>   0.1900 
  4 C        0.8650     2.5500    -0.1130 C.ar  1 <1>  -0.1500 
  5 F       -0.8150     2.5270    -3.2820 F     1 <1>  -0.1900 
  6 C        0.6940     4.0660    -2.4420 C.ar  1 <1>  -0.1500 
  7 C        1.6230     3.7140    -0.2240 C.ar  1 <1>  -0.0090 
  8 C        1.5170     4.4620    -1.3990 C.ar  1 <1>  -0.1500 
  9 S        2.7010     4.2450     1.1390 S.o2  1 <1>   1.4470 
 10 O        2.0060     5.2250     1.9420 O.2   1 <1>  -0.6500 
 11 O        3.2950     3.0930     1.7810 O.2   1 <1>  -0.6500 
 12 N        3.9620     5.0430     0.3350 N.am  1 <1>  -0.8490 
 13 C        4.5580     6.1270     1.1420 C.3   1 <1>   0.1960 
 14 C        4.9310     4.1250    -0.2760 C.3   1 <1>   0.1960 
 15 C        5.6580     6.9520     0.4310 C.3   1 <1>   0.2200 
 16 C        5.7470     4.7450    -1.4310 C.3   1 <1>  -0.0190 
 17 N        5.3070     7.1700    -1.0110 N.am  1 <1>  -0.6600 
 18 C        7.0650     6.3320     0.6520 C.3   1 <1>   0.1200 
 19 C        5.2530     6.1120    -1.8810 C.2   1 <1>   0.5690 
 20 C        7.2590     4.7600    -1.1430 C.3   1 <1>   0.1200 
 21 C        4.9280     8.5510    -1.4090 C.3   1 <1>   0.0600 
 22 O        7.7000     5.9320    -0.5260 O.3   1 <1>  -0.5600 
 23 O        4.8120     6.2130    -3.0040 O.2   1 <1>  -0.5700 
 24 H        0.9200     1.9530     0.7820 H     1 <1>   0.1500 
 25 H        0.6230     4.6460    -3.3450 H     1 <1>   0.1500 
 26 H        2.0900     5.3710    -1.5050 H     1 <1>   0.1500 
 27 H        3.7760     6.8210     1.3990 H     1 <1>   0.0800 
 28 H        4.9350     5.7280     2.0680 H     1 <1>   0.0800 
 29 H        5.5800     3.7290     0.4870 H     1 <1>   0.0800 
 30 H        4.3930     3.2880    -0.6880 H     1 <1>   0.0800 
 31 H        5.6790     7.9090     0.9220 H     1 <1>   0.0800 
 32 H        5.6220     4.0780    -2.2640 H     1 <1>   0.0800 
 33 H        7.0340     5.4950     1.3270 H     1 <1>   0.0800 
 34 H        7.6980     7.0780     1.0980 H     1 <1>   0.0800 
 35 H        7.7900     4.7010    -2.0780 H     1 <1>   0.0800 
 36 H        7.5580     3.9220    -0.5390 H     1 <1>   0.0800 
 37 H        5.7390     9.2250    -1.1960 H     1 <1>   0.0800 
 38 H        4.0510     8.8590    -0.8680 H     1 <1>   0.0800 
 39 H        4.7160     8.5960    -2.4640 H     1 <1>   0.0800 
@<TRIPOS>BOND
  1   1   2  1   
  2   2   3  ar  
  3   2   4  ar  
  4   3   5  1   
  5   3   6  ar  
  6   4   7  ar  
  7   4  24  1   
  8   6   8  ar  
  9   6  25  1   
 10   7   8  ar  
 11   7   9  1   
 12   8  26  1   
 13   9  10  2   
 14   9  11  2   
 15   9  12  am  
 16  12  13  1   
 17  12  14  1   
 18  13  15  1   
 19  13  27  1   
 20  13  28  1   
 21  14  16  1   
 22  14  29  1   
 23  14  30  1   
 24  15  17  1   
 25  15  18  1   
 26  15  31  1   
 27  16  19  1   
 28  16  20  1   
 29  16  32  1   
 30  17  19  am  
 31  17  21  1   
 32  18  22  1   
 33  18  33  1   
 34  18  34  1   
 35  19  23  2   
 36  20  22  1   
 37  20  35  1   
 38  20  36  1   
 39  21  37  1   
 40  21  38  1   
 41  21  39  1   
@<TRIPOS>SUBSTRUCTURE
  1 ****  12 GROUP 4 **** **** 0

# MOE 2024.06 (io_trps.svl 2023.06)
