@<TRIPOS>MOLECULE
NONAME
51 53 1 0 0 
SMALL
USER_CHARGES


@<TRIPOS>ATOM
  1 CL       1.4970    -0.3250    -0.4290 Cl    1 <1>  -0.1770 
  2 C        2.7500     0.8750    -0.6020 C.ar  1 <1>   0.1770 
  3 C        2.4030     2.2040    -0.7450 C.ar  1 <1>  -0.1500 
  4 C        4.0740     0.4820    -0.5960 C.ar  1 <1>  -0.1500 
  5 C        3.4040     3.1520    -0.8820 C.ar  1 <1>  -0.1500 
  6 C        5.0650     1.4410    -0.7330 C.ar  1 <1>  -0.1500 
  7 C        4.7490     2.7900    -0.8770 C.ar  1 <1>  -0.0090 
  8 S        6.0440     4.0490    -1.0550 S.o2  1 <1>   1.4470 
  9 O        5.7990     4.8460    -2.2350 O.2   1 <1>  -0.6500 
 10 O        7.3460     3.4740    -0.8130 O.2   1 <1>  -0.6500 
 11 N        5.7980     5.0410     0.2740 N.am  1 <1>  -0.9140 
 12 C        6.4090     6.3590     0.1020 C.3   1 <1>   0.1960 
 13 C        6.1930     7.2330     1.3440 C.3   1 <1>   0.2090 
 14 N        6.8880     8.5390     1.1820 N.pl3 1 <1>  -0.8690 
 15 C        8.2370     8.6960     1.4100 C.ar  1 <1>   0.4100 
 16 N        8.9430     7.6080     1.6840 N.ar  1 <1>  -0.6200 
 17 C        8.7910     9.9650     1.3330 C.ar  1 <1>  -0.1500 
 18 C       10.2340     7.7940     1.8940 C.ar  1 <1>   0.1600 
 19 C       10.1440    10.1610     1.5300 C.ar  1 <1>   0.0860 
 20 C       10.8700     9.0170     1.8320 C.ar  1 <1>  -0.1500 
 21 C       10.7550    11.4680     1.4250 C.2   1 <1>   0.5440 
 22 O       10.3830    12.3500     2.1750 O.2   1 <1>  -0.5700 
 23 N       11.7370    11.7360     0.4920 N.am  1 <1>  -0.6600 
 24 C       12.4580    13.0410     0.4670 C.3   1 <1>   0.1400 
 25 C       12.0390    10.8540    -0.6710 C.3   1 <1>   0.1400 
 26 C       12.1200    13.7920    -0.8260 C.3   1 <1>  -0.1600 
 27 C       11.6990    11.5860    -1.9740 C.3   1 <1>  -0.1600 
 28 C       12.4150    12.9410    -2.0690 C.3   1 <1>  -0.1600 
 29 H        1.3660     2.4890    -0.7490 H     1 <1>   0.1500 
 30 H        4.3210    -0.5590    -0.4850 H     1 <1>   0.1500 
 31 H        3.1410     4.1920    -0.9950 H     1 <1>   0.1500 
 32 H        6.0990     1.1360    -0.7290 H     1 <1>   0.1500 
 33 H        6.3380     4.5750     1.0030 H     1 <1>   0.4200 
 34 H        5.9690     6.8570    -0.7460 H     1 <1>   0.0800 
 35 H        7.4660     6.2450    -0.0780 H     1 <1>   0.0800 
 36 H        6.5740     6.7310     2.2160 H     1 <1>   0.0800 
 37 H        5.1400     7.4070     1.4780 H     1 <1>   0.0800 
 38 H        6.3080     9.3570     1.3810 H     1 <1>   0.4000 
 39 H        8.1640    10.8060     1.1090 H     1 <1>   0.1500 
 40 H       10.8170     6.9190     2.1270 H     1 <1>   0.1500 
 41 H       11.9260     9.0920     2.0160 H     1 <1>   0.1500 
 42 H       13.5170    12.8560     0.5170 H     1 <1>   0.0800 
 43 H       12.1880    13.6450     1.3170 H     1 <1>   0.0800 
 44 H       11.4740     9.9400    -0.6260 H     1 <1>   0.0800 
 45 H       13.0860    10.6030    -0.6570 H     1 <1>   0.0800 
 46 H       12.6900    14.7030    -0.8660 H     1 <1>   0.0800 
 47 H       11.0780    14.0590    -0.8040 H     1 <1>   0.0800 
 48 H       10.6340    11.7350    -2.0190 H     1 <1>   0.0800 
 49 H       11.9780    10.9700    -2.8110 H     1 <1>   0.0800 
 50 H       13.4770    12.7790    -2.1470 H     1 <1>   0.0800 
 51 H       12.0910    13.4630    -2.9520 H     1 <1>   0.0800 
@<TRIPOS>BOND
  1   1   2  1   
  2   2   3  ar  
  3   2   4  ar  
  4   3   5  ar  
  5   3  29  1   
  6   4   6  ar  
  7   4  30  1   
  8   5   7  ar  
  9   5  31  1   
 10   6   7  ar  
 11   6  32  1   
 12   7   8  1   
 13   8   9  2   
 14   8  10  2   
 15   8  11  am  
 16  11  12  1   
 17  11  33  1   
 18  12  13  1   
 19  12  34  1   
 20  12  35  1   
 21  13  14  1   
 22  13  36  1   
 23  13  37  1   
 24  14  15  1   
 25  14  38  1   
 26  15  16  ar  
 27  15  17  ar  
 28  16  18  ar  
 29  17  19  ar  
 30  17  39  1   
 31  18  20  ar  
 32  18  40  1   
 33  19  20  ar  
 34  19  21  1   
 35  20  41  1   
 36  21  22  2   
 37  21  23  am  
 38  23  24  1   
 39  23  25  1   
 40  24  26  1   
 41  24  42  1   
 42  24  43  1   
 43  25  27  1   
 44  25  44  1   
 45  25  45  1   
 46  26  28  1   
 47  26  46  1   
 48  26  47  1   
 49  27  28  1   
 50  27  48  1   
 51  27  49  1   
 52  28  50  1   
 53  28  51  1   
@<TRIPOS>SUBSTRUCTURE
  1 ****  12 GROUP 4 **** **** 0

# MOE 2024.06 (io_trps.svl 2023.06)
