@<TRIPOS>MOLECULE
NONAME
49 51 1 0 0 
SMALL
USER_CHARGES


@<TRIPOS>ATOM
  1 O       -0.3180    -0.3780     0.4280 O.3   1 <1>  -0.3630 
  2 C        0.9130    -0.8140     0.7970 C.ar  1 <1>   0.0830 
  3 C       -1.4700    -1.1440     0.6740 C.3   1 <1>   0.1200 
  4 C        1.9810     0.0190     0.5050 C.ar  1 <1>  -0.1500 
  5 C        1.1470    -2.0280     1.4380 C.ar  1 <1>  -0.1500 
  6 C       -2.6610    -0.3560     0.1290 C.3   1 <1>  -0.1600 
  7 C        3.2710    -0.3480     0.8460 C.ar  1 <1>  -0.1500 
  8 C        2.4380    -2.3940     1.7780 C.ar  1 <1>  -0.1500 
  9 C       -3.9600    -1.1330     0.3280 C.3   1 <1>   0.3430 
 10 C        3.5000    -1.5550     1.4830 C.ar  1 <1>  -0.1500 
 11 N       -5.1270    -0.3160    -0.1050 N.4   1 <1>  -0.9590 
 12 C       -6.4120    -0.8800     0.4360 C.3   1 <1>   0.3430 
 13 C       -5.2020    -0.1110    -1.5790 C.3   1 <1>   0.3430 
 14 C       -7.6790    -0.2650    -0.2030 C.3   1 <1>   0.0000 
 15 C       -6.2050     1.0080    -1.8810 C.3   1 <1>  -0.1600 
 16 C       -8.7850    -0.1820     0.8610 C.3   1 <1>   0.2000 
 17 C       -7.3530     1.1080    -0.8560 C.3   1 <1>  -0.1600 
 18 C       -8.3490    -1.1920    -1.2360 C.3   1 <1>  -0.1600 
 19 O       -8.5960     0.8890     1.7100 O.3   1 <1>  -0.6800 
 20 C      -10.0930    -0.0650     0.0880 C.3   1 <1>  -0.1600 
 21 C       -9.8350    -0.8020    -1.2350 C.3   1 <1>  -0.1600 
 22 H       -1.3590    -2.0880     0.1670 H     1 <1>   0.0800 
 23 H       -1.5530    -1.2940     1.7370 H     1 <1>   0.0800 
 24 H        1.7990     0.9560     0.0110 H     1 <1>   0.1500 
 25 H        0.3480    -2.7010     1.6810 H     1 <1>   0.1500 
 26 H       -2.7140     0.5820     0.6530 H     1 <1>   0.0800 
 27 H       -2.4880    -0.1750    -0.9160 H     1 <1>   0.0800 
 28 H        4.0960     0.3050     0.6160 H     1 <1>   0.1500 
 29 H        2.6200    -3.3320     2.2730 H     1 <1>   0.1500 
 30 H       -4.0620    -1.3730     1.3740 H     1 <1>   0.0800 
 31 H       -3.9280    -2.0560    -0.2290 H     1 <1>   0.0800 
 32 H        4.5030    -1.8420     1.7480 H     1 <1>   0.1500 
 33 H       -5.0360     0.6230     0.3080 H     1 <1>   0.4500 
 34 H       -6.4350    -1.9470     0.2910 H     1 <1>   0.0800 
 35 H       -6.4460    -0.6930     1.4970 H     1 <1>   0.0800 
 36 H       -4.2400     0.1560    -1.9830 H     1 <1>   0.0800 
 37 H       -5.5270    -1.0250    -2.0500 H     1 <1>   0.0800 
 38 H       -5.6870     1.9500    -1.9240 H     1 <1>   0.0800 
 39 H       -6.6120     0.8360    -2.8630 H     1 <1>   0.0800 
 40 H       -8.8060    -1.0820     1.4550 H     1 <1>   0.0800 
 41 H       -8.2220     1.5340    -1.3290 H     1 <1>   0.0800 
 42 H       -7.0540     1.7990    -0.0870 H     1 <1>   0.0800 
 43 H       -7.9290    -1.1180    -2.2230 H     1 <1>   0.0800 
 44 H       -8.2700    -2.2170    -0.9130 H     1 <1>   0.0800 
 45 H       -9.4040     1.0480     2.2390 H     1 <1>   0.4000 
 46 H      -10.9060    -0.5160     0.6310 H     1 <1>   0.0800 
 47 H      -10.3220     0.9670    -0.1150 H     1 <1>   0.0800 
 48 H      -10.4590    -1.6770    -1.3220 H     1 <1>   0.0800 
 49 H      -10.0510    -0.1460    -2.0620 H     1 <1>   0.0800 
@<TRIPOS>BOND
  1   1   2  1   
  2   1   3  1   
  3   2   4  ar  
  4   2   5  ar  
  5   3   6  1   
  6   3  22  1   
  7   3  23  1   
  8   4   7  ar  
  9   4  24  1   
 10   5   8  ar  
 11   5  25  1   
 12   6   9  1   
 13   6  26  1   
 14   6  27  1   
 15   7  10  ar  
 16   7  28  1   
 17   8  10  ar  
 18   8  29  1   
 19   9  11  1   
 20   9  30  1   
 21   9  31  1   
 22  10  32  1   
 23  11  12  1   
 24  11  13  1   
 25  11  33  1   
 26  12  14  1   
 27  12  34  1   
 28  12  35  1   
 29  13  15  1   
 30  13  36  1   
 31  13  37  1   
 32  14  16  1   
 33  14  17  1   
 34  14  18  1   
 35  15  17  1   
 36  15  38  1   
 37  15  39  1   
 38  16  19  1   
 39  16  20  1   
 40  16  40  1   
 41  17  41  1   
 42  17  42  1   
 43  18  21  1   
 44  18  43  1   
 45  18  44  1   
 46  19  45  1   
 47  20  21  1   
 48  20  46  1   
 49  20  47  1   
 50  21  48  1   
 51  21  49  1   
@<TRIPOS>SUBSTRUCTURE
  1 ****   9 GROUP 4 **** **** 0

# MOE 2024.06 (io_trps.svl 2023.06)
