@<TRIPOS>MOLECULE
NONAME
47 50 1 0 0 
SMALL
USER_CHARGES


@<TRIPOS>ATOM
  1 O       -1.5320     1.3830     2.4040 O.2   1 <1>  -0.5700 
  2 C       -2.2530     1.4330     1.4190 C.2   1 <1>   0.5440 
  3 N       -3.4260     0.6920     1.4430 N.am  1 <1>  -0.6600 
  4 C       -1.8500     2.2910     0.2980 C.ar  1 <1>   0.3960 
  5 C       -3.6370    -0.4320     2.3960 C.3   1 <1>   0.1400 
  6 C       -4.5480     0.8580     0.4810 C.3   1 <1>   0.1400 
  7 N       -2.0010     1.8800    -0.9760 N.ar  1 <1>  -0.6200 
  8 C       -1.2930     3.5380     0.5870 C.ar  1 <1>  -0.1500 
  9 C       -3.7680    -1.7380     1.6060 C.3   1 <1>  -0.1600 
 10 C       -4.6760    -0.4170    -0.3550 C.3   1 <1>  -0.1600 
 11 C       -1.6070     2.7050    -1.9280 C.ar  1 <1>   0.1600 
 12 C       -0.8870     4.3920    -0.4150 C.ar  1 <1>  -0.1500 
 13 C       -4.8710    -1.6650     0.5320 C.3   1 <1>   0.4240 
 14 C       -1.0540     3.9530    -1.7090 C.ar  1 <1>  -0.1500 
 15 O       -6.0490    -1.4510     1.2810 O.3   1 <1>  -0.5600 
 16 C       -4.9520    -2.9790    -0.2980 C.ar  1 <1>  -0.1430 
 17 C       -7.2640    -1.7660     0.6850 C.3   1 <1>   0.1200 
 18 C       -3.8800    -3.4380    -1.0750 C.ar  1 <1>   0.0830 
 19 C       -6.1230    -3.7380    -0.2860 C.ar  1 <1>  -0.1430 
 20 C       -7.3250    -3.2760     0.5110 C.3   1 <1>  -0.0170 
 21 O       -2.7390    -2.7010    -1.1210 O.3   1 <1>  -0.3630 
 22 C       -3.9890    -4.6280    -1.7930 C.ar  1 <1>  -0.1500 
 23 C       -6.2200    -4.9190    -1.0030 C.ar  1 <1>  -0.1500 
 24 C       -1.6210    -3.0550    -1.9020 C.3   1 <1>   0.0400 
 25 C       -5.1540    -5.3660    -1.7550 C.ar  1 <1>  -0.1500 
 26 H       -4.5320    -0.2500     2.9660 H     1 <1>   0.0800 
 27 H       -2.8140    -0.5110     3.0850 H     1 <1>   0.0800 
 28 H       -4.3910     1.7070    -0.1580 H     1 <1>   0.0800 
 29 H       -5.4570     1.0270     1.0310 H     1 <1>   0.0800 
 30 H       -1.1790     3.8280     1.6170 H     1 <1>   0.1500 
 31 H       -3.9840    -2.5490     2.2750 H     1 <1>   0.0800 
 32 H       -2.8140    -1.9380     1.1620 H     1 <1>   0.0800 
 33 H       -3.7800    -0.5090    -0.9370 H     1 <1>   0.0800 
 34 H       -5.4880    -0.3260    -1.0490 H     1 <1>   0.0800 
 35 H       -1.7300     2.3680    -2.9440 H     1 <1>   0.1500 
 36 H       -0.4580     5.3550    -0.1960 H     1 <1>   0.1500 
 37 H       -0.7570     4.5680    -2.5390 H     1 <1>   0.1500 
 38 H       -7.3440    -1.2600    -0.2600 H     1 <1>   0.0800 
 39 H       -8.0500    -1.4290     1.3380 H     1 <1>   0.0800 
 40 H       -8.2350    -3.5360     0.0020 H     1 <1>   0.0800 
 41 H       -7.3260    -3.7490     1.4770 H     1 <1>   0.0800 
 42 H       -3.1790    -4.9990    -2.3890 H     1 <1>   0.1500 
 43 H       -7.1280    -5.4960    -0.9780 H     1 <1>   0.1500 
 44 H       -0.8710    -2.2950    -1.7690 H     1 <1>   0.0800 
 45 H       -1.9160    -3.1010    -2.9350 H     1 <1>   0.0800 
 46 H       -1.2440    -4.0030    -1.5620 H     1 <1>   0.0800 
 47 H       -5.2320    -6.2840    -2.3100 H     1 <1>   0.1500 
@<TRIPOS>BOND
  1   1   2  2   
  2   2   3  am  
  3   2   4  1   
  4   3   5  1   
  5   3   6  1   
  6   4   7  ar  
  7   4   8  ar  
  8   5   9  1   
  9   5  26  1   
 10   5  27  1   
 11   6  10  1   
 12   6  28  1   
 13   6  29  1   
 14   7  11  ar  
 15   8  12  ar  
 16   8  30  1   
 17   9  13  1   
 18   9  31  1   
 19   9  32  1   
 20  10  13  1   
 21  10  33  1   
 22  10  34  1   
 23  11  14  ar  
 24  11  35  1   
 25  12  14  ar  
 26  12  36  1   
 27  13  15  1   
 28  13  16  1   
 29  14  37  1   
 30  15  17  1   
 31  16  18  ar  
 32  16  19  ar  
 33  17  20  1   
 34  17  38  1   
 35  17  39  1   
 36  18  21  1   
 37  18  22  ar  
 38  19  20  1   
 39  19  23  ar  
 40  20  40  1   
 41  20  41  1   
 42  21  24  1   
 43  22  25  ar  
 44  22  42  1   
 45  23  25  ar  
 46  23  43  1   
 47  24  44  1   
 48  24  45  1   
 49  24  46  1   
 50  25  47  1   
@<TRIPOS>SUBSTRUCTURE
  1 ****  10 GROUP 4 **** **** 0

# MOE 2024.06 (io_trps.svl 2023.06)
