@<TRIPOS>MOLECULE
NONAME
53 55 1 0 0 
SMALL
USER_CHARGES


@<TRIPOS>ATOM
  1 S        2.1210     0.2020    -0.6160 S.3   1 <1>  -0.3320 
  2 C        1.3170    -1.3680    -0.3240 C.ar  1 <1>   0.4120 
  3 C        0.9240     1.4860     0.0140 C.3   1 <1>   0.2110 
  4 N        0.1300    -1.3540     0.1930 N.ar  1 <1>  -0.6200 
  5 C        2.0370    -2.5140    -0.6800 C.ar  1 <1>  -0.1500 
  6 C        1.1420     2.8220    -0.7070 C.2   1 <1>   0.5690 
  7 C        1.1390     1.5970     1.5300 C.3   1 <1>  -0.2400 
  8 C       -0.4450    -2.5650     0.4000 C.ar  1 <1>   0.3100 
  9 C        1.4840    -3.7440    -0.4840 C.ar  1 <1>  -0.1440 
 10 O        0.2850     3.6720    -0.6370 O.2   1 <1>  -0.5700 
 11 N        2.3010     3.0510    -1.3770 N.am  1 <1>  -0.7300 
 12 C        0.1870    -3.7930     0.0800 C.ar  1 <1>   0.0000 
 13 C       -1.7330    -2.5930     0.9600 C.ar  1 <1>  -0.1500 
 14 C        2.2440    -5.0070    -0.8610 C.3   1 <1>  -0.0970 
 15 C        2.6600     4.2900    -2.0760 C.3   1 <1>   0.3200 
 16 C       -0.5130    -4.9910     0.3430 C.ar  1 <1>  -0.1500 
 17 C       -2.3870    -3.7710     1.2030 C.ar  1 <1>  -0.1500 
 18 C        3.9440     4.8080    -1.4690 C.2   1 <1>  -0.3320 
 19 C       -1.7670    -4.9830     0.8910 C.ar  1 <1>  -0.1500 
 20 N        4.0590     5.3390    -0.2320 N.pl3 1 <1>   0.0480 
 21 C        5.1780     4.8450    -2.0180 C.2   1 <1>   0.0770 
 22 C        5.3690     5.6560    -0.1210 C.2   1 <1>   0.0360 
 23 C        3.0190     5.5300     0.8070 C.3   1 <1>   0.0960 
 24 N        6.0740     5.3770    -1.1690 N.2   1 <1>  -0.5650 
 25 C        2.1490     6.7730     0.5440 C.3   1 <1>  -0.0800 
 26 C        2.9660     8.0730     0.5930 C.3   1 <1>  -0.2400 
 27 C        1.0130     6.8380     1.5720 C.3   1 <1>  -0.2400 
 28 H       -0.0670     1.1370    -0.2080 H     1 <1>   0.0800 
 29 H        3.0160    -2.3850    -1.1020 H     1 <1>   0.1500 
 30 H        2.1460     1.9090     1.7420 H     1 <1>   0.0800 
 31 H        0.9560     0.6480     2.0010 H     1 <1>   0.0800 
 32 H        0.4570     2.3200     1.9400 H     1 <1>   0.0800 
 33 H        3.0220     2.3250    -1.3820 H     1 <1>   0.3700 
 34 H       -2.1930    -1.6510     1.1930 H     1 <1>   0.1500 
 35 H        3.2080    -4.7670    -1.2730 H     1 <1>   0.0800 
 36 H        1.6910    -5.5640    -1.5970 H     1 <1>   0.0800 
 37 H        2.3920    -5.6230     0.0080 H     1 <1>   0.0800 
 38 H        1.8740     5.0210    -1.9880 H     1 <1>   0.0800 
 39 H        2.8050     4.0750    -3.1210 H     1 <1>   0.0800 
 40 H       -0.0510    -5.9320     0.1090 H     1 <1>   0.1500 
 41 H       -3.3740    -3.7770     1.6330 H     1 <1>   0.1500 
 42 H       -2.2910    -5.9030     1.0870 H     1 <1>   0.1500 
 43 H        5.4780     4.5090    -2.9970 H     1 <1>   0.1500 
 44 H        5.7710     6.1040     0.7700 H     1 <1>   0.1500 
 45 H        3.5020     5.6200     1.7630 H     1 <1>   0.0800 
 46 H        2.4000     4.6530     0.8340 H     1 <1>   0.0800 
 47 H        1.7000     6.6810    -0.4300 H     1 <1>   0.0800 
 48 H        3.4480     8.1870     1.5480 H     1 <1>   0.0800 
 49 H        2.3240     8.9220     0.4310 H     1 <1>   0.0800 
 50 H        3.7180     8.0780    -0.1770 H     1 <1>   0.0800 
 51 H        1.4030     6.9240     2.5710 H     1 <1>   0.0800 
 52 H        0.4080     5.9490     1.5120 H     1 <1>   0.0800 
 53 H        0.3800     7.6850     1.3760 H     1 <1>   0.0800 
@<TRIPOS>BOND
  1   1   2  1   
  2   1   3  1   
  3   2   4  ar  
  4   2   5  ar  
  5   3   6  1   
  6   3   7  1   
  7   3  28  1   
  8   4   8  ar  
  9   5   9  ar  
 10   5  29  1   
 11   6  10  2   
 12   6  11  am  
 13   7  30  1   
 14   7  31  1   
 15   7  32  1   
 16   8  12  ar  
 17   8  13  ar  
 18   9  12  ar  
 19   9  14  1   
 20  11  15  1   
 21  11  33  1   
 22  12  16  ar  
 23  13  17  ar  
 24  13  34  1   
 25  14  35  1   
 26  14  36  1   
 27  14  37  1   
 28  15  18  1   
 29  15  38  1   
 30  15  39  1   
 31  16  19  ar  
 32  16  40  1   
 33  17  19  ar  
 34  17  41  1   
 35  18  20  1   
 36  18  21  2   
 37  19  42  1   
 38  20  22  1   
 39  20  23  1   
 40  21  24  1   
 41  21  43  1   
 42  22  24  2   
 43  22  44  1   
 44  23  25  1   
 45  23  45  1   
 46  23  46  1   
 47  25  26  1   
 48  25  27  1   
 49  25  47  1   
 50  26  48  1   
 51  26  49  1   
 52  26  50  1   
 53  27  51  1   
 54  27  52  1   
 55  27  53  1   
@<TRIPOS>SUBSTRUCTURE
  1 ****   3 GROUP 4 **** **** 0

# MOE 2024.06 (io_trps.svl 2023.06)
