@<TRIPOS>MOLECULE
NONAME
44 46 1 0 0 
SMALL
USER_CHARGES


@<TRIPOS>ATOM
  1 F       -2.1500    -0.7740    -0.8000 F     1 <1>  -0.1900 
  2 C       -2.4980     0.4550    -0.5250 C.ar  1 <1>   0.1900 
  3 C       -1.6360     1.4790    -0.8480 C.ar  1 <1>  -0.1500 
  4 C       -3.7150     0.6790     0.0810 C.ar  1 <1>  -0.1500 
  5 C       -1.9680     2.8070    -0.5640 C.ar  1 <1>   0.0860 
  6 C       -4.0720     1.9820     0.3660 C.ar  1 <1>  -0.1500 
  7 C       -3.2180     3.0430     0.0480 C.ar  1 <1>   0.0830 
  8 C       -1.0100     3.8490    -0.9160 C.2   1 <1>   0.5440 
  9 O       -3.5830     4.3220     0.3210 O.3   1 <1>  -0.3630 
 10 O       -0.0750     3.6160    -1.6640 O.2   1 <1>  -0.5700 
 11 N       -0.9980     5.1040    -0.3670 N.am  1 <1>  -0.6600 
 12 C       -4.8950     4.6860     0.6980 C.3   1 <1>   0.0400 
 13 C       -0.5710     5.2270     1.0670 C.3   1 <1>   0.2200 
 14 C       -0.8850     6.2900    -1.2690 C.3   1 <1>   0.1400 
 15 C       -1.0830     6.5100     1.7380 C.3   1 <1>   0.1200 
 16 C        0.9720     5.1160     1.1790 C.3   1 <1>   0.3430 
 17 C        0.1830     7.3180    -0.8500 C.3   1 <1>  -0.0800 
 18 O       -0.1900     7.5650     1.5290 O.3   1 <1>  -0.5600 
 19 N        1.6650     5.3420    -0.1400 N.4   1 <1>  -0.9590 
 20 C       -0.2970     8.2110     0.3050 C.3   1 <1>   0.1200 
 21 C        1.6050     6.7600    -0.6170 C.3   1 <1>   0.3430 
 22 C        3.0540     4.8100    -0.1410 C.3   1 <1>   0.2630 
 23 H       -0.7030     1.2360    -1.3250 H     1 <1>   0.1500 
 24 H       -4.3610    -0.1480     0.3190 H     1 <1>   0.1500 
 25 H       -5.0220     2.1470     0.8390 H     1 <1>   0.1500 
 26 H       -4.9460     5.7590     0.7420 H     1 <1>   0.0800 
 27 H       -5.1120     4.2710     1.6660 H     1 <1>   0.0800 
 28 H       -5.5860     4.3200    -0.0420 H     1 <1>   0.0800 
 29 H       -1.0060     4.4060     1.6110 H     1 <1>   0.0800 
 30 H       -0.6650     5.9520    -2.2690 H     1 <1>   0.0800 
 31 H       -1.8470     6.7720    -1.3120 H     1 <1>   0.0800 
 32 H       -1.1280     6.3570     2.8020 H     1 <1>   0.0800 
 33 H       -2.0680     6.7760     1.3940 H     1 <1>   0.0800 
 34 H        1.2040     4.1250     1.5290 H     1 <1>   0.0800 
 35 H        1.3350     5.8130     1.9160 H     1 <1>   0.0800 
 36 H        0.2700     7.9920    -1.6830 H     1 <1>   0.0800 
 37 H        1.0950     4.7870    -0.8210 H     1 <1>   0.4500 
 38 H       -1.3170     8.5310     0.1650 H     1 <1>   0.0800 
 39 H        0.3200     9.0920     0.3660 H     1 <1>   0.0800 
 40 H        2.1180     7.3970     0.0850 H     1 <1>   0.0800 
 41 H        2.1350     6.8180    -1.5530 H     1 <1>   0.0800 
 42 H        3.6630     5.3490     0.5660 H     1 <1>   0.0800 
 43 H        3.4890     4.9080    -1.1230 H     1 <1>   0.0800 
 44 H        3.0520     3.7650     0.1260 H     1 <1>   0.0800 
@<TRIPOS>BOND
  1   1   2  1   
  2   2   3  ar  
  3   2   4  ar  
  4   3   5  ar  
  5   3  23  1   
  6   4   6  ar  
  7   4  24  1   
  8   5   7  ar  
  9   5   8  1   
 10   6   7  ar  
 11   6  25  1   
 12   7   9  1   
 13   8  10  2   
 14   8  11  am  
 15   9  12  1   
 16  11  13  1   
 17  11  14  1   
 18  12  26  1   
 19  12  27  1   
 20  12  28  1   
 21  13  15  1   
 22  13  16  1   
 23  13  29  1   
 24  14  17  1   
 25  14  30  1   
 26  14  31  1   
 27  15  18  1   
 28  15  32  1   
 29  15  33  1   
 30  16  19  1   
 31  16  34  1   
 32  16  35  1   
 33  17  20  1   
 34  17  21  1   
 35  17  36  1   
 36  18  20  1   
 37  19  21  1   
 38  19  22  1   
 39  19  37  1   
 40  20  38  1   
 41  20  39  1   
 42  21  40  1   
 43  21  41  1   
 44  22  42  1   
 45  22  43  1   
 46  22  44  1   
@<TRIPOS>SUBSTRUCTURE
  1 ****  11 GROUP 4 **** **** 0

# MOE 2024.06 (io_trps.svl 2023.06)
