@<TRIPOS>MOLECULE
NONAME
54 56 1 0 0 
SMALL
USER_CHARGES


@<TRIPOS>ATOM
  1 O       -0.6310    -1.6710     2.0030 O.co2 1 <1>  -0.9000 
  2 C       -0.5270    -1.5440     0.7690 C.2   1 <1>   1.0330 
  3 O       -1.3190    -0.7910     0.1810 O.co2 1 <1>  -0.9000 
  4 C        0.4010    -2.3420     0.0420 C.2   1 <1>  -0.2330 
  5 C        0.2430    -3.6810    -0.3310 C.2   1 <1>   0.3720 
  6 C        1.6300    -2.0100    -0.4280 C.2   1 <1>   0.0870 
  7 N        1.2930    -4.1000    -0.9520 N.2   1 <1>  -0.4100 
  8 N       -0.8750    -4.5220    -0.1170 N.pl3 1 <1>  -0.8210 
  9 O        2.1140    -3.0860    -1.0000 O.3   1 <1>  -0.0190 
 10 C        2.4110    -0.7950    -0.3970 C.ar  1 <1>   0.0530 
 11 C       -0.6590    -5.9860    -0.3950 C.3   1 <1>   0.2090 
 12 C       -1.7180    -4.2360     1.1020 C.3   1 <1>   0.2090 
 13 C        3.8050    -0.8400    -0.4610 C.ar  1 <1>  -0.1500 
 14 C        1.8190     0.4650    -0.3100 C.ar  1 <1>  -0.1500 
 15 C       -1.9790    -6.8140    -0.4040 C.3   1 <1>   0.4230 
 16 C       -2.8190    -5.2820     1.3400 C.3   1 <1>   0.3430 
 17 C        4.5710     0.3110    -0.4350 C.ar  1 <1>  -0.1500 
 18 C        2.5780     1.6210    -0.2820 C.ar  1 <1>  -0.1500 
 19 N       -3.1380    -5.9670     0.0460 N.4   1 <1>  -0.9590 
 20 C       -1.8630    -8.1190     0.4180 C.3   1 <1>  -0.1600 
 21 C        3.9570     1.5470    -0.3440 C.ar  1 <1>  -0.1500 
 22 C       -4.4680    -6.6300    -0.0400 C.3   1 <1>   0.3430 
 23 C       -2.1510    -9.3630    -0.4260 C.3   1 <1>   0.1200 
 24 C       -5.6250    -5.6200     0.0760 C.3   1 <1>  -0.0800 
 25 O       -3.3900    -9.2230    -1.0230 O.3   1 <1>  -0.6800 
 26 C       -6.9590    -6.3460    -0.1400 C.3   1 <1>  -0.2400 
 27 C       -5.5070    -4.4630    -0.9320 C.3   1 <1>  -0.2400 
 28 H        0.0320    -6.3640     0.3370 H     1 <1>   0.0800 
 29 H       -0.1910    -6.1040    -1.3570 H     1 <1>   0.0800 
 30 H       -2.2280    -3.3000     0.9560 H     1 <1>   0.0800 
 31 H       -1.0970    -4.1410     1.9780 H     1 <1>   0.0800 
 32 H        4.2930    -1.7960    -0.5280 H     1 <1>   0.1500 
 33 H        0.7460     0.5480    -0.2680 H     1 <1>   0.1500 
 34 H       -2.1580    -7.0970    -1.4280 H     1 <1>   0.0800 
 35 H       -3.6850    -4.7810     1.7370 H     1 <1>   0.0800 
 36 H       -2.4820    -5.9990     2.0680 H     1 <1>   0.0800 
 37 H        5.6430     0.2450    -0.4840 H     1 <1>   0.1500 
 38 H        2.0870     2.5760    -0.2100 H     1 <1>   0.1500 
 39 H       -3.1300    -5.1880    -0.6330 H     1 <1>   0.4500 
 40 H       -2.5190    -8.1120     1.2690 H     1 <1>   0.0800 
 41 H       -0.8660    -8.2330     0.8030 H     1 <1>   0.0800 
 42 H        4.5480     2.4460    -0.3210 H     1 <1>   0.1500 
 43 H       -4.5580    -7.3790     0.7290 H     1 <1>   0.0800 
 44 H       -4.5490    -7.1290    -0.9920 H     1 <1>   0.0800 
 45 H       -2.1680   -10.2470     0.1910 H     1 <1>   0.0800 
 46 H       -1.4140    -9.4850    -1.2030 H     1 <1>   0.0800 
 47 H       -5.6400    -5.2130     1.0720 H     1 <1>   0.0800 
 48 H       -3.6290   -10.0410    -1.5110 H     1 <1>   0.4000 
 49 H       -7.0130    -6.7640    -1.1310 H     1 <1>   0.0800 
 50 H       -7.7820    -5.6630    -0.0160 H     1 <1>   0.0800 
 51 H       -7.0780    -7.1420     0.5750 H     1 <1>   0.0800 
 52 H       -5.4410    -4.8360    -1.9400 H     1 <1>   0.0800 
 53 H       -4.6440    -3.8500    -0.7320 H     1 <1>   0.0800 
 54 H       -6.3720    -3.8250    -0.8670 H     1 <1>   0.0800 
@<TRIPOS>BOND
  1   1   2  ar  
  2   2   3  ar  
  3   2   4  1   
  4   4   5  1   
  5   4   6  2   
  6   5   7  2   
  7   5   8  1   
  8   6   9  1   
  9   6  10  1   
 10   7   9  1   
 11   8  11  1   
 12   8  12  1   
 13  10  13  ar  
 14  10  14  ar  
 15  11  15  1   
 16  11  28  1   
 17  11  29  1   
 18  12  16  1   
 19  12  30  1   
 20  12  31  1   
 21  13  17  ar  
 22  13  32  1   
 23  14  18  ar  
 24  14  33  1   
 25  15  19  1   
 26  15  20  1   
 27  15  34  1   
 28  16  19  1   
 29  16  35  1   
 30  16  36  1   
 31  17  21  ar  
 32  17  37  1   
 33  18  21  ar  
 34  18  38  1   
 35  19  22  1   
 36  19  39  1   
 37  20  23  1   
 38  20  40  1   
 39  20  41  1   
 40  21  42  1   
 41  22  24  1   
 42  22  43  1   
 43  22  44  1   
 44  23  25  1   
 45  23  45  1   
 46  23  46  1   
 47  24  26  1   
 48  24  27  1   
 49  24  47  1   
 50  25  48  1   
 51  26  49  1   
 52  26  50  1   
 53  26  51  1   
 54  27  52  1   
 55  27  53  1   
 56  27  54  1   
@<TRIPOS>SUBSTRUCTURE
  1 ****   8 GROUP 4 **** **** 0

# MOE 2024.06 (io_trps.svl 2023.06)
