@<TRIPOS>MOLECULE
NONAME
52 54 1 0 0 
SMALL
USER_CHARGES


@<TRIPOS>ATOM
  1 O       -2.1680     4.6150    -0.9850 O.co2 1 <1>  -0.9000 
  2 C       -1.0710     4.0560    -1.1460 C.2   1 <1>   0.9060 
  3 O       -0.3900     4.2960    -2.1490 O.co2 1 <1>  -0.9000 
  4 C       -0.5920     3.0400    -0.0960 C.3   1 <1>  -0.1060 
  5 C       -0.9610     3.5190     1.3290 C.3   1 <1>   0.2000 
  6 C        0.9470     2.9010    -0.1420 C.3   1 <1>   0.1400 
  7 C       -1.2540     1.6810    -0.4490 C.3   1 <1>  -0.0650 
  8 O       -2.3240     3.6940     1.4390 O.3   1 <1>  -0.6800 
  9 C       -0.2950     4.8510     1.6850 C.3   1 <1>  -0.1600 
 10 N        1.6190     4.1660     0.2610 N.am  1 <1>  -0.6600 
 11 C       -0.8970     0.5050     0.4760 C.3   1 <1>  -0.1950 
 12 C        1.2240     4.7440     1.5700 C.3   1 <1>   0.1400 
 13 C        2.2780     4.8770    -0.7050 C.2   1 <1>   0.5690 
 14 C        0.2960    -0.3630     0.2240 C.3   1 <1>  -0.2000 
 15 C       -1.0870    -0.8970    -0.0090 C.3   1 <1>  -0.2000 
 16 O        3.1990     4.3900    -1.3260 O.2   1 <1>  -0.5700 
 17 C        1.8080     6.2860    -1.0450 C.3   1 <1>   0.1810 
 18 O        2.4090     7.2590    -0.1960 O.3   1 <1>  -0.3630 
 19 C        2.0550     8.5650    -0.2780 C.ar  1 <1>   0.0820 
 20 C        2.7930     9.4600     0.4790 C.ar  1 <1>  -0.1500 
 21 C        1.0120     9.0390    -1.0650 C.ar  1 <1>  -0.1500 
 22 C        2.5090    10.8170     0.4640 C.ar  1 <1>  -0.1430 
 23 C        0.7240    10.3920    -1.0830 C.ar  1 <1>  -0.1500 
 24 C        1.4640    11.2880    -0.3250 C.ar  1 <1>  -0.1430 
 25 C        3.3530    11.7570     1.3140 C.3   1 <1>  -0.0970 
 26 C        1.1110    12.7680    -0.3760 C.3   1 <1>  -0.0970 
 27 H       -0.6740     2.7820     2.0580 H     1 <1>   0.0800 
 28 H        1.2540     2.6310    -1.1400 H     1 <1>   0.0800 
 29 H        1.2740     2.1260     0.5250 H     1 <1>   0.0800 
 30 H       -2.3230     1.8070    -0.4350 H     1 <1>   0.0800 
 31 H       -0.9880     1.4290    -1.4620 H     1 <1>   0.0800 
 32 H       -2.5940     4.1540     0.5880 H     1 <1>   0.4000 
 33 H       -0.6420     5.6310     1.0310 H     1 <1>   0.0800 
 34 H       -0.5530     5.1210     2.6930 H     1 <1>   0.0800 
 35 H       -1.1920     0.6800     1.4960 H     1 <1>   0.1000 
 36 H        1.5990     4.1020     2.3490 H     1 <1>   0.0800 
 37 H        1.6720     5.7140     1.6990 H     1 <1>   0.0800 
 38 H        0.9190    -0.1630    -0.6310 H     1 <1>   0.1000 
 39 H        0.8580    -0.7200     1.0700 H     1 <1>   0.1000 
 40 H       -1.4860    -1.6270     0.6740 H     1 <1>   0.1000 
 41 H       -1.4150    -1.0580    -1.0220 H     1 <1>   0.1000 
 42 H        0.7420     6.3300    -0.9260 H     1 <1>   0.0800 
 43 H        2.0650     6.5120    -2.0630 H     1 <1>   0.0800 
 44 H        3.5950     9.0740     1.0800 H     1 <1>   0.1500 
 45 H        0.4130     8.3770    -1.6630 H     1 <1>   0.1500 
 46 H       -0.0870    10.7410    -1.6960 H     1 <1>   0.1500 
 47 H        4.1120    11.2150     1.8480 H     1 <1>   0.0800 
 48 H        2.7320    12.2630     2.0310 H     1 <1>   0.0800 
 49 H        3.8350    12.4860     0.6880 H     1 <1>   0.0800 
 50 H        0.2770    12.9420    -1.0320 H     1 <1>   0.0800 
 51 H        1.9500    13.3340    -0.7390 H     1 <1>   0.0800 
 52 H        0.8470    13.1180     0.6050 H     1 <1>   0.0800 
@<TRIPOS>BOND
  1   1   2  ar  
  2   2   3  ar  
  3   2   4  1   
  4   4   5  1   
  5   4   6  1   
  6   4   7  1   
  7   5   8  1   
  8   5   9  1   
  9   5  27  1   
 10   6  10  1   
 11   6  28  1   
 12   6  29  1   
 13   7  11  1   
 14   7  30  1   
 15   7  31  1   
 16   8  32  1   
 17   9  12  1   
 18   9  33  1   
 19   9  34  1   
 20  10  12  1   
 21  10  13  am  
 22  11  14  1   
 23  11  15  1   
 24  11  35  1   
 25  12  36  1   
 26  12  37  1   
 27  13  16  2   
 28  13  17  1   
 29  14  15  1   
 30  14  38  1   
 31  14  39  1   
 32  15  40  1   
 33  15  41  1   
 34  17  18  1   
 35  17  42  1   
 36  17  43  1   
 37  18  19  1   
 38  19  20  ar  
 39  19  21  ar  
 40  20  22  ar  
 41  20  44  1   
 42  21  23  ar  
 43  21  45  1   
 44  22  24  ar  
 45  22  25  1   
 46  23  24  ar  
 47  23  46  1   
 48  24  26  1   
 49  25  47  1   
 50  25  48  1   
 51  25  49  1   
 52  26  50  1   
 53  26  51  1   
 54  26  52  1   
@<TRIPOS>SUBSTRUCTURE
  1 ****  17 GROUP 4 **** **** 0

# MOE 2024.06 (io_trps.svl 2023.06)
