@<TRIPOS>MOLECULE
NONAME
48 49 1 0 0 
SMALL
USER_CHARGES


@<TRIPOS>ATOM
  1 O        0.9530    -1.1810     2.0610 O.2   1 <1>  -0.5700 
  2 C        1.6250    -1.4560     1.0960 C.2   1 <1>   0.5690 
  3 N        2.1390    -0.5230     0.2350 N.am  1 <1>  -0.5470 
  4 C        1.9190    -2.9360     0.8180 C.3   1 <1>   0.1710 
  5 C        2.0920     0.8810     0.2430 C.ar  1 <1>   0.1170 
  6 N        1.0810    -3.5980    -0.2220 N.3   1 <1>  -0.8100 
  7 C        2.3770     1.5560    -0.9360 C.ar  1 <1>  -0.1500 
  8 C        1.7940     1.6310     1.3740 C.ar  1 <1>  -0.1500 
  9 C       -0.3640    -3.4710     0.0990 C.3   1 <1>   0.2900 
 10 C        1.3580    -3.1230    -1.5860 C.3   1 <1>   0.0300 
 11 C        2.3670     2.9380    -0.9960 C.ar  1 <1>   0.0820 
 12 C        1.7770     3.0150     1.3340 C.ar  1 <1>   0.0820 
 13 C       -1.2280    -4.3500    -0.7990 C.2   1 <1>   0.0060 
 14 O        2.6630     3.4930    -2.1990 O.3   1 <1>  -0.3630 
 15 C        2.0640     3.6760     0.1440 C.ar  1 <1>  -0.1500 
 16 O        1.4740     3.6520     2.4940 O.3   1 <1>  -0.3630 
 17 N       -2.1150    -3.8760    -1.6190 N.2   1 <1>  -0.5650 
 18 N       -1.1460    -5.7050    -0.8140 N.pl3 1 <1>   0.0480 
 19 C        2.6750     4.8920    -2.3810 C.3   1 <1>   0.0400 
 20 C        1.3970     5.0580     2.5680 C.3   1 <1>   0.0400 
 21 C       -2.6390    -4.9700    -2.1980 C.2   1 <1>   0.0770 
 22 C       -2.0630    -6.0930    -1.7200 C.2   1 <1>  -0.3020 
 23 C       -0.2630    -6.6000    -0.0350 C.3   1 <1>   0.0960 
 24 C       -0.9060    -6.9590     1.3080 C.3   1 <1>  -0.2400 
 25 H        2.5850    -0.9200    -0.5890 H     1 <1>   0.3700 
 26 H        1.7870    -3.4690     1.7430 H     1 <1>   0.0800 
 27 H        2.9550    -3.0360     0.5490 H     1 <1>   0.0800 
 28 H        2.6100     1.0090    -1.8300 H     1 <1>   0.1500 
 29 H        1.5730     1.1480     2.3070 H     1 <1>   0.1500 
 30 H       -0.6790    -2.4470    -0.0140 H     1 <1>   0.0800 
 31 H       -0.5350    -3.7550     1.1220 H     1 <1>   0.0800 
 32 H        2.4130    -3.1800    -1.7930 H     1 <1>   0.0800 
 33 H        1.0160    -2.1110    -1.7160 H     1 <1>   0.0800 
 34 H        0.8450    -3.7450    -2.3000 H     1 <1>   0.0800 
 35 H        2.0540     4.7440     0.1070 H     1 <1>   0.1500 
 36 H        2.9300     5.0930    -3.4060 H     1 <1>   0.0800 
 37 H        3.4150     5.3230    -1.7300 H     1 <1>   0.0800 
 38 H        1.6960     5.2810    -2.1660 H     1 <1>   0.0800 
 39 H        1.1320     5.3240     3.5760 H     1 <1>   0.0800 
 40 H        0.6380     5.4020     1.8880 H     1 <1>   0.0800 
 41 H        2.3570     5.4740     2.3210 H     1 <1>   0.0800 
 42 H       -3.4170    -4.8910    -2.9390 H     1 <1>   0.1500 
 43 H       -2.2510    -7.1200    -1.9700 H     1 <1>   0.1500 
 44 H        0.6830    -6.1150     0.1220 H     1 <1>   0.0800 
 45 H       -0.0890    -7.4920    -0.6100 H     1 <1>   0.0800 
 46 H       -1.0660    -6.0730     1.8950 H     1 <1>   0.0800 
 47 H       -0.2580    -7.6190     1.8560 H     1 <1>   0.0800 
 48 H       -1.8460    -7.4560     1.1490 H     1 <1>   0.0800 
@<TRIPOS>BOND
  1   1   2  2   
  2   2   3  am  
  3   2   4  1   
  4   3   5  1   
  5   3  25  1   
  6   4   6  1   
  7   4  26  1   
  8   4  27  1   
  9   5   7  ar  
 10   5   8  ar  
 11   6   9  1   
 12   6  10  1   
 13   7  11  ar  
 14   7  28  1   
 15   8  12  ar  
 16   8  29  1   
 17   9  13  1   
 18   9  30  1   
 19   9  31  1   
 20  10  32  1   
 21  10  33  1   
 22  10  34  1   
 23  11  14  1   
 24  11  15  ar  
 25  12  15  ar  
 26  12  16  1   
 27  13  17  2   
 28  13  18  1   
 29  14  19  1   
 30  15  35  1   
 31  16  20  1   
 32  17  21  1   
 33  18  22  1   
 34  18  23  1   
 35  19  36  1   
 36  19  37  1   
 37  19  38  1   
 38  20  39  1   
 39  20  40  1   
 40  20  41  1   
 41  21  22  2   
 42  21  42  1   
 43  22  43  1   
 44  23  24  1   
 45  23  44  1   
 46  23  45  1   
 47  24  46  1   
 48  24  47  1   
 49  24  48  1   
@<TRIPOS>SUBSTRUCTURE
  1 ****   3 GROUP 4 **** **** 0

# MOE 2024.06 (io_trps.svl 2023.06)
