@<TRIPOS>MOLECULE
NONAME
44 46 1 0 0 
SMALL
USER_CHARGES


@<TRIPOS>ATOM
  1 N       -0.3120    -0.2740    -0.4560 N.ar  1 <1>  -0.6200 
  2 C       -0.2670    -1.5640    -0.1400 C.ar  1 <1>   0.7200 
  3 C        0.8390     0.2950    -0.7120 C.ar  1 <1>   0.1660 
  4 N        0.8170    -2.3280    -0.0530 N.ar  1 <1>  -0.6200 
  5 N       -1.4670    -2.1720     0.1160 N.3   1 <1>  -0.5900 
  6 C        2.0200    -0.4070    -0.6520 C.ar  1 <1>  -0.1500 
  7 C        0.8160     1.7640    -1.0780 C.3   1 <1>  -0.0970 
  8 C        1.9570    -1.7380    -0.3130 C.ar  1 <1>   0.1670 
  9 C       -2.5620    -1.4370     0.8330 C.3   1 <1>   0.2450 
 10 C       -1.5810    -3.2240     1.1800 C.3   1 <1>   0.2450 
 11 C        3.2080    -2.5870    -0.2240 C.3   1 <1>  -0.0960 
 12 C       -3.0950    -2.8440     1.2450 C.3   1 <1>   0.4720 
 13 N       -4.0020    -3.4670     0.1940 N.4   1 <1>  -0.9280 
 14 C       -5.4560    -3.1890     0.4090 C.3   1 <1>   0.4230 
 15 C       -3.7470    -4.9340     0.0460 C.3   1 <1>   0.3430 
 16 C       -6.2670    -3.7330    -0.7760 C.3   1 <1>  -0.1600 
 17 C       -5.7470    -1.6960     0.5670 C.3   1 <1>  -0.2400 
 18 C       -4.5280    -5.4980    -1.1400 C.3   1 <1>  -0.1600 
 19 C       -6.0270    -5.2280    -1.0050 C.3   1 <1>  -0.1600 
 20 H        2.9600     0.0670    -0.8640 H     1 <1>   0.1500 
 21 H        0.2110     1.9060    -1.9550 H     1 <1>   0.0800 
 22 H        1.8070     2.1290    -1.2770 H     1 <1>   0.0800 
 23 H        0.3920     2.3300    -0.2700 H     1 <1>   0.0800 
 24 H       -3.1880    -0.8900     0.1540 H     1 <1>   0.0000 
 25 H       -2.1820    -0.8520     1.6540 H     1 <1>   0.0000 
 26 H       -1.0300    -2.9540     2.0650 H     1 <1>   0.0000 
 27 H       -1.3500    -4.2070     0.8170 H     1 <1>   0.0000 
 28 H        3.1370    -3.4060    -0.9170 H     1 <1>   0.0800 
 29 H        3.3060    -2.9820     0.7700 H     1 <1>   0.0800 
 30 H        4.0840    -2.0100    -0.4560 H     1 <1>   0.0800 
 31 H       -3.5160    -2.8970     2.2330 H     1 <1>   0.0000 
 32 H       -3.7190    -3.0280    -0.6930 H     1 <1>   0.4500 
 33 H       -5.7800    -3.6970     1.3040 H     1 <1>   0.0800 
 34 H       -4.0390    -5.4480     0.9470 H     1 <1>   0.0800 
 35 H       -2.7000    -5.1180    -0.1280 H     1 <1>   0.0800 
 36 H       -6.0160    -3.1860    -1.6690 H     1 <1>   0.0800 
 37 H       -7.3160    -3.5790    -0.5910 H     1 <1>   0.0800 
 38 H       -5.4070    -1.1410    -0.2900 H     1 <1>   0.0800 
 39 H       -5.3090    -1.3000     1.4640 H     1 <1>   0.0800 
 40 H       -6.8090    -1.5460     0.6500 H     1 <1>   0.0800 
 41 H       -4.3610    -6.5600    -1.1980 H     1 <1>   0.0800 
 42 H       -4.1550    -5.0650    -2.0530 H     1 <1>   0.0800 
 43 H       -6.5400    -5.5500    -1.8970 H     1 <1>   0.0800 
 44 H       -6.4250    -5.7910    -0.1760 H     1 <1>   0.0800 
@<TRIPOS>BOND
  1   1   2  ar  
  2   1   3  ar  
  3   2   4  ar  
  4   2   5  1   
  5   3   6  ar  
  6   3   7  1   
  7   4   8  ar  
  8   5   9  1   
  9   5  10  1   
 10   6   8  ar  
 11   6  20  1   
 12   7  21  1   
 13   7  22  1   
 14   7  23  1   
 15   8  11  1   
 16   9  12  1   
 17   9  24  1   
 18   9  25  1   
 19  10  12  1   
 20  10  26  1   
 21  10  27  1   
 22  11  28  1   
 23  11  29  1   
 24  11  30  1   
 25  12  13  1   
 26  12  31  1   
 27  13  14  1   
 28  13  15  1   
 29  13  32  1   
 30  14  16  1   
 31  14  17  1   
 32  14  33  1   
 33  15  18  1   
 34  15  34  1   
 35  15  35  1   
 36  16  19  1   
 37  16  36  1   
 38  16  37  1   
 39  17  38  1   
 40  17  39  1   
 41  17  40  1   
 42  18  19  1   
 43  18  41  1   
 44  18  42  1   
 45  19  43  1   
 46  19  44  1   
@<TRIPOS>SUBSTRUCTURE
  1 ****   5 GROUP 4 **** **** 0

# MOE 2024.06 (io_trps.svl 2023.06)
