@<TRIPOS>MOLECULE
NONAME
49 51 1 0 0 
SMALL
USER_CHARGES


@<TRIPOS>ATOM
  1 CL      -1.2890     0.1120    -1.5150 Cl    1 <1>  -0.1770 
  2 C       -2.4460    -0.9160    -0.7070 C.ar  1 <1>   0.1770 
  3 C       -2.3510    -2.2860    -0.8560 C.ar  1 <1>  -0.1500 
  4 C       -3.4380    -0.3380     0.0650 C.ar  1 <1>  -0.1500 
  5 C       -3.2670    -3.1150    -0.2180 C.ar  1 <1>   0.0280 
  6 C       -4.3540    -1.1540     0.7050 C.ar  1 <1>  -0.1500 
  7 C       -4.2660    -2.5310     0.5690 C.ar  1 <1>   0.0830 
  8 C       -3.2490    -4.5460    -0.3410 C.2   1 <1>  -0.1780 
  9 O       -5.1860    -3.2990     1.2060 O.3   1 <1>  -0.3630 
 10 C       -4.0370    -5.3040     0.4360 C.2   1 <1>  -0.2760 
 11 C       -4.9210    -4.6600     1.5050 C.3   1 <1>   0.2580 
 12 C       -4.1340    -6.8100     0.3790 C.3   1 <1>   0.4810 
 13 N       -4.8190    -7.1880    -0.8870 N.4   1 <1>  -0.9590 
 14 C       -6.1930    -6.5980    -0.9920 C.3   1 <1>   0.3430 
 15 C       -4.9960    -8.6690    -0.9410 C.3   1 <1>   0.3430 
 16 C       -7.1300    -7.6400    -0.3760 C.3   1 <1>   0.2000 
 17 C       -6.5060    -8.9570    -0.8420 C.3   1 <1>  -0.0800 
 18 O       -7.0520    -7.5440     1.0120 O.3   1 <1>  -0.6800 
 19 C       -6.8410   -10.1940     0.0230 C.3   1 <1>  -0.0550 
 20 S       -6.0290   -11.6760    -0.5700 S.o2  1 <1>   1.3330 
 21 O       -4.6170   -11.4650    -0.3380 O.2   1 <1>  -0.6500 
 22 O       -6.5010   -11.9190    -1.9120 O.2   1 <1>  -0.6500 
 23 N       -6.6050   -12.8800     0.4720 N.am  1 <1>  -0.8490 
 24 C       -7.8610   -13.4920     0.0200 C.3   1 <1>   0.1160 
 25 C       -5.6100   -13.9280     0.7250 C.3   1 <1>   0.1160 
 26 H       -1.5680    -2.6970    -1.4650 H     1 <1>   0.1500 
 27 H       -3.4890     0.7320     0.1590 H     1 <1>   0.1500 
 28 H       -5.1360    -0.7300     1.3100 H     1 <1>   0.1500 
 29 H       -2.5800    -4.9480    -1.0840 H     1 <1>   0.1500 
 30 H       -4.4360    -4.6950     2.4650 H     1 <1>   0.0800 
 31 H       -5.8740    -5.1530     1.5800 H     1 <1>   0.0800 
 32 H       -4.6810    -7.1820     1.2310 H     1 <1>   0.0800 
 33 H       -3.1430    -7.2350     0.3980 H     1 <1>   0.0800 
 34 H       -4.2370    -6.8470    -1.6610 H     1 <1>   0.4500 
 35 H       -6.2800    -5.6440    -0.4990 H     1 <1>   0.0800 
 36 H       -6.4470    -6.4740    -2.0320 H     1 <1>   0.0800 
 37 H       -4.6010    -9.0730    -1.8610 H     1 <1>   0.0800 
 38 H       -4.4760    -9.1330    -0.1180 H     1 <1>   0.0800 
 39 H       -8.1550    -7.5050    -0.6830 H     1 <1>   0.0800 
 40 H       -6.8520    -9.1510    -1.8430 H     1 <1>   0.0800 
 41 H       -7.8510    -7.9220     1.4390 H     1 <1>   0.4000 
 42 H       -7.9020   -10.3500     0.0170 H     1 <1>   0.0800 
 43 H       -6.5380   -10.0280     1.0390 H     1 <1>   0.0800 
 44 H       -8.2230   -14.1860     0.7590 H     1 <1>   0.0800 
 45 H       -7.7110   -14.0180    -0.9090 H     1 <1>   0.0800 
 46 H       -8.6120   -12.7350    -0.1310 H     1 <1>   0.0800 
 47 H       -6.0040   -14.6610     1.4090 H     1 <1>   0.0800 
 48 H       -4.7250   -13.5010     1.1670 H     1 <1>   0.0800 
 49 H       -5.3350   -14.4160    -0.1960 H     1 <1>   0.0800 
@<TRIPOS>BOND
  1   1   2  1   
  2   2   3  ar  
  3   2   4  ar  
  4   3   5  ar  
  5   3  26  1   
  6   4   6  ar  
  7   4  27  1   
  8   5   7  ar  
  9   5   8  1   
 10   6   7  ar  
 11   6  28  1   
 12   7   9  1   
 13   8  10  2   
 14   8  29  1   
 15   9  11  1   
 16  10  11  1   
 17  10  12  1   
 18  11  30  1   
 19  11  31  1   
 20  12  13  1   
 21  12  32  1   
 22  12  33  1   
 23  13  14  1   
 24  13  15  1   
 25  13  34  1   
 26  14  16  1   
 27  14  35  1   
 28  14  36  1   
 29  15  17  1   
 30  15  37  1   
 31  15  38  1   
 32  16  17  1   
 33  16  18  1   
 34  16  39  1   
 35  17  19  1   
 36  17  40  1   
 37  18  41  1   
 38  19  20  1   
 39  19  42  1   
 40  19  43  1   
 41  20  21  2   
 42  20  22  2   
 43  20  23  am  
 44  23  24  1   
 45  23  25  1   
 46  24  44  1   
 47  24  45  1   
 48  24  46  1   
 49  25  47  1   
 50  25  48  1   
 51  25  49  1   
@<TRIPOS>SUBSTRUCTURE
  1 ****  13 GROUP 4 **** **** 0

# MOE 2024.06 (io_trps.svl 2023.06)
