@<TRIPOS>MOLECULE
NONAME
48 49 1 0 0 
SMALL
USER_CHARGES


@<TRIPOS>ATOM
  1 O       -0.0930     0.9840     0.5920 O.2   1 <1>  -0.5700 
  2 C       -0.2530     2.1170     0.2050 C.2   1 <1>   0.5690 
  3 N       -1.0870     3.0000     0.8350 N.am  1 <1>  -0.6600 
  4 C        0.4860     2.5600    -1.0560 C.3   1 <1>   0.1810 
  5 C       -1.3080     4.3860     0.3030 C.3   1 <1>   0.3640 
  6 C       -1.8090     2.6570     2.0940 C.3   1 <1>   0.0600 
  7 O        0.6960     3.9480    -1.0960 O.3   1 <1>  -0.5600 
  8 C       -2.8120     4.6460     0.0930 C.ar  1 <1>  -0.1440 
  9 C       -0.4820     4.7380    -0.9690 C.3   1 <1>   0.2610 
 10 C       -3.6700     3.8360    -0.6600 C.ar  1 <1>  -0.1440 
 11 C       -3.3390     5.7760     0.7110 C.ar  1 <1>  -0.1500 
 12 C       -0.0920     6.2250    -0.9800 C.2   1 <1>   0.5690 
 13 C       -5.0120     4.1760    -0.7680 C.ar  1 <1>  -0.1500 
 14 C       -3.2250     2.5670    -1.3790 C.3   1 <1>  -0.0960 
 15 C       -4.6750     6.1050     0.5940 C.ar  1 <1>  -0.1500 
 16 O       -0.8450     7.0660    -0.5470 O.2   1 <1>  -0.5700 
 17 N        1.1260     6.5740    -1.4750 N.am  1 <1>  -0.7300 
 18 C       -5.5160     5.3020    -0.1470 C.ar  1 <1>  -0.1500 
 19 C        1.6540     7.9550    -1.5910 C.3   1 <1>   0.1400 
 20 C        2.2450     8.4110    -0.2580 C.3   1 <1>   0.1200 
 21 O        2.8850     9.6330    -0.4540 O.3   1 <1>  -0.5600 
 22 C        3.4130    10.1860     0.7100 C.3   1 <1>   0.1200 
 23 C        4.1390    11.4800     0.3430 C.3   1 <1>   0.1200 
 24 O        4.5990    12.0950     1.5000 O.3   1 <1>  -0.6800 
 25 H       -0.0680     2.2680    -1.9280 H     1 <1>   0.0800 
 26 H        1.4490     2.0840    -1.0830 H     1 <1>   0.0800 
 27 H       -0.9660     5.0510     1.0770 H     1 <1>   0.0800 
 28 H       -1.6110     3.4020     2.8440 H     1 <1>   0.0800 
 29 H       -1.4900     1.7000     2.4680 H     1 <1>   0.0800 
 30 H       -2.8690     2.6170     1.9090 H     1 <1>   0.0800 
 31 H       -1.0830     4.5630    -1.8410 H     1 <1>   0.0800 
 32 H       -2.7040     6.4250     1.2890 H     1 <1>   0.1500 
 33 H       -5.6840     3.5610    -1.3410 H     1 <1>   0.1500 
 34 H       -4.0020     2.1970    -2.0240 H     1 <1>   0.0800 
 35 H       -3.0010     1.7970    -0.6630 H     1 <1>   0.0800 
 36 H       -2.3630     2.7510    -1.9870 H     1 <1>   0.0800 
 37 H       -5.0570     6.9870     1.0780 H     1 <1>   0.1500 
 38 H        1.7580     5.8080    -1.7340 H     1 <1>   0.3700 
 39 H       -6.5580     5.5520    -0.2430 H     1 <1>   0.1500 
 40 H        2.4120     7.9810    -2.3540 H     1 <1>   0.0800 
 41 H        0.8530     8.6210    -1.8690 H     1 <1>   0.0800 
 42 H        2.9710     7.6990     0.0930 H     1 <1>   0.0800 
 43 H        1.4600     8.5380     0.4680 H     1 <1>   0.0800 
 44 H        2.6020    10.3860     1.3890 H     1 <1>   0.0800 
 45 H        4.1060     9.4850     1.1440 H     1 <1>   0.0800 
 46 H        3.4770    12.1610    -0.1640 H     1 <1>   0.0800 
 47 H        4.9900    11.2640    -0.2790 H     1 <1>   0.0800 
 48 H        3.8540    12.4560     2.0190 H     1 <1>   0.4000 
@<TRIPOS>BOND
  1   1   2  2   
  2   2   3  am  
  3   2   4  1   
  4   3   5  1   
  5   3   6  1   
  6   4   7  1   
  7   4  25  1   
  8   4  26  1   
  9   5   8  1   
 10   5   9  1   
 11   5  27  1   
 12   6  28  1   
 13   6  29  1   
 14   6  30  1   
 15   7   9  1   
 16   8  10  ar  
 17   8  11  ar  
 18   9  12  1   
 19   9  31  1   
 20  10  13  ar  
 21  10  14  1   
 22  11  15  ar  
 23  11  32  1   
 24  12  16  2   
 25  12  17  am  
 26  13  18  ar  
 27  13  33  1   
 28  14  34  1   
 29  14  35  1   
 30  14  36  1   
 31  15  18  ar  
 32  15  37  1   
 33  17  19  1   
 34  17  38  1   
 35  18  39  1   
 36  19  20  1   
 37  19  40  1   
 38  19  41  1   
 39  20  21  1   
 40  20  42  1   
 41  20  43  1   
 42  21  22  1   
 43  22  23  1   
 44  22  44  1   
 45  22  45  1   
 46  23  24  1   
 47  23  46  1   
 48  23  47  1   
 49  24  48  1   
@<TRIPOS>SUBSTRUCTURE
  1 ****  12 GROUP 4 **** **** 0

# MOE 2024.06 (io_trps.svl 2023.06)
