@<TRIPOS>MOLECULE
NONAME
62 65 1 0 0 
SMALL
USER_CHARGES


@<TRIPOS>ATOM
  1 O       -0.0540    -0.6920     1.4070 O.2   1 <1>  -0.5700 
  2 C       -0.4600    -1.5110     0.6170 C.2   1 <1>   0.5690 
  3 N        0.0440    -2.7850     0.5670 N.am  1 <1>  -0.6600 
  4 C       -1.5470    -1.0740    -0.3500 C.3   1 <1>  -0.0990 
  5 C       -0.4200    -3.8470    -0.3730 C.3   1 <1>   0.1400 
  6 C        1.0880    -3.2260     1.5370 C.3   1 <1>   0.1400 
  7 C       -2.3690    -2.2450    -0.9040 C.3   1 <1>  -0.1600 
  8 C       -1.4190    -3.3400    -1.4240 C.3   1 <1>  -0.0190 
  9 C        2.4760    -2.8090     1.0530 C.3   1 <1>   0.1200 
 10 C       -2.1220    -4.5000    -2.1330 C.2   1 <1>   0.5690 
 11 O        3.4300    -3.4860     1.8110 O.3   1 <1>  -0.5600 
 12 O       -1.9020    -4.5880    -3.3180 O.2   1 <1>  -0.5700 
 13 N       -2.9420    -5.4100    -1.4960 N.am  1 <1>  -0.6600 
 14 C        4.7380    -3.1080     1.5290 C.3   1 <1>   0.0400 
 15 C       -3.5330    -6.5530    -2.2530 C.3   1 <1>   0.1400 
 16 C       -3.3510    -5.4270    -0.0610 C.3   1 <1>   0.1400 
 17 C       -3.0410    -7.8710    -1.6490 C.3   1 <1>  -0.1600 
 18 C       -2.8610    -6.7200     0.5950 C.3   1 <1>  -0.1600 
 19 C       -3.3600    -7.9740    -0.1480 C.3   1 <1>   0.4240 
 20 O       -4.7700    -7.9300    -0.1010 O.3   1 <1>  -0.5600 
 21 C       -2.8000    -9.2910     0.4640 C.ar  1 <1>  -0.1440 
 22 C       -5.4050    -8.4560     1.0190 C.3   1 <1>   0.1200 
 23 C       -1.4280    -9.5790     0.4880 C.ar  1 <1>   0.0820 
 24 C       -3.6760   -10.2270     1.0120 C.ar  1 <1>  -0.1440 
 25 C       -5.1660    -9.9570     1.0360 C.3   1 <1>  -0.0160 
 26 O       -0.5530    -8.6730    -0.0240 O.3   1 <1>  -0.3620 
 27 C       -0.9730   -10.7780     1.0360 C.ar  1 <1>  -0.1500 
 28 C       -3.2130   -11.4160     1.5510 C.ar  1 <1>  -0.1500 
 29 C        0.8270    -8.9340    -0.1590 C.3   1 <1>   0.0400 
 30 C       -1.8620   -11.6930     1.5630 C.ar  1 <1>  -0.1500 
 31 H       -1.0710    -0.5510    -1.1590 H     1 <1>   0.0800 
 32 H       -2.1980    -0.3810     0.1510 H     1 <1>   0.0800 
 33 H       -0.8550    -4.6340     0.2110 H     1 <1>   0.0800 
 34 H        0.4320    -4.2650    -0.8820 H     1 <1>   0.0800 
 35 H        1.0520    -4.2960     1.6470 H     1 <1>   0.0800 
 36 H        0.9010    -2.7780     2.4980 H     1 <1>   0.0800 
 37 H       -2.9960    -1.8980    -1.7070 H     1 <1>   0.0800 
 38 H       -3.0080    -2.6160    -0.1260 H     1 <1>   0.0800 
 39 H       -0.8160    -2.8660    -2.1800 H     1 <1>   0.0800 
 40 H        2.6060    -1.7480     1.1860 H     1 <1>   0.0800 
 41 H        2.6110    -3.0790     0.0210 H     1 <1>   0.0800 
 42 H        5.3960    -3.6860     2.1540 H     1 <1>   0.0800 
 43 H        4.8600    -2.0610     1.7470 H     1 <1>   0.0800 
 44 H        4.9520    -3.3080     0.4940 H     1 <1>   0.0800 
 45 H       -3.2600    -6.5150    -3.2940 H     1 <1>   0.0800 
 46 H       -4.6070    -6.4980    -2.1960 H     1 <1>   0.0800 
 47 H       -4.4260    -5.3740    -0.0040 H     1 <1>   0.0800 
 48 H       -2.9530    -4.5930     0.4790 H     1 <1>   0.0800 
 49 H       -1.9860    -7.9330    -1.8260 H     1 <1>   0.0800 
 50 H       -3.4970    -8.6980    -2.1600 H     1 <1>   0.0800 
 51 H       -3.1740    -6.7540     1.6210 H     1 <1>   0.0800 
 52 H       -1.7910    -6.6980     0.6030 H     1 <1>   0.0800 
 53 H       -6.4550    -8.2400     0.9350 H     1 <1>   0.0800 
 54 H       -5.0140    -7.9880     1.9050 H     1 <1>   0.0800 
 55 H       -5.6330   -10.4060     0.1780 H     1 <1>   0.0800 
 56 H       -5.6090   -10.3740     1.9220 H     1 <1>   0.0800 
 57 H        0.0710   -11.0200     1.0670 H     1 <1>   0.1500 
 58 H       -3.9020   -12.1320     1.9640 H     1 <1>   0.1500 
 59 H        1.2800    -8.0900    -0.6470 H     1 <1>   0.0800 
 60 H        0.9580    -9.8170    -0.7590 H     1 <1>   0.0800 
 61 H        1.2550    -9.0630     0.8190 H     1 <1>   0.0800 
 62 H       -1.5040   -12.6170     1.9820 H     1 <1>   0.1500 
@<TRIPOS>BOND
  1   1   2  2   
  2   2   3  am  
  3   2   4  1   
  4   3   5  1   
  5   3   6  1   
  6   4   7  1   
  7   4  31  1   
  8   4  32  1   
  9   5   8  1   
 10   5  33  1   
 11   5  34  1   
 12   6   9  1   
 13   6  35  1   
 14   6  36  1   
 15   7   8  1   
 16   7  37  1   
 17   7  38  1   
 18   8  10  1   
 19   8  39  1   
 20   9  11  1   
 21   9  40  1   
 22   9  41  1   
 23  10  12  2   
 24  10  13  am  
 25  11  14  1   
 26  13  15  1   
 27  13  16  1   
 28  14  42  1   
 29  14  43  1   
 30  14  44  1   
 31  15  17  1   
 32  15  45  1   
 33  15  46  1   
 34  16  18  1   
 35  16  47  1   
 36  16  48  1   
 37  17  19  1   
 38  17  49  1   
 39  17  50  1   
 40  18  19  1   
 41  18  51  1   
 42  18  52  1   
 43  19  20  1   
 44  19  21  1   
 45  20  22  1   
 46  21  23  ar  
 47  21  24  ar  
 48  22  25  1   
 49  22  53  1   
 50  22  54  1   
 51  23  26  1   
 52  23  27  ar  
 53  24  25  1   
 54  24  28  ar  
 55  25  55  1   
 56  25  56  1   
 57  26  29  1   
 58  27  30  ar  
 59  27  57  1   
 60  28  30  ar  
 61  28  58  1   
 62  29  59  1   
 63  29  60  1   
 64  29  61  1   
 65  30  62  1   
@<TRIPOS>SUBSTRUCTURE
  1 ****  18 GROUP 4 **** **** 0

# MOE 2024.06 (io_trps.svl 2023.06)
