@<TRIPOS>MOLECULE
NONAME
47 50 1 0 0 
SMALL
USER_CHARGES


@<TRIPOS>ATOM
  1 F        0.9500     1.3400    -1.0080 F     1 <1>  -0.1900 
  2 C        0.2390     2.4170    -0.8100 C.ar  1 <1>   0.1900 
  3 C        0.8260     3.4950    -0.1800 C.ar  1 <1>  -0.1500 
  4 C       -1.0730     2.4340    -1.2400 C.ar  1 <1>  -0.1500 
  5 C        0.0800     4.6520     0.0310 C.ar  1 <1>  -0.0230 
  6 C       -1.8220     3.5780    -1.0260 C.ar  1 <1>  -0.1500 
  7 N        0.6700     5.7840     0.6650 N.pl3 1 <1>   0.5930 
  8 C       -1.2500     4.6730    -0.3950 C.ar  1 <1>  -0.1500 
  9 N        1.6400     5.6950     1.6090 N.2   1 <1>  -0.7070 
 10 C        0.4220     7.0940     0.4040 C.2   1 <1>  -0.3020 
 11 C        1.9510     6.9080     1.9280 C.2   1 <1>   0.1390 
 12 C        1.2250     7.8400     1.1950 C.2   1 <1>  -0.1810 
 13 C        1.3670     9.3430     1.2880 C.3   1 <1>   0.5240 
 14 N        2.7120     9.7160     0.7800 N.4   1 <1>  -0.9590 
 15 C        3.0860    11.1410     1.0980 C.3   1 <1>   0.3430 
 16 C        2.9380     9.2840    -0.6400 C.3   1 <1>   0.3430 
 17 C        4.5810    11.4990     0.8690 C.3   1 <1>   0.2200 
 18 C        4.4130     9.2840    -1.0560 C.3   1 <1>  -0.0190 
 19 N        4.8670    11.6880    -0.5810 N.am  1 <1>  -0.6600 
 20 C        5.5770    10.4960     1.5030 C.3   1 <1>   0.1200 
 21 C        4.7860    10.6760    -1.4940 C.2   1 <1>   0.5690 
 22 C        5.4280     8.6920    -0.0550 C.3   1 <1>   0.1200 
 23 C        5.3070    13.0600    -0.9840 C.3   1 <1>   0.0600 
 24 O        5.2390     9.1560     1.2540 O.3   1 <1>  -0.5600 
 25 O        4.9620    10.8540    -2.6720 O.2   1 <1>  -0.5700 
 26 H        1.8510     3.4310     0.1430 H     1 <1>   0.1500 
 27 H       -1.4930     1.5720    -1.7270 H     1 <1>   0.1500 
 28 H       -2.8490     3.6140    -1.3470 H     1 <1>   0.1500 
 29 H       -1.8560     5.5470    -0.2310 H     1 <1>   0.1500 
 30 H       -0.3040     7.3940    -0.3290 H     1 <1>   0.1500 
 31 H        2.6950     7.1380     2.6750 H     1 <1>   0.1500 
 32 H        1.2550     9.6500     2.3150 H     1 <1>   0.0800 
 33 H        0.6010     9.8210     0.6990 H     1 <1>   0.0800 
 34 H        3.4060     9.1490     1.3070 H     1 <1>   0.4500 
 35 H        2.4790    11.8170     0.5180 H     1 <1>   0.0800 
 36 H        2.8690    11.3230     2.1370 H     1 <1>   0.0800 
 37 H        2.5730     8.2770    -0.7610 H     1 <1>   0.0800 
 38 H        2.3780     9.9150    -1.3130 H     1 <1>   0.0800 
 39 H        4.7510    12.4470     1.3510 H     1 <1>   0.0800 
 40 H        4.4770     8.6750    -1.9410 H     1 <1>   0.0800 
 41 H        5.5700    10.6200     2.5720 H     1 <1>   0.0800 
 42 H        6.5800    10.6790     1.1560 H     1 <1>   0.0800 
 43 H        6.4400     8.9090    -0.3590 H     1 <1>   0.0800 
 44 H        5.3150     7.6210    -0.0230 H     1 <1>   0.0800 
 45 H        6.2000    13.3320    -0.4480 H     1 <1>   0.0800 
 46 H        4.5330    13.7760    -0.7710 H     1 <1>   0.0800 
 47 H        5.5250    13.1030    -2.0380 H     1 <1>   0.0800 
@<TRIPOS>BOND
  1   1   2  1   
  2   2   3  ar  
  3   2   4  ar  
  4   3   5  ar  
  5   3  26  1   
  6   4   6  ar  
  7   4  27  1   
  8   5   7  1   
  9   5   8  ar  
 10   6   8  ar  
 11   6  28  1   
 12   7   9  1   
 13   7  10  1   
 14   8  29  1   
 15   9  11  2   
 16  10  12  2   
 17  10  30  1   
 18  11  12  1   
 19  11  31  1   
 20  12  13  1   
 21  13  14  1   
 22  13  32  1   
 23  13  33  1   
 24  14  15  1   
 25  14  16  1   
 26  14  34  1   
 27  15  17  1   
 28  15  35  1   
 29  15  36  1   
 30  16  18  1   
 31  16  37  1   
 32  16  38  1   
 33  17  19  1   
 34  17  20  1   
 35  17  39  1   
 36  18  21  1   
 37  18  22  1   
 38  18  40  1   
 39  19  21  am  
 40  19  23  1   
 41  20  24  1   
 42  20  41  1   
 43  20  42  1   
 44  21  25  2   
 45  22  24  1   
 46  22  43  1   
 47  22  44  1   
 48  23  45  1   
 49  23  46  1   
 50  23  47  1   
@<TRIPOS>SUBSTRUCTURE
  1 ****  12 GROUP 4 **** **** 0

# MOE 2024.06 (io_trps.svl 2023.06)
