@<TRIPOS>MOLECULE
NONAME
28 29 1 0 0 
SMALL
USER_CHARGES


@<TRIPOS>ATOM
  1 N       -5.0090     0.3420     0.2200 N.4   1 <1>  -0.9590 
  2 C       -3.7190     1.0260    -0.1920 C.3   1 <1>   0.4230 
  3 C       -5.5060     0.9810     1.4940 C.3   1 <1>   0.3430 
  4 C       -6.1010     0.4920    -0.8110 C.3   1 <1>   0.3430 
  5 C       -4.0190     2.5070    -0.5360 C.3   1 <1>  -0.1600 
  6 C       -2.9570     0.2980    -1.3490 C.3   1 <1>   0.3430 
  7 C       -5.7240     2.4900     1.2740 C.3   1 <1>  -0.1600 
  8 C       -6.3810     1.9840    -1.0660 C.3   1 <1>  -0.1600 
  9 C       -5.4740     2.8710    -0.1950 C.3   1 <1>  -0.0800 
 10 N       -1.6220     0.8980    -1.7210 N.4   1 <1>  -0.8530 
 11 H       -4.8710    -0.6600     0.4220 H     1 <1>   0.4500 
 12 H       -3.0710     1.0160     0.6700 H     1 <1>   0.0800 
 13 H       -4.7960     0.8310     2.2920 H     1 <1>   0.0800 
 14 H       -6.4380     0.5260     1.7910 H     1 <1>   0.0800 
 15 H       -7.0040     0.0190    -0.4570 H     1 <1>   0.0800 
 16 H       -5.8180     0.0120    -1.7340 H     1 <1>   0.0800 
 17 H       -3.8490     2.7090    -1.5800 H     1 <1>   0.0800 
 18 H       -3.3500     3.1420     0.0200 H     1 <1>   0.0800 
 19 H       -3.5900     0.3010    -2.2220 H     1 <1>   0.0800 
 20 H       -2.8030    -0.7290    -1.0590 H     1 <1>   0.0800 
 21 H       -5.0700     3.0470     1.9230 H     1 <1>   0.0800 
 22 H       -6.7320     2.7450     1.5570 H     1 <1>   0.0800 
 23 H       -7.4160     2.1910    -0.8460 H     1 <1>   0.0800 
 24 H       -6.2380     2.2070    -2.1090 H     1 <1>   0.0800 
 25 H       -5.6700     3.9180    -0.3670 H     1 <1>   0.0800 
 26 H       -1.6930     1.8740    -2.0410 H     1 <1>   0.4500 
 27 H       -1.1930     0.3740    -2.5000 H     1 <1>   0.4500 
 28 H       -0.9360     0.8690    -0.9530 H     1 <1>   0.4500 
@<TRIPOS>BOND
  1   1   2  1   
  2   1   3  1   
  3   1   4  1   
  4   1  11  1   
  5   2   5  1   
  6   2   6  1   
  7   2  12  1   
  8   3   7  1   
  9   3  13  1   
 10   3  14  1   
 11   4   8  1   
 12   4  15  1   
 13   4  16  1   
 14   5   9  1   
 15   5  17  1   
 16   5  18  1   
 17   6  10  1   
 18   6  19  1   
 19   6  20  1   
 20   7   9  1   
 21   7  21  1   
 22   7  22  1   
 23   8   9  1   
 24   8  23  1   
 25   8  24  1   
 26   9  25  1   
 27  10  26  1   
 28  10  27  1   
 29  10  28  1   
@<TRIPOS>SUBSTRUCTURE
  1 ****   2 GROUP 4 **** **** 0

# MOE 2024.06 (io_trps.svl 2023.06)
