@<TRIPOS>MOLECULE
NONAME
51 53 1 0 0 
SMALL
USER_CHARGES


@<TRIPOS>ATOM
  1 O        0.7170    -0.0250    -2.3230 O.2   1 <1>  -0.5700 
  2 C        1.2690    -0.7030    -1.4860 C.2   1 <1>   0.5690 
  3 N        2.0300    -0.1170    -0.4970 N.am  1 <1>  -0.6600 
  4 C        1.1250    -2.2320    -1.6180 C.3   1 <1>   0.1710 
  5 C        2.8680    -0.8240     0.5180 C.3   1 <1>   0.1400 
  6 C        2.1120     1.3710    -0.3600 C.3   1 <1>   0.1400 
  7 N        0.0080    -2.8630    -0.8580 N.3   1 <1>  -0.8100 
  8 C        4.2970    -0.2420     0.5490 C.3   1 <1>   0.2000 
  9 C        3.5790     1.8360    -0.2730 C.3   1 <1>   0.2000 
 10 C       -0.1810    -4.2660    -1.2550 C.3   1 <1>   0.2900 
 11 C        0.1040    -2.6880     0.5980 C.3   1 <1>   0.0300 
 12 O        4.2500     1.1400     0.7370 O.3   1 <1>  -0.5600 
 13 C        5.1260    -0.8180     1.6940 C.3   1 <1>  -0.2400 
 14 C        3.6910     3.3210     0.0620 C.3   1 <1>  -0.2400 
 15 C       -1.4420    -4.8480    -0.6350 C.2   1 <1>  -0.3320 
 16 N       -1.4040    -5.9750     0.1400 N.pl3 1 <1>   0.0330 
 17 C       -2.7240    -4.4140    -0.7190 C.2   1 <1>  -0.1810 
 18 C       -2.6780    -6.2600     0.5570 C.ar  1 <1>  -0.1520 
 19 C       -3.5310    -5.2960     0.0330 C.ar  1 <1>   0.0000 
 20 C       -3.2620    -3.2050    -1.4600 C.3   1 <1>  -0.0590 
 21 C       -3.1660    -7.2940     1.3600 C.ar  1 <1>  -0.1500 
 22 C       -4.9000    -5.3610     0.3160 C.ar  1 <1>  -0.1500 
 23 C       -4.5140    -7.3460     1.6300 C.ar  1 <1>  -0.1500 
 24 C       -5.3810    -6.3780     1.1070 C.ar  1 <1>  -0.1500 
 25 H        2.0520    -2.7080    -1.3630 H     1 <1>   0.0800 
 26 H        0.9590    -2.4210    -2.6630 H     1 <1>   0.0800 
 27 H        2.4200    -0.6980     1.4880 H     1 <1>   0.0800 
 28 H        2.9250    -1.8750     0.3150 H     1 <1>   0.0800 
 29 H        1.6390     1.8580    -1.1950 H     1 <1>   0.0800 
 30 H        1.5900     1.6690     0.5320 H     1 <1>   0.0800 
 31 H        4.7930    -0.4380    -0.3870 H     1 <1>   0.0800 
 32 H        4.0770     1.6410    -1.2080 H     1 <1>   0.0800 
 33 H       -0.2790    -4.3210    -2.3260 H     1 <1>   0.0800 
 34 H        0.6790    -4.8430    -0.9640 H     1 <1>   0.0800 
 35 H       -0.7740    -3.0850     1.0780 H     1 <1>   0.0800 
 36 H        0.1540    -1.6410     0.8400 H     1 <1>   0.0800 
 37 H        0.9720    -3.1910     0.9850 H     1 <1>   0.0800 
 38 H        4.6620    -0.5960     2.6380 H     1 <1>   0.0800 
 39 H        6.1130    -0.3910     1.6760 H     1 <1>   0.0800 
 40 H        5.2130    -1.8840     1.5910 H     1 <1>   0.0800 
 41 H        3.2270     3.5260     1.0100 H     1 <1>   0.0800 
 42 H        3.2050     3.9070    -0.6960 H     1 <1>   0.0800 
 43 H        4.7260     3.6070     0.1040 H     1 <1>   0.0800 
 44 H       -0.5750    -6.5230     0.3850 H     1 <1>   0.2700 
 45 H       -4.0040    -3.5130    -2.1730 H     1 <1>   0.0800 
 46 H       -2.4710    -2.6960    -1.9810 H     1 <1>   0.0800 
 47 H       -3.7050    -2.5200    -0.7610 H     1 <1>   0.0800 
 48 H       -2.4930    -8.0330     1.7570 H     1 <1>   0.1500 
 49 H       -5.5510    -4.6110    -0.0910 H     1 <1>   0.1500 
 50 H       -4.9160    -8.1310     2.2450 H     1 <1>   0.1500 
 51 H       -6.4310    -6.4400     1.3330 H     1 <1>   0.1500 
@<TRIPOS>BOND
  1   1   2  2   
  2   2   3  am  
  3   2   4  1   
  4   3   5  1   
  5   3   6  1   
  6   4   7  1   
  7   4  25  1   
  8   4  26  1   
  9   5   8  1   
 10   5  27  1   
 11   5  28  1   
 12   6   9  1   
 13   6  29  1   
 14   6  30  1   
 15   7  10  1   
 16   7  11  1   
 17   8  12  1   
 18   8  13  1   
 19   8  31  1   
 20   9  12  1   
 21   9  14  1   
 22   9  32  1   
 23  10  15  1   
 24  10  33  1   
 25  10  34  1   
 26  11  35  1   
 27  11  36  1   
 28  11  37  1   
 29  13  38  1   
 30  13  39  1   
 31  13  40  1   
 32  14  41  1   
 33  14  42  1   
 34  14  43  1   
 35  15  16  1   
 36  15  17  2   
 37  16  18  1   
 38  16  44  1   
 39  17  19  1   
 40  17  20  1   
 41  18  19  ar  
 42  18  21  ar  
 43  19  22  ar  
 44  20  45  1   
 45  20  46  1   
 46  20  47  1   
 47  21  23  ar  
 48  21  48  1   
 49  22  24  ar  
 50  22  49  1   
 51  23  24  ar  
 52  23  50  1   
 53  24  51  1   
@<TRIPOS>SUBSTRUCTURE
  1 ****  11 GROUP 4 **** **** 0

# MOE 2024.06 (io_trps.svl 2023.06)
