@<TRIPOS>MOLECULE
NONAME
47 48 1 0 0 
SMALL
USER_CHARGES


@<TRIPOS>ATOM
  1 O        0.1750    -0.5630     2.0440 O.2   1 <1>  -0.5700 
  2 C        1.0210    -0.9840     1.2930 C.2   1 <1>   0.5690 
  3 N        1.8010    -0.2100     0.4940 N.am  1 <1>  -0.4930 
  4 C        1.2480    -2.4830     1.2460 C.3   1 <1>  -0.0990 
  5 C        1.9260     1.1950     0.3650 C.2   1 <1>   0.0630 
  6 C        0.8130    -3.0920    -0.0980 C.3   1 <1>  -0.1600 
  7 C        3.1360     1.7920    -0.0050 C.2   1 <1>   0.3720 
  8 C        1.0620     2.2240     0.5150 C.2   1 <1>  -0.3320 
  9 C        0.9930    -4.6090    -0.1070 C.3   1 <1>   0.1400 
 10 N        3.0610     3.0840    -0.0560 N.2   1 <1>  -0.7070 
 11 N        4.3100     1.0640    -0.2870 N.pl3 1 <1>  -0.8210 
 12 N        1.7780     3.3530     0.2750 N.pl3 1 <1>   0.3140 
 13 C       -0.4190     2.2150     0.8630 C.3   1 <1>  -0.0600 
 14 N        0.6000    -5.1250    -1.4330 N.am  1 <1>  -0.7300 
 15 C        4.9230     1.4590    -1.5880 C.3   1 <1>   0.2090 
 16 C        5.3310     1.2610     0.7780 C.3   1 <1>   0.2090 
 17 C        1.2970     4.7390     0.3400 C.3   1 <1>   0.0160 
 18 C       -0.5120    -5.8040    -1.7900 C.2   1 <1>   0.5690 
 19 C        6.2820     2.0620    -1.2610 C.3   1 <1>  -0.1600 
 20 C        6.6630     1.4180     0.0610 C.3   1 <1>  -0.1600 
 21 O       -0.6680    -6.1400    -2.9340 O.2   1 <1>  -0.5700 
 22 C       -1.5730    -6.1450    -0.7720 C.3   1 <1>  -0.1790 
 23 H        2.5870    -0.6690     0.0330 H     1 <1>   0.3700 
 24 H        0.6870    -2.9350     2.0450 H     1 <1>   0.0800 
 25 H        2.2900    -2.6790     1.4240 H     1 <1>   0.0800 
 26 H        1.3930    -2.6590    -0.8940 H     1 <1>   0.0800 
 27 H       -0.2250    -2.8580    -0.2680 H     1 <1>   0.0800 
 28 H        0.3910    -5.0580     0.6640 H     1 <1>   0.0800 
 29 H        2.0230    -4.8640     0.0770 H     1 <1>   0.0800 
 30 H       -0.8480     1.2550     0.6450 H     1 <1>   0.0800 
 31 H       -0.9520     2.9490     0.2860 H     1 <1>   0.0800 
 32 H       -0.5530     2.4200     1.9100 H     1 <1>   0.0800 
 33 H        1.2400    -4.9220    -2.2040 H     1 <1>   0.3700 
 34 H        4.3080     2.1600    -2.1280 H     1 <1>   0.0800 
 35 H        5.0480     0.5750    -2.1880 H     1 <1>   0.0800 
 36 H        5.3440     0.4170     1.4460 H     1 <1>   0.0800 
 37 H        5.1140     2.1530     1.3430 H     1 <1>   0.0800 
 38 H        0.7870     4.8920     1.2720 H     1 <1>   0.0800 
 39 H        0.6300     4.9170    -0.4810 H     1 <1>   0.0800 
 40 H        2.1370     5.4060     0.2750 H     1 <1>   0.0800 
 41 H        6.1620     3.1240    -1.1310 H     1 <1>   0.0800 
 42 H        7.0020     1.8780    -2.0380 H     1 <1>   0.0800 
 43 H        7.0890     0.4460    -0.1090 H     1 <1>   0.0800 
 44 H        7.3520     2.0180     0.6270 H     1 <1>   0.0800 
 45 H       -1.9200    -5.2500    -0.2910 H     1 <1>   0.0800 
 46 H       -1.1710    -6.8200    -0.0420 H     1 <1>   0.0800 
 47 H       -2.4040    -6.6190    -1.2630 H     1 <1>   0.0800 
@<TRIPOS>BOND
  1   1   2  2   
  2   2   3  am  
  3   2   4  1   
  4   3   5  1   
  5   3  23  1   
  6   4   6  1   
  7   4  24  1   
  8   4  25  1   
  9   5   7  1   
 10   5   8  2   
 11   6   9  1   
 12   6  26  1   
 13   6  27  1   
 14   7  10  2   
 15   7  11  1   
 16   8  12  1   
 17   8  13  1   
 18   9  14  1   
 19   9  28  1   
 20   9  29  1   
 21  10  12  1   
 22  11  15  1   
 23  11  16  1   
 24  12  17  1   
 25  13  30  1   
 26  13  31  1   
 27  13  32  1   
 28  14  18  am  
 29  14  33  1   
 30  15  19  1   
 31  15  34  1   
 32  15  35  1   
 33  16  20  1   
 34  16  36  1   
 35  16  37  1   
 36  17  38  1   
 37  17  39  1   
 38  17  40  1   
 39  18  21  2   
 40  18  22  1   
 41  19  20  1   
 42  19  41  1   
 43  19  42  1   
 44  20  43  1   
 45  20  44  1   
 46  22  45  1   
 47  22  46  1   
 48  22  47  1   
@<TRIPOS>SUBSTRUCTURE
  1 ****   3 GROUP 4 **** **** 0

# MOE 2024.06 (io_trps.svl 2023.06)
