@<TRIPOS>MOLECULE
NONAME
54 58 1 0 0 
SMALL
USER_CHARGES


@<TRIPOS>ATOM
  1 O       -2.0230     0.8410    -0.4940 O.2   1 <1>  -0.5700 
  2 C       -1.4740     1.7470     0.1090 C.2   1 <1>   0.7160 
  3 N       -2.2980     2.6390     0.7490 N.am  1 <1>  -0.6600 
  4 C       -0.0430     1.9150     0.0710 C.2   1 <1>  -0.0860 
  5 C       -3.4950     2.1530     1.5200 C.3   1 <1>   0.1400 
  6 C       -2.2700     4.0860     0.3940 C.3   1 <1>   0.1400 
  7 C        0.8570     1.3030    -0.7460 C.2   1 <1>  -0.0100 
  8 C        0.7510     2.7530     0.8840 C.2   1 <1>  -0.1500 
  9 C       -4.8120     2.1970     0.7010 C.3   1 <1>   0.4230 
 10 C       -3.4690     4.5280    -0.4820 C.3   1 <1>  -0.0800 
 11 O        2.0790     1.7080    -0.5020 O.3   1 <1>  -0.2800 
 12 C        2.0260     2.5800     0.4810 C.2   1 <1>  -0.0100 
 13 N       -4.4910     2.1700    -0.7770 N.4   1 <1>  -0.9590 
 14 C       -5.7260     3.3670     1.1250 C.3   1 <1>   0.1200 
 15 C       -4.5570     5.2690     0.3110 C.3   1 <1>   0.1200 
 16 C       -4.0820     3.4640    -1.4150 C.3   1 <1>   0.3430 
 17 C       -5.4640     1.4180    -1.6130 C.3   1 <1>   0.5240 
 18 O       -4.9970     4.5250     1.3950 O.3   1 <1>  -0.5600 
 19 C       -5.7900     0.0890    -0.9640 C.2   1 <1>  -0.1810 
 20 C       -4.8980    -0.9470    -0.7140 C.2   1 <1>   0.1390 
 21 C       -6.9730    -0.3620    -0.4910 C.2   1 <1>  -0.3020 
 22 N       -5.4720    -1.9430    -0.1230 N.2   1 <1>  -0.7070 
 23 N       -6.7800    -1.6070     0.0200 N.pl3 1 <1>   0.5930 
 24 C       -7.7550    -2.4570     0.6220 C.ar  1 <1>  -0.0230 
 25 C       -7.6120    -3.8420     0.5700 C.ar  1 <1>  -0.1500 
 26 C       -8.8710    -1.9330     1.2740 C.ar  1 <1>  -0.1500 
 27 C       -8.5550    -4.6770     1.1430 C.ar  1 <1>  -0.1500 
 28 C       -9.8150    -2.7680     1.8460 C.ar  1 <1>  -0.1500 
 29 C       -9.6580    -4.1400     1.7810 C.ar  1 <1>  -0.1500 
 30 H       -3.3220     1.1310     1.8140 H     1 <1>   0.0800 
 31 H       -3.5940     2.7200     2.4300 H     1 <1>   0.0800 
 32 H       -2.2370     4.6710     1.2990 H     1 <1>   0.0800 
 33 H       -1.3610     4.2920    -0.1470 H     1 <1>   0.0800 
 34 H        0.6940     0.5710    -1.5190 H     1 <1>   0.1500 
 35 H        0.3850     3.3890     1.6700 H     1 <1>   0.1500 
 36 H       -5.3490     1.2990     0.9550 H     1 <1>   0.0800 
 37 H       -3.0760     5.2820    -1.1420 H     1 <1>   0.0800 
 38 H        2.9440     3.0220     0.8320 H     1 <1>   0.1500 
 39 H       -3.6240     1.5930    -0.7810 H     1 <1>   0.4500 
 40 H       -6.2130     3.1000     2.0470 H     1 <1>   0.0800 
 41 H       -6.4870     3.5730     0.3940 H     1 <1>   0.0800 
 42 H       -5.4040     5.5240    -0.3050 H     1 <1>   0.0800 
 43 H       -4.1520     6.1840     0.7110 H     1 <1>   0.0800 
 44 H       -3.3660     3.2450    -2.1910 H     1 <1>   0.0800 
 45 H       -4.9420     3.9060    -1.8920 H     1 <1>   0.0800 
 46 H       -6.3710     1.9890    -1.7240 H     1 <1>   0.0800 
 47 H       -5.0500     1.2430    -2.5930 H     1 <1>   0.0800 
 48 H       -3.8480    -0.9470    -0.9660 H     1 <1>   0.1500 
 49 H       -7.9410     0.1030    -0.4870 H     1 <1>   0.1500 
 50 H       -6.7550    -4.2720     0.0790 H     1 <1>   0.1500 
 51 H       -9.0130    -0.8710     1.3450 H     1 <1>   0.1500 
 52 H       -8.4290    -5.7450     1.0930 H     1 <1>   0.1500 
 53 H      -10.6730    -2.3520     2.3460 H     1 <1>   0.1500 
 54 H      -10.3920    -4.7900     2.2260 H     1 <1>   0.1500 
@<TRIPOS>BOND
  1   1   2  2   
  2   2   3  am  
  3   2   4  1   
  4   3   5  1   
  5   3   6  1   
  6   4   7  2   
  7   4   8  1   
  8   5   9  1   
  9   5  30  1   
 10   5  31  1   
 11   6  10  1   
 12   6  32  1   
 13   6  33  1   
 14   7  11  1   
 15   7  34  1   
 16   8  12  2   
 17   8  35  1   
 18   9  13  1   
 19   9  14  1   
 20   9  36  1   
 21  10  15  1   
 22  10  16  1   
 23  10  37  1   
 24  11  12  1   
 25  12  38  1   
 26  13  16  1   
 27  13  17  1   
 28  13  39  1   
 29  14  18  1   
 30  14  40  1   
 31  14  41  1   
 32  15  18  1   
 33  15  42  1   
 34  15  43  1   
 35  16  44  1   
 36  16  45  1   
 37  17  19  1   
 38  17  46  1   
 39  17  47  1   
 40  19  20  1   
 41  19  21  2   
 42  20  22  2   
 43  20  48  1   
 44  21  23  1   
 45  21  49  1   
 46  22  23  1   
 47  23  24  1   
 48  24  25  ar  
 49  24  26  ar  
 50  25  27  ar  
 51  25  50  1   
 52  26  28  ar  
 53  26  51  1   
 54  27  29  ar  
 55  27  52  1   
 56  28  29  ar  
 57  28  53  1   
 58  29  54  1   
@<TRIPOS>SUBSTRUCTURE
  1 ****   9 GROUP 4 **** **** 0

# MOE 2024.06 (io_trps.svl 2023.06)
