@<TRIPOS>MOLECULE
NONAME
49 53 1 0 0 
SMALL
USER_CHARGES


@<TRIPOS>ATOM
  1 S       -0.5740    -0.5800    -1.0260 S.o2  1 <1>   1.5010 
  2 O       -0.6940     0.3590    -2.1190 O.2   1 <1>  -0.6500 
  3 O       -0.7650    -1.9960    -1.2720 O.2   1 <1>  -0.6500 
  4 N       -1.7030    -0.1360     0.1620 N.am  1 <1>  -0.8490 
  5 C        0.9920    -0.3130    -0.1860 C.2   1 <1>  -0.0630 
  6 C       -3.0110     0.2940    -0.3580 C.3   1 <1>   0.1960 
  7 C       -1.7480    -1.0530     1.3170 C.3   1 <1>   0.1960 
  8 C        1.3400     0.8730     0.4450 C.2   1 <1>   0.1390 
  9 C        2.0740    -1.1080     0.0040 C.2   1 <1>  -0.3020 
 10 C       -3.9060    -0.9110    -0.6410 C.3   1 <1>  -0.1600 
 11 C       -3.1700    -1.3870     1.7650 C.3   1 <1>  -0.1600 
 12 N        2.5200     0.8260     0.9860 N.2   1 <1>  -0.7070 
 13 N        2.9770    -0.4020     0.7080 N.pl3 1 <1>   0.3140 
 14 C       -4.0810    -1.8020     0.6020 C.3   1 <1>   0.4600 
 15 C        4.3080    -0.8400     1.1440 C.3   1 <1>   0.0160 
 16 O       -5.3840    -1.6120     1.1070 O.3   1 <1>  -0.5600 
 17 C       -3.8690    -3.2750     0.2530 C.2   1 <1>  -0.3320 
 18 C       -6.4270    -2.4060     0.5930 C.3   1 <1>   0.1200 
 19 N       -2.7370    -3.8330    -0.2760 N.pl3 1 <1>   0.0330 
 20 C       -4.8040    -4.2330     0.4060 C.2   1 <1>  -0.1810 
 21 C       -6.1860    -3.8930     0.8990 C.3   1 <1>   0.0210 
 22 C       -2.9610    -5.1800    -0.4310 C.ar  1 <1>  -0.1520 
 23 C       -4.2540    -5.4660    -0.0020 C.ar  1 <1>   0.0000 
 24 C       -2.1290    -6.1870    -0.9250 C.ar  1 <1>  -0.1500 
 25 C       -4.7250    -6.7820    -0.0570 C.ar  1 <1>  -0.1500 
 26 C       -2.6050    -7.4770    -0.9740 C.ar  1 <1>  -0.1500 
 27 C       -3.9030    -7.7750    -0.5390 C.ar  1 <1>  -0.1500 
 28 H       -2.8910     0.8860    -1.2510 H     1 <1>   0.0800 
 29 H       -3.4880     0.9240     0.3740 H     1 <1>   0.0800 
 30 H       -1.2180    -0.5980     2.1370 H     1 <1>   0.0800 
 31 H       -1.2420    -1.9760     1.0930 H     1 <1>   0.0800 
 32 H        0.7020     1.7420     0.4860 H     1 <1>   0.1500 
 33 H        2.2380    -2.1190    -0.3240 H     1 <1>   0.1500 
 34 H       -3.4710    -1.4730    -1.4460 H     1 <1>   0.0800 
 35 H       -4.8620    -0.5640    -0.9840 H     1 <1>   0.0800 
 36 H       -3.5800    -0.5200     2.2520 H     1 <1>   0.0800 
 37 H       -3.1390    -2.1800     2.4900 H     1 <1>   0.0800 
 38 H        4.4580    -1.8690     0.8770 H     1 <1>   0.0800 
 39 H        4.3820    -0.7230     2.2090 H     1 <1>   0.0800 
 40 H        5.0490    -0.2270     0.6650 H     1 <1>   0.0800 
 41 H       -6.4810    -2.2480    -0.4700 H     1 <1>   0.0800 
 42 H       -7.3450    -2.0750     1.0440 H     1 <1>   0.0800 
 43 H       -1.8990    -3.3300    -0.6070 H     1 <1>   0.2700 
 44 H       -6.9190    -4.4910     0.3890 H     1 <1>   0.0800 
 45 H       -6.2590    -4.0750     1.9560 H     1 <1>   0.0800 
 46 H       -1.1360    -5.9450    -1.2580 H     1 <1>   0.1500 
 47 H       -5.7220    -6.9960     0.2790 H     1 <1>   0.1500 
 48 H       -1.9830    -8.2700    -1.3500 H     1 <1>   0.1500 
 49 H       -4.2500    -8.7920    -0.5870 H     1 <1>   0.1500 
@<TRIPOS>BOND
  1   1   2  2   
  2   1   3  2   
  3   1   4  am  
  4   1   5  1   
  5   4   6  1   
  6   4   7  1   
  7   5   8  1   
  8   5   9  2   
  9   6  10  1   
 10   6  28  1   
 11   6  29  1   
 12   7  11  1   
 13   7  30  1   
 14   7  31  1   
 15   8  12  2   
 16   8  32  1   
 17   9  13  1   
 18   9  33  1   
 19  10  14  1   
 20  10  34  1   
 21  10  35  1   
 22  11  14  1   
 23  11  36  1   
 24  11  37  1   
 25  12  13  1   
 26  13  15  1   
 27  14  16  1   
 28  14  17  1   
 29  15  38  1   
 30  15  39  1   
 31  15  40  1   
 32  16  18  1   
 33  17  19  1   
 34  17  20  2   
 35  18  21  1   
 36  18  41  1   
 37  18  42  1   
 38  19  22  1   
 39  19  43  1   
 40  20  21  1   
 41  20  23  1   
 42  21  44  1   
 43  21  45  1   
 44  22  23  ar  
 45  22  24  ar  
 46  23  25  ar  
 47  24  26  ar  
 48  24  46  1   
 49  25  27  ar  
 50  25  47  1   
 51  26  27  ar  
 52  26  48  1   
 53  27  49  1   
@<TRIPOS>SUBSTRUCTURE
  1 ****  19 GROUP 4 **** **** 0

# MOE 2024.06 (io_trps.svl 2023.06)
