@<TRIPOS>MOLECULE
NONAME
53 56 1 0 0 
SMALL
USER_CHARGES


@<TRIPOS>ATOM
  1 O        1.9830     2.2920     1.1200 O.3   1 <1>  -0.0190 
  2 N        2.8030     1.2890     1.0350 N.2   1 <1>  -0.4100 
  3 C        0.8610     2.0620     0.4890 C.2   1 <1>  -0.0400 
  4 C        2.1930     0.3860     0.3540 C.2   1 <1>   0.1080 
  5 C        0.9290     0.8270    -0.0300 C.2   1 <1>  -0.1500 
  6 C       -0.2180     3.1280     0.4510 C.3   1 <1>   0.0200 
  7 C        2.7770    -0.9690     0.0210 C.3   1 <1>  -0.0590 
  8 C        0.2610     4.3640    -0.3370 C.3   1 <1>  -0.0800 
  9 C       -0.7660     5.4900    -0.4720 C.3   1 <1>   0.2000 
 10 C        1.4940     5.0370     0.2820 C.3   1 <1>   0.3430 
 11 O       -1.4080     5.6490     0.7610 O.3   1 <1>  -0.5600 
 12 C        0.1230     6.7120    -0.6970 C.3   1 <1>   0.3430 
 13 N        1.2390     6.5090     0.2670 N.4   1 <1>  -0.9590 
 14 C       -2.7100     6.1470     0.6940 C.3   1 <1>   0.0400 
 15 C        2.4350     7.3600    -0.0170 C.3   1 <1>   0.3430 
 16 C        3.5160     7.2400     1.0650 C.3   1 <1>   0.0200 
 17 C        4.6640     8.1690     0.7240 C.2   1 <1>   0.0060 
 18 N        4.6630     8.9480    -0.3000 N.2   1 <1>  -0.5650 
 19 N        5.7930     8.2540     1.4780 N.pl3 1 <1>   0.0330 
 20 C        5.8600     9.5970    -0.2350 C.ar  1 <1>   0.2270 
 21 C        6.5770     9.1750     0.8670 C.ar  1 <1>  -0.1520 
 22 C        6.4000    10.5580    -1.0860 C.ar  1 <1>  -0.1500 
 23 C        7.8420     9.6930     1.1530 C.ar  1 <1>  -0.1500 
 24 C        7.6470    11.0750    -0.8110 C.ar  1 <1>  -0.1500 
 25 C        8.3730    10.6450     0.3090 C.ar  1 <1>  -0.1440 
 26 C        9.7430    11.2440     0.5690 C.3   1 <1>  -0.0970 
 27 H        0.2100     0.2750    -0.6080 H     1 <1>   0.1500 
 28 H       -1.0980     2.7220    -0.0160 H     1 <1>   0.0800 
 29 H       -0.4750     3.3930     1.4620 H     1 <1>   0.0800 
 30 H        2.1440    -1.7450     0.4100 H     1 <1>   0.0800 
 31 H        3.7540    -1.0660     0.4590 H     1 <1>   0.0800 
 32 H        2.8610    -1.0800    -1.0440 H     1 <1>   0.0800 
 33 H        0.5370     4.0410    -1.3260 H     1 <1>   0.0800 
 34 H       -1.4840     5.3160    -1.2560 H     1 <1>   0.0800 
 35 H        2.3710     4.7880    -0.2940 H     1 <1>   0.0800 
 36 H        1.6370     4.7000     1.2970 H     1 <1>   0.0800 
 37 H       -0.4110     7.6290    -0.5130 H     1 <1>   0.0800 
 38 H        0.5000     6.7060    -1.7070 H     1 <1>   0.0800 
 39 H        0.8380     6.7450     1.1880 H     1 <1>   0.4500 
 40 H       -3.0850     6.2440     1.6990 H     1 <1>   0.0800 
 41 H       -3.3300     5.4540     0.1490 H     1 <1>   0.0800 
 42 H       -2.7080     7.1110     0.2150 H     1 <1>   0.0800 
 43 H        2.8650     7.0880    -0.9680 H     1 <1>   0.0800 
 44 H        2.1370     8.3940    -0.0820 H     1 <1>   0.0800 
 45 H        3.8890     6.2340     1.1110 H     1 <1>   0.0800 
 46 H        3.1110     7.5220     2.0200 H     1 <1>   0.0800 
 47 H        6.0300     7.7390     2.3300 H     1 <1>   0.2700 
 48 H        5.8310    10.8760    -1.9390 H     1 <1>   0.1500 
 49 H        8.3810     9.3490     2.0180 H     1 <1>   0.1500 
 50 H        8.0730    11.8180    -1.4610 H     1 <1>   0.1500 
 51 H       10.3940    11.0450    -0.2640 H     1 <1>   0.0800 
 52 H       10.1850    10.8260     1.4560 H     1 <1>   0.0800 
 53 H        9.6590    12.3080     0.6980 H     1 <1>   0.0800 
@<TRIPOS>BOND
  1   1   2  1   
  2   1   3  1   
  3   2   4  2   
  4   3   5  2   
  5   3   6  1   
  6   4   5  1   
  7   4   7  1   
  8   5  27  1   
  9   6   8  1   
 10   6  28  1   
 11   6  29  1   
 12   7  30  1   
 13   7  31  1   
 14   7  32  1   
 15   8   9  1   
 16   8  10  1   
 17   8  33  1   
 18   9  11  1   
 19   9  12  1   
 20   9  34  1   
 21  10  13  1   
 22  10  35  1   
 23  10  36  1   
 24  11  14  1   
 25  12  13  1   
 26  12  37  1   
 27  12  38  1   
 28  13  15  1   
 29  13  39  1   
 30  14  40  1   
 31  14  41  1   
 32  14  42  1   
 33  15  16  1   
 34  15  43  1   
 35  15  44  1   
 36  16  17  1   
 37  16  45  1   
 38  16  46  1   
 39  17  18  2   
 40  17  19  1   
 41  18  20  1   
 42  19  21  1   
 43  19  47  1   
 44  20  21  ar  
 45  20  22  ar  
 46  21  23  ar  
 47  22  24  ar  
 48  22  48  1   
 49  23  25  ar  
 50  23  49  1   
 51  24  25  ar  
 52  24  50  1   
 53  25  26  1   
 54  26  51  1   
 55  26  52  1   
 56  26  53  1   
@<TRIPOS>SUBSTRUCTURE
  1 ****  16 GROUP 4 **** **** 0

# MOE 2024.06 (io_trps.svl 2023.06)
