@<TRIPOS>MOLECULE
NONAME
51 53 1 0 0 
SMALL
USER_CHARGES


@<TRIPOS>ATOM
  1 O       -0.9410     0.3020    -2.0120 O.2   1 <1>  -0.5700 
  2 C       -1.8540     0.9530    -1.5410 C.2   1 <1>   0.5440 
  3 N       -3.0430     0.3360    -1.2120 N.am  1 <1>  -0.6600 
  4 C       -1.6610     2.3700    -1.3130 C.ar  1 <1>   0.0860 
  5 C       -3.2440    -1.1400    -1.3750 C.3   1 <1>   0.1400 
  6 C       -4.1500     1.0120    -0.4650 C.3   1 <1>   0.1400 
  7 C       -0.7650     2.8150    -0.3470 C.ar  1 <1>  -0.1500 
  8 C       -2.3700     3.3260    -2.0360 C.ar  1 <1>  -0.1500 
  9 C       -3.2440    -1.8850    -0.0070 C.3   1 <1>  -0.1060 
 10 C       -4.7270     0.1000     0.6280 C.3   1 <1>  -0.1600 
 11 C       -0.5800     4.1650    -0.0720 C.ar  1 <1>   0.0000 
 12 C       -2.2000     4.6750    -1.7870 C.ar  1 <1>  -0.1500 
 13 C       -4.2500    -3.0520    -0.1130 C.2   1 <1>   0.9060 
 14 C       -3.6460    -0.8680     1.1040 C.3   1 <1>   0.2000 
 15 C       -1.8190    -2.4100     0.3360 C.3   1 <1>  -0.1600 
 16 C        0.3450     4.5940     0.9540 C.ar  1 <1>   0.0000 
 17 C       -1.3130     5.0880    -0.8090 C.ar  1 <1>  -0.1500 
 18 O       -4.7690    -3.5160     0.9140 O.co2 1 <1>  -0.9000 
 19 O       -4.5350    -3.5220    -1.2220 O.co2 1 <1>  -0.9000 
 20 O       -4.0790    -1.4840     2.2590 O.3   1 <1>  -0.6800 
 21 C       -1.2990    -3.5490    -0.5590 C.3   1 <1>  -0.1600 
 22 C        0.2340     4.1210     2.2590 C.ar  1 <1>  -0.1500 
 23 C        1.3710     5.4900     0.6690 C.ar  1 <1>  -0.1500 
 24 C        0.1120    -3.9720    -0.1400 C.3   1 <1>  -0.2400 
 25 C        1.1140     4.5300     3.2450 C.ar  1 <1>  -0.1500 
 26 C        2.2540     5.9030     1.6500 C.ar  1 <1>  -0.1500 
 27 C        2.1260     5.4230     2.9420 C.ar  1 <1>  -0.1500 
 28 H       -4.1960    -1.2710    -1.8610 H     1 <1>   0.0800 
 29 H       -2.5090    -1.5540    -2.0400 H     1 <1>   0.0800 
 30 H       -3.7790     1.9060     0.0050 H     1 <1>   0.0800 
 31 H       -4.9290     1.2910    -1.1540 H     1 <1>   0.0800 
 32 H       -0.2000     2.0830     0.2020 H     1 <1>   0.1500 
 33 H       -3.0580     2.9980    -2.7960 H     1 <1>   0.1500 
 34 H       -5.5600    -0.4570     0.2360 H     1 <1>   0.0800 
 35 H       -5.0760     0.7020     1.4470 H     1 <1>   0.0800 
 36 H       -2.7550     5.4040    -2.3520 H     1 <1>   0.1500 
 37 H       -2.7840    -0.2870     1.3830 H     1 <1>   0.0800 
 38 H       -1.1260    -1.5870     0.2890 H     1 <1>   0.0800 
 39 H       -1.8290    -2.7680     1.3520 H     1 <1>   0.0800 
 40 H       -1.1870     6.1380    -0.6100 H     1 <1>   0.1500 
 41 H       -4.4710    -2.3690     1.9650 H     1 <1>   0.4000 
 42 H       -1.9570    -4.4000    -0.4850 H     1 <1>   0.0800 
 43 H       -1.2770    -3.2410    -1.5880 H     1 <1>   0.0800 
 44 H       -0.5520     3.4280     2.5030 H     1 <1>   0.1500 
 45 H        1.4790     5.8620    -0.3350 H     1 <1>   0.1500 
 46 H        0.1110    -4.3130     0.8800 H     1 <1>   0.0800 
 47 H        0.7910    -3.1440    -0.2330 H     1 <1>   0.0800 
 48 H        0.4550    -4.7730    -0.7710 H     1 <1>   0.0800 
 49 H        1.0120     4.1540     4.2480 H     1 <1>   0.1500 
 50 H        3.0410     6.5960     1.4100 H     1 <1>   0.1500 
 51 H        2.8120     5.7440     3.7070 H     1 <1>   0.1500 
@<TRIPOS>BOND
  1   1   2  2   
  2   2   3  am  
  3   2   4  1   
  4   3   5  1   
  5   3   6  1   
  6   4   7  ar  
  7   4   8  ar  
  8   5   9  1   
  9   5  28  1   
 10   5  29  1   
 11   6  10  1   
 12   6  30  1   
 13   6  31  1   
 14   7  11  ar  
 15   7  32  1   
 16   8  12  ar  
 17   8  33  1   
 18   9  13  1   
 19   9  14  1   
 20   9  15  1   
 21  10  14  1   
 22  10  34  1   
 23  10  35  1   
 24  11  16  1   
 25  11  17  ar  
 26  12  17  ar  
 27  12  36  1   
 28  13  18  ar  
 29  13  19  ar  
 30  14  20  1   
 31  14  37  1   
 32  15  21  1   
 33  15  38  1   
 34  15  39  1   
 35  16  22  ar  
 36  16  23  ar  
 37  17  40  1   
 38  20  41  1   
 39  21  24  1   
 40  21  42  1   
 41  21  43  1   
 42  22  25  ar  
 43  22  44  1   
 44  23  26  ar  
 45  23  45  1   
 46  24  46  1   
 47  24  47  1   
 48  24  48  1   
 49  25  27  ar  
 50  25  49  1   
 51  26  27  ar  
 52  26  50  1   
 53  27  51  1   
@<TRIPOS>SUBSTRUCTURE
  1 ****   2 GROUP 4 **** **** 0

# MOE 2024.06 (io_trps.svl 2023.06)
