@<TRIPOS>MOLECULE
NONAME
50 53 1 0 0 
SMALL
USER_CHARGES


@<TRIPOS>ATOM
  1 O        1.0230    -0.2980    -1.6560 O.2   1 <1>  -0.5700 
  2 C        1.7680    -0.7170    -0.7880 C.2   1 <1>   0.7160 
  3 N        2.6920     0.1750    -0.2630 N.am  1 <1>  -0.6600 
  4 C        1.7020    -2.1190    -0.3840 C.2   1 <1>   0.2030 
  5 C        3.3350    -0.0560     1.0830 C.3   1 <1>   0.2200 
  6 C        3.0860     1.3760    -1.0610 C.3   1 <1>   0.1400 
  7 N        2.6850    -2.8440     0.1370 N.2   1 <1>  -0.7070 
  8 C        0.5570    -2.9020    -0.5250 C.2   1 <1>  -0.1500 
  9 C        3.4140     1.2180     1.9400 C.3   1 <1>   0.1200 
 10 C        4.7370    -0.6920     0.9200 C.3   1 <1>   0.3430 
 11 C        4.4980     1.9130    -0.7560 C.3   1 <1>  -0.0800 
 12 N        2.1580    -4.0640     0.3240 N.pl3 1 <1>   0.3140 
 13 C        0.8620    -4.1350    -0.0610 C.2   1 <1>  -0.2050 
 14 O        4.5790     1.9340     1.6570 O.3   1 <1>  -0.5600 
 15 N        5.2750    -0.5270    -0.4750 N.4   1 <1>  -0.9590 
 16 C        4.5280     2.7470     0.5340 C.3   1 <1>   0.1200 
 17 C        5.6510     0.8840    -0.8170 C.3   1 <1>   0.3430 
 18 C        2.9520    -5.1840     0.8550 C.3   1 <1>   0.0160 
 19 C        0.0370    -5.3120     0.0160 C.ar  1 <1>   0.0530 
 20 C        6.3830    -1.4850    -0.7390 C.3   1 <1>   0.2630 
 21 C       -0.3020    -5.8770     1.2420 C.ar  1 <1>  -0.1500 
 22 C       -0.4430    -5.9160    -1.1410 C.ar  1 <1>  -0.1500 
 23 C       -1.0820    -7.0180     1.3100 C.ar  1 <1>  -0.1500 
 24 C       -1.2240    -7.0560    -1.0800 C.ar  1 <1>  -0.1500 
 25 C       -1.5430    -7.6110     0.1480 C.ar  1 <1>  -0.1500 
 26 H        2.7210    -0.7410     1.6410 H     1 <1>   0.0800 
 27 H        3.0350     1.1240    -2.1080 H     1 <1>   0.0800 
 28 H        2.3570     2.1520    -0.8930 H     1 <1>   0.0800 
 29 H       -0.3810    -2.5640    -0.9310 H     1 <1>   0.1500 
 30 H        3.4750     0.9390     2.9780 H     1 <1>   0.0800 
 31 H        2.5470     1.8440     1.8120 H     1 <1>   0.0800 
 32 H        4.6450    -1.7420     1.1400 H     1 <1>   0.0800 
 33 H        5.4180    -0.2670     1.6390 H     1 <1>   0.0800 
 34 H        4.7030     2.6270    -1.5330 H     1 <1>   0.0800 
 35 H        4.4650    -0.7760    -1.0690 H     1 <1>   0.4500 
 36 H        3.6740     3.4000     0.6100 H     1 <1>   0.0800 
 37 H        5.4150     3.3580     0.5540 H     1 <1>   0.0800 
 38 H        6.4420     1.2130    -0.1620 H     1 <1>   0.0800 
 39 H        6.0420     0.8920    -1.8210 H     1 <1>   0.0800 
 40 H        2.8010    -6.0490     0.2370 H     1 <1>   0.0800 
 41 H        2.6340    -5.3970     1.8580 H     1 <1>   0.0800 
 42 H        3.9920    -4.9180     0.8540 H     1 <1>   0.0800 
 43 H        7.2240    -1.2700    -0.1010 H     1 <1>   0.0800 
 44 H        6.7000    -1.4170    -1.7670 H     1 <1>   0.0800 
 45 H        6.0520    -2.4940    -0.5500 H     1 <1>   0.0800 
 46 H        0.0420    -5.4150     2.1480 H     1 <1>   0.1500 
 47 H       -0.1990    -5.4870    -2.0960 H     1 <1>   0.1500 
 48 H       -1.3350    -7.4430     2.2660 H     1 <1>   0.1500 
 49 H       -1.5840    -7.5120    -1.9850 H     1 <1>   0.1500 
 50 H       -2.1500    -8.4980     0.1980 H     1 <1>   0.1500 
@<TRIPOS>BOND
  1   1   2  2   
  2   2   3  am  
  3   2   4  1   
  4   3   5  1   
  5   3   6  1   
  6   4   7  2   
  7   4   8  1   
  8   5   9  1   
  9   5  10  1   
 10   5  26  1   
 11   6  11  1   
 12   6  27  1   
 13   6  28  1   
 14   7  12  1   
 15   8  13  2   
 16   8  29  1   
 17   9  14  1   
 18   9  30  1   
 19   9  31  1   
 20  10  15  1   
 21  10  32  1   
 22  10  33  1   
 23  11  16  1   
 24  11  17  1   
 25  11  34  1   
 26  12  13  1   
 27  12  18  1   
 28  13  19  1   
 29  14  16  1   
 30  15  17  1   
 31  15  20  1   
 32  15  35  1   
 33  16  36  1   
 34  16  37  1   
 35  17  38  1   
 36  17  39  1   
 37  18  40  1   
 38  18  41  1   
 39  18  42  1   
 40  19  21  ar  
 41  19  22  ar  
 42  20  43  1   
 43  20  44  1   
 44  20  45  1   
 45  21  23  ar  
 46  21  46  1   
 47  22  24  ar  
 48  22  47  1   
 49  23  25  ar  
 50  23  48  1   
 51  24  25  ar  
 52  24  49  1   
 53  25  50  1   
@<TRIPOS>SUBSTRUCTURE
  1 ****   4 GROUP 4 **** **** 0

# MOE 2024.06 (io_trps.svl 2023.06)
