@<TRIPOS>MOLECULE
NONAME
57 60 1 0 0 
SMALL
USER_CHARGES


@<TRIPOS>ATOM
  1 O       -0.7510     0.0460    -0.5730 O.3   1 <1>  -0.2800 
  2 C       -0.6760     1.2800    -1.0570 C.2   1 <1>   0.0870 
  3 C       -1.5600    -0.6650    -1.3300 C.2   1 <1>  -0.0400 
  4 C        0.1500     2.2730    -0.4040 C.ar  1 <1>   0.0530 
  5 C       -1.4630     1.3550    -2.1640 C.2   1 <1>  -0.1500 
  6 C       -2.0340     0.0940    -2.3410 C.2   1 <1>  -0.1500 
  7 C       -1.7950    -2.1180    -0.9580 C.3   1 <1>   0.2900 
  8 C        0.8810     1.9710     0.7450 C.ar  1 <1>  -0.1500 
  9 C        0.2480     3.5740    -0.8950 C.ar  1 <1>  -0.1500 
 10 N       -3.0080    -2.6810    -1.6020 N.3   1 <1>  -0.8100 
 11 C        1.6700     2.9180     1.3720 C.ar  1 <1>  -0.1500 
 12 C        1.0350     4.5260    -0.2730 C.ar  1 <1>  -0.1500 
 13 C       -3.0480    -4.1510    -1.6230 C.3   1 <1>   0.1100 
 14 C       -4.2690    -2.0770    -1.1270 C.3   1 <1>   0.1100 
 15 C        1.7540     4.2040     0.8660 C.ar  1 <1>  -0.1430 
 16 C       -3.4570    -4.7560    -0.2550 C.3   1 <1>   0.4230 
 17 C       -4.6720    -2.6250     0.2500 C.3   1 <1>  -0.1600 
 18 C        2.6180     5.2460     1.5520 C.3   1 <1>  -0.0970 
 19 N       -3.3900    -6.2780    -0.2140 N.4   1 <1>  -0.9590 
 20 C       -4.7980    -4.1720     0.2750 C.3   1 <1>   0.0000 
 21 C       -4.1540    -6.8910     0.9220 C.3   1 <1>   0.3430 
 22 C       -3.7500    -6.9700    -1.4960 C.3   1 <1>   0.2630 
 23 C       -5.0110    -4.6380     1.7460 C.3   1 <1>  -0.1600 
 24 C       -5.9830    -4.6300    -0.6230 C.3   1 <1>   0.1200 
 25 C       -4.2480    -5.9280     2.1050 C.3   1 <1>  -0.1600 
 26 O       -7.1610    -3.9810    -0.2920 O.3   1 <1>  -0.6800 
 27 H       -1.6360     2.2010    -2.8030 H     1 <1>   0.1500 
 28 H       -2.7080    -0.1930    -3.1280 H     1 <1>   0.1500 
 29 H       -1.8720    -2.1940     0.1120 H     1 <1>   0.0800 
 30 H       -0.9260    -2.6720    -1.2690 H     1 <1>   0.0800 
 31 H        0.8290     0.9780     1.1540 H     1 <1>   0.1500 
 32 H       -0.2990     3.8490    -1.7780 H     1 <1>   0.1500 
 33 H        2.2180     2.6490     2.2570 H     1 <1>   0.1500 
 34 H        1.0870     5.5210    -0.6790 H     1 <1>   0.1500 
 35 H       -3.7520    -4.4420    -2.3820 H     1 <1>   0.0800 
 36 H       -2.0800    -4.5210    -1.9130 H     1 <1>   0.0800 
 37 H       -4.1720    -1.0050    -1.0720 H     1 <1>   0.0800 
 38 H       -5.0490    -2.2810    -1.8420 H     1 <1>   0.0800 
 39 H       -2.7110    -4.4060     0.4380 H     1 <1>   0.0800 
 40 H       -3.9440    -2.2930     0.9690 H     1 <1>   0.0800 
 41 H       -5.6030    -2.1670     0.5360 H     1 <1>   0.0800 
 42 H        3.4570     4.7790     2.0340 H     1 <1>   0.0800 
 43 H        2.0380     5.7680     2.2920 H     1 <1>   0.0800 
 44 H        2.9900     5.9570     0.8370 H     1 <1>   0.0800 
 45 H       -2.3980    -6.4920    -0.0330 H     1 <1>   0.4500 
 46 H       -5.1540    -7.1330     0.6000 H     1 <1>   0.0800 
 47 H       -3.6770    -7.8070     1.2330 H     1 <1>   0.0800 
 48 H       -4.7690    -6.7540    -1.7700 H     1 <1>   0.0800 
 49 H       -3.6430    -8.0380    -1.3870 H     1 <1>   0.0800 
 50 H       -3.1030    -6.6470    -2.2960 H     1 <1>   0.0800 
 51 H       -4.6920    -3.8740     2.4360 H     1 <1>   0.0800 
 52 H       -6.0590    -4.7880     1.9370 H     1 <1>   0.0800 
 53 H       -6.1650    -5.6850    -0.5290 H     1 <1>   0.0800 
 54 H       -5.7970    -4.4100    -1.6590 H     1 <1>   0.0800 
 55 H       -4.7510    -6.4180     2.9220 H     1 <1>   0.0800 
 56 H       -3.2550    -5.6910     2.4460 H     1 <1>   0.0800 
 57 H       -7.4240    -4.1370     0.6360 H     1 <1>   0.4000 
@<TRIPOS>BOND
  1   1   2  1   
  2   1   3  1   
  3   2   4  1   
  4   2   5  2   
  5   3   6  2   
  6   3   7  1   
  7   4   8  ar  
  8   4   9  ar  
  9   5   6  1   
 10   5  27  1   
 11   6  28  1   
 12   7  10  1   
 13   7  29  1   
 14   7  30  1   
 15   8  11  ar  
 16   8  31  1   
 17   9  12  ar  
 18   9  32  1   
 19  10  13  1   
 20  10  14  1   
 21  11  15  ar  
 22  11  33  1   
 23  12  15  ar  
 24  12  34  1   
 25  13  16  1   
 26  13  35  1   
 27  13  36  1   
 28  14  17  1   
 29  14  37  1   
 30  14  38  1   
 31  15  18  1   
 32  16  19  1   
 33  16  20  1   
 34  16  39  1   
 35  17  20  1   
 36  17  40  1   
 37  17  41  1   
 38  18  42  1   
 39  18  43  1   
 40  18  44  1   
 41  19  21  1   
 42  19  22  1   
 43  19  45  1   
 44  20  23  1   
 45  20  24  1   
 46  21  25  1   
 47  21  46  1   
 48  21  47  1   
 49  22  48  1   
 50  22  49  1   
 51  22  50  1   
 52  23  25  1   
 53  23  51  1   
 54  23  52  1   
 55  24  26  1   
 56  24  53  1   
 57  24  54  1   
 58  25  55  1   
 59  25  56  1   
 60  26  57  1   
@<TRIPOS>SUBSTRUCTURE
  1 ****   7 GROUP 4 **** **** 0

# MOE 2024.06 (io_trps.svl 2023.06)
