@<TRIPOS>MOLECULE
NONAME
35 37 1 0 0 
SMALL
USER_CHARGES


@<TRIPOS>ATOM
  1 S       -0.0620     0.1170    -0.2520 S.3   1 <1>  -0.4600 
  2 C        0.0660     1.8440    -0.7860 C.3   1 <1>   0.0700 
  3 C        1.6700    -0.4060    -0.1780 C.3   1 <1>   0.0700 
  4 C        1.0240     2.5840     0.1560 C.3   1 <1>   0.3430 
  5 C        2.4550     0.5840     0.6940 C.3   1 <1>   0.3430 
  6 N        2.4080     1.9860     0.1550 N.4   1 <1>  -0.9590 
  7 C        3.3730     2.8900     0.8780 C.3   1 <1>   0.5240 
  8 C        3.6650     4.1690     0.0890 C.2   1 <1>   0.3350 
  9 N        3.3520     4.3560    -1.1320 N.2   1 <1>  -0.4100 
 10 N        4.2880     5.1970     0.6400 N.2   1 <1>  -0.5650 
 11 O        3.7760     5.5400    -1.4560 O.3   1 <1>  -0.0190 
 12 C        4.3370     5.9950    -0.3610 C.2   1 <1>   0.2980 
 13 C        4.9570     7.3960    -0.4110 C.3   1 <1>   0.3800 
 14 O        5.9240     7.4710    -1.4160 O.3   1 <1>  -0.5600 
 15 C        5.6910     7.8360     0.8510 C.3   1 <1>  -0.1600 
 16 C        6.8790     8.4470    -1.1320 C.3   1 <1>   0.1200 
 17 C        6.6640     8.8710     0.3190 C.3   1 <1>  -0.1600 
 18 H       -0.9240     2.2620    -0.7410 H     1 <1>   0.0800 
 19 H        0.4150     1.8540    -1.8040 H     1 <1>   0.0800 
 20 H        2.0480    -0.4450    -1.1850 H     1 <1>   0.0800 
 21 H        1.6810    -1.3940     0.2490 H     1 <1>   0.0800 
 22 H        0.6160     2.5620     1.1530 H     1 <1>   0.0800 
 23 H        1.0740     3.6150    -0.1590 H     1 <1>   0.0800 
 24 H        3.4790     0.2510     0.7470 H     1 <1>   0.0800 
 25 H        2.0470     0.5630     1.6920 H     1 <1>   0.0800 
 26 H        2.7260     1.9830    -0.8270 H     1 <1>   0.4500 
 27 H        4.3090     2.3800     1.0300 H     1 <1>   0.0800 
 28 H        2.9780     3.1580     1.8430 H     1 <1>   0.0800 
 29 H        4.1940     8.1140    -0.6560 H     1 <1>   0.0800 
 30 H        6.2330     7.0030     1.2660 H     1 <1>   0.0800 
 31 H        5.0210     8.2320     1.5920 H     1 <1>   0.0800 
 32 H        6.7470     9.2700    -1.8140 H     1 <1>   0.0800 
 33 H        7.8520     8.0070    -1.2750 H     1 <1>   0.0800 
 34 H        7.5880     8.8870     0.8710 H     1 <1>   0.0800 
 35 H        6.2250     9.8530     0.3420 H     1 <1>   0.0800 
@<TRIPOS>BOND
  1   1   2  1   
  2   1   3  1   
  3   2   4  1   
  4   2  18  1   
  5   2  19  1   
  6   3   5  1   
  7   3  20  1   
  8   3  21  1   
  9   4   6  1   
 10   4  22  1   
 11   4  23  1   
 12   5   6  1   
 13   5  24  1   
 14   5  25  1   
 15   6   7  1   
 16   6  26  1   
 17   7   8  1   
 18   7  27  1   
 19   7  28  1   
 20   8   9  2   
 21   8  10  1   
 22   9  11  1   
 23  10  12  2   
 24  11  12  1   
 25  12  13  1   
 26  13  14  1   
 27  13  15  1   
 28  13  29  1   
 29  14  16  1   
 30  15  17  1   
 31  15  30  1   
 32  15  31  1   
 33  16  17  1   
 34  16  32  1   
 35  16  33  1   
 36  17  34  1   
 37  17  35  1   
@<TRIPOS>SUBSTRUCTURE
  1 ****   8 GROUP 4 **** **** 0

# MOE 2024.06 (io_trps.svl 2023.06)
