@<TRIPOS>MOLECULE
NONAME
46 47 1 0 0 
SMALL
USER_CHARGES


@<TRIPOS>ATOM
  1 O       -0.0650    -1.0150    -1.5830 O.co2 1 <1>  -0.9000 
  2 C       -1.2300    -1.4150    -1.3720 C.2   1 <1>   0.9790 
  3 O       -2.1520    -0.8010    -1.9450 O.co2 1 <1>  -0.9000 
  4 C       -1.4620    -2.5450    -0.4600 C.ar  1 <1>   0.1310 
  5 N       -2.6260    -3.2290    -0.4220 N.ar  1 <1>  -0.6200 
  6 C       -0.4020    -2.8910     0.3850 C.ar  1 <1>   0.1600 
  7 C       -2.6570    -4.2060     0.4650 C.ar  1 <1>   0.4100 
  8 N       -0.4090    -3.8680     1.2850 N.ar  1 <1>  -0.6200 
  9 N       -3.8240    -4.9560     0.5390 N.pl3 1 <1>  -0.8380 
 10 C       -1.5650    -4.4980     1.2930 C.ar  1 <1>   0.1600 
 11 C       -5.1030    -4.2690     0.1790 C.3   1 <1>   0.2090 
 12 C       -3.7700    -6.3100    -0.0790 C.3   1 <1>   0.2090 
 13 C       -6.3180    -5.1600     0.5190 C.3   1 <1>   0.2000 
 14 C       -5.0420    -7.1280     0.2500 C.3   1 <1>   0.2000 
 15 O       -6.1950    -6.4150    -0.1040 O.3   1 <1>  -0.5600 
 16 C       -7.6730    -4.5230     0.1260 C.3   1 <1>  -0.0800 
 17 C       -5.1100    -8.4670    -0.4960 C.3   1 <1>  -0.1600 
 18 C       -8.8460    -5.3570     0.6630 C.3   1 <1>  -0.2400 
 19 C       -7.8390    -4.3260    -1.3920 C.3   1 <1>  -0.2400 
 20 C       -3.9880    -9.4400    -0.0990 C.3   1 <1>  -0.1600 
 21 C       -4.1620   -10.7920    -0.8010 C.3   1 <1>  -0.1600 
 22 C       -3.0500   -11.7680    -0.4060 C.3   1 <1>  -0.2400 
 23 H        0.5070    -2.3190     0.3090 H     1 <1>   0.1500 
 24 H       -1.6870    -5.3020     1.9910 H     1 <1>   0.1500 
 25 H       -5.1700    -3.3390     0.7170 H     1 <1>   0.0800 
 26 H       -5.0970    -4.0410    -0.8730 H     1 <1>   0.0800 
 27 H       -3.6770    -6.2070    -1.1470 H     1 <1>   0.0800 
 28 H       -2.9020    -6.8300     0.2830 H     1 <1>   0.0800 
 29 H       -6.3190    -5.3240     1.5830 H     1 <1>   0.0800 
 30 H       -5.0830    -7.3090     1.3100 H     1 <1>   0.0800 
 31 H       -7.7240    -3.5540     0.5930 H     1 <1>   0.0800 
 32 H       -6.0590    -8.9240    -0.2740 H     1 <1>   0.0800 
 33 H       -5.0670    -8.2810    -1.5550 H     1 <1>   0.0800 
 34 H       -8.8490    -6.3330     0.2100 H     1 <1>   0.0800 
 35 H       -9.7820    -4.8750     0.4460 H     1 <1>   0.0800 
 36 H       -8.7640    -5.4770     1.7290 H     1 <1>   0.0800 
 37 H       -7.7530    -5.2680    -1.9050 H     1 <1>   0.0800 
 38 H       -7.0920    -3.6560    -1.7780 H     1 <1>   0.0800 
 39 H       -8.8050    -3.9060    -1.6110 H     1 <1>   0.0800 
 40 H       -3.0300    -9.0290    -0.3680 H     1 <1>   0.0800 
 41 H       -4.0040    -9.5900     0.9670 H     1 <1>   0.0800 
 42 H       -5.1150   -11.2180    -0.5350 H     1 <1>   0.0800 
 43 H       -4.1470   -10.6510    -1.8680 H     1 <1>   0.0800 
 44 H       -3.0580   -11.9390     0.6560 H     1 <1>   0.0800 
 45 H       -2.0880   -11.3760    -0.6870 H     1 <1>   0.0800 
 46 H       -3.1930   -12.7110    -0.9050 H     1 <1>   0.0800 
@<TRIPOS>BOND
  1   1   2  ar  
  2   2   3  ar  
  3   2   4  1   
  4   4   5  ar  
  5   4   6  ar  
  6   5   7  ar  
  7   6   8  ar  
  8   6  23  1   
  9   7   9  1   
 10   7  10  ar  
 11   8  10  ar  
 12   9  11  1   
 13   9  12  1   
 14  10  24  1   
 15  11  13  1   
 16  11  25  1   
 17  11  26  1   
 18  12  14  1   
 19  12  27  1   
 20  12  28  1   
 21  13  15  1   
 22  13  16  1   
 23  13  29  1   
 24  14  15  1   
 25  14  17  1   
 26  14  30  1   
 27  16  18  1   
 28  16  19  1   
 29  16  31  1   
 30  17  20  1   
 31  17  32  1   
 32  17  33  1   
 33  18  34  1   
 34  18  35  1   
 35  18  36  1   
 36  19  37  1   
 37  19  38  1   
 38  19  39  1   
 39  20  21  1   
 40  20  40  1   
 41  20  41  1   
 42  21  22  1   
 43  21  42  1   
 44  21  43  1   
 45  22  44  1   
 46  22  45  1   
 47  22  46  1   
@<TRIPOS>SUBSTRUCTURE
  1 ****   9 GROUP 4 **** **** 0

# MOE 2024.06 (io_trps.svl 2023.06)
