@<TRIPOS>MOLECULE
NONAME
42 44 1 0 0 
SMALL
USER_CHARGES


@<TRIPOS>ATOM
  1 F       -1.7800     0.1580     0.0550 F     1 <1>  -0.3400 
  2 C       -2.5550    -0.6280    -0.6840 C.3   1 <1>   1.1640 
  3 F       -1.7770    -1.1150    -1.6440 F     1 <1>  -0.3400 
  4 F       -3.4320     0.1680    -1.2800 F     1 <1>  -0.3400 
  5 C       -3.2440    -1.7270     0.1420 C.ar  1 <1>  -0.1440 
  6 C       -3.5760    -2.9480    -0.4340 C.ar  1 <1>  -0.1500 
  7 C       -3.5580    -1.5200     1.4810 C.ar  1 <1>  -0.1500 
  8 C       -4.2030    -3.9690     0.2820 C.ar  1 <1>   0.0860 
  9 C       -4.1850    -2.5100     2.2150 C.ar  1 <1>  -0.1500 
 10 C       -4.5260    -5.2350    -0.3560 C.2   1 <1>   0.5440 
 11 C       -4.5040    -3.7170     1.6210 C.ar  1 <1>  -0.1500 
 12 O       -4.6840    -5.3040    -1.5580 O.2   1 <1>  -0.5700 
 13 N       -4.6570    -6.3790     0.3770 N.am  1 <1>  -0.7300 
 14 C       -5.0000    -7.7090    -0.1730 C.3   1 <1>   0.2200 
 15 C       -6.4710    -7.9860     0.0880 C.3   1 <1>  -0.0800 
 16 C       -4.3300    -8.7920     0.6620 C.3   1 <1>   0.1200 
 17 C       -6.4550    -8.5630     1.5100 C.3   1 <1>   0.1200 
 18 C       -7.0490    -8.9760    -0.9410 C.3   1 <1>  -0.0160 
 19 O       -5.1400    -8.9550     1.7850 O.3   1 <1>  -0.5600 
 20 C       -8.5300    -9.2240    -0.7000 C.ar  1 <1>  -0.1430 
 21 C       -9.0010   -10.4010    -0.1540 C.ar  1 <1>  -0.1500 
 22 C       -9.4820    -8.2760    -1.0180 C.ar  1 <1>  -0.1500 
 23 C      -10.3620   -10.5660     0.0470 C.ar  1 <1>   0.1600 
 24 C      -10.8190    -8.5410    -0.7760 C.ar  1 <1>   0.1600 
 25 N      -11.2820    -9.6630    -0.2490 N.ar  1 <1>  -0.6200 
 26 H       -3.3500    -3.1310    -1.4730 H     1 <1>   0.1500 
 27 H       -3.3200    -0.5850     1.9620 H     1 <1>   0.1500 
 28 H       -4.4270    -2.3370     3.2500 H     1 <1>   0.1500 
 29 H       -5.0020    -4.4670     2.2090 H     1 <1>   0.1500 
 30 H       -4.5050    -6.3730     1.3870 H     1 <1>   0.3700 
 31 H       -4.7300    -7.7680    -1.2150 H     1 <1>   0.0800 
 32 H       -7.0460    -7.0780     0.0480 H     1 <1>   0.0800 
 33 H       -3.3330    -8.5260     0.9670 H     1 <1>   0.0800 
 34 H       -4.3110    -9.7270     0.1310 H     1 <1>   0.0800 
 35 H       -7.1020    -9.4140     1.6250 H     1 <1>   0.0800 
 36 H       -6.7270    -7.8110     2.2300 H     1 <1>   0.0800 
 37 H       -6.5140    -9.9090    -0.9030 H     1 <1>   0.0800 
 38 H       -6.9260    -8.5720    -1.9310 H     1 <1>   0.0800 
 39 H       -8.3260   -11.1920     0.1180 H     1 <1>   0.1500 
 40 H       -9.1950    -7.3340    -1.4510 H     1 <1>   0.1500 
 41 H      -10.7110   -11.4900     0.4740 H     1 <1>   0.1500 
 42 H      -11.5470    -7.7890    -1.0310 H     1 <1>   0.1500 
@<TRIPOS>BOND
  1   1   2  1   
  2   2   3  1   
  3   2   4  1   
  4   2   5  1   
  5   5   6  ar  
  6   5   7  ar  
  7   6   8  ar  
  8   6  26  1   
  9   7   9  ar  
 10   7  27  1   
 11   8  10  1   
 12   8  11  ar  
 13   9  11  ar  
 14   9  28  1   
 15  10  12  2   
 16  10  13  am  
 17  11  29  1   
 18  13  14  1   
 19  13  30  1   
 20  14  15  1   
 21  14  16  1   
 22  14  31  1   
 23  15  17  1   
 24  15  18  1   
 25  15  32  1   
 26  16  19  1   
 27  16  33  1   
 28  16  34  1   
 29  17  19  1   
 30  17  35  1   
 31  17  36  1   
 32  18  20  1   
 33  18  37  1   
 34  18  38  1   
 35  20  21  ar  
 36  20  22  ar  
 37  21  23  ar  
 38  21  39  1   
 39  22  24  ar  
 40  22  40  1   
 41  23  25  ar  
 42  23  41  1   
 43  24  25  ar  
 44  24  42  1   
@<TRIPOS>SUBSTRUCTURE
  1 ****  13 GROUP 4 **** **** 0

# MOE 2024.06 (io_trps.svl 2023.06)
