@<TRIPOS>MOLECULE
NONAME
43 45 1 0 0 
SMALL
USER_CHARGES


@<TRIPOS>ATOM
  1 O       -0.2350     0.9520    -0.5490 O.co2 1 <1>  -0.9000 
  2 C       -1.0490     0.1960     0.0060 C.2   1 <1>   0.9060 
  3 O       -0.7430    -0.9230     0.4140 O.co2 1 <1>  -0.9000 
  4 C       -2.4580     0.7520     0.3590 C.3   1 <1>   0.3170 
  5 N       -2.4670     2.1620     0.9210 N.4   1 <1>  -0.9590 
  6 C       -3.3510     0.8650    -0.8820 C.3   1 <1>  -0.1600 
  7 C       -2.3930     3.0180    -0.2860 C.3   1 <1>   0.3430 
  8 C       -1.3350     2.3650     1.8680 C.3   1 <1>   0.5230 
  9 C       -3.3290     2.3450    -1.2800 C.3   1 <1>  -0.1600 
 10 C       -1.1430     3.8460     2.0900 C.2   1 <1>  -0.3320 
 11 N       -0.1720     4.5770     1.4950 N.pl3 1 <1>   0.0480 
 12 C       -1.8420     4.6910     2.8790 C.2   1 <1>   0.0770 
 13 C       -0.3660     5.8300     1.9690 C.2   1 <1>   0.0360 
 14 C        0.8930     4.1240     0.5540 C.3   1 <1>   0.1760 
 15 N       -1.3580     5.9390     2.7920 N.2   1 <1>  -0.5650 
 16 C        2.2690     4.1810     1.2370 C.3   1 <1>  -0.1600 
 17 C        0.8800     4.9590    -0.7380 C.3   1 <1>  -0.1600 
 18 C        3.3720     3.7150     0.2760 C.3   1 <1>  -0.1600 
 19 C        1.9790     4.4830    -1.6980 C.3   1 <1>  -0.1600 
 20 C        3.3580     4.5280    -1.0260 C.3   1 <1>  -0.1600 
 21 H       -2.8880     0.0620     1.0640 H     1 <1>   0.0800 
 22 H       -3.3500     2.3440     1.3990 H     1 <1>   0.4500 
 23 H       -2.9790     0.2360    -1.6730 H     1 <1>   0.0800 
 24 H       -4.3500     0.5500    -0.6400 H     1 <1>   0.0800 
 25 H       -2.6780     4.0360    -0.0750 H     1 <1>   0.0800 
 26 H       -1.3880     2.9960    -0.6770 H     1 <1>   0.0800 
 27 H       -1.5510     1.8760     2.8030 H     1 <1>   0.0800 
 28 H       -0.4220     1.9460     1.4790 H     1 <1>   0.0800 
 29 H       -4.3130     2.7730    -1.2070 H     1 <1>   0.0800 
 30 H       -2.9620     2.4800    -2.2820 H     1 <1>   0.0800 
 31 H       -2.6830     4.4740     3.5170 H     1 <1>   0.1500 
 32 H        0.2640     6.6520     1.6770 H     1 <1>   0.1500 
 33 H        0.7030     3.1020     0.2830 H     1 <1>   0.0800 
 34 H        2.4810     5.1880     1.5520 H     1 <1>   0.0800 
 35 H        2.2680     3.5440     2.1040 H     1 <1>   0.0800 
 36 H       -0.0740     4.8630    -1.2240 H     1 <1>   0.0800 
 37 H        1.0470     5.9970    -0.5090 H     1 <1>   0.0800 
 38 H        4.3330     3.8110     0.7520 H     1 <1>   0.0800 
 39 H        3.2240     2.6730     0.0430 H     1 <1>   0.0800 
 40 H        1.7680     3.4710    -2.0070 H     1 <1>   0.0800 
 41 H        1.9860     5.1010    -2.5790 H     1 <1>   0.0800 
 42 H        4.0980     4.1340    -1.7020 H     1 <1>   0.0800 
 43 H        3.6190     5.5510    -0.8120 H     1 <1>   0.0800 
@<TRIPOS>BOND
  1   1   2  ar  
  2   2   3  ar  
  3   2   4  1   
  4   4   5  1   
  5   4   6  1   
  6   4  21  1   
  7   5   7  1   
  8   5   8  1   
  9   5  22  1   
 10   6   9  1   
 11   6  23  1   
 12   6  24  1   
 13   7   9  1   
 14   7  25  1   
 15   7  26  1   
 16   8  10  1   
 17   8  27  1   
 18   8  28  1   
 19   9  29  1   
 20   9  30  1   
 21  10  11  1   
 22  10  12  2   
 23  11  13  1   
 24  11  14  1   
 25  12  15  1   
 26  12  31  1   
 27  13  15  2   
 28  13  32  1   
 29  14  16  1   
 30  14  17  1   
 31  14  33  1   
 32  16  18  1   
 33  16  34  1   
 34  16  35  1   
 35  17  19  1   
 36  17  36  1   
 37  17  37  1   
 38  18  20  1   
 39  18  38  1   
 40  18  39  1   
 41  19  20  1   
 42  19  40  1   
 43  19  41  1   
 44  20  42  1   
 45  20  43  1   
@<TRIPOS>SUBSTRUCTURE
  1 ****  14 GROUP 4 **** **** 0

# MOE 2024.06 (io_trps.svl 2023.06)
