@<TRIPOS>MOLECULE
NONAME
42 44 1 0 0 
SMALL
USER_CHARGES


@<TRIPOS>ATOM
  1 CL      -0.1790    -0.0890    -1.3530 Cl    1 <1>  -0.1770 
  2 C        1.1140    -1.0770    -0.6940 C.ar  1 <1>   0.1770 
  3 C        1.0340    -2.4650    -0.7080 C.ar  1 <1>   0.4100 
  4 C        2.2250    -0.4950    -0.1500 C.ar  1 <1>   0.1600 
  5 N        2.0120    -3.1930    -0.1990 N.ar  1 <1>  -0.6200 
  6 N       -0.0540    -3.1220    -1.2420 N.pl3 1 <1>  -0.8690 
  7 N        3.2110    -1.2160     0.3570 N.ar  1 <1>  -0.6200 
  8 C        3.0400    -2.5280     0.2990 C.ar  1 <1>   0.4770 
  9 C       -0.2610    -4.5900    -1.2660 C.3   1 <1>   0.2090 
 10 C        4.1530    -3.3690     0.8760 C.3   1 <1>  -0.0960 
 11 C       -1.2400    -5.0110    -0.1600 C.3   1 <1>  -0.0800 
 12 C       -1.3660    -6.5460    -0.1180 C.3   1 <1>  -0.1600 
 13 C       -2.6340    -4.3730    -0.3380 C.3   1 <1>  -0.1600 
 14 C       -2.3710    -7.0040     0.9430 C.3   1 <1>   0.1400 
 15 C       -3.6310    -4.8690     0.7130 C.3   1 <1>   0.1400 
 16 N       -3.6840    -6.3550     0.6850 N.am  1 <1>  -0.6600 
 17 C       -4.8560    -7.0240     0.4280 C.2   1 <1>   0.6300 
 18 O       -5.9070    -6.4440     0.2790 O.2   1 <1>  -0.5700 
 19 C       -4.8700    -8.5470     0.3270 C.3   1 <1>  -0.1000 
 20 C       -4.2260    -9.2570    -0.8320 C.3   1 <1>  -0.2000 
 21 C       -5.7150    -9.2490    -0.6980 C.3   1 <1>  -0.2000 
 22 H        2.3140     0.5760    -0.1270 H     1 <1>   0.1500 
 23 H       -0.8300    -2.5550    -1.5940 H     1 <1>   0.4000 
 24 H        0.6800    -5.0960    -1.1280 H     1 <1>   0.0800 
 25 H       -0.6480    -4.8750    -2.2290 H     1 <1>   0.0800 
 26 H        4.2560    -4.2780     0.3140 H     1 <1>   0.0800 
 27 H        3.9220    -3.6090     1.8970 H     1 <1>   0.0800 
 28 H        5.0820    -2.8310     0.8410 H     1 <1>   0.0800 
 29 H       -0.8290    -4.6860     0.7810 H     1 <1>   0.0800 
 30 H       -0.4070    -6.9810     0.1020 H     1 <1>   0.0800 
 31 H       -1.6840    -6.9170    -1.0760 H     1 <1>   0.0800 
 32 H       -3.0230    -4.6040    -1.3140 H     1 <1>   0.0800 
 33 H       -2.5610    -3.3030    -0.2580 H     1 <1>   0.0800 
 34 H       -2.0260    -6.7130     1.9200 H     1 <1>   0.0800 
 35 H       -2.4520    -8.0750     0.9270 H     1 <1>   0.0800 
 36 H       -4.6030    -4.4480     0.5150 H     1 <1>   0.0800 
 37 H       -3.3240    -4.5470     1.6930 H     1 <1>   0.0800 
 38 H       -4.8180    -9.0030     1.2980 H     1 <1>   0.1000 
 39 H       -3.6950   -10.1740    -0.6490 H     1 <1>   0.1000 
 40 H       -3.7820    -8.6690    -1.6170 H     1 <1>   0.1000 
 41 H       -6.2990    -8.6450    -1.3730 H     1 <1>   0.1000 
 42 H       -6.2230   -10.1530    -0.4110 H     1 <1>   0.1000 
@<TRIPOS>BOND
  1   1   2  1   
  2   2   3  ar  
  3   2   4  ar  
  4   3   5  ar  
  5   3   6  1   
  6   4   7  ar  
  7   4  22  1   
  8   5   8  ar  
  9   6   9  1   
 10   6  23  1   
 11   7   8  ar  
 12   8  10  1   
 13   9  11  1   
 14   9  24  1   
 15   9  25  1   
 16  10  26  1   
 17  10  27  1   
 18  10  28  1   
 19  11  12  1   
 20  11  13  1   
 21  11  29  1   
 22  12  14  1   
 23  12  30  1   
 24  12  31  1   
 25  13  15  1   
 26  13  32  1   
 27  13  33  1   
 28  14  16  1   
 29  14  34  1   
 30  14  35  1   
 31  15  16  1   
 32  15  36  1   
 33  15  37  1   
 34  16  17  am  
 35  17  18  2   
 36  17  19  1   
 37  19  20  1   
 38  19  21  1   
 39  19  38  1   
 40  20  21  1   
 41  20  39  1   
 42  20  40  1   
 43  21  41  1   
 44  21  42  1   
@<TRIPOS>SUBSTRUCTURE
  1 ****  11 GROUP 4 **** **** 0

# MOE 2024.06 (io_trps.svl 2023.06)
