@<TRIPOS>MOLECULE
NONAME
47 50 1 0 0 
SMALL
USER_CHARGES


@<TRIPOS>ATOM
  1 S       -1.0080     0.6450     0.4630 S.3   1 <1>  -0.0800 
  2 C       -1.1850    -1.0240     0.8840 C.2   1 <1>   0.4620 
  3 C        0.7100     0.3860     0.3400 C.2   1 <1>   0.3250 
  4 N       -0.0510    -1.6330     0.9070 N.2   1 <1>  -0.3380 
  5 N       -2.4290    -1.5620     1.1320 N.pl3 1 <1>  -0.8220 
  6 N        1.0080    -0.8400     0.6000 N.2   1 <1>  -0.3380 
  7 C        1.5870     1.4780    -0.0190 C.ar  1 <1>   0.0530 
  8 C       -2.5590    -2.9890     1.5430 C.3   1 <1>   0.2090 
  9 C       -3.7160    -0.9690     0.6650 C.3   1 <1>   0.2090 
 10 C        2.9590     1.2510    -0.1630 C.ar  1 <1>  -0.1500 
 11 C        1.1380     2.7850    -0.2380 C.ar  1 <1>  -0.1500 
 12 C       -2.9900    -3.8070     0.3030 C.3   1 <1>   0.4230 
 13 C       -4.2240    -1.7890    -0.5330 C.3   1 <1>  -0.1600 
 14 C        3.8340     2.2630    -0.5070 C.ar  1 <1>  -0.1500 
 15 C        2.0090     3.8020    -0.5830 C.ar  1 <1>  -0.1500 
 16 N       -3.0280    -5.2990     0.4880 N.4   1 <1>  -0.9590 
 17 C       -4.3620    -3.3080    -0.2120 C.3   1 <1>  -0.1060 
 18 C        3.3600     3.5450    -0.7190 C.ar  1 <1>  -0.1500 
 19 C       -3.3550    -6.0580    -0.7560 C.3   1 <1>   0.3430 
 20 C       -1.8880    -5.8870     1.2410 C.3   1 <1>   0.2630 
 21 C       -5.3940    -3.5440     0.9060 C.2   1 <1>   0.9060 
 22 C       -4.7970    -4.0820    -1.4910 C.3   1 <1>  -0.1600 
 23 C       -3.7730    -5.1470    -1.9190 C.3   1 <1>  -0.1600 
 24 O       -5.3280    -4.6000     1.5550 O.co2 1 <1>  -0.9000 
 25 O       -6.2450    -2.6900     1.1480 O.co2 1 <1>  -0.9000 
 26 H       -1.6150    -3.3400     1.9160 H     1 <1>   0.0800 
 27 H       -3.2850    -3.0690     2.3340 H     1 <1>   0.0800 
 28 H       -4.4340    -0.9940     1.4690 H     1 <1>   0.0800 
 29 H       -3.5940     0.0590     0.3750 H     1 <1>   0.0800 
 30 H        3.3460     0.2590    -0.0020 H     1 <1>   0.1500 
 31 H        0.0960     3.0260    -0.1410 H     1 <1>   0.1500 
 32 H       -2.2570    -3.5940    -0.4550 H     1 <1>   0.0800 
 33 H       -5.1830    -1.3970    -0.8280 H     1 <1>   0.0800 
 34 H       -3.5480    -1.6430    -1.3570 H     1 <1>   0.0800 
 35 H        4.8850     2.0550    -0.6110 H     1 <1>   0.1500 
 36 H        1.6360     4.7990    -0.7470 H     1 <1>   0.1500 
 37 H       -3.8980    -5.3810     1.0830 H     1 <1>   0.4500 
 38 H        4.0390     4.3360    -0.9880 H     1 <1>   0.1500 
 39 H       -2.5040    -6.6440    -1.0620 H     1 <1>   0.0800 
 40 H       -4.1650    -6.7360    -0.5380 H     1 <1>   0.0800 
 41 H       -0.9650    -5.7210     0.7090 H     1 <1>   0.0800 
 42 H       -2.0360    -6.9470     1.3670 H     1 <1>   0.0800 
 43 H       -1.8150    -5.4380     2.2180 H     1 <1>   0.0800 
 44 H       -5.7400    -4.5700    -1.3030 H     1 <1>   0.0800 
 45 H       -4.9650    -3.4040    -2.3100 H     1 <1>   0.0800 
 46 H       -2.8990    -4.6680    -2.3250 H     1 <1>   0.0800 
 47 H       -4.1940    -5.7520    -2.7030 H     1 <1>   0.0800 
@<TRIPOS>BOND
  1   1   2  1   
  2   1   3  1   
  3   2   4  2   
  4   2   5  1   
  5   3   6  2   
  6   3   7  1   
  7   4   6  1   
  8   5   8  1   
  9   5   9  1   
 10   7  10  ar  
 11   7  11  ar  
 12   8  12  1   
 13   8  26  1   
 14   8  27  1   
 15   9  13  1   
 16   9  28  1   
 17   9  29  1   
 18  10  14  ar  
 19  10  30  1   
 20  11  15  ar  
 21  11  31  1   
 22  12  16  1   
 23  12  17  1   
 24  12  32  1   
 25  13  17  1   
 26  13  33  1   
 27  13  34  1   
 28  14  18  ar  
 29  14  35  1   
 30  15  18  ar  
 31  15  36  1   
 32  16  19  1   
 33  16  20  1   
 34  16  37  1   
 35  17  21  1   
 36  17  22  1   
 37  18  38  1   
 38  19  23  1   
 39  19  39  1   
 40  19  40  1   
 41  20  41  1   
 42  20  42  1   
 43  20  43  1   
 44  21  24  ar  
 45  21  25  ar  
 46  22  23  1   
 47  22  44  1   
 48  22  45  1   
 49  23  46  1   
 50  23  47  1   
@<TRIPOS>SUBSTRUCTURE
  1 ****   2 GROUP 4 **** **** 0

# MOE 2024.06 (io_trps.svl 2023.06)
