@<TRIPOS>MOLECULE
NONAME
45 47 1 0 0 
SMALL
USER_CHARGES


@<TRIPOS>ATOM
  1 O        2.3140    -1.2060    -2.9090 O.2   1 <1>  -0.5700 
  2 C        2.0000    -1.5350    -1.7760 C.2   1 <1>   0.5440 
  3 N        1.7560    -0.5150    -0.8740 N.am  1 <1>  -0.6600 
  4 C        1.9300    -2.9610    -1.4470 C.ar  1 <1>   0.3960 
  5 C        1.8120     0.9150    -1.2500 C.3   1 <1>   0.1400 
  6 C        1.4960    -0.6690     0.5750 C.3   1 <1>   0.1400 
  7 N        1.0950    -3.4160    -0.4960 N.ar  1 <1>  -0.6200 
  8 C        2.7560    -3.8340    -2.1640 C.ar  1 <1>   0.1600 
  9 C        1.3510     1.6680    -0.0060 C.3   1 <1>  -0.1600 
 10 C        1.6730     0.7290     1.1540 C.3   1 <1>  -0.1600 
 11 C        1.1390    -4.7200    -0.3310 C.ar  1 <1>   0.4100 
 12 N        2.8290    -5.1480    -1.9960 N.ar  1 <1>  -0.6200 
 13 N        0.2700    -5.1660     0.6300 N.pl3 1 <1>  -0.8690 
 14 C        2.0000    -5.5560    -1.0580 C.ar  1 <1>   0.1600 
 15 C       -0.8040    -6.1660     0.3880 C.3   1 <1>   0.2890 
 16 C       -0.3460    -7.5530     0.8540 C.3   1 <1>   0.0210 
 17 C       -1.2670    -6.1390    -1.0730 C.3   1 <1>  -0.2400 
 18 C       -1.4830    -8.5540     0.7930 C.2   1 <1>   0.1080 
 19 N       -2.6180    -8.3620     1.3900 N.2   1 <1>  -0.7070 
 20 C       -1.4470    -9.7630     0.1060 C.2   1 <1>  -0.1500 
 21 N       -3.3450    -9.4580     1.0990 N.pl3 1 <1>   0.3000 
 22 C       -2.6580   -10.3210     0.3210 C.2   1 <1>  -0.3320 
 23 C       -3.2080   -11.6460    -0.1730 C.3   1 <1>  -0.0600 
 24 H        1.1750     1.1130    -2.0960 H     1 <1>   0.0800 
 25 H        2.8280     1.1730    -1.4970 H     1 <1>   0.0800 
 26 H        2.1780    -1.3720     1.0220 H     1 <1>   0.0800 
 27 H        0.4830    -1.0070     0.7150 H     1 <1>   0.0800 
 28 H        3.3970    -3.4130    -2.9190 H     1 <1>   0.1500 
 29 H        0.2880     1.8220    -0.0670 H     1 <1>   0.0800 
 30 H        1.8400     2.6210     0.0870 H     1 <1>   0.0800 
 31 H        2.7000     0.8560     1.4520 H     1 <1>   0.0800 
 32 H        1.0370     0.8940     2.0050 H     1 <1>   0.0800 
 33 H       -0.1200    -4.3560     1.1200 H     1 <1>   0.4000 
 34 H        1.9840    -6.6050    -0.8340 H     1 <1>   0.1500 
 35 H       -1.6460    -5.8840     0.9990 H     1 <1>   0.0800 
 36 H       -0.0130    -7.4890     1.8730 H     1 <1>   0.0800 
 37 H        0.4660    -7.9010     0.2460 H     1 <1>   0.0800 
 38 H       -0.5120    -6.5260    -1.7320 H     1 <1>   0.0800 
 39 H       -1.5190    -5.1350    -1.3630 H     1 <1>   0.0800 
 40 H       -2.1470    -6.7460    -1.1830 H     1 <1>   0.0800 
 41 H       -0.6210   -10.1480    -0.4640 H     1 <1>   0.1500 
 42 H       -4.3020    -9.5860     1.4470 H     1 <1>   0.2700 
 43 H       -2.4730   -12.1500    -0.7750 H     1 <1>   0.0800 
 44 H       -4.0880   -11.4850    -0.7710 H     1 <1>   0.0800 
 45 H       -3.4600   -12.2790     0.6600 H     1 <1>   0.0800 
@<TRIPOS>BOND
  1   1   2  2   
  2   2   3  am  
  3   2   4  1   
  4   3   5  1   
  5   3   6  1   
  6   4   7  ar  
  7   4   8  ar  
  8   5   9  1   
  9   5  24  1   
 10   5  25  1   
 11   6  10  1   
 12   6  26  1   
 13   6  27  1   
 14   7  11  ar  
 15   8  12  ar  
 16   8  28  1   
 17   9  10  1   
 18   9  29  1   
 19   9  30  1   
 20  10  31  1   
 21  10  32  1   
 22  11  13  1   
 23  11  14  ar  
 24  12  14  ar  
 25  13  15  1   
 26  13  33  1   
 27  14  34  1   
 28  15  16  1   
 29  15  17  1   
 30  15  35  1   
 31  16  18  1   
 32  16  36  1   
 33  16  37  1   
 34  17  38  1   
 35  17  39  1   
 36  17  40  1   
 37  18  19  2   
 38  18  20  1   
 39  19  21  1   
 40  20  22  2   
 41  20  41  1   
 42  21  22  1   
 43  21  42  1   
 44  22  23  1   
 45  23  43  1   
 46  23  44  1   
 47  23  45  1   
@<TRIPOS>SUBSTRUCTURE
  1 ****  11 GROUP 4 **** **** 0

# MOE 2024.06 (io_trps.svl 2023.06)
