@<TRIPOS>MOLECULE
NONAME
46 47 1 0 0 
SMALL
USER_CHARGES


@<TRIPOS>ATOM
  1 S        0.2180     0.9500    -1.1190 S.o2  1 <1>   1.3330 
  2 O        0.2600    -0.4620    -1.4240 O.2   1 <1>  -0.6500 
  3 O        0.1670     1.8930    -2.2130 O.2   1 <1>  -0.6500 
  4 N        1.5990     1.2920    -0.1880 N.am  1 <1>  -0.8490 
  5 C       -1.1910     1.2360    -0.0290 C.3   1 <1>  -0.0550 
  6 C        2.0080     0.1780     0.6740 C.3   1 <1>   0.1160 
  7 C        2.7330     1.7130    -1.0180 C.3   1 <1>   0.1160 
  8 C       -1.4450     2.6500     0.5500 C.3   1 <1>  -0.0800 
  9 C       -1.4600     3.7730    -0.4900 C.3   1 <1>   0.2000 
 10 C       -0.4140     3.0990     1.6010 C.3   1 <1>   0.1100 
 11 O       -2.4290     4.6800    -0.1030 O.3   1 <1>  -0.6800 
 12 C       -0.1110     4.4550    -0.2950 C.3   1 <1>   0.1100 
 13 N        0.1180     4.3930     1.1550 N.3   1 <1>  -0.8100 
 14 C        1.5290     4.5710     1.5260 C.3   1 <1>   0.2530 
 15 C        2.0130     5.9650     1.1540 C.ar  1 <1>  -0.1440 
 16 C        1.7160     7.0710     1.9340 C.ar  1 <1>   0.1900 
 17 C        2.7790     6.2050     0.0230 C.ar  1 <1>   0.1900 
 18 F        1.0170     6.9190     3.0290 F     1 <1>  -0.1900 
 19 C        2.1370     8.3490     1.6140 C.ar  1 <1>  -0.1500 
 20 F        3.1130     5.2050    -0.7500 F     1 <1>  -0.1900 
 21 C        3.2220     7.4660    -0.3350 C.ar  1 <1>  -0.1500 
 22 C        2.8950     8.5540     0.4710 C.ar  1 <1>   0.0820 
 23 O        3.2780     9.8280     0.2100 O.3   1 <1>  -0.3620 
 24 C        4.0230    10.1470    -0.9450 C.3   1 <1>   0.0400 
 25 H       -2.0710     0.9650    -0.5800 H     1 <1>   0.0800 
 26 H       -1.1280     0.5490     0.7910 H     1 <1>   0.0800 
 27 H        2.8260     0.4800     1.3060 H     1 <1>   0.0800 
 28 H        2.3200    -0.6650     0.0790 H     1 <1>   0.0800 
 29 H        1.1890    -0.1290     1.3010 H     1 <1>   0.0800 
 30 H        3.5860     1.9390    -0.4010 H     1 <1>   0.0800 
 31 H        2.4790     2.6000    -1.5730 H     1 <1>   0.0800 
 32 H        2.9960     0.9340    -1.7150 H     1 <1>   0.0800 
 33 H       -2.4080     2.6030     1.0300 H     1 <1>   0.0800 
 34 H       -1.6610     3.4630    -1.5010 H     1 <1>   0.0800 
 35 H        0.3740     2.3760     1.7050 H     1 <1>   0.0800 
 36 H       -0.8850     3.2250     2.5610 H     1 <1>   0.0800 
 37 H       -2.0770     5.1330     0.6930 H     1 <1>   0.4000 
 38 H       -0.1220     5.4700    -0.6540 H     1 <1>   0.0800 
 39 H        0.6550     3.9080    -0.8140 H     1 <1>   0.0800 
 40 H        1.6290     4.4400     2.5900 H     1 <1>   0.0800 
 41 H        2.1310     3.8190     1.0450 H     1 <1>   0.0800 
 42 H        1.8800     9.1780     2.2460 H     1 <1>   0.1500 
 43 H        3.8080     7.5720    -1.2270 H     1 <1>   0.1500 
 44 H        4.1940    11.2090    -0.9490 H     1 <1>   0.0800 
 45 H        3.4570     9.8650    -1.8150 H     1 <1>   0.0800 
 46 H        4.9640     9.6260    -0.9090 H     1 <1>   0.0800 
@<TRIPOS>BOND
  1   1   2  2   
  2   1   3  2   
  3   1   4  am  
  4   1   5  1   
  5   4   6  1   
  6   4   7  1   
  7   5   8  1   
  8   5  25  1   
  9   5  26  1   
 10   6  27  1   
 11   6  28  1   
 12   6  29  1   
 13   7  30  1   
 14   7  31  1   
 15   7  32  1   
 16   8   9  1   
 17   8  10  1   
 18   8  33  1   
 19   9  11  1   
 20   9  12  1   
 21   9  34  1   
 22  10  13  1   
 23  10  35  1   
 24  10  36  1   
 25  11  37  1   
 26  12  13  1   
 27  12  38  1   
 28  12  39  1   
 29  13  14  1   
 30  14  15  1   
 31  14  40  1   
 32  14  41  1   
 33  15  16  ar  
 34  15  17  ar  
 35  16  18  1   
 36  16  19  ar  
 37  17  20  1   
 38  17  21  ar  
 39  19  22  ar  
 40  19  42  1   
 41  21  22  ar  
 42  21  43  1   
 43  22  23  1   
 44  23  24  1   
 45  24  44  1   
 46  24  45  1   
 47  24  46  1   
@<TRIPOS>SUBSTRUCTURE
  1 ****  14 GROUP 4 **** **** 0

# MOE 2024.06 (io_trps.svl 2023.06)
