@<TRIPOS>MOLECULE
NONAME
51 54 1 0 0 
SMALL
USER_CHARGES


@<TRIPOS>ATOM
  1 O        0.0460     1.1070    -1.4210 O.2   1 <1>  -0.5700 
  2 C       -0.0350     2.2200    -0.9390 C.2   1 <1>   0.5440 
  3 N        1.1190     2.9310    -0.6860 N.am  1 <1>  -0.6600 
  4 C       -1.3310     2.7870    -0.6220 C.ar  1 <1>   0.0860 
  5 C        2.3870     2.6560    -1.4440 C.3   1 <1>   0.1400 
  6 C        1.1140     4.1590     0.1670 C.3   1 <1>   0.1400 
  7 C       -1.7210     4.0180    -1.1460 C.ar  1 <1>  -0.1500 
  8 C       -2.2130     2.1470     0.2470 C.ar  1 <1>  -0.1500 
  9 C        3.6530     2.8850    -0.5980 C.3   1 <1>   0.1400 
 10 C        2.4070     4.3050     0.9810 C.3   1 <1>   0.1400 
 11 C       -2.9080     4.6150    -0.7710 C.ar  1 <1>   0.0830 
 12 C       -3.4130     2.7290     0.6210 C.ar  1 <1>  -0.1500 
 13 N        3.5910     4.2120     0.0840 N.am  1 <1>  -0.6600 
 14 O       -3.2130     5.8170    -1.3110 O.3   1 <1>  -0.3630 
 15 C       -3.7700     3.9800     0.1260 C.ar  1 <1>   0.0830 
 16 C        4.4120     5.2480    -0.2880 C.2   1 <1>   0.5690 
 17 C       -2.9900     6.9530    -0.4980 C.3   1 <1>   0.3010 
 18 O       -4.9200     4.6150     0.4760 O.3   1 <1>  -0.3630 
 19 O        5.3680     5.0780    -1.0050 O.2   1 <1>  -0.5700 
 20 C        4.1190     6.6760     0.1580 C.3   1 <1>  -0.0990 
 21 C       -1.5320     7.3910    -0.5890 C.2   1 <1>   0.0460 
 22 C       -5.9430     3.9530     1.1860 C.3   1 <1>   0.0400 
 23 C        2.9170     7.2730    -0.6090 C.3   1 <1>  -0.1600 
 24 N       -1.0410     7.9500    -1.7000 N.2   1 <1>  -0.2270 
 25 C       -0.5610     7.3220     0.3370 C.2   1 <1>  -0.3020 
 26 C        1.8840     7.9690     0.3020 C.3   1 <1>   0.0960 
 27 N        0.1990     8.2270    -1.4920 N.2   1 <1>  -0.4180 
 28 N        0.5160     7.8500    -0.2520 N.pl3 1 <1>   0.3140 
 29 H        2.4230     3.3060    -2.3000 H     1 <1>   0.0800 
 30 H        2.3890     1.6420    -1.8060 H     1 <1>   0.0800 
 31 H        0.2880     4.1280     0.8540 H     1 <1>   0.0800 
 32 H        0.9830     5.0160    -0.4670 H     1 <1>   0.0800 
 33 H       -1.0840     4.5250    -1.8510 H     1 <1>   0.1500 
 34 H       -1.9400     1.1800     0.6340 H     1 <1>   0.1500 
 35 H        4.5200     2.8240    -1.2340 H     1 <1>   0.0800 
 36 H        3.7340     2.1070     0.1400 H     1 <1>   0.0800 
 37 H        2.4550     3.5120     1.7070 H     1 <1>   0.0800 
 38 H        2.3930     5.2320     1.5190 H     1 <1>   0.0800 
 39 H       -4.0510     2.1960     1.2990 H     1 <1>   0.1500 
 40 H       -3.2620     6.7160     0.5150 H     1 <1>   0.0800 
 41 H       -3.6280     7.7380    -0.8590 H     1 <1>   0.0800 
 42 H        4.9900     7.2750    -0.0390 H     1 <1>   0.0800 
 43 H        3.9720     6.6870     1.2200 H     1 <1>   0.0800 
 44 H       -6.7810     4.6230     1.2660 H     1 <1>   0.0800 
 45 H       -5.5830     3.7010     2.1670 H     1 <1>   0.0800 
 46 H       -6.2320     3.0720     0.6410 H     1 <1>   0.0800 
 47 H        2.4350     6.4910    -1.1680 H     1 <1>   0.0800 
 48 H        3.2780     7.9820    -1.3350 H     1 <1>   0.0800 
 49 H       -0.5780     6.9440     1.3410 H     1 <1>   0.1500 
 50 H        2.1240     9.0110     0.4050 H     1 <1>   0.0800 
 51 H        1.8790     7.5230     1.2780 H     1 <1>   0.0800 
@<TRIPOS>BOND
  1   1   2  2   
  2   2   3  am  
  3   2   4  1   
  4   3   5  1   
  5   3   6  1   
  6   4   7  ar  
  7   4   8  ar  
  8   5   9  1   
  9   5  29  1   
 10   5  30  1   
 11   6  10  1   
 12   6  31  1   
 13   6  32  1   
 14   7  11  ar  
 15   7  33  1   
 16   8  12  ar  
 17   8  34  1   
 18   9  13  1   
 19   9  35  1   
 20   9  36  1   
 21  10  13  1   
 22  10  37  1   
 23  10  38  1   
 24  11  14  1   
 25  11  15  ar  
 26  12  15  ar  
 27  12  39  1   
 28  13  16  am  
 29  14  17  1   
 30  15  18  1   
 31  16  19  2   
 32  16  20  1   
 33  17  21  1   
 34  17  40  1   
 35  17  41  1   
 36  18  22  1   
 37  20  23  1   
 38  20  42  1   
 39  20  43  1   
 40  21  24  1   
 41  21  25  2   
 42  22  44  1   
 43  22  45  1   
 44  22  46  1   
 45  23  26  1   
 46  23  47  1   
 47  23  48  1   
 48  24  27  2   
 49  25  28  1   
 50  25  49  1   
 51  26  28  1   
 52  26  50  1   
 53  26  51  1   
 54  27  28  1   
@<TRIPOS>SUBSTRUCTURE
  1 ****   6 GROUP 4 **** **** 0

# MOE 2024.06 (io_trps.svl 2023.06)
