@<TRIPOS>MOLECULE
NONAME
48 49 1 0 0 
SMALL
USER_CHARGES


@<TRIPOS>ATOM
  1 O        0.6070    -0.0150     0.4690 O.3   1 <1>  -0.3630 
  2 C        0.4590    -1.3440     0.2440 C.ar  1 <1>   0.0830 
  3 C        1.8900     0.5720     0.5780 C.3   1 <1>   0.1200 
  4 C       -0.8350    -1.8310     0.1930 C.ar  1 <1>  -0.1500 
  5 C        1.5180    -2.2260     0.0650 C.ar  1 <1>  -0.1500 
  6 C        1.7350     2.0760     0.8250 C.3   1 <1>   0.2000 
  7 C       -1.0760    -3.1750    -0.0320 C.ar  1 <1>  -0.1500 
  8 C        1.2700    -3.5690    -0.1600 C.ar  1 <1>  -0.1500 
  9 O        0.9210     2.6110    -0.1700 O.3   1 <1>  -0.6800 
 10 C        3.0920     2.8030     0.8460 C.3   1 <1>   0.2090 
 11 C       -0.0270    -4.0730    -0.2130 C.ar  1 <1>  -0.1430 
 12 N        2.9030     4.2660     0.9660 N.pl3 1 <1>  -0.8690 
 13 C       -0.2450    -5.5810    -0.4680 C.3   1 <1>   0.1440 
 14 C        3.9110     5.1530     0.7510 C.ar  1 <1>   0.4100 
 15 C       -1.7300    -5.9820    -0.4990 C.3   1 <1>  -0.2400 
 16 C        0.4300    -6.3930     0.6480 C.3   1 <1>  -0.2400 
 17 C        0.3670    -5.9680    -1.8220 C.3   1 <1>  -0.2400 
 18 N        3.6080     6.1680    -0.0210 N.ar  1 <1>  -0.6200 
 19 C        5.1710     5.0130     1.2980 C.ar  1 <1>  -0.1500 
 20 C        4.5810     7.0300    -0.2420 C.ar  1 <1>   0.4770 
 21 C        6.1000     5.9700     0.9990 C.ar  1 <1>   0.1600 
 22 N        5.8200     6.9960     0.2190 N.ar  1 <1>  -0.6200 
 23 C        4.2390     8.2030    -1.1290 C.3   1 <1>  -0.0970 
 24 H        2.4250     0.3980    -0.3390 H     1 <1>   0.0800 
 25 H        2.4060     0.1070     1.4000 H     1 <1>   0.0800 
 26 H       -1.6560    -1.1520     0.3310 H     1 <1>   0.1500 
 27 H        2.5370    -1.8940     0.0940 H     1 <1>   0.1500 
 28 H        1.2420     2.2290     1.7700 H     1 <1>   0.0800 
 29 H       -2.1000    -3.4940    -0.0610 H     1 <1>   0.1500 
 30 H        2.1090    -4.2260    -0.2950 H     1 <1>   0.1500 
 31 H        0.1480     2.0190    -0.2870 H     1 <1>   0.4000 
 32 H        3.6290     2.5890    -0.0630 H     1 <1>   0.0800 
 33 H        3.6750     2.4510     1.6790 H     1 <1>   0.0800 
 34 H        2.0500     4.5450     0.4620 H     1 <1>   0.4000 
 35 H       -2.2020    -5.7570     0.4410 H     1 <1>   0.0800 
 36 H       -1.8340    -7.0370    -0.6790 H     1 <1>   0.0800 
 37 H       -2.2450    -5.4590    -1.2850 H     1 <1>   0.0800 
 38 H        0.0320    -6.1040     1.6040 H     1 <1>   0.0800 
 39 H        1.4910    -6.2290     0.6610 H     1 <1>   0.0800 
 40 H        0.2570    -7.4460     0.5100 H     1 <1>   0.0800 
 41 H       -0.0750    -5.3780    -2.6060 H     1 <1>   0.0800 
 42 H        0.1920    -7.0080    -2.0360 H     1 <1>   0.0800 
 43 H        1.4280    -5.8000    -1.8320 H     1 <1>   0.0800 
 44 H        5.3980     4.1860     1.9380 H     1 <1>   0.1500 
 45 H        7.0960     5.9070     1.4030 H     1 <1>   0.1500 
 46 H        3.4130     7.9570    -1.7690 H     1 <1>   0.0800 
 47 H        5.0860     8.4630    -1.7360 H     1 <1>   0.0800 
 48 H        3.9720     9.0430    -0.5150 H     1 <1>   0.0800 
@<TRIPOS>BOND
  1   1   2  1   
  2   1   3  1   
  3   2   4  ar  
  4   2   5  ar  
  5   3   6  1   
  6   3  24  1   
  7   3  25  1   
  8   4   7  ar  
  9   4  26  1   
 10   5   8  ar  
 11   5  27  1   
 12   6   9  1   
 13   6  10  1   
 14   6  28  1   
 15   7  11  ar  
 16   7  29  1   
 17   8  11  ar  
 18   8  30  1   
 19   9  31  1   
 20  10  12  1   
 21  10  32  1   
 22  10  33  1   
 23  11  13  1   
 24  12  14  1   
 25  12  34  1   
 26  13  15  1   
 27  13  16  1   
 28  13  17  1   
 29  14  18  ar  
 30  14  19  ar  
 31  15  35  1   
 32  15  36  1   
 33  15  37  1   
 34  16  38  1   
 35  16  39  1   
 36  16  40  1   
 37  17  41  1   
 38  17  42  1   
 39  17  43  1   
 40  18  20  ar  
 41  19  21  ar  
 42  19  44  1   
 43  20  22  ar  
 44  20  23  1   
 45  21  22  ar  
 46  21  45  1   
 47  23  46  1   
 48  23  47  1   
 49  23  48  1   
@<TRIPOS>SUBSTRUCTURE
  1 ****   3 GROUP 4 **** **** 0

# MOE 2024.06 (io_trps.svl 2023.06)
