@<TRIPOS>MOLECULE
NONAME
45 46 1 0 0 
SMALL
USER_CHARGES


@<TRIPOS>ATOM
  1 S       -0.1860     0.1440    -0.0140 S.o2  1 <1>   1.3330 
  2 O       -0.3550    -0.4170     1.3080 O.2   1 <1>  -0.6500 
  3 O       -0.7950     1.4150    -0.3320 O.2   1 <1>  -0.6500 
  4 N       -0.7300    -1.0060    -1.1380 N.am  1 <1>  -0.8490 
  5 C        1.5600     0.2730    -0.4020 C.3   1 <1>  -0.0550 
  6 C       -2.1310    -0.7950    -1.5160 C.3   1 <1>   0.1160 
  7 C       -0.5350    -2.3910    -0.6960 C.3   1 <1>   0.1160 
  8 C        2.3010     1.3270     0.4460 C.3   1 <1>  -0.0800 
  9 C        3.6990     1.5800    -0.0910 C.3   1 <1>   0.2200 
 10 C        2.5930     0.8210     1.8630 C.3   1 <1>   0.1200 
 11 N        4.1580     2.9120     0.3630 N.am  1 <1>  -0.7300 
 12 C        4.5060     0.4940     0.6110 C.3   1 <1>   0.1200 
 13 O        3.8790     0.2730     1.8400 O.3   1 <1>  -0.5600 
 14 C        4.4680     3.9630    -0.4490 C.2   1 <1>   0.5440 
 15 O        4.3390     3.8330    -1.6510 O.2   1 <1>  -0.5700 
 16 C        4.9240     5.2110     0.1190 C.ar  1 <1>   0.0860 
 17 C        6.1310     5.8110    -0.2620 C.ar  1 <1>   0.0820 
 18 C        4.1570     5.8620     1.0870 C.ar  1 <1>  -0.1500 
 19 O        6.9450     5.2330    -1.1670 O.3   1 <1>  -0.3630 
 20 C        6.5500     7.0000     0.3160 C.ar  1 <1>  -0.1500 
 21 C        4.5710     7.0510     1.6580 C.ar  1 <1>  -0.1500 
 22 C        6.6710     5.4760    -2.5310 C.3   1 <1>   0.8800 
 23 C        5.7720     7.6220     1.2720 C.ar  1 <1>  -0.1500 
 24 F        7.4920     4.7210    -3.2490 F     1 <1>  -0.3400 
 25 F        7.0080     6.7320    -2.8070 F     1 <1>  -0.3400 
 26 H        2.0280    -0.6850    -0.2770 H     1 <1>   0.0800 
 27 H        1.6450     0.5460    -1.4360 H     1 <1>   0.0800 
 28 H       -2.4370    -1.5300    -2.2410 H     1 <1>   0.0800 
 29 H       -2.2510     0.1800    -1.9570 H     1 <1>   0.0800 
 30 H       -2.7670    -0.8640    -0.6490 H     1 <1>   0.0800 
 31 H       -0.8090    -3.0730    -1.4830 H     1 <1>   0.0800 
 32 H       -1.1380    -2.5970     0.1730 H     1 <1>   0.0800 
 33 H        0.4980    -2.5600    -0.4450 H     1 <1>   0.0800 
 34 H        1.7210     2.2340     0.4600 H     1 <1>   0.0800 
 35 H        3.7650     1.5020    -1.1640 H     1 <1>   0.0800 
 36 H        1.9030     0.0700     2.2060 H     1 <1>   0.0800 
 37 H        2.6020     1.6380     2.5630 H     1 <1>   0.0800 
 38 H        4.3580     2.9700     1.3650 H     1 <1>   0.3700 
 39 H        5.5310     0.7780     0.7730 H     1 <1>   0.0800 
 40 H        4.4680    -0.4270     0.0560 H     1 <1>   0.0800 
 41 H        3.2190     5.4290     1.3910 H     1 <1>   0.1500 
 42 H        7.4870     7.4340     0.0130 H     1 <1>   0.1500 
 43 H        3.9620     7.5370     2.4020 H     1 <1>   0.1500 
 44 H        5.6510     5.2930    -2.8140 H     1 <1>   0.0800 
 45 H        6.0980     8.5480     1.7170 H     1 <1>   0.1500 
@<TRIPOS>BOND
  1   1   2  2   
  2   1   3  2   
  3   1   4  am  
  4   1   5  1   
  5   4   6  1   
  6   4   7  1   
  7   5   8  1   
  8   5  26  1   
  9   5  27  1   
 10   6  28  1   
 11   6  29  1   
 12   6  30  1   
 13   7  31  1   
 14   7  32  1   
 15   7  33  1   
 16   8   9  1   
 17   8  10  1   
 18   8  34  1   
 19   9  11  1   
 20   9  12  1   
 21   9  35  1   
 22  10  13  1   
 23  10  36  1   
 24  10  37  1   
 25  11  14  am  
 26  11  38  1   
 27  12  13  1   
 28  12  39  1   
 29  12  40  1   
 30  14  15  2   
 31  14  16  1   
 32  16  17  ar  
 33  16  18  ar  
 34  17  19  1   
 35  17  20  ar  
 36  18  21  ar  
 37  18  41  1   
 38  19  22  1   
 39  20  23  ar  
 40  20  42  1   
 41  21  23  ar  
 42  21  43  1   
 43  22  24  1   
 44  22  25  1   
 45  22  44  1   
 46  23  45  1   
@<TRIPOS>SUBSTRUCTURE
  1 ****  11 GROUP 4 **** **** 0

# MOE 2024.06 (io_trps.svl 2023.06)
