@<TRIPOS>MOLECULE
NONAME
45 47 1 0 0 
SMALL
USER_CHARGES


@<TRIPOS>ATOM
  1 O       -4.7620    -0.4970     1.8700 O.2   1 <1>  -0.5700 
  2 C       -3.7940     0.1720     1.5680 C.2   1 <1>   0.6900 
  3 N       -2.7190    -0.3570     0.8650 N.am  1 <1>  -0.4690 
  4 N       -3.7590     1.4850     1.9160 N.am  1 <1>  -0.4900 
  5 C       -1.6420     0.4480     0.5140 C.2   1 <1>  -0.0410 
  6 C       -2.7200    -1.7980     0.5030 C.3   1 <1>   0.1400 
  7 C       -2.7250     2.3090     1.5980 C.2   1 <1>   0.6160 
  8 C       -1.6360     1.7540     0.8680 C.2   1 <1>  -0.1360 
  9 C       -3.5150    -2.0200    -0.7820 C.3   1 <1>  -0.0990 
 10 O       -2.7730     3.4710     1.9440 O.2   1 <1>  -0.5700 
 11 C       -3.7990    -3.4960    -0.9410 C.2   1 <1>   0.5690 
 12 O       -3.0080    -4.1540    -1.5720 O.2   1 <1>  -0.5700 
 13 N       -4.9020    -4.0560    -0.3590 N.am  1 <1>  -0.6600 
 14 C       -5.9390    -3.3560     0.4470 C.3   1 <1>   0.1400 
 15 C       -5.1840    -5.5080    -0.4290 C.3   1 <1>   0.1400 
 16 C       -6.9690    -4.4350     0.7820 C.3   1 <1>   0.2000 
 17 C       -6.2260    -5.7650     0.6600 C.3   1 <1>  -0.0800 
 18 O       -7.4720    -4.2840     2.0640 O.3   1 <1>  -0.6800 
 19 C       -7.1620    -6.9450     0.3570 C.3   1 <1>  -0.0160 
 20 C       -6.3850    -8.2470     0.2440 C.ar  1 <1>  -0.1440 
 21 C       -5.9930    -8.7670    -0.9730 C.ar  1 <1>  -0.1500 
 22 C       -6.0310    -8.9770     1.3600 C.ar  1 <1>  -0.1500 
 23 C       -5.2830    -9.9560    -1.0130 C.ar  1 <1>   0.1600 
 24 C       -5.3200   -10.1560     1.2110 C.ar  1 <1>   0.1600 
 25 N       -4.9370   -10.6630     0.0510 N.ar  1 <1>  -0.6200 
 26 H       -4.5420     1.8690     2.4320 H     1 <1>   0.3700 
 27 H       -0.8340    -0.0060    -0.0390 H     1 <1>   0.1500 
 28 H       -1.7100    -2.1490     0.3740 H     1 <1>   0.0800 
 29 H       -3.1600    -2.3610     1.3100 H     1 <1>   0.0800 
 30 H       -0.8330     2.4230     0.6250 H     1 <1>   0.1500 
 31 H       -2.9420    -1.6810    -1.6250 H     1 <1>   0.0800 
 32 H       -4.4380    -1.4740    -0.7600 H     1 <1>   0.0800 
 33 H       -5.4910    -2.9620     1.3430 H     1 <1>   0.0800 
 34 H       -6.3930    -2.5640    -0.1210 H     1 <1>   0.0800 
 35 H       -5.5790    -5.7370    -1.4040 H     1 <1>   0.0800 
 36 H       -4.2890    -6.0850    -0.2630 H     1 <1>   0.0800 
 37 H       -7.7910    -4.3820     0.0880 H     1 <1>   0.0800 
 38 H       -5.6910    -5.9590     1.5730 H     1 <1>   0.0800 
 39 H       -6.7450    -4.2350     2.7140 H     1 <1>   0.4000 
 40 H       -7.7000    -6.7630    -0.5570 H     1 <1>   0.0800 
 41 H       -7.8890    -7.0330     1.1470 H     1 <1>   0.0800 
 42 H       -6.2300    -8.2620    -1.8920 H     1 <1>   0.1500 
 43 H       -6.3000    -8.6390     2.3440 H     1 <1>   0.1500 
 44 H       -4.9840   -10.3460    -1.9710 H     1 <1>   0.1500 
 45 H       -5.0530   -10.7120     2.0930 H     1 <1>   0.1500 
@<TRIPOS>BOND
  1   1   2  2   
  2   2   3  am  
  3   2   4  am  
  4   3   5  1   
  5   3   6  1   
  6   4   7  am  
  7   4  26  1   
  8   5   8  2   
  9   5  27  1   
 10   6   9  1   
 11   6  28  1   
 12   6  29  1   
 13   7   8  1   
 14   7  10  2   
 15   8  30  1   
 16   9  11  1   
 17   9  31  1   
 18   9  32  1   
 19  11  12  2   
 20  11  13  am  
 21  13  14  1   
 22  13  15  1   
 23  14  16  1   
 24  14  33  1   
 25  14  34  1   
 26  15  17  1   
 27  15  35  1   
 28  15  36  1   
 29  16  17  1   
 30  16  18  1   
 31  16  37  1   
 32  17  19  1   
 33  17  38  1   
 34  18  39  1   
 35  19  20  1   
 36  19  40  1   
 37  19  41  1   
 38  20  21  ar  
 39  20  22  ar  
 40  21  23  ar  
 41  21  42  1   
 42  22  24  ar  
 43  22  43  1   
 44  23  25  ar  
 45  23  44  1   
 46  24  25  ar  
 47  24  45  1   
@<TRIPOS>SUBSTRUCTURE
  1 ****  13 GROUP 4 **** **** 0

# MOE 2024.06 (io_trps.svl 2023.06)
