@<TRIPOS>MOLECULE
NONAME
49 50 1 0 0 
SMALL
USER_CHARGES


@<TRIPOS>ATOM
  1 O       -1.7270     0.8650    -1.8420 O.2   1 <1>  -0.5700 
  2 C       -2.3610     0.2910    -0.9900 C.2   1 <1>   0.5690 
  3 N       -2.7250     0.7720     0.2290 N.am  1 <1>  -0.6600 
  4 C       -2.8390    -1.1170    -1.1940 C.3   1 <1>  -0.0990 
  5 C       -2.3880     2.1170     0.7820 C.3   1 <1>   0.3000 
  6 C       -3.5190    -0.2240     0.9850 C.3   1 <1>   0.1400 
  7 C       -3.7740    -1.3720    -0.0010 C.3   1 <1>  -0.0800 
  8 C       -3.0130     3.1920    -0.1110 C.3   1 <1>  -0.2400 
  9 C       -0.8650     2.2740     0.8320 C.3   1 <1>  -0.2400 
 10 C       -2.9340     2.2930     2.2070 C.3   1 <1>  -0.2400 
 11 C       -3.5690    -2.7460     0.6530 C.3   1 <1>   0.2090 
 12 N       -3.7950    -3.8390    -0.3320 N.pl3 1 <1>  -0.8380 
 13 C       -5.0890    -3.9760    -0.8170 C.ar  1 <1>   0.4100 
 14 C       -3.1500    -5.1170     0.0640 C.3   1 <1>   0.1290 
 15 N       -6.0450    -4.1320     0.0870 N.ar  1 <1>  -0.6200 
 16 C       -5.3340    -3.9500    -2.1970 C.ar  1 <1>   0.1600 
 17 C       -7.2480    -4.2550    -0.4570 C.ar  1 <1>   0.4100 
 18 N       -6.5230    -4.0680    -2.7640 N.ar  1 <1>  -0.6200 
 19 N       -8.3170    -4.4430     0.4160 N.pl3 1 <1>  -0.8380 
 20 C       -7.4630    -4.2150    -1.8440 C.ar  1 <1>   0.1600 
 21 C       -8.9740    -5.7760     0.4060 C.3   1 <1>   0.1290 
 22 C       -8.2510    -3.8180     1.7660 C.3   1 <1>   0.1290 
 23 H       -1.9900    -1.7750    -1.1860 H     1 <1>   0.0800 
 24 H       -3.3600    -1.2080    -2.1280 H     1 <1>   0.0800 
 25 H       -4.4530     0.1990     1.3110 H     1 <1>   0.0800 
 26 H       -2.9500    -0.5580     1.8360 H     1 <1>   0.0800 
 27 H       -4.7960    -1.2900    -0.3290 H     1 <1>   0.0800 
 28 H       -2.5940     3.1590    -1.1000 H     1 <1>   0.0800 
 29 H       -2.8230     4.1700     0.2930 H     1 <1>   0.0800 
 30 H       -4.0760     3.0500    -0.1780 H     1 <1>   0.0800 
 31 H       -0.4440     2.2520    -0.1560 H     1 <1>   0.0800 
 32 H       -0.4280     1.4850     1.4160 H     1 <1>   0.0800 
 33 H       -0.6010     3.2160     1.2770 H     1 <1>   0.0800 
 34 H       -4.0060     2.2330     2.2180 H     1 <1>   0.0800 
 35 H       -2.6610     3.2620     2.5850 H     1 <1>   0.0800 
 36 H       -2.5190     1.5560     2.8700 H     1 <1>   0.0800 
 37 H       -4.2470    -2.8630     1.4820 H     1 <1>   0.0800 
 38 H       -2.5630    -2.8110     1.0320 H     1 <1>   0.0800 
 39 H       -2.0810    -5.0020     0.0740 H     1 <1>   0.0800 
 40 H       -3.4080    -5.8930    -0.6370 H     1 <1>   0.0800 
 41 H       -3.4900    -5.4110     1.0430 H     1 <1>   0.0800 
 42 H       -4.4850    -3.8220    -2.8410 H     1 <1>   0.1500 
 43 H       -8.4760    -4.3110    -2.1830 H     1 <1>   0.1500 
 44 H       -8.8690    -6.2420    -0.5590 H     1 <1>   0.0800 
 45 H      -10.0220    -5.6670     0.6250 H     1 <1>   0.0800 
 46 H       -8.5210    -6.4130     1.1460 H     1 <1>   0.0800 
 47 H       -7.8060    -2.8410     1.6940 H     1 <1>   0.0800 
 48 H       -7.6510    -4.4250     2.4220 H     1 <1>   0.0800 
 49 H       -9.2420    -3.7190     2.1740 H     1 <1>   0.0800 
@<TRIPOS>BOND
  1   1   2  2   
  2   2   3  am  
  3   2   4  1   
  4   3   5  1   
  5   3   6  1   
  6   4   7  1   
  7   4  23  1   
  8   4  24  1   
  9   5   8  1   
 10   5   9  1   
 11   5  10  1   
 12   6   7  1   
 13   6  25  1   
 14   6  26  1   
 15   7  11  1   
 16   7  27  1   
 17   8  28  1   
 18   8  29  1   
 19   8  30  1   
 20   9  31  1   
 21   9  32  1   
 22   9  33  1   
 23  10  34  1   
 24  10  35  1   
 25  10  36  1   
 26  11  12  1   
 27  11  37  1   
 28  11  38  1   
 29  12  13  1   
 30  12  14  1   
 31  13  15  ar  
 32  13  16  ar  
 33  14  39  1   
 34  14  40  1   
 35  14  41  1   
 36  15  17  ar  
 37  16  18  ar  
 38  16  42  1   
 39  17  19  1   
 40  17  20  ar  
 41  18  20  ar  
 42  19  21  1   
 43  19  22  1   
 44  20  43  1   
 45  21  44  1   
 46  21  45  1   
 47  21  46  1   
 48  22  47  1   
 49  22  48  1   
 50  22  49  1   
@<TRIPOS>SUBSTRUCTURE
  1 ****   7 GROUP 4 **** **** 0

# MOE 2024.06 (io_trps.svl 2023.06)
