@<TRIPOS>MOLECULE
NONAME
50 53 1 0 0 
SMALL
USER_CHARGES


@<TRIPOS>ATOM
  1 F       -0.3270    -0.1060     1.0640 F     1 <1>  -0.3400 
  2 C       -1.1100    -0.3950     0.0350 C.3   1 <1>   1.1640 
  3 F       -2.1880     0.3700     0.1530 F     1 <1>  -0.3400 
  4 F       -0.4740     0.0210    -1.0510 F     1 <1>  -0.3400 
  5 C       -1.4360    -1.9010    -0.0310 C.ar  1 <1>  -0.1440 
  6 C       -2.7040    -2.3930     0.1990 C.ar  1 <1>  -0.1500 
  7 C       -0.4120    -2.8110    -0.3230 C.ar  1 <1>  -0.1500 
  8 C       -3.0240    -3.7640     0.1120 C.ar  1 <1>   0.0000 
  9 C       -0.6650    -4.1590    -0.3430 C.ar  1 <1>  -0.1500 
 10 C       -1.9510    -4.6550    -0.0880 C.ar  1 <1>   0.3610 
 11 C       -4.3470    -4.2980     0.2760 C.ar  1 <1>   0.1000 
 12 N       -2.1670    -6.0080     0.0220 N.ar  1 <1>  -0.1790 
 13 N       -5.4790    -3.5450     0.2190 N.pl3 1 <1>  -0.8380 
 14 C       -4.4470    -5.6810     0.4560 C.ar  1 <1>  -0.1500 
 15 C       -3.3720    -6.5190     0.3230 C.ar  1 <1>   0.2180 
 16 C       -6.7010    -3.7930     1.0670 C.3   1 <1>   0.2090 
 17 C       -5.6620    -2.3850    -0.7060 C.3   1 <1>   0.2090 
 18 C       -3.5040    -8.0240     0.4900 C.3   1 <1>  -0.0970 
 19 C       -7.9840    -4.0310     0.2290 C.3   1 <1>   0.0000 
 20 C       -6.8810    -2.6090    -1.6000 C.3   1 <1>  -0.1600 
 21 C       -9.2430    -4.1150     1.1160 C.3   1 <1>   0.2000 
 22 C       -8.1550    -2.8670    -0.7810 C.3   1 <1>  -0.1600 
 23 C       -8.0070    -5.3940    -0.4950 C.3   1 <1>  -0.1600 
 24 O       -8.9950    -4.9020     2.2290 O.3   1 <1>  -0.6800 
 25 C      -10.2810    -4.8530     0.2720 C.3   1 <1>  -0.1600 
 26 C       -9.4880    -5.7500    -0.6910 C.3   1 <1>  -0.1600 
 27 H       -3.4920    -1.7120     0.4700 H     1 <1>   0.1500 
 28 H        0.5840    -2.4420    -0.5200 H     1 <1>   0.1500 
 29 H        0.1440    -4.8380    -0.5490 H     1 <1>   0.1500 
 30 H       -1.3650    -6.6290    -0.1000 H     1 <1>   0.4570 
 31 H       -5.4080    -6.1030     0.6690 H     1 <1>   0.1500 
 32 H       -6.5320    -4.6150     1.7380 H     1 <1>   0.0800 
 33 H       -6.8590    -2.9250     1.6850 H     1 <1>   0.0800 
 34 H       -5.7930    -1.4850    -0.1290 H     1 <1>   0.0800 
 35 H       -4.8000    -2.2670    -1.3390 H     1 <1>   0.0800 
 36 H       -4.5190    -8.2910     0.7270 H     1 <1>   0.0800 
 37 H       -2.8730    -8.3710     1.2890 H     1 <1>   0.0800 
 38 H       -3.2310    -8.5290    -0.4200 H     1 <1>   0.0800 
 39 H       -7.0270    -1.7380    -2.2140 H     1 <1>   0.0800 
 40 H       -6.6820    -3.4340    -2.2590 H     1 <1>   0.0800 
 41 H       -9.5840    -3.1530     1.4580 H     1 <1>   0.0800 
 42 H       -8.9700    -3.0600    -1.4560 H     1 <1>   0.0800 
 43 H       -8.3920    -1.9680    -0.2390 H     1 <1>   0.0800 
 44 H       -7.4690    -5.3870    -1.4250 H     1 <1>   0.0800 
 45 H       -7.5700    -6.1420     0.1400 H     1 <1>   0.0800 
 46 H       -8.9950    -5.8390     1.9570 H     1 <1>   0.4000 
 47 H      -10.9800    -5.4070     0.8750 H     1 <1>   0.0800 
 48 H      -10.8360    -4.1320    -0.3020 H     1 <1>   0.0800 
 49 H       -9.6590    -6.7920    -0.4810 H     1 <1>   0.0800 
 50 H       -9.7890    -5.5500    -1.7060 H     1 <1>   0.0800 
@<TRIPOS>BOND
  1   1   2  1   
  2   2   3  1   
  3   2   4  1   
  4   2   5  1   
  5   5   6  ar  
  6   5   7  ar  
  7   6   8  ar  
  8   6  27  1   
  9   7   9  ar  
 10   7  28  1   
 11   8  10  ar  
 12   8  11  ar  
 13   9  10  ar  
 14   9  29  1   
 15  10  12  ar  
 16  11  13  1   
 17  11  14  ar  
 18  12  15  ar  
 19  12  30  1   
 20  13  16  1   
 21  13  17  1   
 22  14  15  ar  
 23  14  31  1   
 24  15  18  1   
 25  16  19  1   
 26  16  32  1   
 27  16  33  1   
 28  17  20  1   
 29  17  34  1   
 30  17  35  1   
 31  18  36  1   
 32  18  37  1   
 33  18  38  1   
 34  19  21  1   
 35  19  22  1   
 36  19  23  1   
 37  20  22  1   
 38  20  39  1   
 39  20  40  1   
 40  21  24  1   
 41  21  25  1   
 42  21  41  1   
 43  22  42  1   
 44  22  43  1   
 45  23  26  1   
 46  23  44  1   
 47  23  45  1   
 48  24  46  1   
 49  25  26  1   
 50  25  47  1   
 51  25  48  1   
 52  26  49  1   
 53  26  50  1   
@<TRIPOS>SUBSTRUCTURE
  1 ****  11 GROUP 4 **** **** 0

# MOE 2024.06 (io_trps.svl 2023.06)
