@<TRIPOS>MOLECULE
NONAME
52 55 1 0 0 
SMALL
USER_CHARGES


@<TRIPOS>ATOM
  1 O       -1.6080    -0.3800    -1.0680 O.2   1 <1>  -0.5700 
  2 C       -1.8570    -1.5260    -0.8040 C.2   1 <1>   0.4230 
  3 C       -2.6630    -2.0310     0.2620 C.ar  1 <1>   0.0860 
  4 C       -1.3270    -2.6850    -1.6210 C.3   1 <1>  -0.0990 
  5 C       -2.7260    -3.4100     0.2200 C.ar  1 <1>  -0.1440 
  6 C       -3.3410    -1.3410     1.2590 C.ar  1 <1>  -0.1500 
  7 C       -1.9030    -3.9450    -0.9410 C.3   1 <1>  -0.0160 
  8 C       -3.4590    -4.1490     1.1460 C.ar  1 <1>   0.0860 
  9 C       -4.0700    -2.0450     2.1990 C.ar  1 <1>  -0.1500 
 10 C       -3.5440    -5.5970     1.0860 C.2   1 <1>   0.5440 
 11 C       -4.1240    -3.4290     2.1420 C.ar  1 <1>  -0.1500 
 12 O       -2.5260    -6.2600     1.0410 O.2   1 <1>  -0.5700 
 13 N       -4.7600    -6.2440     1.0600 N.am  1 <1>  -0.6600 
 14 C       -4.8770    -7.7310     1.1930 C.3   1 <1>   0.1400 
 15 C       -6.0260    -5.6120     0.5800 C.3   1 <1>   0.1400 
 16 C       -5.4690    -8.3570    -0.0830 C.3   1 <1>   0.3430 
 17 C       -6.5460    -6.3380    -0.6810 C.3   1 <1>   0.2000 
 18 O       -6.6690    -7.7100    -0.4270 O.3   1 <1>  -0.5600 
 19 C       -5.7320    -9.8460     0.1210 C.ar  1 <1>  -0.1430 
 20 C       -7.9100    -5.8210    -1.1950 C.3   1 <1>  -0.0800 
 21 C       -4.7430   -10.7660    -0.1990 C.ar  1 <1>  -0.1500 
 22 C       -6.9370   -10.3060     0.6360 C.ar  1 <1>  -0.1500 
 23 C       -7.8350    -4.3550    -1.6500 C.3   1 <1>  -0.2400 
 24 C       -9.0550    -5.9890    -0.1810 C.3   1 <1>  -0.2400 
 25 C       -4.9540   -12.1210    -0.0080 C.ar  1 <1>  -0.1500 
 26 C       -7.1500   -11.6600     0.8270 C.ar  1 <1>  -0.1500 
 27 C       -6.1580   -12.5690     0.5060 C.ar  1 <1>  -0.1500 
 28 H       -1.6670    -2.5990    -2.6370 H     1 <1>   0.0800 
 29 H       -0.2530    -2.6860    -1.5960 H     1 <1>   0.0800 
 30 H       -3.2870    -0.2650     1.2850 H     1 <1>   0.1500 
 31 H       -1.1110    -4.5790    -0.5790 H     1 <1>   0.0800 
 32 H       -2.5240    -4.5030    -1.6210 H     1 <1>   0.0800 
 33 H       -4.5930    -1.5160     2.9790 H     1 <1>   0.1500 
 34 H       -4.6890    -3.9700     2.8820 H     1 <1>   0.1500 
 35 H       -3.9170    -8.1760     1.3900 H     1 <1>   0.0800 
 36 H       -5.5180    -7.9630     2.0250 H     1 <1>   0.0800 
 37 H       -6.7610    -5.6690     1.3620 H     1 <1>   0.0800 
 38 H       -5.8650    -4.5760     0.3480 H     1 <1>   0.0800 
 39 H       -4.7800    -8.2270    -0.8980 H     1 <1>   0.0800 
 40 H       -5.8240    -6.2200    -1.4710 H     1 <1>   0.0800 
 41 H       -8.1530    -6.4110    -2.0630 H     1 <1>   0.0800 
 42 H       -3.8010   -10.4330    -0.5980 H     1 <1>   0.1500 
 43 H       -7.7160    -9.6070     0.8860 H     1 <1>   0.1500 
 44 H       -7.6660    -3.6950    -0.8170 H     1 <1>   0.0800 
 45 H       -8.7590    -4.0700    -2.1210 H     1 <1>   0.0800 
 46 H       -7.0410    -4.2240    -2.3640 H     1 <1>   0.0800 
 47 H       -8.9100    -5.3660     0.6830 H     1 <1>   0.0800 
 48 H       -9.1220    -7.0140     0.1390 H     1 <1>   0.0800 
 49 H       -9.9920    -5.7230    -0.6370 H     1 <1>   0.0800 
 50 H       -4.1820   -12.8260    -0.2590 H     1 <1>   0.1500 
 51 H       -8.0880   -12.0050     1.2250 H     1 <1>   0.1500 
 52 H       -6.3230   -13.6220     0.6540 H     1 <1>   0.1500 
@<TRIPOS>BOND
  1   1   2  2   
  2   2   3  1   
  3   2   4  1   
  4   3   5  ar  
  5   3   6  ar  
  6   4   7  1   
  7   4  28  1   
  8   4  29  1   
  9   5   7  1   
 10   5   8  ar  
 11   6   9  ar  
 12   6  30  1   
 13   7  31  1   
 14   7  32  1   
 15   8  10  1   
 16   8  11  ar  
 17   9  11  ar  
 18   9  33  1   
 19  10  12  2   
 20  10  13  am  
 21  11  34  1   
 22  13  14  1   
 23  13  15  1   
 24  14  16  1   
 25  14  35  1   
 26  14  36  1   
 27  15  17  1   
 28  15  37  1   
 29  15  38  1   
 30  16  18  1   
 31  16  19  1   
 32  16  39  1   
 33  17  18  1   
 34  17  20  1   
 35  17  40  1   
 36  19  21  ar  
 37  19  22  ar  
 38  20  23  1   
 39  20  24  1   
 40  20  41  1   
 41  21  25  ar  
 42  21  42  1   
 43  22  26  ar  
 44  22  43  1   
 45  23  44  1   
 46  23  45  1   
 47  23  46  1   
 48  24  47  1   
 49  24  48  1   
 50  24  49  1   
 51  25  27  ar  
 52  25  50  1   
 53  26  27  ar  
 54  26  51  1   
 55  27  52  1   
@<TRIPOS>SUBSTRUCTURE
  1 ****  13 GROUP 4 **** **** 0

# MOE 2024.06 (io_trps.svl 2023.06)
