@<TRIPOS>MOLECULE
NONAME
53 55 1 0 0 
SMALL
USER_CHARGES


@<TRIPOS>ATOM
  1 O        0.4470    -0.8760     0.1720 O.3   1 <1>  -0.5600 
  2 C       -0.1370    -2.1420     0.0070 C.3   1 <1>   0.2800 
  3 C       -0.1950     0.1050     0.9600 C.3   1 <1>   0.1200 
  4 C       -1.6090    -2.0340    -0.4800 C.3   1 <1>  -0.1600 
  5 C        0.0240    -2.9290     1.3240 C.3   1 <1>  -0.1600 
  6 C        0.7190    -2.8540    -1.0600 C.3   1 <1>  -0.1600 
  7 C       -1.7350     0.0750     0.9020 C.3   1 <1>   0.2000 
  8 C       -2.2320    -0.6320    -0.3780 C.3   1 <1>   0.2800 
  9 C        1.4780    -2.9890     1.8130 C.3   1 <1>   0.3430 
 10 C        2.0900    -3.3330    -0.5630 C.3   1 <1>   0.3430 
 11 O       -2.2100    -0.5810     2.0430 O.3   1 <1>  -0.6800 
 12 O       -1.8200     0.1070    -1.4700 O.3   1 <1>  -0.6800 
 13 C       -3.7610    -0.6890    -0.4790 C.3   1 <1>  -0.2400 
 14 N        2.4220    -2.6520     0.7140 N.4   1 <1>  -0.9590 
 15 C        3.8550    -2.7330     1.0980 C.3   1 <1>   0.4860 
 16 C        4.7010    -2.2050    -0.0470 C.ar  1 <1>  -0.1430 
 17 C        5.5490    -3.0370    -0.7720 C.ar  1 <1>  -0.1430 
 18 C        4.6040    -0.8600    -0.3810 C.ar  1 <1>  -0.1500 
 19 C        6.2760    -2.5070    -1.8260 C.ar  1 <1>  -0.1500 
 20 C        5.7130    -4.5160    -0.4450 C.3   1 <1>  -0.0970 
 21 C        5.3320    -0.3370    -1.4340 C.ar  1 <1>  -0.1430 
 22 C        6.1670    -1.1690    -2.1570 C.ar  1 <1>  -0.1500 
 23 C        5.2130     1.1330    -1.7950 C.3   1 <1>  -0.0970 
 24 H        0.1440     0.0120     1.9760 H     1 <1>   0.0800 
 25 H        0.1380     1.0540     0.5780 H     1 <1>   0.0800 
 26 H       -1.7100    -2.3860    -1.4900 H     1 <1>   0.0800 
 27 H       -2.1970    -2.7050     0.1200 H     1 <1>   0.0800 
 28 H       -0.5900    -2.5170     2.1010 H     1 <1>   0.0800 
 29 H       -0.3230    -3.9350     1.1720 H     1 <1>   0.0800 
 30 H        0.1970    -3.7190    -1.4280 H     1 <1>   0.0800 
 31 H        0.8540    -2.1940    -1.8990 H     1 <1>   0.0800 
 32 H       -2.1150     1.0800     0.9410 H     1 <1>   0.0800 
 33 H        1.6870    -3.9720     2.2020 H     1 <1>   0.0800 
 34 H        1.6030    -2.2750     2.6130 H     1 <1>   0.0800 
 35 H        2.8320    -3.1110    -1.3140 H     1 <1>   0.0800 
 36 H        2.0730    -4.3990    -0.4080 H     1 <1>   0.0800 
 37 H       -3.1770    -0.4530     2.1220 H     1 <1>   0.4000 
 38 H       -2.1650    -0.2870    -2.2920 H     1 <1>   0.4000 
 39 H       -4.1720    -1.2690     0.3260 H     1 <1>   0.0800 
 40 H       -4.0650    -1.1470    -1.4030 H     1 <1>   0.0800 
 41 H       -4.1750     0.3030    -0.4250 H     1 <1>   0.0800 
 42 H        2.2160    -1.6590     0.4940 H     1 <1>   0.4500 
 43 H        4.0360    -2.1340     1.9750 H     1 <1>   0.0800 
 44 H        4.1200    -3.7520     1.3210 H     1 <1>   0.0800 
 45 H        3.9580    -0.2030     0.1750 H     1 <1>   0.1500 
 46 H        6.9390    -3.1300    -2.4010 H     1 <1>   0.1500 
 47 H        6.3920    -4.9870    -1.1350 H     1 <1>   0.0800 
 48 H        4.7700    -5.0260    -0.5100 H     1 <1>   0.0800 
 49 H        6.1160    -4.6350     0.5450 H     1 <1>   0.0800 
 50 H        6.7390    -0.7790    -2.9810 H     1 <1>   0.1500 
 51 H        6.0910     1.4670    -2.3180 H     1 <1>   0.0800 
 52 H        5.1020     1.7300    -0.9070 H     1 <1>   0.0800 
 53 H        4.3560     1.2860    -2.4260 H     1 <1>   0.0800 
@<TRIPOS>BOND
  1   1   2  1   
  2   1   3  1   
  3   2   4  1   
  4   2   5  1   
  5   2   6  1   
  6   3   7  1   
  7   3  24  1   
  8   3  25  1   
  9   4   8  1   
 10   4  26  1   
 11   4  27  1   
 12   5   9  1   
 13   5  28  1   
 14   5  29  1   
 15   6  10  1   
 16   6  30  1   
 17   6  31  1   
 18   7   8  1   
 19   7  11  1   
 20   7  32  1   
 21   8  12  1   
 22   8  13  1   
 23   9  14  1   
 24   9  33  1   
 25   9  34  1   
 26  10  14  1   
 27  10  35  1   
 28  10  36  1   
 29  11  37  1   
 30  12  38  1   
 31  13  39  1   
 32  13  40  1   
 33  13  41  1   
 34  14  15  1   
 35  14  42  1   
 36  15  16  1   
 37  15  43  1   
 38  15  44  1   
 39  16  17  ar  
 40  16  18  ar  
 41  17  19  ar  
 42  17  20  1   
 43  18  21  ar  
 44  18  45  1   
 45  19  22  ar  
 46  19  46  1   
 47  20  47  1   
 48  20  48  1   
 49  20  49  1   
 50  21  22  ar  
 51  21  23  1   
 52  22  50  1   
 53  23  51  1   
 54  23  52  1   
 55  23  53  1   
@<TRIPOS>SUBSTRUCTURE
  1 ****  14 GROUP 4 **** **** 0

# MOE 2024.06 (io_trps.svl 2023.06)
