@<TRIPOS>MOLECULE
NONAME
47 48 1 0 0 
SMALL
USER_CHARGES


@<TRIPOS>ATOM
  1 F       -2.6090    -2.1500    -3.5360 F     1 <1>  -0.1900 
  2 C       -2.7440    -2.1540    -2.2390 C.ar  1 <1>   0.1900 
  3 C       -2.9200    -3.3600    -1.5950 C.ar  1 <1>  -0.1500 
  4 C       -2.7140    -0.9500    -1.5630 C.ar  1 <1>  -0.1500 
  5 C       -3.0930    -3.3810    -0.2140 C.ar  1 <1>   0.0860 
  6 C       -2.8630    -0.9560    -0.1860 C.ar  1 <1>  -0.1440 
  7 C       -3.3300    -4.6320     0.4770 C.2   1 <1>   0.5440 
  8 C       -3.0460    -2.1640     0.4710 C.ar  1 <1>  -0.1500 
  9 C       -2.8110     0.3500     0.5870 C.3   1 <1>  -0.0960 
 10 O       -2.4620    -5.4790     0.4900 O.2   1 <1>  -0.5700 
 11 N       -4.5420    -4.8980     1.0780 N.am  1 <1>  -0.6600 
 12 C       -4.7620    -6.1810     1.8230 C.3   1 <1>   0.3210 
 13 C       -5.7620    -4.0680     0.8800 C.3   1 <1>   0.1400 
 14 C       -5.6380    -7.1500     1.0270 C.2   1 <1>   0.0460 
 15 C       -6.3460    -4.3120    -0.5240 C.3   1 <1>   0.3430 
 16 N       -6.9860    -7.0180     0.9700 N.2   1 <1>  -0.5650 
 17 C       -5.2340    -8.2340     0.3220 C.2   1 <1>  -0.3320 
 18 N       -7.7270    -3.7460    -0.6900 N.4   1 <1>  -0.9590 
 19 C       -7.3640    -8.0390     0.2670 C.2   1 <1>   0.0360 
 20 N       -6.3460    -8.8130    -0.1610 N.pl3 1 <1>   0.0330 
 21 C       -3.8420    -8.7930     0.0680 C.3   1 <1>  -0.0600 
 22 C       -8.7210    -4.5620     0.0820 C.3   1 <1>   0.2630 
 23 C       -8.0970    -3.7220    -2.1360 C.3   1 <1>   0.2630 
 24 H       -2.9180    -4.2780    -2.1560 H     1 <1>   0.1500 
 25 H       -2.5670    -0.0340    -2.1080 H     1 <1>   0.1500 
 26 H       -3.1470    -2.1770     1.5430 H     1 <1>   0.1500 
 27 H       -3.3550     1.1170     0.0650 H     1 <1>   0.0800 
 28 H       -1.7880     0.6670     0.6950 H     1 <1>   0.0800 
 29 H       -3.2390     0.2360     1.5670 H     1 <1>   0.0800 
 30 H       -5.2370    -5.9720     2.7640 H     1 <1>   0.0800 
 31 H       -3.8210    -6.6520     2.0450 H     1 <1>   0.0800 
 32 H       -5.5200    -3.0280     1.0010 H     1 <1>   0.0800 
 33 H       -6.4820    -4.3350     1.6330 H     1 <1>   0.0800 
 34 H       -6.3730    -5.3730    -0.7080 H     1 <1>   0.0800 
 35 H       -5.6830    -3.8650    -1.2460 H     1 <1>   0.0800 
 36 H       -7.7360    -2.7790    -0.3330 H     1 <1>   0.4500 
 37 H       -8.3880    -8.2770     0.0360 H     1 <1>   0.1500 
 38 H       -6.4080    -9.6720    -0.7160 H     1 <1>   0.2700 
 39 H       -3.0870    -8.1580     0.4970 H     1 <1>   0.0800 
 40 H       -3.6560    -8.8610    -0.9890 H     1 <1>   0.0800 
 41 H       -3.7480    -9.7720     0.5030 H     1 <1>   0.0800 
 42 H       -8.7180    -5.5810    -0.2690 H     1 <1>   0.0800 
 43 H       -9.7140    -4.1570    -0.0350 H     1 <1>   0.0800 
 44 H       -8.4750    -4.5700     1.1310 H     1 <1>   0.0800 
 45 H       -8.0920    -4.7220    -2.5400 H     1 <1>   0.0800 
 46 H       -7.3960    -3.1220    -2.6930 H     1 <1>   0.0800 
 47 H       -9.0830    -3.3050    -2.2640 H     1 <1>   0.0800 
@<TRIPOS>BOND
  1   1   2  1   
  2   2   3  ar  
  3   2   4  ar  
  4   3   5  ar  
  5   3  24  1   
  6   4   6  ar  
  7   4  25  1   
  8   5   7  1   
  9   5   8  ar  
 10   6   8  ar  
 11   6   9  1   
 12   7  10  2   
 13   7  11  am  
 14   8  26  1   
 15   9  27  1   
 16   9  28  1   
 17   9  29  1   
 18  11  12  1   
 19  11  13  1   
 20  12  14  1   
 21  12  30  1   
 22  12  31  1   
 23  13  15  1   
 24  13  32  1   
 25  13  33  1   
 26  14  16  1   
 27  14  17  2   
 28  15  18  1   
 29  15  34  1   
 30  15  35  1   
 31  16  19  2   
 32  17  20  1   
 33  17  21  1   
 34  18  22  1   
 35  18  23  1   
 36  18  36  1   
 37  19  20  1   
 38  19  37  1   
 39  20  38  1   
 40  21  39  1   
 41  21  40  1   
 42  21  41  1   
 43  22  42  1   
 44  22  43  1   
 45  22  44  1   
 46  23  45  1   
 47  23  46  1   
 48  23  47  1   
@<TRIPOS>SUBSTRUCTURE
  1 ****  11 GROUP 4 **** **** 0

# MOE 2024.06 (io_trps.svl 2023.06)
