@<TRIPOS>MOLECULE
NONAME
50 52 1 0 0 
SMALL
USER_CHARGES


@<TRIPOS>ATOM
  1 CL       0.7360    -0.4480     2.6660 Cl    1 <1>  -0.1770 
  2 C        1.8200    -0.1350     1.3290 C.ar  1 <1>   0.1770 
  3 C        2.3150    -1.1790     0.5590 C.ar  1 <1>  -0.1440 
  4 C        2.1560     1.1850     1.0720 C.ar  1 <1>  -0.1500 
  5 C        3.1730    -0.8360    -0.4760 C.ar  1 <1>   0.1900 
  6 C        1.9540    -2.6340     0.8290 C.3   1 <1>   0.2540 
  7 C        3.0100     1.4930     0.0260 C.ar  1 <1>  -0.1500 
  8 F        3.6880    -1.7720    -1.2280 F     1 <1>  -0.1900 
  9 C        3.5250     0.4730    -0.7570 C.ar  1 <1>  -0.1500 
 10 N        0.9350    -3.1160    -0.1270 N.3   1 <1>  -0.8100 
 11 C        0.7130    -4.5810    -0.0090 C.3   1 <1>   0.3330 
 12 C       -0.3480    -2.3980     0.0340 C.3   1 <1>   0.1100 
 13 C        2.0100    -5.3450    -0.2790 C.ar  1 <1>  -0.1430 
 14 C       -0.4160    -5.0560    -0.9670 C.3   1 <1>   0.2000 
 15 C       -1.4240    -2.9460    -0.9170 C.3   1 <1>   0.1200 
 16 C        2.4390    -6.3220     0.6070 C.ar  1 <1>  -0.1500 
 17 C        2.7660    -5.0820    -1.4140 C.ar  1 <1>  -0.1500 
 18 O       -1.5870    -4.3200    -0.7250 O.3   1 <1>  -0.5600 
 19 C       -0.7760    -6.5430    -0.8070 C.3   1 <1>   0.1200 
 20 C        3.5980    -7.0390     0.3630 C.ar  1 <1>   0.0830 
 21 C        3.9360    -5.7810    -1.6570 C.ar  1 <1>  -0.1500 
 22 O        0.1910    -7.3660    -1.3820 O.3   1 <1>  -0.6800 
 23 O        3.9250    -8.0110     1.2490 O.3   1 <1>  -0.3630 
 24 C        4.3680    -6.7490    -0.7680 C.ar  1 <1>   0.0830 
 25 C        3.8920    -9.3350     0.7620 C.3   1 <1>   0.0400 
 26 O        5.5390    -7.3730    -1.0420 O.3   1 <1>  -0.3630 
 27 C        6.6020    -7.1200    -0.1500 C.3   1 <1>   0.0400 
 28 H        1.7490     1.9650     1.6910 H     1 <1>   0.1500 
 29 H        1.6020    -2.7650     1.8370 H     1 <1>   0.0800 
 30 H        2.8550    -3.2150     0.7300 H     1 <1>   0.0800 
 31 H        3.2730     2.5170    -0.1770 H     1 <1>   0.1500 
 32 H        4.1920     0.6840    -1.5740 H     1 <1>   0.1500 
 33 H        0.3940    -4.7960     0.9970 H     1 <1>   0.0800 
 34 H       -0.7000    -2.4870     1.0480 H     1 <1>   0.0800 
 35 H       -0.2080    -1.3530    -0.1820 H     1 <1>   0.0800 
 36 H       -0.1290    -4.8800    -1.9890 H     1 <1>   0.0800 
 37 H       -1.1490    -2.7670    -1.9430 H     1 <1>   0.0800 
 38 H       -2.3690    -2.4710    -0.7230 H     1 <1>   0.0800 
 39 H        1.8760    -6.5490     1.4950 H     1 <1>   0.1500 
 40 H        2.4450    -4.3210    -2.1070 H     1 <1>   0.1500 
 41 H       -1.7060    -6.7500    -1.3070 H     1 <1>   0.0800 
 42 H       -0.8650    -6.8030     0.2330 H     1 <1>   0.0800 
 43 H        4.5210    -5.5690    -2.5340 H     1 <1>   0.1500 
 44 H        1.0920    -7.1010    -1.0930 H     1 <1>   0.4000 
 45 H        4.0560   -10.0020     1.5880 H     1 <1>   0.0800 
 46 H        4.6670    -9.4650     0.0280 H     1 <1>   0.0800 
 47 H        2.9280    -9.5210     0.3230 H     1 <1>   0.0800 
 48 H        7.4870    -7.5890    -0.5390 H     1 <1>   0.0800 
 49 H        6.3640    -7.5310     0.8150 H     1 <1>   0.0800 
 50 H        6.7480    -6.0570    -0.0770 H     1 <1>   0.0800 
@<TRIPOS>BOND
  1   1   2  1   
  2   2   3  ar  
  3   2   4  ar  
  4   3   5  ar  
  5   3   6  1   
  6   4   7  ar  
  7   4  28  1   
  8   5   8  1   
  9   5   9  ar  
 10   6  10  1   
 11   6  29  1   
 12   6  30  1   
 13   7   9  ar  
 14   7  31  1   
 15   9  32  1   
 16  10  11  1   
 17  10  12  1   
 18  11  13  1   
 19  11  14  1   
 20  11  33  1   
 21  12  15  1   
 22  12  34  1   
 23  12  35  1   
 24  13  16  ar  
 25  13  17  ar  
 26  14  18  1   
 27  14  19  1   
 28  14  36  1   
 29  15  18  1   
 30  15  37  1   
 31  15  38  1   
 32  16  20  ar  
 33  16  39  1   
 34  17  21  ar  
 35  17  40  1   
 36  19  22  1   
 37  19  41  1   
 38  19  42  1   
 39  20  23  1   
 40  20  24  ar  
 41  21  24  ar  
 42  21  43  1   
 43  22  44  1   
 44  23  25  1   
 45  24  26  1   
 46  25  45  1   
 47  25  46  1   
 48  25  47  1   
 49  26  27  1   
 50  27  48  1   
 51  27  49  1   
 52  27  50  1   
@<TRIPOS>SUBSTRUCTURE
  1 ****  13 GROUP 4 **** **** 0

# MOE 2024.06 (io_trps.svl 2023.06)
