@<TRIPOS>MOLECULE
NONAME
38 39 1 0 0 
SMALL
USER_CHARGES


@<TRIPOS>ATOM
  1 CL       0.9840    -0.8590     2.8780 Cl    1 <1>  -0.1770 
  2 C        1.6220    -1.1830     1.2760 C.ar  1 <1>   0.1770 
  3 C        0.9170    -1.9880     0.3700 C.ar  1 <1>   0.4100 
  4 C        2.8290    -0.6240     0.9290 C.ar  1 <1>  -0.1500 
  5 N        1.3690    -2.2550    -0.8560 N.ar  1 <1>  -0.6200 
  6 N       -0.3030    -2.5580     0.6980 N.pl3 1 <1>  -0.8380 
  7 C        3.2900    -0.9040    -0.3430 C.ar  1 <1>  -0.1500 
  8 C        2.5330    -1.7100    -1.1760 C.ar  1 <1>   0.1600 
  9 C       -1.4660    -2.1350    -0.1290 C.3   1 <1>   0.2090 
 10 C       -0.3140    -4.0410     0.8350 C.3   1 <1>   0.2090 
 11 C       -1.9700    -3.4110    -0.7930 C.3   1 <1>   0.2000 
 12 C       -1.6090    -4.5260     0.1780 C.3   1 <1>  -0.0800 
 13 O       -3.3420    -3.3930    -1.0070 O.3   1 <1>  -0.6800 
 14 C       -1.4850    -5.8860    -0.5280 C.3   1 <1>  -0.0550 
 15 S       -1.1690    -7.2410     0.6010 S.o2  1 <1>   1.3330 
 16 O       -2.3140    -7.3620     1.4740 O.2   1 <1>  -0.6500 
 17 O        0.1500    -7.0840     1.1720 O.2   1 <1>  -0.6500 
 18 N       -1.1330    -8.5930    -0.4250 N.am  1 <1>  -0.8490 
 19 C       -1.5310    -9.8230     0.2660 C.3   1 <1>   0.1160 
 20 C        0.1620    -8.7880    -1.0860 C.3   1 <1>   0.1160 
 21 H        3.3760    -0.0040     1.6160 H     1 <1>   0.1500 
 22 H        4.2280    -0.5000    -0.6830 H     1 <1>   0.1500 
 23 H        2.9070    -1.9200    -2.1650 H     1 <1>   0.1500 
 24 H       -2.2160    -1.7170     0.5190 H     1 <1>   0.0800 
 25 H       -1.1780    -1.4080    -0.8690 H     1 <1>   0.0800 
 26 H        0.5460    -4.4600     0.3390 H     1 <1>   0.0800 
 27 H       -0.2800    -4.3180     1.8760 H     1 <1>   0.0800 
 28 H       -1.4750    -3.5390    -1.7410 H     1 <1>   0.0800 
 29 H       -2.3580    -4.5850     0.9500 H     1 <1>   0.0800 
 30 H       -3.8170    -3.3030    -0.1580 H     1 <1>   0.4000 
 31 H       -0.6990    -5.8340    -1.2560 H     1 <1>   0.0800 
 32 H       -2.4010    -6.0840    -1.0500 H     1 <1>   0.0800 
 33 H       -1.5140   -10.6560    -0.4150 H     1 <1>   0.0800 
 34 H       -2.5330    -9.7230     0.6480 H     1 <1>   0.0800 
 35 H       -0.8650   -10.0220     1.0890 H     1 <1>   0.0800 
 36 H        0.0990    -9.6040    -1.7870 H     1 <1>   0.0800 
 37 H        0.9270    -9.0080    -0.3590 H     1 <1>   0.0800 
 38 H        0.4430    -7.9000    -1.6240 H     1 <1>   0.0800 
@<TRIPOS>BOND
  1   1   2  1   
  2   2   3  ar  
  3   2   4  ar  
  4   3   5  ar  
  5   3   6  1   
  6   4   7  ar  
  7   4  21  1   
  8   5   8  ar  
  9   6   9  1   
 10   6  10  1   
 11   7   8  ar  
 12   7  22  1   
 13   8  23  1   
 14   9  11  1   
 15   9  24  1   
 16   9  25  1   
 17  10  12  1   
 18  10  26  1   
 19  10  27  1   
 20  11  12  1   
 21  11  13  1   
 22  11  28  1   
 23  12  14  1   
 24  12  29  1   
 25  13  30  1   
 26  14  15  1   
 27  14  31  1   
 28  14  32  1   
 29  15  16  2   
 30  15  17  2   
 31  15  18  am  
 32  18  19  1   
 33  18  20  1   
 34  19  33  1   
 35  19  34  1   
 36  19  35  1   
 37  20  36  1   
 38  20  37  1   
 39  20  38  1   
@<TRIPOS>SUBSTRUCTURE
  1 ****  10 GROUP 4 **** **** 0

# MOE 2024.06 (io_trps.svl 2023.06)
