@<TRIPOS>MOLECULE
NONAME
34 35 1 0 0 
SMALL
USER_CHARGES


@<TRIPOS>ATOM
  1 O       -0.2430     0.0780     1.5740 O.2   1 <1>  -0.5700 
  2 C       -1.2640     0.7100     1.3470 C.2   1 <1>   0.5440 
  3 N       -2.4790     0.0520     1.4190 N.am  1 <1>  -0.6600 
  4 C       -1.1760     2.1210     0.9700 C.ar  1 <1>   0.3960 
  5 C       -2.5680    -1.4380     1.2750 C.3   1 <1>   0.1400 
  6 C       -3.7910     0.7570     1.4620 C.3   1 <1>   0.1400 
  7 N       -1.2670     3.0590     1.9330 N.ar  1 <1>  -0.6200 
  8 C       -1.0150     2.4650    -0.3810 C.ar  1 <1>  -0.1440 
  9 C       -3.4450    -1.8520     0.0770 C.3   1 <1>   0.2000 
 10 C       -4.6410     0.3860     0.2420 C.3   1 <1>  -0.1600 
 11 C       -1.1790     4.3180     1.5540 C.ar  1 <1>   0.1600 
 12 C       -0.9330     3.7920    -0.7520 C.ar  1 <1>  -0.1500 
 13 C       -0.9390     1.3930    -1.4650 C.3   1 <1>  -0.0960 
 14 O       -2.8050    -1.5280    -1.1090 O.3   1 <1>  -0.6800 
 15 C       -4.8060    -1.1440     0.1100 C.3   1 <1>  -0.1860 
 16 C       -1.0140     4.7350     0.2470 C.ar  1 <1>  -0.1500 
 17 C       -5.6470    -1.5360    -1.0890 C.2   1 <1>   0.9060 
 18 O       -6.7740    -1.9940    -0.8920 O.co2 1 <1>  -0.9000 
 19 O       -5.1690    -1.3970    -2.2240 O.co2 1 <1>  -0.9000 
 20 H       -1.5910    -1.8710     1.1540 H     1 <1>   0.0800 
 21 H       -2.9960    -1.8390     2.1750 H     1 <1>   0.0800 
 22 H       -4.3070     0.4630     2.3590 H     1 <1>   0.0800 
 23 H       -3.6550     1.8230     1.4970 H     1 <1>   0.0800 
 24 H       -3.5900    -2.9190     0.0750 H     1 <1>   0.0800 
 25 H       -5.6120     0.8400     0.3310 H     1 <1>   0.0800 
 26 H       -4.1800     0.7800    -0.6470 H     1 <1>   0.0800 
 27 H       -1.2410     5.0640     2.3280 H     1 <1>   0.1500 
 28 H       -0.8100     4.0840    -1.7800 H     1 <1>   0.1500 
 29 H       -0.6300     1.8090    -2.4060 H     1 <1>   0.0800 
 30 H       -1.9040     0.9370    -1.5970 H     1 <1>   0.0800 
 31 H       -0.2370     0.6240    -1.1920 H     1 <1>   0.0800 
 32 H       -3.5330    -1.4610    -1.7980 H     1 <1>   0.4000 
 33 H       -5.3330    -1.4940     0.9770 H     1 <1>   0.0800 
 34 H       -0.9510     5.7830     0.0170 H     1 <1>   0.1500 
@<TRIPOS>BOND
  1   1   2  2   
  2   2   3  am  
  3   2   4  1   
  4   3   5  1   
  5   3   6  1   
  6   4   7  ar  
  7   4   8  ar  
  8   5   9  1   
  9   5  20  1   
 10   5  21  1   
 11   6  10  1   
 12   6  22  1   
 13   6  23  1   
 14   7  11  ar  
 15   8  12  ar  
 16   8  13  1   
 17   9  14  1   
 18   9  15  1   
 19   9  24  1   
 20  10  15  1   
 21  10  25  1   
 22  10  26  1   
 23  11  16  ar  
 24  11  27  1   
 25  12  16  ar  
 26  12  28  1   
 27  13  29  1   
 28  13  30  1   
 29  13  31  1   
 30  14  32  1   
 31  15  17  1   
 32  15  33  1   
 33  16  34  1   
 34  17  18  ar  
 35  17  19  ar  
@<TRIPOS>SUBSTRUCTURE
  1 ****   3 GROUP 4 **** **** 0

# MOE 2024.06 (io_trps.svl 2023.06)
