@<TRIPOS>MOLECULE
NONAME
57 59 1 0 0 
SMALL
USER_CHARGES


@<TRIPOS>ATOM
  1 F       -0.3700    -1.1760     1.8910 F     1 <1>  -0.1900 
  2 C       -1.2570    -1.4840     0.9790 C.ar  1 <1>   0.1900 
  3 C       -1.5280    -0.5930    -0.0530 C.ar  1 <1>   0.0830 
  4 C       -1.8960    -2.7030     1.0960 C.ar  1 <1>  -0.1500 
  5 O       -0.8570     0.5900    -0.0950 O.3   1 <1>  -0.3630 
  6 C       -2.4810    -0.9690    -0.9940 C.ar  1 <1>  -0.1500 
  7 C       -2.8550    -3.0680     0.1590 C.ar  1 <1>  -0.1430 
  8 C       -1.0170     1.4920    -1.1680 C.3   1 <1>   0.0400 
  9 C       -3.1330    -2.1890    -0.8850 C.ar  1 <1>  -0.1500 
 10 C       -3.5650    -4.4110     0.3410 C.3   1 <1>   0.4610 
 11 N       -4.7370    -4.1460     1.3020 N.4   1 <1>  -0.9590 
 12 C       -3.9160    -5.2110    -0.9480 C.2   1 <1>   0.9060 
 13 C       -5.0400    -5.3420     2.1500 C.3   1 <1>   0.3430 
 14 C       -5.9220    -3.5440     0.5880 C.3   1 <1>   0.3430 
 15 O       -3.7820    -6.4390    -0.9090 O.co2 1 <1>  -0.9000 
 16 O       -4.6320    -4.6980    -1.8210 O.co2 1 <1>  -0.9000 
 17 C       -5.8420    -6.4350     1.4240 C.3   1 <1>  -0.1600 
 18 C       -7.1320    -4.4920     0.4940 C.3   1 <1>  -0.1600 
 19 C       -6.6320    -5.9020     0.2190 C.3   1 <1>   0.4230 
 20 N       -7.6830    -6.8170    -0.2790 N.4   1 <1>  -0.9590 
 21 C       -8.7510    -7.2520     0.6870 C.3   1 <1>   0.3430 
 22 C       -7.0060    -8.0090    -0.9140 C.3   1 <1>   0.3430 
 23 C       -9.6930    -8.3030     0.0560 C.3   1 <1>   0.2000 
 24 C       -8.0260    -9.0380    -1.4490 C.3   1 <1>   0.2000 
 25 O       -8.9440    -9.3670    -0.4480 O.3   1 <1>  -0.5600 
 26 C      -10.6600    -8.8900     1.0800 C.3   1 <1>  -0.2400 
 27 C       -7.3510   -10.3380    -1.8760 C.3   1 <1>  -0.2400 
 28 H       -1.6280    -3.3450     1.9160 H     1 <1>   0.1500 
 29 H       -2.7300    -0.3290    -1.8200 H     1 <1>   0.1500 
 30 H       -0.3640     2.3290    -1.0000 H     1 <1>   0.0800 
 31 H       -2.0390     1.8260    -1.1950 H     1 <1>   0.0800 
 32 H       -0.7480     0.9960    -2.0840 H     1 <1>   0.0800 
 33 H       -3.8590    -2.4370    -1.6420 H     1 <1>   0.1500 
 34 H       -2.8640    -5.0460     0.8520 H     1 <1>   0.0800 
 35 H       -4.3590    -3.4060     1.9100 H     1 <1>   0.4500 
 36 H       -4.1250    -5.7650     2.5330 H     1 <1>   0.0800 
 37 H       -5.6200    -5.0120     2.9970 H     1 <1>   0.0800 
 38 H       -6.2270    -2.6420     1.0930 H     1 <1>   0.0800 
 39 H       -5.6260    -3.2580    -0.4100 H     1 <1>   0.0800 
 40 H       -6.4910    -6.8860     2.1490 H     1 <1>   0.0800 
 41 H       -5.1550    -7.1920     1.0920 H     1 <1>   0.0800 
 42 H       -7.7540    -4.1520    -0.3140 H     1 <1>   0.0800 
 43 H       -7.6970    -4.4540     1.4070 H     1 <1>   0.0800 
 44 H       -5.9590    -5.8200    -0.6030 H     1 <1>   0.0800 
 45 H       -8.1410    -6.3310    -1.0610 H     1 <1>   0.4500 
 46 H       -8.3000    -7.6980     1.5570 H     1 <1>   0.0800 
 47 H       -9.3290    -6.4020     1.0070 H     1 <1>   0.0800 
 48 H       -6.3630    -7.6840    -1.7180 H     1 <1>   0.0800 
 49 H       -6.3820    -8.5050    -0.1890 H     1 <1>   0.0800 
 50 H      -10.2540    -7.8690    -0.7550 H     1 <1>   0.0800 
 51 H       -8.5670    -8.6280    -2.2860 H     1 <1>   0.0800 
 52 H      -10.1230    -9.3670     1.8800 H     1 <1>   0.0800 
 53 H      -11.2930    -9.6180     0.6040 H     1 <1>   0.0800 
 54 H      -11.2870    -8.1200     1.4920 H     1 <1>   0.0800 
 55 H       -6.8350   -10.7880    -1.0460 H     1 <1>   0.0800 
 56 H       -6.6400   -10.1500    -2.6610 H     1 <1>   0.0800 
 57 H       -8.0870   -11.0280    -2.2470 H     1 <1>   0.0800 
@<TRIPOS>BOND
  1   1   2  1   
  2   2   3  ar  
  3   2   4  ar  
  4   3   5  1   
  5   3   6  ar  
  6   4   7  ar  
  7   4  28  1   
  8   5   8  1   
  9   6   9  ar  
 10   6  29  1   
 11   7   9  ar  
 12   7  10  1   
 13   8  30  1   
 14   8  31  1   
 15   8  32  1   
 16   9  33  1   
 17  10  11  1   
 18  10  12  1   
 19  10  34  1   
 20  11  13  1   
 21  11  14  1   
 22  11  35  1   
 23  12  15  ar  
 24  12  16  ar  
 25  13  17  1   
 26  13  36  1   
 27  13  37  1   
 28  14  18  1   
 29  14  38  1   
 30  14  39  1   
 31  17  19  1   
 32  17  40  1   
 33  17  41  1   
 34  18  19  1   
 35  18  42  1   
 36  18  43  1   
 37  19  20  1   
 38  19  44  1   
 39  20  21  1   
 40  20  22  1   
 41  20  45  1   
 42  21  23  1   
 43  21  46  1   
 44  21  47  1   
 45  22  24  1   
 46  22  48  1   
 47  22  49  1   
 48  23  25  1   
 49  23  26  1   
 50  23  50  1   
 51  24  25  1   
 52  24  27  1   
 53  24  51  1   
 54  26  52  1   
 55  26  53  1   
 56  26  54  1   
 57  27  55  1   
 58  27  56  1   
 59  27  57  1   
@<TRIPOS>SUBSTRUCTURE
  1 ****  11 GROUP 4 **** **** 0

# MOE 2024.06 (io_trps.svl 2023.06)
