@<TRIPOS>MOLECULE
NONAME
48 50 1 0 0 
SMALL
USER_CHARGES


@<TRIPOS>ATOM
  1 O        1.4810     0.4970    -1.0320 O.3   1 <1>  -0.6800 
  2 C        1.6130     0.3220     0.3320 C.3   1 <1>   0.2800 
  3 C        3.1230     0.3000     0.6850 C.3   1 <1>  -0.0800 
  4 C        0.9760    -1.0320     0.6930 C.3   1 <1>  -0.1600 
  5 C        0.8380     1.4670     1.0210 C.3   1 <1>  -0.1600 
  6 C        3.8260    -1.0670     0.5340 C.3   1 <1>  -0.0800 
  7 C        3.9630     1.2460    -0.1630 C.3   1 <1>   0.3430 
  8 C        1.6260    -2.2520     0.0090 C.3   1 <1>  -0.1600 
  9 C        1.3040     2.8990     0.7060 C.3   1 <1>  -0.2400 
 10 C        3.0840    -2.0210    -0.4170 C.3   1 <1>  -0.1600 
 11 C        5.2300    -0.7610     0.0000 C.3   1 <1>   0.3430 
 12 N        5.3450     0.7180    -0.0560 N.4   1 <1>  -0.9590 
 13 C        6.2250     1.2190    -1.1410 C.3   1 <1>   0.4860 
 14 C        6.3780     2.7150    -0.9640 C.ar  1 <1>  -0.1440 
 15 C        7.2520     3.2200    -0.0120 C.ar  1 <1>  -0.1500 
 16 C        5.6370     3.5910    -1.7460 C.ar  1 <1>  -0.1500 
 17 C        7.3790     4.5870     0.1710 C.ar  1 <1>  -0.1440 
 18 C        5.7640     4.9560    -1.5660 C.ar  1 <1>  -0.1500 
 19 C        6.6310     5.4520    -0.6100 C.ar  1 <1>  -0.1500 
 20 C        8.3360     5.1410     1.2120 C.3   1 <1>  -0.0970 
 21 H        0.5360     0.4300    -1.2730 H     1 <1>   0.4000 
 22 H        3.2260     0.6000     1.7130 H     1 <1>   0.0800 
 23 H        1.0680    -1.1620     1.7580 H     1 <1>   0.0800 
 24 H       -0.0790    -1.0200     0.4790 H     1 <1>   0.0800 
 25 H       -0.2020     1.3860     0.7520 H     1 <1>   0.0800 
 26 H        0.8860     1.3260     2.0870 H     1 <1>   0.0800 
 27 H        3.9050    -1.5410     1.4980 H     1 <1>   0.0800 
 28 H        3.9000     2.2650     0.1800 H     1 <1>   0.0800 
 29 H        3.6360     1.1980    -1.1890 H     1 <1>   0.0800 
 30 H        1.5740    -3.0910     0.6830 H     1 <1>   0.0800 
 31 H        1.0550    -2.5140    -0.8660 H     1 <1>   0.0800 
 32 H        1.3480     3.0670    -0.3560 H     1 <1>   0.0800 
 33 H        2.2650     3.1010     1.1400 H     1 <1>   0.0800 
 34 H        0.6050     3.6030     1.1240 H     1 <1>   0.0800 
 35 H        3.0840    -1.6010    -1.4090 H     1 <1>   0.0800 
 36 H        3.5910    -2.9700    -0.4710 H     1 <1>   0.0800 
 37 H        5.3290    -1.1750    -0.9910 H     1 <1>   0.0800 
 38 H        5.9890    -1.1870     0.6360 H     1 <1>   0.0800 
 39 H        5.7270     1.0660     0.8320 H     1 <1>   0.4500 
 40 H        7.1950     0.7510    -1.0820 H     1 <1>   0.0800 
 41 H        5.7940     1.0010    -2.1040 H     1 <1>   0.0800 
 42 H        7.8450     2.5570     0.5940 H     1 <1>   0.1500 
 43 H        4.9590     3.2270    -2.4990 H     1 <1>   0.1500 
 44 H        5.1910     5.6380    -2.1720 H     1 <1>   0.1500 
 45 H        6.7250     6.5170    -0.4800 H     1 <1>   0.1500 
 46 H        7.9550     6.0590     1.6220 H     1 <1>   0.0800 
 47 H        9.2920     5.3370     0.7600 H     1 <1>   0.0800 
 48 H        8.4700     4.4430     2.0180 H     1 <1>   0.0800 
@<TRIPOS>BOND
  1   1   2  1   
  2   1  21  1   
  3   2   3  1   
  4   2   4  1   
  5   2   5  1   
  6   3   6  1   
  7   3   7  1   
  8   3  22  1   
  9   4   8  1   
 10   4  23  1   
 11   4  24  1   
 12   5   9  1   
 13   5  25  1   
 14   5  26  1   
 15   6  10  1   
 16   6  11  1   
 17   6  27  1   
 18   7  12  1   
 19   7  28  1   
 20   7  29  1   
 21   8  10  1   
 22   8  30  1   
 23   8  31  1   
 24   9  32  1   
 25   9  33  1   
 26   9  34  1   
 27  10  35  1   
 28  10  36  1   
 29  11  12  1   
 30  11  37  1   
 31  11  38  1   
 32  12  13  1   
 33  12  39  1   
 34  13  14  1   
 35  13  40  1   
 36  13  41  1   
 37  14  15  ar  
 38  14  16  ar  
 39  15  17  ar  
 40  15  42  1   
 41  16  18  ar  
 42  16  43  1   
 43  17  19  ar  
 44  17  20  1   
 45  18  19  ar  
 46  18  44  1   
 47  19  45  1   
 48  20  46  1   
 49  20  47  1   
 50  20  48  1   
@<TRIPOS>SUBSTRUCTURE
  1 ****   7 GROUP 4 **** **** 0

# MOE 2024.06 (io_trps.svl 2023.06)
