@<TRIPOS>MOLECULE
NONAME
45 46 1 0 0 
SMALL
USER_CHARGES


@<TRIPOS>ATOM
  1 CL      -3.3190    -0.5450    -3.3330 Cl    1 <1>  -0.1770 
  2 C       -3.4720    -1.3970    -1.8180 C.ar  1 <1>   0.1770 
  3 C       -3.6100    -2.7700    -1.8240 C.ar  1 <1>  -0.1500 
  4 C       -3.4520    -0.6800    -0.6350 C.ar  1 <1>  -0.1500 
  5 C       -3.7310    -3.4500    -0.6230 C.ar  1 <1>   0.0830 
  6 C       -3.5730    -1.3580     0.5670 C.ar  1 <1>  -0.1500 
  7 O       -3.8630    -4.7980    -0.6990 O.3   1 <1>  -0.3630 
  8 C       -3.7120    -2.7370     0.5750 C.ar  1 <1>  -0.1500 
  9 C       -3.9960    -5.5900     0.4540 C.3   1 <1>   0.1200 
 10 C       -4.1230    -7.0410    -0.0090 C.3   1 <1>  -0.1600 
 11 C       -4.2530    -7.9840     1.1840 C.3   1 <1>   0.3430 
 12 N       -4.5070    -9.3740     0.7180 N.4   1 <1>  -0.9590 
 13 C       -5.0210   -10.2600     1.8090 C.3   1 <1>   0.4860 
 14 C       -3.3540   -10.0030     0.0000 C.3   1 <1>   0.2630 
 15 C       -5.8530   -11.3810     1.1910 C.ar  1 <1>   0.1670 
 16 N       -6.5980   -11.0680     0.1460 N.ar  1 <1>  -0.6200 
 17 C       -5.8200   -12.6610     1.6970 C.ar  1 <1>  -0.1500 
 18 C       -7.3130   -12.0590    -0.3720 C.ar  1 <1>   0.4770 
 19 C       -6.5960   -13.6080     1.0740 C.ar  1 <1>   0.1600 
 20 N       -7.3450   -13.3150     0.0360 N.ar  1 <1>  -0.6200 
 21 C       -8.1940   -11.7170    -1.5640 C.3   1 <1>  -0.0170 
 22 C       -9.5710   -11.1910    -1.1350 C.3   1 <1>  -0.2400 
 23 H       -3.6230    -3.3070    -2.7540 H     1 <1>   0.1500 
 24 H       -3.3430     0.3890    -0.6600 H     1 <1>   0.1500 
 25 H       -3.5590    -0.8100     1.4940 H     1 <1>   0.1500 
 26 H       -3.8040    -3.2310     1.5230 H     1 <1>   0.1500 
 27 H       -4.8770    -5.2690     0.9830 H     1 <1>   0.0800 
 28 H       -3.1180    -5.4480     1.0610 H     1 <1>   0.0800 
 29 H       -3.2480    -7.2860    -0.5830 H     1 <1>   0.0800 
 30 H       -4.9970    -7.1220    -0.6320 H     1 <1>   0.0800 
 31 H       -5.0790    -7.6550     1.7960 H     1 <1>   0.0800 
 32 H       -3.3550    -7.9500     1.7800 H     1 <1>   0.0800 
 33 H       -5.3070    -9.3680     0.0550 H     1 <1>   0.4500 
 34 H       -5.6630    -9.6940     2.4640 H     1 <1>   0.0800 
 35 H       -4.2080   -10.6660     2.3870 H     1 <1>   0.0800 
 36 H       -2.4970   -10.0750     0.6490 H     1 <1>   0.0800 
 37 H       -3.0850    -9.4180    -0.8650 H     1 <1>   0.0800 
 38 H       -3.6210   -10.9930    -0.3360 H     1 <1>   0.0800 
 39 H       -5.2200   -12.9300     2.5460 H     1 <1>   0.1500 
 40 H       -6.6070   -14.6250     1.4310 H     1 <1>   0.1500 
 41 H       -8.3230   -12.5990    -2.1670 H     1 <1>   0.0800 
 42 H       -7.6990   -10.9790    -2.1680 H     1 <1>   0.0800 
 43 H      -10.0820   -11.9340    -0.5470 H     1 <1>   0.0800 
 44 H      -10.1690   -10.9660    -2.0010 H     1 <1>   0.0800 
 45 H       -9.4640   -10.2980    -0.5460 H     1 <1>   0.0800 
@<TRIPOS>BOND
  1   1   2  1   
  2   2   3  ar  
  3   2   4  ar  
  4   3   5  ar  
  5   3  23  1   
  6   4   6  ar  
  7   4  24  1   
  8   5   7  1   
  9   5   8  ar  
 10   6   8  ar  
 11   6  25  1   
 12   7   9  1   
 13   8  26  1   
 14   9  10  1   
 15   9  27  1   
 16   9  28  1   
 17  10  11  1   
 18  10  29  1   
 19  10  30  1   
 20  11  12  1   
 21  11  31  1   
 22  11  32  1   
 23  12  13  1   
 24  12  14  1   
 25  12  33  1   
 26  13  15  1   
 27  13  34  1   
 28  13  35  1   
 29  14  36  1   
 30  14  37  1   
 31  14  38  1   
 32  15  16  ar  
 33  15  17  ar  
 34  16  18  ar  
 35  17  19  ar  
 36  17  39  1   
 37  18  20  ar  
 38  18  21  1   
 39  19  20  ar  
 40  19  40  1   
 41  21  22  1   
 42  21  41  1   
 43  21  42  1   
 44  22  43  1   
 45  22  44  1   
 46  22  45  1   
@<TRIPOS>SUBSTRUCTURE
  1 ****  10 GROUP 4 **** **** 0

# MOE 2024.06 (io_trps.svl 2023.06)
