@<TRIPOS>MOLECULE
NONAME
52 55 1 0 0 
SMALL
USER_CHARGES


@<TRIPOS>ATOM
  1 O        2.0550     0.3590     0.6250 O.2   1 <1>  -0.5700 
  2 C        3.0570     0.4850    -0.0750 C.2   1 <1>   0.6900 
  3 N        3.7050     1.6370    -0.3210 N.am  1 <1>  -0.4200 
  4 N        3.7350    -0.4930    -0.7350 N.am  1 <1>  -0.2980 
  5 C        4.7720     1.2890    -1.1160 C.2   1 <1>   0.4490 
  6 C        3.4960     2.9450     0.3330 C.3   1 <1>   0.1400 
  7 N        4.8230     0.0420    -1.3850 N.2   1 <1>  -0.5120 
  8 C        3.4230    -1.9330    -0.7730 C.3   1 <1>   0.0600 
  9 C        5.7450     2.3500    -1.5980 C.3   1 <1>  -0.0990 
 10 C        4.2510     4.0490    -0.4310 C.3   1 <1>  -0.0190 
 11 C        5.7040     3.6170    -0.7230 C.3   1 <1>  -0.1600 
 12 C        4.2100     5.3650     0.3340 C.2   1 <1>   0.5690 
 13 O        4.2060     5.3490     1.5420 O.2   1 <1>  -0.5700 
 14 N        4.1760     6.5200    -0.3960 N.am  1 <1>  -0.4940 
 15 C        4.1780     7.8660     0.0350 C.2   1 <1>  -0.0880 
 16 N        4.9550     8.4170     1.0140 N.pl3 1 <1>   0.3140 
 17 C        3.4330     8.8740    -0.4770 C.2   1 <1>  -0.1810 
 18 N        4.7160     9.7490     1.1280 N.2   1 <1>  -0.7070 
 19 C        6.0110     7.7860     1.8430 C.3   1 <1>   0.2390 
 20 C        3.8080    10.0030     0.2400 C.2   1 <1>   0.1390 
 21 C        2.3950     8.8430    -1.5840 C.3   1 <1>  -0.0590 
 22 C        7.0700     7.0600     1.0120 C.ar  1 <1>  -0.1440 
 23 C        7.6050     7.6420    -0.1280 C.ar  1 <1>  -0.1500 
 24 C        7.5170     5.8080     1.4060 C.ar  1 <1>  -0.1500 
 25 C        8.5680     6.9820    -0.8750 C.ar  1 <1>  -0.1440 
 26 C        8.4850     5.1490     0.6700 C.ar  1 <1>  -0.1500 
 27 C        9.0080     5.7340    -0.4690 C.ar  1 <1>  -0.1500 
 28 C        9.1430     7.6330    -2.1200 C.3   1 <1>  -0.0970 
 29 H        3.8610     2.8750     1.3440 H     1 <1>   0.0800 
 30 H        2.4430     3.1640     0.3710 H     1 <1>   0.0800 
 31 H        2.5370    -2.1300    -0.1960 H     1 <1>   0.0800 
 32 H        4.2490    -2.4850    -0.3630 H     1 <1>   0.0800 
 33 H        3.2630    -2.2340    -1.7920 H     1 <1>   0.0800 
 34 H        5.4780     2.6030    -2.6080 H     1 <1>   0.0800 
 35 H        6.7390     1.9410    -1.6110 H     1 <1>   0.0800 
 36 H        3.7410     4.1990    -1.3660 H     1 <1>   0.0800 
 37 H        6.2400     4.4120    -1.2140 H     1 <1>   0.0800 
 38 H        6.2010     3.4150     0.2110 H     1 <1>   0.0800 
 39 H        4.1270     6.4060    -1.4070 H     1 <1>   0.3700 
 40 H        5.5400     7.1160     2.5350 H     1 <1>   0.0800 
 41 H        6.4900     8.5590     2.4130 H     1 <1>   0.0800 
 42 H        3.3990    10.9870     0.0840 H     1 <1>   0.1500 
 43 H        2.1980     7.8330    -1.8930 H     1 <1>   0.0800 
 44 H        2.7450     9.4070    -2.4300 H     1 <1>   0.0800 
 45 H        1.4760     9.2780    -1.2320 H     1 <1>   0.0800 
 46 H        7.2710     8.6190    -0.4360 H     1 <1>   0.1500 
 47 H        7.1110     5.3410     2.2880 H     1 <1>   0.1500 
 48 H        8.8330     4.1800     0.9850 H     1 <1>   0.1500 
 49 H        9.7620     5.2150    -1.0350 H     1 <1>   0.1500 
 50 H        8.3990     8.2410    -2.6020 H     1 <1>   0.0800 
 51 H        9.4760     6.8860    -2.8170 H     1 <1>   0.0800 
 52 H        9.9780     8.2550    -1.8510 H     1 <1>   0.0800 
@<TRIPOS>BOND
  1   1   2  2   
  2   2   3  am  
  3   2   4  am  
  4   3   5  1   
  5   3   6  1   
  6   4   7  1   
  7   4   8  1   
  8   5   7  2   
  9   5   9  1   
 10   6  10  1   
 11   6  29  1   
 12   6  30  1   
 13   8  31  1   
 14   8  32  1   
 15   8  33  1   
 16   9  11  1   
 17   9  34  1   
 18   9  35  1   
 19  10  11  1   
 20  10  12  1   
 21  10  36  1   
 22  11  37  1   
 23  11  38  1   
 24  12  13  2   
 25  12  14  am  
 26  14  15  1   
 27  14  39  1   
 28  15  16  1   
 29  15  17  2   
 30  16  18  1   
 31  16  19  1   
 32  17  20  1   
 33  17  21  1   
 34  18  20  2   
 35  19  22  1   
 36  19  40  1   
 37  19  41  1   
 38  20  42  1   
 39  21  43  1   
 40  21  44  1   
 41  21  45  1   
 42  22  23  ar  
 43  22  24  ar  
 44  23  25  ar  
 45  23  46  1   
 46  24  26  ar  
 47  24  47  1   
 48  25  27  ar  
 49  25  28  1   
 50  26  27  ar  
 51  26  48  1   
 52  27  49  1   
 53  28  50  1   
 54  28  51  1   
 55  28  52  1   
@<TRIPOS>SUBSTRUCTURE
  1 ****  12 GROUP 4 **** **** 0

# MOE 2024.06 (io_trps.svl 2023.06)
