@<TRIPOS>MOLECULE
NONAME
55 58 1 0 0 
SMALL
USER_CHARGES


@<TRIPOS>ATOM
  1 O       -1.4190     1.6170     2.1880 O.2   1 <1>  -0.5700 
  2 C       -0.6210     1.7200     1.2760 C.2   1 <1>   0.5440 
  3 N       -0.6760     2.6860     0.3060 N.am  1 <1>  -0.6600 
  4 C        0.4310     0.7910     0.9920 C.ar  1 <1>   0.0860 
  5 C       -1.7390     3.7320     0.1400 C.3   1 <1>   0.3000 
  6 C        0.3280     2.3770    -0.7580 C.3   1 <1>   0.2840 
  7 C        1.0070     1.1320    -0.2150 C.ar  1 <1>  -0.1440 
  8 C        0.8930    -0.3200     1.6860 C.ar  1 <1>  -0.1500 
  9 C       -1.6660     4.6720     1.3570 C.3   1 <1>  -0.1600 
 10 C       -1.4670     4.5950    -1.1150 C.3   1 <1>  -0.1600 
 11 C       -3.1280     3.0530     0.0650 C.3   1 <1>  -0.0990 
 12 C        2.0330     0.3830    -0.7600 C.ar  1 <1>  -0.1500 
 13 C        1.9210    -1.0780     1.1510 C.ar  1 <1>  -0.1500 
 14 C       -2.5390     5.9180     1.1790 C.3   1 <1>   0.1200 
 15 C       -2.3450     5.8510    -1.1640 C.3   1 <1>   0.1200 
 16 C       -3.1590     1.8630    -0.8660 C.2   1 <1>   0.5690 
 17 C        2.4870    -0.7290    -0.0680 C.ar  1 <1>  -0.1500 
 18 O       -2.1690     6.5780     0.0100 O.3   1 <1>  -0.5600 
 19 O       -3.2470     2.0360    -2.0570 O.2   1 <1>  -0.5700 
 20 N       -3.0800     0.6280    -0.3260 N.am  1 <1>  -0.7300 
 21 C       -3.0630    -0.6360    -1.0780 C.3   1 <1>   0.3640 
 22 C       -3.3670    -1.7710    -0.1030 C.ar  1 <1>  -0.1440 
 23 C       -1.6970    -0.8390    -1.7600 C.3   1 <1>   0.1200 
 24 C       -4.4070    -2.6500    -0.3680 C.ar  1 <1>  -0.1500 
 25 C       -2.6110    -1.9490     1.0490 C.ar  1 <1>  -0.1500 
 26 O       -1.6180    -2.0980    -2.3520 O.3   1 <1>  -0.6800 
 27 C       -4.6880    -3.6890     0.5010 C.ar  1 <1>  -0.1500 
 28 C       -2.8910    -2.9870     1.9200 C.ar  1 <1>  -0.1500 
 29 C       -3.9300    -3.8590     1.6460 C.ar  1 <1>  -0.1500 
 30 H       -0.1600     2.1680    -1.6940 H     1 <1>   0.0800 
 31 H        1.0340     3.1830    -0.8620 H     1 <1>   0.0800 
 32 H        0.4450    -0.5780     2.6300 H     1 <1>   0.1500 
 33 H       -0.6510     4.9960     1.5020 H     1 <1>   0.0800 
 34 H       -1.9740     4.1580     2.2500 H     1 <1>   0.0800 
 35 H       -1.6300     4.0300    -2.0140 H     1 <1>   0.0800 
 36 H       -0.4490     4.9380    -1.1110 H     1 <1>   0.0800 
 37 H       -3.8780     3.7460    -0.2600 H     1 <1>   0.0800 
 38 H       -3.4250     2.7280     1.0440 H     1 <1>   0.0800 
 39 H        2.4740     0.6530    -1.7040 H     1 <1>   0.1500 
 40 H        2.2840    -1.9420     1.6810 H     1 <1>   0.1500 
 41 H       -2.3890     6.5990     1.9990 H     1 <1>   0.0800 
 42 H       -3.5850     5.6710     1.1210 H     1 <1>   0.0800 
 43 H       -3.3890     5.6180    -1.2770 H     1 <1>   0.0800 
 44 H       -2.0460     6.4820    -1.9840 H     1 <1>   0.0800 
 45 H        3.2850    -1.3260    -0.4770 H     1 <1>   0.1500 
 46 H       -2.9620     0.5290     0.6880 H     1 <1>   0.3700 
 47 H       -3.8210    -0.5860    -1.8420 H     1 <1>   0.0800 
 48 H       -0.9040    -0.7700    -1.0380 H     1 <1>   0.0800 
 49 H       -1.5520    -0.1020    -2.5300 H     1 <1>   0.0800 
 50 H       -5.0060    -2.5300    -1.2560 H     1 <1>   0.1500 
 51 H       -1.7990    -1.2810     1.2780 H     1 <1>   0.1500 
 52 H       -1.8230    -2.7900    -1.6880 H     1 <1>   0.4000 
 53 H       -5.4970    -4.3660     0.2870 H     1 <1>   0.1500 
 54 H       -2.3020    -3.1160     2.8110 H     1 <1>   0.1500 
 55 H       -4.1490    -4.6660     2.3230 H     1 <1>   0.1500 
@<TRIPOS>BOND
  1   1   2  2   
  2   2   3  am  
  3   2   4  1   
  4   3   5  1   
  5   3   6  1   
  6   4   7  ar  
  7   4   8  ar  
  8   5   9  1   
  9   5  10  1   
 10   5  11  1   
 11   6   7  1   
 12   6  30  1   
 13   6  31  1   
 14   7  12  ar  
 15   8  13  ar  
 16   8  32  1   
 17   9  14  1   
 18   9  33  1   
 19   9  34  1   
 20  10  15  1   
 21  10  35  1   
 22  10  36  1   
 23  11  16  1   
 24  11  37  1   
 25  11  38  1   
 26  12  17  ar  
 27  12  39  1   
 28  13  17  ar  
 29  13  40  1   
 30  14  18  1   
 31  14  41  1   
 32  14  42  1   
 33  15  18  1   
 34  15  43  1   
 35  15  44  1   
 36  16  19  2   
 37  16  20  am  
 38  17  45  1   
 39  20  21  1   
 40  20  46  1   
 41  21  22  1   
 42  21  23  1   
 43  21  47  1   
 44  22  24  ar  
 45  22  25  ar  
 46  23  26  1   
 47  23  48  1   
 48  23  49  1   
 49  24  27  ar  
 50  24  50  1   
 51  25  28  ar  
 52  25  51  1   
 53  26  52  1   
 54  27  29  ar  
 55  27  53  1   
 56  28  29  ar  
 57  28  54  1   
 58  29  55  1   
@<TRIPOS>SUBSTRUCTURE
  1 ****  20 GROUP 4 **** **** 0

# MOE 2024.06 (io_trps.svl 2023.06)
