@<TRIPOS>MOLECULE
NONAME
50 53 1 0 0 
SMALL
USER_CHARGES


@<TRIPOS>ATOM
  1 O       -0.9380     0.3980     2.2330 O.3   1 <1>  -0.5600 
  2 C       -0.0390     0.4970     1.1680 C.3   1 <1>   0.1200 
  3 C       -2.1850     0.9090     1.8630 C.3   1 <1>   0.1200 
  4 C       -0.5060     1.6920     0.3470 C.3   1 <1>   0.2890 
  5 C       -2.0160     1.5500     0.4810 C.3   1 <1>  -0.0800 
  6 N       -0.0190     2.9350     0.9920 N.pl3 1 <1>  -0.8690 
  7 C       -2.8410     2.8380     0.2860 C.3   1 <1>  -0.0170 
  8 C        0.2050     4.1310     0.3590 C.ar  1 <1>   0.4100 
  9 C       -4.3370     2.5430     0.3160 C.ar  1 <1>  -0.1430 
 10 N        0.0460     4.1580    -0.9480 N.ar  1 <1>  -0.6200 
 11 C        0.5620     5.2690     1.0690 C.ar  1 <1>  -0.1430 
 12 C       -5.0200     1.9890    -0.7930 C.ar  1 <1>   0.0000 
 13 C       -5.0650     2.8080     1.4380 C.ar  1 <1>  -0.1500 
 14 C        0.2400     5.3240    -1.5290 C.ar  1 <1>   0.4770 
 15 C        0.7320     6.4200     0.3440 C.ar  1 <1>   0.1600 
 16 C        0.7650     5.2700     2.5810 C.3   1 <1>  -0.0170 
 17 C       -6.4050     1.7320    -0.6490 C.ar  1 <1>   0.3100 
 18 C       -4.4140     1.6790    -2.0330 C.ar  1 <1>  -0.1500 
 19 C       -6.4350     2.5220     1.4730 C.ar  1 <1>   0.1600 
 20 N        0.5710     6.4680    -0.9630 N.ar  1 <1>  -0.6200 
 21 C        0.0560     5.3640    -3.0270 C.3   1 <1>  -0.0970 
 22 C       -0.5740     5.3790     3.3150 C.3   1 <1>  -0.2400 
 23 N       -7.0960     2.0030     0.4880 N.ar  1 <1>  -0.6200 
 24 C       -7.1070     1.1720    -1.7280 C.ar  1 <1>  -0.1500 
 25 C       -5.1280     1.1350    -3.0660 C.ar  1 <1>  -0.1500 
 26 C       -6.4920     0.8760    -2.9130 C.ar  1 <1>  -0.1500 
 27 H        0.9610     0.6200     1.5440 H     1 <1>   0.0800 
 28 H       -0.1080    -0.4090     0.5920 H     1 <1>   0.0800 
 29 H       -2.9030     0.1070     1.8450 H     1 <1>   0.0800 
 30 H       -2.4700     1.6350     2.6040 H     1 <1>   0.0800 
 31 H       -0.1690     1.6330    -0.6740 H     1 <1>   0.0800 
 32 H       -2.3370     0.8250    -0.2450 H     1 <1>   0.0800 
 33 H       -0.0550     2.9110     2.0130 H     1 <1>   0.4000 
 34 H       -2.5810     3.3070    -0.6460 H     1 <1>   0.0800 
 35 H       -2.6010     3.5440     1.0610 H     1 <1>   0.0800 
 36 H       -4.6150     3.2360     2.3150 H     1 <1>   0.1500 
 37 H        1.0060     7.3360     0.8380 H     1 <1>   0.1500 
 38 H        1.2780     4.3720     2.8810 H     1 <1>   0.0800 
 39 H        1.3900     6.1000     2.8620 H     1 <1>   0.0800 
 40 H       -3.3680     1.8760    -2.1730 H     1 <1>   0.1500 
 41 H       -6.9730     2.7460     2.3790 H     1 <1>   0.1500 
 42 H        0.8920     5.8630    -3.4790 H     1 <1>   0.0800 
 43 H       -0.8440     5.9010    -3.2590 H     1 <1>   0.0800 
 44 H       -0.0150     4.3690    -3.4250 H     1 <1>   0.0800 
 45 H       -1.2080     4.5460     3.0710 H     1 <1>   0.0800 
 46 H       -1.0780     6.2870     3.0330 H     1 <1>   0.0800 
 47 H       -0.4130     5.3900     4.3780 H     1 <1>   0.0800 
 48 H       -8.1560     0.9830    -1.5890 H     1 <1>   0.1500 
 49 H       -4.6530     0.9030    -4.0040 H     1 <1>   0.1500 
 50 H       -7.0430     0.4460    -3.7320 H     1 <1>   0.1500 
@<TRIPOS>BOND
  1   1   2  1   
  2   1   3  1   
  3   2   4  1   
  4   2  27  1   
  5   2  28  1   
  6   3   5  1   
  7   3  29  1   
  8   3  30  1   
  9   4   5  1   
 10   4   6  1   
 11   4  31  1   
 12   5   7  1   
 13   5  32  1   
 14   6   8  1   
 15   6  33  1   
 16   7   9  1   
 17   7  34  1   
 18   7  35  1   
 19   8  10  ar  
 20   8  11  ar  
 21   9  12  ar  
 22   9  13  ar  
 23  10  14  ar  
 24  11  15  ar  
 25  11  16  1   
 26  12  17  ar  
 27  12  18  ar  
 28  13  19  ar  
 29  13  36  1   
 30  14  20  ar  
 31  14  21  1   
 32  15  20  ar  
 33  15  37  1   
 34  16  22  1   
 35  16  38  1   
 36  16  39  1   
 37  17  23  ar  
 38  17  24  ar  
 39  18  25  ar  
 40  18  40  1   
 41  19  23  ar  
 42  19  41  1   
 43  21  42  1   
 44  21  43  1   
 45  21  44  1   
 46  22  45  1   
 47  22  46  1   
 48  22  47  1   
 49  24  26  ar  
 50  24  48  1   
 51  25  26  ar  
 52  25  49  1   
 53  26  50  1   
@<TRIPOS>SUBSTRUCTURE
  1 ****   7 GROUP 4 **** **** 0

# MOE 2024.06 (io_trps.svl 2023.06)
