@<TRIPOS>MOLECULE
NONAME
36 37 1 0 0 
SMALL
USER_CHARGES


@<TRIPOS>ATOM
  1 CL      -0.1080     0.7520    -0.5580 Cl    1 <1>  -0.1770 
  2 C        1.4870     1.4490    -0.3820 C.ar  1 <1>   0.1770 
  3 C        2.4430     0.8160     0.3910 C.ar  1 <1>   0.1600 
  4 C        1.7870     2.6330    -1.0190 C.ar  1 <1>  -0.1500 
  5 N        3.6730     1.2710     0.5800 N.ar  1 <1>  -0.6200 
  6 C        3.0630     3.1130    -0.8290 C.ar  1 <1>  -0.1500 
  7 C        3.9740     2.4170    -0.0290 C.ar  1 <1>   0.4100 
  8 N        5.2520     2.9220     0.1560 N.pl3 1 <1>  -0.8380 
  9 C        5.3980     4.3240     0.6310 C.3   1 <1>   0.2090 
 10 C        6.3410     2.0020     0.5900 C.3   1 <1>   0.1290 
 11 C        6.1470     5.1370    -0.4240 C.3   1 <1>  -0.1600 
 12 C        6.4020     6.5720     0.0420 C.3   1 <1>   0.2000 
 13 O        5.1730     7.1530     0.3560 O.3   1 <1>  -0.5600 
 14 C        7.0920     7.4120    -1.0440 C.3   1 <1>  -0.1600 
 15 C        5.2490     8.4360     0.9010 C.3   1 <1>   0.1200 
 16 C        7.2290     8.8740    -0.6040 C.3   1 <1>  -0.1600 
 17 C        5.8690     9.3930    -0.1240 C.3   1 <1>  -0.1600 
 18 H        2.1790    -0.1070     0.8740 H     1 <1>   0.1500 
 19 H        1.0610     3.1430    -1.6270 H     1 <1>   0.1500 
 20 H        3.3770     4.0260    -1.2970 H     1 <1>   0.1500 
 21 H        5.9370     4.3370     1.5630 H     1 <1>   0.0800 
 22 H        4.4280     4.7580     0.8090 H     1 <1>   0.0800 
 23 H        6.2540     1.0630     0.0710 H     1 <1>   0.0800 
 24 H        6.2640     1.8210     1.6490 H     1 <1>   0.0800 
 25 H        7.3010     2.4300     0.3670 H     1 <1>   0.0800 
 26 H        5.5750     5.1550    -1.3330 H     1 <1>   0.0800 
 27 H        7.0900     4.6670    -0.6290 H     1 <1>   0.0800 
 28 H        7.0020     6.5590     0.9370 H     1 <1>   0.0800 
 29 H        6.5110     7.3610    -1.9490 H     1 <1>   0.0800 
 30 H        8.0650     7.0040    -1.2540 H     1 <1>   0.0800 
 31 H        5.8380     8.3930     1.8020 H     1 <1>   0.0800 
 32 H        4.2490     8.7460     1.1500 H     1 <1>   0.0800 
 33 H        7.5900     9.4760    -1.4200 H     1 <1>   0.0800 
 34 H        7.9390     8.9380     0.2020 H     1 <1>   0.0800 
 35 H        5.9820    10.3680     0.3150 H     1 <1>   0.0800 
 36 H        5.1970     9.4840    -0.9600 H     1 <1>   0.0800 
@<TRIPOS>BOND
  1   1   2  1   
  2   2   3  ar  
  3   2   4  ar  
  4   3   5  ar  
  5   3  18  1   
  6   4   6  ar  
  7   4  19  1   
  8   5   7  ar  
  9   6   7  ar  
 10   6  20  1   
 11   7   8  1   
 12   8   9  1   
 13   8  10  1   
 14   9  11  1   
 15   9  21  1   
 16   9  22  1   
 17  10  23  1   
 18  10  24  1   
 19  10  25  1   
 20  11  12  1   
 21  11  26  1   
 22  11  27  1   
 23  12  13  1   
 24  12  14  1   
 25  12  28  1   
 26  13  15  1   
 27  14  16  1   
 28  14  29  1   
 29  14  30  1   
 30  15  17  1   
 31  15  31  1   
 32  15  32  1   
 33  16  17  1   
 34  16  33  1   
 35  16  34  1   
 36  17  35  1   
 37  17  36  1   
@<TRIPOS>SUBSTRUCTURE
  1 ****   9 GROUP 4 **** **** 0

# MOE 2024.06 (io_trps.svl 2023.06)
