@<TRIPOS>MOLECULE
NONAME
51 54 1 0 0 
SMALL
USER_CHARGES


@<TRIPOS>ATOM
  1 S       -0.2670    -0.1630     0.4130 S.3   1 <1>  -0.3320 
  2 C        0.9220     0.9870     1.1270 C.ar  1 <1>   0.1020 
  3 C       -1.5780     0.8640    -0.3900 C.3   1 <1>   0.2500 
  4 C        2.0140     0.4340     1.7720 C.ar  1 <1>  -0.1500 
  5 C        0.7670     2.3630     1.0450 C.ar  1 <1>  -0.1500 
  6 C       -2.6210    -0.0610    -0.9880 C.2   1 <1>  -0.0400 
  7 C        2.9660     1.2630     2.3400 C.ar  1 <1>  -0.1500 
  8 C        1.7230     3.1870     1.6150 C.ar  1 <1>  -0.1500 
  9 O       -3.5120    -0.6140    -0.1970 O.3   1 <1>  -0.2800 
 10 C       -2.8290    -0.4450    -2.2660 C.2   1 <1>  -0.1500 
 11 C        2.8190     2.6390     2.2610 C.ar  1 <1>  -0.1500 
 12 C       -4.3240    -1.3790    -0.9210 C.2   1 <1>   0.0550 
 13 C       -3.9320    -1.2990    -2.2240 C.2   1 <1>  -0.1500 
 14 C       -5.4020    -2.1200    -0.3000 C.2   1 <1>   0.7150 
 15 O       -6.1030    -1.5850     0.5430 O.2   1 <1>  -0.5700 
 16 N       -5.6720    -3.4320    -0.6560 N.am  1 <1>  -0.6600 
 17 C       -6.9570    -4.0630    -0.2300 C.3   1 <1>   0.2200 
 18 C       -4.6390    -4.2940    -1.3070 C.3   1 <1>   0.0600 
 19 C       -6.8000    -4.9470     1.0020 C.3   1 <1>  -0.1600 
 20 C       -7.5980    -4.9740    -1.2760 C.3   1 <1>  -0.1600 
 21 C       -8.0340    -5.8600     0.9810 C.3   1 <1>  -0.0800 
 22 C       -8.5540    -5.8610    -0.4690 C.3   1 <1>  -0.0800 
 23 C       -9.1860    -5.3430     1.8560 C.3   1 <1>  -0.1600 
 24 C       -9.9890    -5.3170    -0.4130 C.3   1 <1>  -0.1600 
 25 C      -10.4360    -5.5620     1.0190 C.3   1 <1>   0.2000 
 26 O      -11.4100    -4.6560     1.3740 O.3   1 <1>  -0.6800 
 27 H       -2.0120     1.4950     0.3640 H     1 <1>   0.0800 
 28 H       -1.0980     1.4500    -1.1510 H     1 <1>   0.0800 
 29 H        2.1140    -0.6350     1.8260 H     1 <1>   0.1500 
 30 H       -0.0740     2.8060     0.5510 H     1 <1>   0.1500 
 31 H        3.8180     0.8390     2.8430 H     1 <1>   0.1500 
 32 H        1.6150     4.2560     1.5580 H     1 <1>   0.1500 
 33 H       -2.2790    -0.1710    -3.1490 H     1 <1>   0.1500 
 34 H        3.5600     3.2830     2.7030 H     1 <1>   0.1500 
 35 H       -4.3750    -1.7870    -3.0730 H     1 <1>   0.1500 
 36 H       -7.6750    -3.2940     0.0040 H     1 <1>   0.0800 
 37 H       -4.6630    -5.2870    -0.8960 H     1 <1>   0.0800 
 38 H       -3.6530    -3.8940    -1.1450 H     1 <1>   0.0800 
 39 H       -4.8270    -4.3480    -2.3650 H     1 <1>   0.0800 
 40 H       -5.9190    -5.5540     0.9160 H     1 <1>   0.0800 
 41 H       -6.7340    -4.3580     1.9000 H     1 <1>   0.0800 
 42 H       -8.1050    -4.4090    -2.0390 H     1 <1>   0.0800 
 43 H       -6.8640    -5.6090    -1.7350 H     1 <1>   0.0800 
 44 H       -7.7700    -6.8600     1.2820 H     1 <1>   0.0800 
 45 H       -8.5640    -6.8650    -0.8590 H     1 <1>   0.0800 
 46 H       -9.0600    -4.2920     2.0530 H     1 <1>   0.0800 
 47 H       -9.2420    -5.8790     2.7870 H     1 <1>   0.0800 
 48 H      -10.6290    -5.8230    -1.1130 H     1 <1>   0.0800 
 49 H       -9.9940    -4.2600    -0.6180 H     1 <1>   0.0800 
 50 H      -10.8200    -6.5610     1.1420 H     1 <1>   0.0800 
 51 H      -11.0590    -3.7490     1.2980 H     1 <1>   0.4000 
@<TRIPOS>BOND
  1   1   2  1   
  2   1   3  1   
  3   2   4  ar  
  4   2   5  ar  
  5   3   6  1   
  6   3  27  1   
  7   3  28  1   
  8   4   7  ar  
  9   4  29  1   
 10   5   8  ar  
 11   5  30  1   
 12   6   9  1   
 13   6  10  2   
 14   7  11  ar  
 15   7  31  1   
 16   8  11  ar  
 17   8  32  1   
 18   9  12  1   
 19  10  13  1   
 20  10  33  1   
 21  11  34  1   
 22  12  13  2   
 23  12  14  1   
 24  13  35  1   
 25  14  15  2   
 26  14  16  am  
 27  16  17  1   
 28  16  18  1   
 29  17  19  1   
 30  17  20  1   
 31  17  36  1   
 32  18  37  1   
 33  18  38  1   
 34  18  39  1   
 35  19  21  1   
 36  19  40  1   
 37  19  41  1   
 38  20  22  1   
 39  20  42  1   
 40  20  43  1   
 41  21  22  1   
 42  21  23  1   
 43  21  44  1   
 44  22  24  1   
 45  22  45  1   
 46  23  25  1   
 47  23  46  1   
 48  23  47  1   
 49  24  25  1   
 50  24  48  1   
 51  24  49  1   
 52  25  26  1   
 53  25  50  1   
 54  26  51  1   
@<TRIPOS>SUBSTRUCTURE
  1 ****  12 GROUP 4 **** **** 0

# MOE 2024.06 (io_trps.svl 2023.06)
