@<TRIPOS>MOLECULE
NONAME
46 48 1 0 0 
SMALL
USER_CHARGES


@<TRIPOS>ATOM
  1 O       -0.4340     0.1360     0.8710 O.2   1 <1>  -0.5700 
  2 C       -1.2150     0.7490     0.1670 C.2   1 <1>   0.7160 
  3 N       -2.3010     0.0800    -0.3500 N.am  1 <1>  -0.6600 
  4 C       -1.0070     2.1530    -0.0870 C.2   1 <1>  -0.0860 
  5 C       -3.6270     0.7130    -0.5850 C.3   1 <1>   0.1400 
  6 C       -2.4700    -1.3940    -0.2190 C.3   1 <1>   0.1400 
  7 C       -1.3650     2.8550    -1.2400 C.2   1 <1>   0.1390 
  8 C       -0.4240     3.1130     0.6840 C.2   1 <1>  -0.3020 
  9 C       -4.6310    -0.3100    -0.0610 C.3   1 <1>   0.2000 
 10 C       -3.9710    -1.6500    -0.3940 C.3   1 <1>  -0.0800 
 11 N       -1.0620     4.1120    -1.1860 N.2   1 <1>  -0.7070 
 12 N       -0.4670     4.2750     0.0150 N.pl3 1 <1>   0.3140 
 13 O       -4.7180    -0.1620     1.3160 O.3   1 <1>  -0.6800 
 14 C       -4.4900    -2.8630     0.3990 C.3   1 <1>   0.0210 
 15 C        0.0640     5.5840     0.4950 C.3   1 <1>   0.1760 
 16 C       -3.7680    -4.1280    -0.0220 C.2   1 <1>   0.1080 
 17 C       -1.0660     6.6160     0.6160 C.3   1 <1>  -0.2400 
 18 C        1.1730     6.0940    -0.4360 C.3   1 <1>  -0.2400 
 19 N       -3.8310    -4.6080    -1.2250 N.2   1 <1>  -0.7070 
 20 C       -2.9640    -4.8990     0.8110 C.2   1 <1>  -0.1500 
 21 N       -3.0640    -5.7140    -1.1900 N.pl3 1 <1>   0.3000 
 22 C       -2.5250    -5.9090     0.0320 C.2   1 <1>  -0.3320 
 23 C       -1.6110    -7.0680     0.3850 C.3   1 <1>  -0.0600 
 24 H       -3.7270     1.6590    -0.0780 H     1 <1>   0.0800 
 25 H       -3.7670     0.8530    -1.6430 H     1 <1>   0.0800 
 26 H       -1.8980    -1.9120    -0.9710 H     1 <1>   0.0800 
 27 H       -2.1400    -1.7110     0.7560 H     1 <1>   0.0800 
 28 H       -1.8400     2.4020    -2.0930 H     1 <1>   0.1500 
 29 H        0.0100     3.0020     1.6610 H     1 <1>   0.1500 
 30 H       -5.6150    -0.1980    -0.4840 H     1 <1>   0.0800 
 31 H       -4.1390    -1.8440    -1.4390 H     1 <1>   0.0800 
 32 H       -3.8120    -0.1410     1.6870 H     1 <1>   0.4000 
 33 H       -5.5420    -2.9890     0.2140 H     1 <1>   0.0800 
 34 H       -4.3530    -2.7150     1.4540 H     1 <1>   0.0800 
 35 H        0.4850     5.4220     1.4710 H     1 <1>   0.0800 
 36 H       -1.5050     6.8030    -0.3480 H     1 <1>   0.0800 
 37 H       -0.6830     7.5420     1.0050 H     1 <1>   0.0800 
 38 H       -1.8280     6.2540     1.2840 H     1 <1>   0.0800 
 39 H        0.7800     6.2720    -1.4220 H     1 <1>   0.0800 
 40 H        1.9640     5.3680    -0.5010 H     1 <1>   0.0800 
 41 H        1.5820     7.0130    -0.0580 H     1 <1>   0.0800 
 42 H       -2.7540    -4.7070     1.8480 H     1 <1>   0.1500 
 43 H       -2.9290    -6.3120    -2.0140 H     1 <1>   0.2700 
 44 H       -1.3140    -7.0020     1.4170 H     1 <1>   0.0800 
 45 H       -0.7270    -7.0450    -0.2270 H     1 <1>   0.0800 
 46 H       -2.1200    -8.0030     0.2340 H     1 <1>   0.0800 
@<TRIPOS>BOND
  1   1   2  2   
  2   2   3  am  
  3   2   4  1   
  4   3   5  1   
  5   3   6  1   
  6   4   7  1   
  7   4   8  2   
  8   5   9  1   
  9   5  24  1   
 10   5  25  1   
 11   6  10  1   
 12   6  26  1   
 13   6  27  1   
 14   7  11  2   
 15   7  28  1   
 16   8  12  1   
 17   8  29  1   
 18   9  10  1   
 19   9  13  1   
 20   9  30  1   
 21  10  14  1   
 22  10  31  1   
 23  11  12  1   
 24  12  15  1   
 25  13  32  1   
 26  14  16  1   
 27  14  33  1   
 28  14  34  1   
 29  15  17  1   
 30  15  18  1   
 31  15  35  1   
 32  16  19  2   
 33  16  20  1   
 34  17  36  1   
 35  17  37  1   
 36  17  38  1   
 37  18  39  1   
 38  18  40  1   
 39  18  41  1   
 40  19  21  1   
 41  20  22  2   
 42  20  42  1   
 43  21  22  1   
 44  21  43  1   
 45  22  23  1   
 46  23  44  1   
 47  23  45  1   
 48  23  46  1   
@<TRIPOS>SUBSTRUCTURE
  1 ****   3 GROUP 4 **** **** 0

# MOE 2024.06 (io_trps.svl 2023.06)
