@<TRIPOS>MOLECULE
NONAME
55 57 1 0 0 
SMALL
USER_CHARGES


@<TRIPOS>ATOM
  1 O        1.0520     2.7440     0.3310 O.3   1 <1>  -0.3630 
  2 C        0.1310     3.5300    -0.2710 C.ar  1 <1>   0.0820 
  3 C        1.6350     1.6600    -0.3590 C.3   1 <1>   0.1200 
  4 C       -0.8590     4.1110     0.5200 C.ar  1 <1>  -0.1440 
  5 C        0.1770     3.7930    -1.6370 C.ar  1 <1>  -0.1500 
  6 C        2.3740     0.8000     0.6610 C.3   1 <1>  -0.2400 
  7 C       -1.7650     4.9800    -0.0660 C.ar  1 <1>  -0.1500 
  8 C       -1.0190     3.7810     2.0040 C.3   1 <1>  -0.0170 
  9 C       -0.7460     4.6480    -2.2100 C.ar  1 <1>  -0.1500 
 10 C       -1.7090     5.2510    -1.4220 C.ar  1 <1>  -0.1500 
 11 C       -0.4410     4.8590     2.9320 C.3   1 <1>  -0.1600 
 12 C        1.0910     4.8960     2.9290 C.3   1 <1>   0.2090 
 13 N        1.5640     6.2650     2.6260 N.pl3 1 <1>  -0.8690 
 14 C        1.7060     6.9070     1.4650 C.ar  1 <1>   0.7710 
 15 N        2.2880     8.0880     1.5240 N.ar  1 <1>  -0.6200 
 16 N        1.2650     6.3620     0.3200 N.ar  1 <1>  -0.1790 
 17 C        2.4670     8.7480     0.3950 C.ar  1 <1>   0.4100 
 18 C        1.4070     7.0160    -0.8550 C.ar  1 <1>   0.2110 
 19 N        3.1010     9.9480     0.4570 N.pl3 1 <1>  -0.8380 
 20 C        2.0120     8.2260    -0.8330 C.ar  1 <1>  -0.1500 
 21 C        3.9520    10.5210    -0.6380 C.3   1 <1>   0.2090 
 22 C        3.0980    10.7970     1.6890 C.3   1 <1>   0.2090 
 23 C        3.4590    11.9280    -1.0130 C.3   1 <1>   0.2000 
 24 C        2.5970    12.2050     1.3410 C.3   1 <1>  -0.1600 
 25 O        4.3100    12.4850    -1.9520 O.3   1 <1>  -0.6800 
 26 C        3.4100    12.8550     0.2070 C.3   1 <1>  -0.1600 
 27 H        2.3210     2.0430    -1.0950 H     1 <1>   0.0800 
 28 H        0.8520     1.0950    -0.8380 H     1 <1>   0.0800 
 29 H        0.9210     3.3380    -2.2660 H     1 <1>   0.1500 
 30 H        3.1450     1.3720     1.1450 H     1 <1>   0.0800 
 31 H        2.8300    -0.0380     0.1660 H     1 <1>   0.0800 
 32 H        1.6860     0.4250     1.3980 H     1 <1>   0.0800 
 33 H       -2.5410     5.4370     0.5270 H     1 <1>   0.1500 
 34 H       -0.5780     2.8250     2.2320 H     1 <1>   0.0800 
 35 H       -2.0710     3.6810     2.2130 H     1 <1>   0.0800 
 36 H       -0.7230     4.8390    -3.2710 H     1 <1>   0.1500 
 37 H       -2.4330     5.9150    -1.8680 H     1 <1>   0.1500 
 38 H       -0.7620     4.6360     3.9350 H     1 <1>   0.0800 
 39 H       -0.8570     5.8180     2.6750 H     1 <1>   0.0800 
 40 H        1.5040     4.2030     2.2180 H     1 <1>   0.0800 
 41 H        1.4590     4.6060     3.9000 H     1 <1>   0.0800 
 42 H        1.9090     6.7890     3.4390 H     1 <1>   0.4000 
 43 H        0.7880     5.4600     0.3940 H     1 <1>   0.4570 
 44 H        1.0340     6.5650    -1.7590 H     1 <1>   0.1500 
 45 H        2.1350     8.8020    -1.7300 H     1 <1>   0.1500 
 46 H        3.9470     9.8920    -1.5080 H     1 <1>   0.0800 
 47 H        4.9650    10.5840    -0.2800 H     1 <1>   0.0800 
 48 H        4.0970    10.8470     2.0880 H     1 <1>   0.0800 
 49 H        2.4580    10.3760     2.4470 H     1 <1>   0.0800 
 50 H        2.4850    11.8530    -1.4660 H     1 <1>   0.0800 
 51 H        2.6470    12.8240     2.2190 H     1 <1>   0.0800 
 52 H        1.5620    12.1380     1.0510 H     1 <1>   0.0800 
 53 H        5.1350    12.7890    -1.5280 H     1 <1>   0.4000 
 54 H        2.9580    13.7910    -0.0680 H     1 <1>   0.0800 
 55 H        4.4080    13.0420     0.5630 H     1 <1>   0.0800 
@<TRIPOS>BOND
  1   1   2  1   
  2   1   3  1   
  3   2   4  ar  
  4   2   5  ar  
  5   3   6  1   
  6   3  27  1   
  7   3  28  1   
  8   4   7  ar  
  9   4   8  1   
 10   5   9  ar  
 11   5  29  1   
 12   6  30  1   
 13   6  31  1   
 14   6  32  1   
 15   7  10  ar  
 16   7  33  1   
 17   8  11  1   
 18   8  34  1   
 19   8  35  1   
 20   9  10  ar  
 21   9  36  1   
 22  10  37  1   
 23  11  12  1   
 24  11  38  1   
 25  11  39  1   
 26  12  13  1   
 27  12  40  1   
 28  12  41  1   
 29  13  14  1   
 30  13  42  1   
 31  14  15  ar  
 32  14  16  ar  
 33  15  17  ar  
 34  16  18  ar  
 35  16  43  1   
 36  17  19  1   
 37  17  20  ar  
 38  18  20  ar  
 39  18  44  1   
 40  19  21  1   
 41  19  22  1   
 42  20  45  1   
 43  21  23  1   
 44  21  46  1   
 45  21  47  1   
 46  22  24  1   
 47  22  48  1   
 48  22  49  1   
 49  23  25  1   
 50  23  26  1   
 51  23  50  1   
 52  24  26  1   
 53  24  51  1   
 54  24  52  1   
 55  25  53  1   
 56  26  54  1   
 57  26  55  1   
@<TRIPOS>SUBSTRUCTURE
  1 ****  16 GROUP 4 **** **** 0

# MOE 2024.06 (io_trps.svl 2023.06)
