@<TRIPOS>MOLECULE
NONAME
57 60 1 0 0 
SMALL
USER_CHARGES


@<TRIPOS>ATOM
  1 CL      -4.5120    -0.0840    -2.0350 Cl    1 <1>  -0.1770 
  2 C       -3.4800    -0.9540    -0.9160 C.ar  1 <1>   0.1770 
  3 C       -2.4860    -0.2760    -0.2040 C.ar  1 <1>   0.1000 
  4 C       -3.6900    -2.3070    -0.7700 C.ar  1 <1>  -0.1500 
  5 N       -2.2780     1.0940    -0.3490 N.pl3 1 <1>  -0.8380 
  6 C       -1.7120    -1.0300     0.6740 C.ar  1 <1>  -0.1500 
  7 C       -2.9190    -3.0600     0.1150 C.ar  1 <1>   0.0860 
  8 C       -0.9110     1.6470    -0.5100 C.3   1 <1>   0.2090 
  9 C       -3.1060     2.0080     0.4720 C.3   1 <1>   0.2090 
 10 C       -1.9220    -2.3890     0.8240 C.ar  1 <1>  -0.1500 
 11 C       -3.1380    -4.4800     0.2890 C.2   1 <1>   0.5440 
 12 C       -0.8030     2.7320     0.5520 C.3   1 <1>  -0.1600 
 13 C       -2.2330     3.2330     0.7210 C.3   1 <1>  -0.1600 
 14 O       -2.1950    -5.2420     0.1750 O.2   1 <1>  -0.5700 
 15 N       -4.3860    -4.9910     0.5750 N.am  1 <1>  -0.6600 
 16 C       -4.7140    -6.4420     0.4260 C.3   1 <1>   0.1400 
 17 C       -5.5170    -4.1910     1.1240 C.3   1 <1>   0.1400 
 18 C       -5.9250    -6.5890    -0.5070 C.3   1 <1>   0.2000 
 19 C       -6.7400    -4.3320     0.2070 C.3   1 <1>  -0.1600 
 20 O       -6.2240    -7.9320    -0.6650 O.3   1 <1>  -0.6800 
 21 C       -7.1690    -5.8170     0.0090 C.3   1 <1>  -0.1060 
 22 C       -7.6430    -6.4540     1.3310 C.2   1 <1>   0.9060 
 23 C       -8.3020    -5.9200    -1.0480 C.3   1 <1>  -0.0160 
 24 O       -7.7690    -7.6870     1.3830 O.co2 1 <1>  -0.9000 
 25 O       -7.8820    -5.7530     2.3210 O.co2 1 <1>  -0.9000 
 26 C       -9.4020    -4.8670    -0.9260 C.ar  1 <1>  -0.1430 
 27 C       -9.5320    -3.8740    -1.8870 C.ar  1 <1>  -0.1500 
 28 C      -10.2830    -4.8890     0.1440 C.ar  1 <1>  -0.1500 
 29 C      -10.5290    -2.9190    -1.7800 C.ar  1 <1>  -0.1500 
 30 C      -11.2780    -3.9340     0.2540 C.ar  1 <1>  -0.1500 
 31 C      -11.4020    -2.9480    -0.7080 C.ar  1 <1>  -0.1500 
 32 H       -4.4570    -2.7900    -1.3460 H     1 <1>   0.1500 
 33 H       -0.9450    -0.5430     1.2470 H     1 <1>   0.1500 
 34 H       -0.1520     0.8930    -0.3960 H     1 <1>   0.0800 
 35 H       -0.8320     2.0800    -1.4930 H     1 <1>   0.0800 
 36 H       -4.0090     2.2700    -0.0530 H     1 <1>   0.0800 
 37 H       -3.3570     1.5280     1.4030 H     1 <1>   0.0800 
 38 H       -1.3080    -2.9560     1.5030 H     1 <1>   0.1500 
 39 H       -0.4580     2.2890     1.4690 H     1 <1>   0.0800 
 40 H       -0.1240     3.5130     0.2580 H     1 <1>   0.0800 
 41 H       -2.4520     3.9720    -0.0310 H     1 <1>   0.0800 
 42 H       -2.4090     3.6590     1.6920 H     1 <1>   0.0800 
 43 H       -3.8790    -6.9750     0.0070 H     1 <1>   0.0800 
 44 H       -4.9400    -6.8550     1.3940 H     1 <1>   0.0800 
 45 H       -5.7540    -4.5560     2.1100 H     1 <1>   0.0800 
 46 H       -5.2530    -3.1550     1.2240 H     1 <1>   0.0800 
 47 H       -5.6390    -6.2220    -1.4770 H     1 <1>   0.0800 
 48 H       -7.5510    -3.7800     0.6510 H     1 <1>   0.0800 
 49 H       -6.5250    -3.8810    -0.7430 H     1 <1>   0.0800 
 50 H       -6.8190    -8.1670     0.1130 H     1 <1>   0.4000 
 51 H       -7.8710    -5.8450    -2.0300 H     1 <1>   0.0800 
 52 H       -8.7540    -6.8960    -0.9890 H     1 <1>   0.0800 
 53 H       -8.8560    -3.8410    -2.7220 H     1 <1>   0.1500 
 54 H      -10.1900    -5.6490     0.9040 H     1 <1>   0.1500 
 55 H      -10.6220    -2.1530    -2.5300 H     1 <1>   0.1500 
 56 H      -11.9480    -3.9630     1.0950 H     1 <1>   0.1500 
 57 H      -12.1760    -2.2060    -0.6200 H     1 <1>   0.1500 
@<TRIPOS>BOND
  1   1   2  1   
  2   2   3  ar  
  3   2   4  ar  
  4   3   5  1   
  5   3   6  ar  
  6   4   7  ar  
  7   4  32  1   
  8   5   8  1   
  9   5   9  1   
 10   6  10  ar  
 11   6  33  1   
 12   7  10  ar  
 13   7  11  1   
 14   8  12  1   
 15   8  34  1   
 16   8  35  1   
 17   9  13  1   
 18   9  36  1   
 19   9  37  1   
 20  10  38  1   
 21  11  14  2   
 22  11  15  am  
 23  12  13  1   
 24  12  39  1   
 25  12  40  1   
 26  13  41  1   
 27  13  42  1   
 28  15  16  1   
 29  15  17  1   
 30  16  18  1   
 31  16  43  1   
 32  16  44  1   
 33  17  19  1   
 34  17  45  1   
 35  17  46  1   
 36  18  20  1   
 37  18  21  1   
 38  18  47  1   
 39  19  21  1   
 40  19  48  1   
 41  19  49  1   
 42  20  50  1   
 43  21  22  1   
 44  21  23  1   
 45  22  24  ar  
 46  22  25  ar  
 47  23  26  1   
 48  23  51  1   
 49  23  52  1   
 50  26  27  ar  
 51  26  28  ar  
 52  27  29  ar  
 53  27  53  1   
 54  28  30  ar  
 55  28  54  1   
 56  29  31  ar  
 57  29  55  1   
 58  30  31  ar  
 59  30  56  1   
 60  31  57  1   
@<TRIPOS>SUBSTRUCTURE
  1 ****  17 GROUP 4 **** **** 0

# MOE 2024.06 (io_trps.svl 2023.06)
