@<TRIPOS>MOLECULE
NONAME
29 29 1 0 0 
SMALL
USER_CHARGES


@<TRIPOS>ATOM
  1 F        0.6240     0.1210     0.1170 F     1 <1>  -0.3400 
  2 C        1.0130    -1.1420     0.1770 C.3   1 <1>   0.6800 
  3 F        1.9250    -1.1770     1.1430 F     1 <1>  -0.3400 
  4 C        1.6750    -1.5510    -1.1420 C.3   1 <1>  -0.1600 
  5 C       -0.1650    -2.0370     0.5710 C.3   1 <1>  -0.1600 
  6 C        2.0850    -3.0360    -1.1220 C.3   1 <1>  -0.1600 
  7 C        0.2370    -3.5240     0.5760 C.3   1 <1>  -0.1600 
  8 C        0.8870    -3.9410    -0.7610 C.3   1 <1>  -0.0800 
  9 C        1.2230    -5.4490    -0.8000 C.3   1 <1>  -0.1600 
 10 C        1.9380    -6.0550     0.4250 C.3   1 <1>   0.3170 
 11 N        3.3310    -5.5170     0.5400 N.4   1 <1>  -0.8530 
 12 C        2.0310    -7.5920     0.3490 C.2   1 <1>   0.9060 
 13 O        3.1900    -8.0400     0.3670 O.co2 1 <1>  -0.9000 
 14 O        1.0180    -8.2840     0.2990 O.co2 1 <1>  -0.9000 
 15 H        2.5320    -0.9260    -1.3200 H     1 <1>   0.0800 
 16 H        0.9700    -1.3940    -1.9380 H     1 <1>   0.0800 
 17 H       -0.9540    -1.8940    -0.1450 H     1 <1>   0.0800 
 18 H       -0.5300    -1.7440     1.5390 H     1 <1>   0.0800 
 19 H        2.8760    -3.1450    -0.4050 H     1 <1>   0.0800 
 20 H        2.4680    -3.3050    -2.0920 H     1 <1>   0.0800 
 21 H       -0.6400    -4.1240     0.7580 H     1 <1>   0.0800 
 22 H        0.9210    -3.6860     1.3910 H     1 <1>   0.0800 
 23 H        0.1480    -3.7850    -1.5310 H     1 <1>   0.0800 
 24 H        1.7700    -5.6910    -1.6950 H     1 <1>   0.0800 
 25 H        0.2840    -5.9730    -0.8840 H     1 <1>   0.0800 
 26 H        1.3800    -5.8280     1.3160 H     1 <1>   0.0800 
 27 H        3.8750    -6.4150     0.5610 H     1 <1>   0.4500 
 28 H        3.5010    -5.0120     1.4090 H     1 <1>   0.4500 
 29 H        3.6120    -5.0120    -0.2980 H     1 <1>   0.4500 
@<TRIPOS>BOND
  1   1   2  1   
  2   2   3  1   
  3   2   4  1   
  4   2   5  1   
  5   4   6  1   
  6   4  15  1   
  7   4  16  1   
  8   5   7  1   
  9   5  17  1   
 10   5  18  1   
 11   6   8  1   
 12   6  19  1   
 13   6  20  1   
 14   7   8  1   
 15   7  21  1   
 16   7  22  1   
 17   8   9  1   
 18   8  23  1   
 19   9  10  1   
 20   9  24  1   
 21   9  25  1   
 22  10  11  1   
 23  10  12  1   
 24  10  26  1   
 25  11  27  1   
 26  11  28  1   
 27  11  29  1   
 28  12  13  ar  
 29  12  14  ar  
@<TRIPOS>SUBSTRUCTURE
  1 ****   8 GROUP 4 **** **** 0

# MOE 2024.06 (io_trps.svl 2023.06)
