@<TRIPOS>MOLECULE
NONAME
41 42 1 0 0 
SMALL
USER_CHARGES


@<TRIPOS>ATOM
  1 O       -5.1780    -3.1130    -0.8260 O.3   1 <1>  -0.6800 
  2 C       -3.9670    -2.4600    -0.6280 C.3   1 <1>   0.2640 
  3 C       -2.9230    -3.5450    -0.4610 C.ar  1 <1>  -0.1430 
  4 C       -2.8980    -4.2880     0.7070 C.ar  1 <1>  -0.1500 
  5 C       -2.0360    -3.8430    -1.4830 C.ar  1 <1>  -0.1500 
  6 C       -2.0590    -5.3860     0.8140 C.ar  1 <1>  -0.1430 
  7 C       -1.1500    -4.8960    -1.3500 C.ar  1 <1>  -0.1500 
  8 C       -1.1700    -5.6760    -0.2080 C.ar  1 <1>  -0.1500 
  9 C       -2.2070    -6.3250     1.9930 C.3   1 <1>   0.3530 
 10 N       -3.3120    -7.2960     1.7310 N.pl3 1 <1>  -0.8690 
 11 C       -4.2730    -7.4180     0.7970 C.ar  1 <1>   0.7710 
 12 N       -5.0810    -8.4420     0.9650 N.ar  1 <1>  -0.6200 
 13 N       -4.4120    -6.5570    -0.2270 N.ar  1 <1>  -0.1790 
 14 C       -6.0810    -8.5930     0.1140 C.ar  1 <1>   0.4100 
 15 C       -5.4070    -6.6800    -1.1300 C.ar  1 <1>   0.2110 
 16 N       -6.9170    -9.6350     0.3540 N.pl3 1 <1>  -0.8380 
 17 C       -6.2710    -7.7160    -0.9880 C.ar  1 <1>  -0.1430 
 18 C       -8.3780    -9.4550     0.5790 C.3   1 <1>   0.1290 
 19 C       -6.3950   -10.9590     0.7980 C.3   1 <1>   0.1290 
 20 C       -7.3810    -7.9330    -2.0140 C.3   1 <1>  -0.0970 
 21 H       -5.8920    -2.4520    -0.9390 H     1 <1>   0.4000 
 22 H       -4.0400    -1.8490     0.2560 H     1 <1>   0.0800 
 23 H       -3.7620    -1.8410    -1.4860 H     1 <1>   0.0800 
 24 H       -3.5750    -4.0380     1.5090 H     1 <1>   0.1500 
 25 H       -2.0340    -3.2600    -2.3890 H     1 <1>   0.1500 
 26 H       -0.4520    -5.1150    -2.1410 H     1 <1>   0.1500 
 27 H       -0.4960    -6.5140    -0.1310 H     1 <1>   0.1500 
 28 H       -2.4230    -5.7660     2.8890 H     1 <1>   0.0800 
 29 H       -1.2880    -6.8640     2.1500 H     1 <1>   0.0800 
 30 H       -3.3700    -8.0330     2.4400 H     1 <1>   0.4000 
 31 H       -3.7310    -5.7930    -0.2790 H     1 <1>   0.4570 
 32 H       -5.4710    -5.9550    -1.9260 H     1 <1>   0.1500 
 33 H       -8.6330    -8.4100     0.5740 H     1 <1>   0.0800 
 34 H       -8.6550    -9.8640     1.5360 H     1 <1>   0.0800 
 35 H       -8.9310    -9.9610    -0.1920 H     1 <1>   0.0800 
 36 H       -5.3570   -11.0600     0.5320 H     1 <1>   0.0800 
 37 H       -6.9490   -11.7500     0.3220 H     1 <1>   0.0800 
 38 H       -6.4910   -11.0500     1.8660 H     1 <1>   0.0800 
 39 H       -7.4310    -8.9720    -2.2890 H     1 <1>   0.0800 
 40 H       -7.2030    -7.3610    -2.9070 H     1 <1>   0.0800 
 41 H       -8.3310    -7.6370    -1.6080 H     1 <1>   0.0800 
@<TRIPOS>BOND
  1   1   2  1   
  2   1  21  1   
  3   2   3  1   
  4   2  22  1   
  5   2  23  1   
  6   3   4  ar  
  7   3   5  ar  
  8   4   6  ar  
  9   4  24  1   
 10   5   7  ar  
 11   5  25  1   
 12   6   8  ar  
 13   6   9  1   
 14   7   8  ar  
 15   7  26  1   
 16   8  27  1   
 17   9  10  1   
 18   9  28  1   
 19   9  29  1   
 20  10  11  1   
 21  10  30  1   
 22  11  12  ar  
 23  11  13  ar  
 24  12  14  ar  
 25  13  15  ar  
 26  13  31  1   
 27  14  16  1   
 28  14  17  ar  
 29  15  17  ar  
 30  15  32  1   
 31  16  18  1   
 32  16  19  1   
 33  17  20  1   
 34  18  33  1   
 35  18  34  1   
 36  18  35  1   
 37  19  36  1   
 38  19  37  1   
 39  19  38  1   
 40  20  39  1   
 41  20  40  1   
 42  20  41  1   
@<TRIPOS>SUBSTRUCTURE
  1 ****  13 GROUP 4 **** **** 0

# MOE 2024.06 (io_trps.svl 2023.06)
