@<TRIPOS>MOLECULE
NONAME
52 55 1 0 0 
SMALL
USER_CHARGES


@<TRIPOS>ATOM
  1 O        0.1180    -0.0050    -1.6350 O.2   1 <1>  -0.5700 
  2 C       -0.5970     0.2080    -0.6820 C.2   1 <1>   0.5690 
  3 N       -1.9300    -0.1310    -0.6890 N.am  1 <1>  -0.6600 
  4 C        0.0620     0.8420     0.5230 C.3   1 <1>   0.1570 
  5 C       -2.5640    -0.7640    -1.8800 C.3   1 <1>   0.1400 
  6 C       -2.8990     0.1490     0.4110 C.3   1 <1>   0.1400 
  7 N       -0.3440     2.2490     0.6410 N.pl3 1 <1>   0.3140 
  8 C       -3.2150    -2.0850    -1.4650 C.3   1 <1>  -0.1600 
  9 C       -3.5490    -1.1630     0.8530 C.3   1 <1>  -0.1600 
 10 N       -0.9410     2.7230     1.7530 N.2   1 <1>  -0.7070 
 11 C       -0.1730     3.2260    -0.2730 C.2   1 <1>  -0.3020 
 12 C       -4.2230    -1.8950    -0.3210 C.3   1 <1>   0.4240 
 13 C       -1.1360     3.9840     1.5150 C.2   1 <1>   0.1390 
 14 C       -0.6750     4.3590     0.2590 C.2   1 <1>  -0.1500 
 15 O       -5.2230    -1.0540    -0.8460 O.3   1 <1>  -0.5600 
 16 C       -4.7970    -3.2560     0.1270 C.ar  1 <1>  -0.1440 
 17 C       -6.4690    -1.0640    -0.2210 C.3   1 <1>   0.1200 
 18 C       -6.1610    -3.5140     0.0830 C.ar  1 <1>  -0.1440 
 19 C       -3.9540    -4.2550     0.5950 C.ar  1 <1>  -0.1500 
 20 C       -7.1050    -2.4370    -0.4130 C.3   1 <1>  -0.0170 
 21 C       -6.6600    -4.7400     0.4930 C.ar  1 <1>  -0.1500 
 22 C       -4.4330    -5.4880     1.0040 C.ar  1 <1>   0.0820 
 23 C       -5.8140    -5.7400     0.9650 C.ar  1 <1>   0.0820 
 24 O       -3.4720    -6.3590     1.4240 O.3   1 <1>  -0.3620 
 25 O       -6.3040    -6.9390     1.4000 O.3   1 <1>  -0.3620 
 26 C       -3.6250    -7.7520     1.2730 C.3   1 <1>   0.0400 
 27 C       -7.6870    -7.1840     1.5300 C.3   1 <1>   0.0400 
 28 H        1.1280     0.8040     0.4140 H     1 <1>   0.0800 
 29 H       -0.2140     0.3160     1.4160 H     1 <1>   0.0800 
 30 H       -1.8360    -0.9490    -2.6510 H     1 <1>   0.0800 
 31 H       -3.3080    -0.0960    -2.2810 H     1 <1>   0.0800 
 32 H       -3.6520     0.8290     0.0490 H     1 <1>   0.0800 
 33 H       -2.4220     0.6080     1.2560 H     1 <1>   0.0800 
 34 H       -2.4360    -2.7610    -1.1680 H     1 <1>   0.0800 
 35 H       -3.7190    -2.5240    -2.3070 H     1 <1>   0.0800 
 36 H       -4.2650    -0.9750     1.6300 H     1 <1>   0.0800 
 37 H       -2.7860    -1.7900     1.2760 H     1 <1>   0.0800 
 38 H        0.2850     3.0580    -1.2320 H     1 <1>   0.1500 
 39 H       -1.6010     4.6560     2.2180 H     1 <1>   0.1500 
 40 H       -0.7220     5.3450    -0.1680 H     1 <1>   0.1500 
 41 H       -7.0740    -0.3010    -0.6790 H     1 <1>   0.0800 
 42 H       -6.3450    -0.8360     0.8230 H     1 <1>   0.0800 
 43 H       -2.8940    -4.0940     0.6500 H     1 <1>   0.1500 
 44 H       -7.3150    -2.5910    -1.4570 H     1 <1>   0.0800 
 45 H       -8.0330    -2.4750     0.1290 H     1 <1>   0.0800 
 46 H       -7.7190    -4.8970     0.4370 H     1 <1>   0.1500 
 47 H       -2.6520    -8.2050     1.3350 H     1 <1>   0.0800 
 48 H       -4.0670    -7.9550     0.3130 H     1 <1>   0.0800 
 49 H       -4.2480    -8.1210     2.0670 H     1 <1>   0.0800 
 50 H       -7.8130    -8.1650     1.9510 H     1 <1>   0.0800 
 51 H       -8.1420    -7.1440     0.5560 H     1 <1>   0.0800 
 52 H       -8.1130    -6.4470     2.1880 H     1 <1>   0.0800 
@<TRIPOS>BOND
  1   1   2  2   
  2   2   3  am  
  3   2   4  1   
  4   3   5  1   
  5   3   6  1   
  6   4   7  1   
  7   4  28  1   
  8   4  29  1   
  9   5   8  1   
 10   5  30  1   
 11   5  31  1   
 12   6   9  1   
 13   6  32  1   
 14   6  33  1   
 15   7  10  1   
 16   7  11  1   
 17   8  12  1   
 18   8  34  1   
 19   8  35  1   
 20   9  12  1   
 21   9  36  1   
 22   9  37  1   
 23  10  13  2   
 24  11  14  2   
 25  11  38  1   
 26  12  15  1   
 27  12  16  1   
 28  13  14  1   
 29  13  39  1   
 30  14  40  1   
 31  15  17  1   
 32  16  18  ar  
 33  16  19  ar  
 34  17  20  1   
 35  17  41  1   
 36  17  42  1   
 37  18  20  1   
 38  18  21  ar  
 39  19  22  ar  
 40  19  43  1   
 41  20  44  1   
 42  20  45  1   
 43  21  23  ar  
 44  21  46  1   
 45  22  23  ar  
 46  22  24  1   
 47  23  25  1   
 48  24  26  1   
 49  25  27  1   
 50  26  47  1   
 51  26  48  1   
 52  26  49  1   
 53  27  50  1   
 54  27  51  1   
 55  27  52  1   
@<TRIPOS>SUBSTRUCTURE
  1 ****   9 GROUP 4 **** **** 0

# MOE 2024.06 (io_trps.svl 2023.06)
