@<TRIPOS>MOLECULE
NONAME
44 46 1 0 0 
SMALL
USER_CHARGES


@<TRIPOS>ATOM
  1 O       -0.0160    -0.6390     0.9390 O.3   1 <1>  -0.5600 
  2 C       -0.1070    -1.9800     0.5050 C.3   1 <1>   0.2800 
  3 C       -1.1800     0.0960     1.1840 C.3   1 <1>   0.1200 
  4 C       -1.5880    -2.4850     0.4910 C.3   1 <1>   0.2000 
  5 C        0.5420    -1.9900    -0.8990 C.3   1 <1>  -0.1600 
  6 C        0.7370    -2.7940     1.5140 C.3   1 <1>  -0.1600 
  7 C       -2.1170    -0.0320    -0.0170 C.3   1 <1>  -0.1600 
  8 O       -1.6850    -3.7860    -0.0290 O.3   1 <1>  -0.6800 
  9 C       -2.5820    -1.4880    -0.1890 C.3   1 <1>   0.2800 
 10 C        2.0650    -2.0470    -0.8130 C.3   1 <1>   0.2090 
 11 C        1.5510    -3.9060     0.8480 C.3   1 <1>   0.2090 
 12 O       -3.7930    -1.5930     0.4690 O.3   1 <1>  -0.6800 
 13 C       -2.8930    -1.7820    -1.6630 C.3   1 <1>  -0.2400 
 14 N        2.4780    -3.3310    -0.1730 N.pl3 1 <1>  -0.8380 
 15 C        3.6840    -3.9310    -0.4680 C.ar  1 <1>   0.7200 
 16 N        3.8570    -5.1820    -0.0580 N.ar  1 <1>  -0.6200 
 17 N        4.5740    -3.2010    -1.1410 N.ar  1 <1>  -0.6200 
 18 C        5.0050    -5.7390    -0.3450 C.ar  1 <1>   0.4100 
 19 C        5.7190    -3.7830    -1.4090 C.ar  1 <1>   0.1600 
 20 N        5.1180    -7.0230     0.0970 N.pl3 1 <1>  -0.9000 
 21 C        6.0070    -5.0700    -1.0340 C.ar  1 <1>   0.0730 
 22 C        7.2590    -5.6760    -1.3340 C.1   1 <1>   0.4840 
 23 N        8.2680    -6.1550    -1.5640 N.1   1 <1>  -0.5570 
 24 H       -1.6400    -0.2710     2.0870 H     1 <1>   0.0800 
 25 H       -0.8910     1.1220     1.3340 H     1 <1>   0.0800 
 26 H       -1.8860    -2.5690     1.5220 H     1 <1>   0.0800 
 27 H        0.2270    -2.8480    -1.4630 H     1 <1>   0.0800 
 28 H        0.2510    -1.1160    -1.4480 H     1 <1>   0.0800 
 29 H        1.4320    -2.1470     2.0200 H     1 <1>   0.0800 
 30 H        0.1050    -3.2340     2.2630 H     1 <1>   0.0800 
 31 H       -1.5760     0.2970    -0.8850 H     1 <1>   0.0800 
 32 H       -2.9580     0.6270     0.1030 H     1 <1>   0.0800 
 33 H       -1.6400    -3.7620    -1.0020 H     1 <1>   0.4000 
 34 H        2.4360    -1.2210    -0.2290 H     1 <1>   0.0800 
 35 H        2.4790    -1.9770    -1.8050 H     1 <1>   0.0800 
 36 H        0.8930    -4.6120     0.3710 H     1 <1>   0.0800 
 37 H        2.1130    -4.4280     1.6040 H     1 <1>   0.0800 
 38 H       -4.4870    -1.1290    -0.0330 H     1 <1>   0.4000 
 39 H       -1.9910    -1.7770    -2.2460 H     1 <1>   0.0800 
 40 H       -3.5500    -1.0330    -2.0670 H     1 <1>   0.0800 
 41 H       -3.3610    -2.7450    -1.7690 H     1 <1>   0.0800 
 42 H        6.4520    -3.2070    -1.9490 H     1 <1>   0.1500 
 43 H        4.3550    -7.3680     0.6850 H     1 <1>   0.4000 
 44 H        6.0160    -7.5000     0.2080 H     1 <1>   0.4000 
@<TRIPOS>BOND
  1   1   2  1   
  2   1   3  1   
  3   2   4  1   
  4   2   5  1   
  5   2   6  1   
  6   3   7  1   
  7   3  24  1   
  8   3  25  1   
  9   4   8  1   
 10   4   9  1   
 11   4  26  1   
 12   5  10  1   
 13   5  27  1   
 14   5  28  1   
 15   6  11  1   
 16   6  29  1   
 17   6  30  1   
 18   7   9  1   
 19   7  31  1   
 20   7  32  1   
 21   8  33  1   
 22   9  12  1   
 23   9  13  1   
 24  10  14  1   
 25  10  34  1   
 26  10  35  1   
 27  11  14  1   
 28  11  36  1   
 29  11  37  1   
 30  12  38  1   
 31  13  39  1   
 32  13  40  1   
 33  13  41  1   
 34  14  15  1   
 35  15  16  ar  
 36  15  17  ar  
 37  16  18  ar  
 38  17  19  ar  
 39  18  20  1   
 40  18  21  ar  
 41  19  21  ar  
 42  19  42  1   
 43  20  43  1   
 44  20  44  1   
 45  21  22  1   
 46  22  23  3   
@<TRIPOS>SUBSTRUCTURE
  1 ****  14 GROUP 4 **** **** 0

# MOE 2024.06 (io_trps.svl 2023.06)
