@<TRIPOS>MOLECULE
NONAME
46 47 1 0 0 
SMALL
USER_CHARGES


@<TRIPOS>ATOM
  1 O       -0.5660     0.7730     0.8690 O.2   1 <1>  -0.5700 
  2 C       -0.4990     1.9560     0.6520 C.2   1 <1>   0.5690 
  3 N       -1.4060     2.8080     1.1740 N.am  1 <1>  -0.7300 
  4 C        0.6010     2.5150    -0.2510 C.3   1 <1>   0.1810 
  5 C       -1.4460     4.2620     0.8770 C.3   1 <1>   0.3640 
  6 O        0.8260     3.8890    -0.0290 O.3   1 <1>  -0.5600 
  7 C       -2.8390     4.6000     0.3480 C.ar  1 <1>  -0.1440 
  8 C       -0.3400     4.7060    -0.1220 C.3   1 <1>   0.2610 
  9 C       -3.4740     5.7550     0.7810 C.ar  1 <1>  -0.1500 
 10 C       -3.4900     3.7870    -0.5720 C.ar  1 <1>  -0.1500 
 11 C        0.0260     6.1760     0.1270 C.2   1 <1>   0.5690 
 12 C       -4.7260     6.1110     0.3020 C.ar  1 <1>   0.0830 
 13 C       -4.7510     4.1210    -1.0360 C.ar  1 <1>  -0.1500 
 14 O       -0.8110     7.0370    -0.0070 O.2   1 <1>  -0.5700 
 15 N        1.2970     6.4810     0.5040 N.am  1 <1>  -0.7300 
 16 O       -5.2500     7.2870     0.7250 O.3   1 <1>  -0.3630 
 17 C       -5.3900     5.2710    -0.6040 C.ar  1 <1>   0.0830 
 18 C        1.8350     7.8330     0.7520 C.3   1 <1>   0.1400 
 19 C       -4.6060     8.4500     0.2520 C.3   1 <1>   0.0400 
 20 O       -6.6320     5.4800    -1.1240 O.3   1 <1>  -0.3630 
 21 C        2.9970     8.0910    -0.2050 C.3   1 <1>  -0.1600 
 22 C       -7.6030     6.2160    -0.4140 C.3   1 <1>   0.0400 
 23 C        3.5590     9.4960     0.0030 C.3   1 <1>   0.1200 
 24 O        4.5810     9.6950    -0.9030 O.3   1 <1>  -0.6800 
 25 H       -2.1700     2.4280     1.7360 H     1 <1>   0.3700 
 26 H        0.3300     2.3730    -1.2820 H     1 <1>   0.0800 
 27 H        1.5200     1.9940    -0.0560 H     1 <1>   0.0800 
 28 H       -1.2920     4.7870     1.8040 H     1 <1>   0.0800 
 29 H       -0.7130     4.6250    -1.1270 H     1 <1>   0.0800 
 30 H       -2.9910     6.4040     1.4900 H     1 <1>   0.1500 
 31 H       -3.0260     2.8850    -0.9340 H     1 <1>   0.1500 
 32 H       -5.2530     3.4830    -1.7410 H     1 <1>   0.1500 
 33 H        1.9580     5.6980     0.5620 H     1 <1>   0.3700 
 34 H        1.0620     8.5680     0.5970 H     1 <1>   0.0800 
 35 H        2.1690     7.9000     1.7740 H     1 <1>   0.0800 
 36 H       -5.1530     9.3050     0.6040 H     1 <1>   0.0800 
 37 H       -4.6030     8.4290    -0.8240 H     1 <1>   0.0800 
 38 H       -3.5980     8.4780     0.6260 H     1 <1>   0.0800 
 39 H        2.6390     8.0050    -1.2170 H     1 <1>   0.0800 
 40 H        3.7690     7.3640    -0.0320 H     1 <1>   0.0800 
 41 H       -8.5670     5.9900    -0.8320 H     1 <1>   0.0800 
 42 H       -7.3950     7.2640    -0.5250 H     1 <1>   0.0800 
 43 H       -7.5740     5.9280     0.6230 H     1 <1>   0.0800 
 44 H        3.9550     9.6210     0.9970 H     1 <1>   0.0800 
 45 H        2.8060    10.2440    -0.1810 H     1 <1>   0.0800 
 46 H        5.2990     9.0470    -0.7680 H     1 <1>   0.4000 
@<TRIPOS>BOND
  1   1   2  2   
  2   2   3  am  
  3   2   4  1   
  4   3   5  1   
  5   3  25  1   
  6   4   6  1   
  7   4  26  1   
  8   4  27  1   
  9   5   7  1   
 10   5   8  1   
 11   5  28  1   
 12   6   8  1   
 13   7   9  ar  
 14   7  10  ar  
 15   8  11  1   
 16   8  29  1   
 17   9  12  ar  
 18   9  30  1   
 19  10  13  ar  
 20  10  31  1   
 21  11  14  2   
 22  11  15  am  
 23  12  16  1   
 24  12  17  ar  
 25  13  17  ar  
 26  13  32  1   
 27  15  18  1   
 28  15  33  1   
 29  16  19  1   
 30  17  20  1   
 31  18  21  1   
 32  18  34  1   
 33  18  35  1   
 34  19  36  1   
 35  19  37  1   
 36  19  38  1   
 37  20  22  1   
 38  21  23  1   
 39  21  39  1   
 40  21  40  1   
 41  22  41  1   
 42  22  42  1   
 43  22  43  1   
 44  23  24  1   
 45  23  44  1   
 46  23  45  1   
 47  24  46  1   
@<TRIPOS>SUBSTRUCTURE
  1 ****   5 GROUP 4 **** **** 0

# MOE 2024.06 (io_trps.svl 2023.06)
