@<TRIPOS>MOLECULE
NONAME
47 49 1 0 0 
SMALL
USER_CHARGES


@<TRIPOS>ATOM
  1 O        0.3340     0.9600    -0.5710 O.2   1 <1>  -0.5700 
  2 C        0.2140     2.1230    -0.2780 C.2   1 <1>   0.5690 
  3 N       -0.9070     2.5690     0.3290 N.am  1 <1>  -0.7300 
  4 C        1.3220     3.1200    -0.6290 C.3   1 <1>   0.1810 
  5 C       -1.1300     3.9860     0.7070 C.3   1 <1>   0.3640 
  6 O        1.2200     4.3340     0.0830 O.3   1 <1>  -0.5600 
  7 C       -2.5380     4.3850     0.2690 C.ar  1 <1>  -0.1440 
  8 C       -0.0700     4.9280     0.0750 C.3   1 <1>   0.2610 
  9 C       -3.0230     4.0570    -0.9920 C.ar  1 <1>  -0.1500 
 10 C       -3.3540     5.0980     1.1360 C.ar  1 <1>  -0.1500 
 11 C       -0.0320     6.3050     0.7660 C.2   1 <1>   0.5690 
 12 C       -4.2980     4.4340    -1.3760 C.ar  1 <1>  -0.1500 
 13 C       -4.6290     5.4760     0.7540 C.ar  1 <1>  -0.1500 
 14 O       -0.5440     6.4240     1.8590 O.2   1 <1>  -0.5700 
 15 N        0.5770     7.3780     0.1570 N.am  1 <1>  -0.6600 
 16 C       -5.1020     5.1440    -0.5030 C.ar  1 <1>  -0.1500 
 17 C        0.7140     8.6820     0.8700 C.3   1 <1>   0.3210 
 18 C        1.3210     7.2900    -1.1340 C.3   1 <1>   0.0600 
 19 C        2.1820     9.0410     1.0260 C.2   1 <1>  -0.1810 
 20 C        2.8920    10.1010     0.5750 C.2   1 <1>  -0.3320 
 21 C        3.1050     8.2630     1.7140 C.2   1 <1>   0.1390 
 22 N        4.1640     9.9200     1.0000 N.pl3 1 <1>   0.3140 
 23 C        2.4350    11.2970    -0.2460 C.3   1 <1>  -0.0600 
 24 N        4.2930     8.7830     1.7010 N.2   1 <1>  -0.7070 
 25 C        5.3170    10.8000     0.7710 C.3   1 <1>   0.0160 
 26 H       -1.6500     1.9050     0.5520 H     1 <1>   0.3700 
 27 H        1.2850     3.3390    -1.6800 H     1 <1>   0.0800 
 28 H        2.2770     2.6860    -0.3980 H     1 <1>   0.0800 
 29 H       -1.0610     4.0490     1.7800 H     1 <1>   0.0800 
 30 H       -0.3440     5.0850    -0.9510 H     1 <1>   0.0800 
 31 H       -2.4140     3.5020    -1.6850 H     1 <1>   0.1500 
 32 H       -2.9980     5.3710     2.1160 H     1 <1>   0.1500 
 33 H       -4.6660     4.1740    -2.3530 H     1 <1>   0.1500 
 34 H       -5.2520     6.0300     1.4350 H     1 <1>   0.1500 
 35 H       -6.0940     5.4380    -0.8000 H     1 <1>   0.1500 
 36 H        0.2040     9.4410     0.3060 H     1 <1>   0.0800 
 37 H        0.2610     8.6400     1.8450 H     1 <1>   0.0800 
 38 H        1.4430     8.2710    -1.5600 H     1 <1>   0.0800 
 39 H        0.7920     6.6790    -1.8430 H     1 <1>   0.0800 
 40 H        2.2960     6.8680    -0.9570 H     1 <1>   0.0800 
 41 H        2.8670     7.3320     2.2010 H     1 <1>   0.1500 
 42 H        1.3890    11.2250    -0.4780 H     1 <1>   0.0800 
 43 H        2.9850    11.3450    -1.1690 H     1 <1>   0.0800 
 44 H        2.5980    12.2070     0.3050 H     1 <1>   0.0800 
 45 H        5.1120    11.7640     1.1950 H     1 <1>   0.0800 
 46 H        5.4900    10.8870    -0.2840 H     1 <1>   0.0800 
 47 H        6.1820    10.3750     1.2450 H     1 <1>   0.0800 
@<TRIPOS>BOND
  1   1   2  2   
  2   2   3  am  
  3   2   4  1   
  4   3   5  1   
  5   3  26  1   
  6   4   6  1   
  7   4  27  1   
  8   4  28  1   
  9   5   7  1   
 10   5   8  1   
 11   5  29  1   
 12   6   8  1   
 13   7   9  ar  
 14   7  10  ar  
 15   8  11  1   
 16   8  30  1   
 17   9  12  ar  
 18   9  31  1   
 19  10  13  ar  
 20  10  32  1   
 21  11  14  2   
 22  11  15  am  
 23  12  16  ar  
 24  12  33  1   
 25  13  16  ar  
 26  13  34  1   
 27  15  17  1   
 28  15  18  1   
 29  16  35  1   
 30  17  19  1   
 31  17  36  1   
 32  17  37  1   
 33  18  38  1   
 34  18  39  1   
 35  18  40  1   
 36  19  20  2   
 37  19  21  1   
 38  20  22  1   
 39  20  23  1   
 40  21  24  2   
 41  21  41  1   
 42  22  24  1   
 43  22  25  1   
 44  23  42  1   
 45  23  43  1   
 46  23  44  1   
 47  25  45  1   
 48  25  46  1   
 49  25  47  1   
@<TRIPOS>SUBSTRUCTURE
  1 ****  11 GROUP 4 **** **** 0

# MOE 2024.06 (io_trps.svl 2023.06)
