@<TRIPOS>MOLECULE
NONAME
38 39 1 0 0 
SMALL
USER_CHARGES


@<TRIPOS>ATOM
  1 CL      -1.2770    -0.4630    -1.9610 Cl    1 <1>  -0.1770 
  2 C       -2.2870    -1.1810    -0.7320 C.ar  1 <1>   0.1770 
  3 C       -2.1870    -2.5370    -0.4820 C.ar  1 <1>  -0.1500 
  4 C       -3.1710    -0.3830    -0.0310 C.ar  1 <1>  -0.1500 
  5 C       -2.9890    -3.1130     0.4930 C.ar  1 <1>  -0.1440 
  6 C       -3.9710    -0.9570     0.9420 C.ar  1 <1>  -0.1500 
  7 C       -3.8780    -2.3160     1.2000 C.ar  1 <1>  -0.1500 
  8 C       -2.9000    -4.6030     0.7790 C.3   1 <1>  -0.0160 
  9 C       -3.9300    -5.3690    -0.0640 C.3   1 <1>  -0.0990 
 10 C       -3.9520    -6.8670     0.2010 C.2   1 <1>   0.5690 
 11 O       -3.0580    -7.3490     0.8600 O.2   1 <1>  -0.5700 
 12 N       -4.9690    -7.6340    -0.2980 N.am  1 <1>  -0.6600 
 13 C       -5.1340    -9.0660     0.1350 C.3   1 <1>   0.1400 
 14 C       -6.0660    -7.1470    -1.1820 C.3   1 <1>   0.1400 
 15 C       -6.6110    -9.5140     0.2240 C.3   1 <1>   0.2000 
 16 C       -7.4010    -7.1610    -0.4220 C.3   1 <1>  -0.1600 
 17 O       -7.0220   -10.0320    -0.9940 O.3   1 <1>  -0.6800 
 18 C       -7.5320    -8.3380     0.5810 C.3   1 <1>  -0.1860 
 19 C       -8.9620    -8.8130     0.7350 C.2   1 <1>   0.9060 
 20 O       -9.5690    -8.5440     1.7740 O.co2 1 <1>  -0.9000 
 21 O       -9.4680    -9.4680    -0.1870 O.co2 1 <1>  -0.9000 
 22 H       -1.4900    -3.1290    -1.0460 H     1 <1>   0.1500 
 23 H       -3.2280     0.6690    -0.2460 H     1 <1>   0.1500 
 24 H       -4.6640    -0.3490     1.4980 H     1 <1>   0.1500 
 25 H       -4.5060    -2.7530     1.9580 H     1 <1>   0.1500 
 26 H       -1.9100    -4.9620     0.5570 H     1 <1>   0.0800 
 27 H       -3.0830    -4.7840     1.8240 H     1 <1>   0.0800 
 28 H       -3.7200    -5.2110    -1.1050 H     1 <1>   0.0800 
 29 H       -4.9050    -4.9720     0.1520 H     1 <1>   0.0800 
 30 H       -4.5990    -9.7130    -0.5370 H     1 <1>   0.0800 
 31 H       -4.7000    -9.1760     1.1130 H     1 <1>   0.0800 
 32 H       -5.8680    -6.1640    -1.5670 H     1 <1>   0.0800 
 33 H       -6.1360    -7.8130    -2.0250 H     1 <1>   0.0800 
 34 H       -6.7150   -10.3020     0.9500 H     1 <1>   0.0800 
 35 H       -7.5320    -6.2350     0.1070 H     1 <1>   0.0800 
 36 H       -8.1920    -7.2250    -1.1500 H     1 <1>   0.0800 
 37 H       -8.0250   -10.0090    -0.9650 H     1 <1>   0.4000 
 38 H       -7.2220    -7.9820     1.5450 H     1 <1>   0.0800 
@<TRIPOS>BOND
  1   1   2  1   
  2   2   3  ar  
  3   2   4  ar  
  4   3   5  ar  
  5   3  22  1   
  6   4   6  ar  
  7   4  23  1   
  8   5   7  ar  
  9   5   8  1   
 10   6   7  ar  
 11   6  24  1   
 12   7  25  1   
 13   8   9  1   
 14   8  26  1   
 15   8  27  1   
 16   9  10  1   
 17   9  28  1   
 18   9  29  1   
 19  10  11  2   
 20  10  12  am  
 21  12  13  1   
 22  12  14  1   
 23  13  15  1   
 24  13  30  1   
 25  13  31  1   
 26  14  16  1   
 27  14  32  1   
 28  14  33  1   
 29  15  17  1   
 30  15  18  1   
 31  15  34  1   
 32  16  18  1   
 33  16  35  1   
 34  16  36  1   
 35  17  37  1   
 36  18  19  1   
 37  18  38  1   
 38  19  20  ar  
 39  19  21  ar  
@<TRIPOS>SUBSTRUCTURE
  1 ****   9 GROUP 4 **** **** 0

# MOE 2024.06 (io_trps.svl 2023.06)
