@<TRIPOS>MOLECULE
NONAME
46 49 1 0 0 
SMALL
USER_CHARGES


@<TRIPOS>ATOM
  1 O       -1.8610     0.7020    -2.5470 O.2   1 <1>  -0.5700 
  2 C       -1.7560     0.9850    -1.3790 C.2   1 <1>   0.5690 
  3 N       -1.8850     0.0470    -0.4070 N.am  1 <1>  -0.7300 
  4 C       -1.4850     2.4280    -0.9870 C.3   1 <1>  -0.0190 
  5 C       -2.1490    -1.3900    -0.6410 C.3   1 <1>   0.2200 
  6 C       -0.1770     2.6110    -0.1870 C.3   1 <1>  -0.0170 
  7 C       -2.6210     3.0520    -0.1490 C.3   1 <1>  -0.0170 
  8 C       -3.5760    -1.7050    -0.2300 C.3   1 <1>  -0.0800 
  9 C       -1.3470    -2.2240     0.3520 C.3   1 <1>   0.1200 
 10 C       -0.5410     3.6360     0.8580 C.ar  1 <1>  -0.1440 
 11 C       -1.8920     3.8800     0.8780 C.ar  1 <1>  -0.1440 
 12 C       -3.4360    -1.9180     1.2810 C.3   1 <1>   0.1200 
 13 C       -4.1070    -2.9590    -0.9500 C.3   1 <1>  -0.0170 
 14 O       -2.1010    -2.2570     1.5280 O.3   1 <1>  -0.5600 
 15 C        0.3090     4.2940     1.7270 C.ar  1 <1>  -0.1500 
 16 C       -2.4320     4.7890     1.7690 C.ar  1 <1>  -0.1500 
 17 C       -5.5470    -3.2570    -0.5610 C.ar  1 <1>  -0.1440 
 18 C       -0.2230     5.2080     2.6240 C.ar  1 <1>  -0.1500 
 19 C       -1.5880     5.4540     2.6440 C.ar  1 <1>  -0.1500 
 20 C       -6.6000    -2.5160    -1.0580 C.ar  1 <1>  -0.1500 
 21 C       -5.8780    -4.2810     0.3040 C.ar  1 <1>  -0.1500 
 22 C       -7.8950    -2.8210    -0.6730 C.ar  1 <1>   0.1600 
 23 C       -7.2070    -4.5030     0.6260 C.ar  1 <1>   0.1600 
 24 N       -8.2230    -3.7960     0.1590 N.ar  1 <1>  -0.6200 
 25 H       -1.7990     0.3080     0.5790 H     1 <1>   0.3700 
 26 H       -1.3940     3.0090    -1.8870 H     1 <1>   0.0800 
 27 H       -1.9310    -1.6500    -1.6640 H     1 <1>   0.0800 
 28 H        0.6170     2.9660    -0.8200 H     1 <1>   0.0800 
 29 H        0.1310     1.7030     0.3000 H     1 <1>   0.0800 
 30 H       -3.2090     2.3030     0.3510 H     1 <1>   0.0800 
 31 H       -3.2610     3.6630    -0.7600 H     1 <1>   0.0800 
 32 H       -4.2340    -0.8810    -0.4450 H     1 <1>   0.0800 
 33 H       -0.3760    -1.8080     0.5550 H     1 <1>   0.0800 
 34 H       -1.2440    -3.2360     0.0030 H     1 <1>   0.0800 
 35 H       -4.0710    -2.6980     1.6620 H     1 <1>   0.0800 
 36 H       -3.6400    -1.0050     1.8130 H     1 <1>   0.0800 
 37 H       -3.4900    -3.8110    -0.7240 H     1 <1>   0.0800 
 38 H       -4.0650    -2.8030    -2.0150 H     1 <1>   0.0800 
 39 H        1.3670     4.1010     1.7080 H     1 <1>   0.1500 
 40 H       -3.4910     4.9780     1.7820 H     1 <1>   0.1500 
 41 H        0.4260     5.7280     3.3060 H     1 <1>   0.1500 
 42 H       -1.9940     6.1640     3.3430 H     1 <1>   0.1500 
 43 H       -6.4270    -1.7050    -1.7420 H     1 <1>   0.1500 
 44 H       -5.1170    -4.9080     0.7320 H     1 <1>   0.1500 
 45 H       -8.7040    -2.2320    -1.0710 H     1 <1>   0.1500 
 46 H       -7.4460    -5.3050     1.3030 H     1 <1>   0.1500 
@<TRIPOS>BOND
  1   1   2  2   
  2   2   3  am  
  3   2   4  1   
  4   3   5  1   
  5   3  25  1   
  6   4   6  1   
  7   4   7  1   
  8   4  26  1   
  9   5   8  1   
 10   5   9  1   
 11   5  27  1   
 12   6  10  1   
 13   6  28  1   
 14   6  29  1   
 15   7  11  1   
 16   7  30  1   
 17   7  31  1   
 18   8  12  1   
 19   8  13  1   
 20   8  32  1   
 21   9  14  1   
 22   9  33  1   
 23   9  34  1   
 24  10  11  ar  
 25  10  15  ar  
 26  11  16  ar  
 27  12  14  1   
 28  12  35  1   
 29  12  36  1   
 30  13  17  1   
 31  13  37  1   
 32  13  38  1   
 33  15  18  ar  
 34  15  39  1   
 35  16  19  ar  
 36  16  40  1   
 37  17  20  ar  
 38  17  21  ar  
 39  18  19  ar  
 40  18  41  1   
 41  19  42  1   
 42  20  22  ar  
 43  20  43  1   
 44  21  23  ar  
 45  21  44  1   
 46  22  24  ar  
 47  22  45  1   
 48  23  24  ar  
 49  23  46  1   
@<TRIPOS>SUBSTRUCTURE
  1 ****   3 GROUP 4 **** **** 0

# MOE 2024.06 (io_trps.svl 2023.06)
