@<TRIPOS>MOLECULE
NONAME
42 44 1 0 0 
SMALL
USER_CHARGES


@<TRIPOS>ATOM
  1 CL      -1.8510    -0.4070    -2.0720 Cl    1 <1>  -0.1770 
  2 C       -2.2000    -1.9610    -1.3620 C.ar  1 <1>   0.1770 
  3 C       -3.3620    -2.1350    -0.6360 C.ar  1 <1>  -0.1500 
  4 C       -1.3110    -3.0040    -1.5340 C.ar  1 <1>  -0.1500 
  5 C       -3.6320    -3.3700    -0.0740 C.ar  1 <1>  -0.1500 
  6 C       -1.5930    -4.2340    -0.9680 C.ar  1 <1>  -0.1500 
  7 C       -2.7580    -4.4520    -0.2240 C.ar  1 <1>   0.0530 
  8 C       -3.0290    -5.7460     0.3630 C.2   1 <1>   0.0870 
  9 O       -2.0900    -6.6660     0.3890 O.3   1 <1>  -0.0190 
 10 C       -4.1240    -6.3050     0.9410 C.2   1 <1>  -0.2330 
 11 N       -2.4830    -7.7870     0.9380 N.2   1 <1>  -0.4100 
 12 C       -3.6980    -7.5820     1.2910 C.2   1 <1>   0.3720 
 13 C       -5.4690    -5.8760     1.1170 C.2   1 <1>   1.0330 
 14 N       -4.5020    -8.5320     1.9130 N.pl3 1 <1>  -0.8520 
 15 O       -6.1270    -5.4360     0.1600 O.co2 1 <1>  -0.9000 
 16 O       -6.1000    -6.1700     2.1470 O.co2 1 <1>  -0.9000 
 17 C       -4.8850    -9.7090     1.0700 C.3   1 <1>   0.2090 
 18 C       -6.3900    -9.7840     0.7350 C.3   1 <1>   0.2000 
 19 O       -6.5500   -10.6380    -0.3740 O.3   1 <1>  -0.5600 
 20 C       -6.9520    -8.3820     0.4340 C.3   1 <1>   0.3430 
 21 C       -7.8390   -10.7050    -0.9190 C.3   1 <1>   0.1200 
 22 N       -8.2810    -8.3410    -0.2530 N.4   1 <1>  -0.9590 
 23 C       -8.3060    -9.3110    -1.3870 C.3   1 <1>   0.3430 
 24 C       -8.4920    -6.9200    -0.6770 C.3   1 <1>   0.2630 
 25 H       -4.0460    -1.3150    -0.5130 H     1 <1>   0.1500 
 26 H       -0.4120    -2.8500    -2.1030 H     1 <1>   0.1500 
 27 H       -4.5400    -3.4890     0.4890 H     1 <1>   0.1500 
 28 H       -0.8970    -5.0430    -1.1060 H     1 <1>   0.1500 
 29 H       -5.2890    -8.0280     2.3640 H     1 <1>   0.4000 
 30 H       -4.5930   -10.6060     1.5860 H     1 <1>   0.0800 
 31 H       -4.3290    -9.6680     0.1470 H     1 <1>   0.0800 
 32 H       -6.9150   -10.2160     1.5680 H     1 <1>   0.0800 
 33 H       -6.2280    -7.8560    -0.1670 H     1 <1>   0.0800 
 34 H       -7.0430    -7.8610     1.3670 H     1 <1>   0.0800 
 35 H       -8.5080   -11.1110    -0.1810 H     1 <1>   0.0800 
 36 H       -7.8010   -11.3790    -1.7570 H     1 <1>   0.0800 
 37 H       -8.9930    -8.5850     0.4460 H     1 <1>   0.4500 
 38 H       -9.3010    -9.3780    -1.7920 H     1 <1>   0.0800 
 39 H       -7.6460    -8.9730    -2.1690 H     1 <1>   0.0800 
 40 H       -7.7220    -6.6170    -1.3690 H     1 <1>   0.0800 
 41 H       -8.4270    -6.2640     0.1780 H     1 <1>   0.0800 
 42 H       -9.4550    -6.7960    -1.1420 H     1 <1>   0.0800 
@<TRIPOS>BOND
  1   1   2  1   
  2   2   3  ar  
  3   2   4  ar  
  4   3   5  ar  
  5   3  25  1   
  6   4   6  ar  
  7   4  26  1   
  8   5   7  ar  
  9   5  27  1   
 10   6   7  ar  
 11   6  28  1   
 12   7   8  1   
 13   8   9  1   
 14   8  10  2   
 15   9  11  1   
 16  10  12  1   
 17  10  13  1   
 18  11  12  2   
 19  12  14  1   
 20  13  15  ar  
 21  13  16  ar  
 22  14  17  1   
 23  14  29  1   
 24  17  18  1   
 25  17  30  1   
 26  17  31  1   
 27  18  19  1   
 28  18  20  1   
 29  18  32  1   
 30  19  21  1   
 31  20  22  1   
 32  20  33  1   
 33  20  34  1   
 34  21  23  1   
 35  21  35  1   
 36  21  36  1   
 37  22  23  1   
 38  22  24  1   
 39  22  37  1   
 40  23  38  1   
 41  23  39  1   
 42  24  40  1   
 43  24  41  1   
 44  24  42  1   
@<TRIPOS>SUBSTRUCTURE
  1 ****  10 GROUP 4 **** **** 0

# MOE 2024.06 (io_trps.svl 2023.06)
