@<TRIPOS>MOLECULE
NONAME
63 65 1 0 0 
SMALL
USER_CHARGES


@<TRIPOS>ATOM
  1 O        3.3970    -0.0110     1.6710 O.2   1 <1>  -0.5700 
  2 C        2.8580    -0.6180     0.7610 C.2   1 <1>   0.7150 
  3 N        2.8800     0.0040    -0.4660 N.am  1 <1>  -0.6600 
  4 C        2.3370    -1.9560     0.9280 C.2   1 <1>   0.0550 
  5 C        3.8690    -0.4410    -1.4910 C.3   1 <1>   0.1400 
  6 C        2.3320     1.3760    -0.6450 C.3   1 <1>   0.1400 
  7 O        1.9390    -2.6500    -0.1320 O.3   1 <1>  -0.2800 
  8 C        2.1630    -2.7190     2.0300 C.2   1 <1>   0.0460 
  9 C        5.3130    -0.0830    -1.0730 C.3   1 <1>   0.3430 
 10 C        3.3170     2.4700    -0.1980 C.3   1 <1>  -0.1600 
 11 C        1.5500    -3.7850     0.4110 C.2   1 <1>   0.2980 
 12 N        1.6610    -3.8960     1.6800 N.2   1 <1>  -0.5650 
 13 C        2.4300    -2.4440     3.4970 C.3   1 <1>  -0.0590 
 14 N        5.3670     1.1010    -0.1490 N.4   1 <1>  -0.9590 
 15 C        4.7500     2.3290    -0.7180 C.3   1 <1>   0.3430 
 16 C        1.0070    -4.8580    -0.5010 C.3   1 <1>  -0.0600 
 17 C        6.7210     1.3320     0.4440 C.3   1 <1>   0.3430 
 18 C        7.7870     1.6860    -0.5990 C.3   1 <1>  -0.0220 
 19 C        9.1090     1.9460     0.1240 C.2   1 <1>  -0.2760 
 20 C        9.8490     0.9350     0.6210 C.2   1 <1>  -0.2760 
 21 C        9.5120     3.4360     0.2680 C.3   1 <1>   0.1380 
 22 C       11.1310     1.1510     1.4200 C.3   1 <1>  -0.0220 
 23 C        9.5620    -0.5600     0.4920 C.3   1 <1>  -0.1020 
 24 C       10.9440     3.5700     0.8340 C.3   1 <1>  -0.1600 
 25 C        9.5210     4.1690    -1.0860 C.3   1 <1>  -0.2400 
 26 C        8.5240     4.1430     1.2090 C.3   1 <1>  -0.2400 
 27 C       11.2380     2.5760     1.9580 C.3   1 <1>  -0.1600 
 28 H        3.6420     0.0230    -2.4350 H     1 <1>   0.0800 
 29 H        3.7930    -1.5050    -1.6350 H     1 <1>   0.0800 
 30 H        1.4230     1.4660    -0.0720 H     1 <1>   0.0800 
 31 H        2.0710     1.5170    -1.6810 H     1 <1>   0.0800 
 32 H        5.9050     0.0980    -1.9540 H     1 <1>   0.0800 
 33 H        5.7350    -0.9360    -0.5680 H     1 <1>   0.0800 
 34 H        3.3310     2.5210     0.8760 H     1 <1>   0.0800 
 35 H        2.9300     3.4140    -0.5380 H     1 <1>   0.0800 
 36 H        2.7870    -1.4440     3.6540 H     1 <1>   0.0800 
 37 H        3.1640    -3.1380     3.8650 H     1 <1>   0.0800 
 38 H        1.5220    -2.5760     4.0570 H     1 <1>   0.0800 
 39 H        4.7350     0.8390     0.6410 H     1 <1>   0.4500 
 40 H        5.3140     3.1940    -0.4070 H     1 <1>   0.0800 
 41 H        4.7580     2.2910    -1.7960 H     1 <1>   0.0800 
 42 H        0.1420    -4.4890    -1.0190 H     1 <1>   0.0800 
 43 H        0.7280    -5.7200     0.0760 H     1 <1>   0.0800 
 44 H        1.7560    -5.1420    -1.2160 H     1 <1>   0.0800 
 45 H        7.0380     0.4500     0.9760 H     1 <1>   0.0800 
 46 H        6.6640     2.1320     1.1640 H     1 <1>   0.0800 
 47 H        7.4680     2.5350    -1.1660 H     1 <1>   0.0800 
 48 H        7.9210     0.8770    -1.2920 H     1 <1>   0.0800 
 49 H       11.9760     0.9370     0.7880 H     1 <1>   0.0800 
 50 H       11.1680     0.4770     2.2590 H     1 <1>   0.0800 
 51 H       10.3990    -1.0470     0.0210 H     1 <1>   0.0800 
 52 H        8.6910    -0.7800    -0.0900 H     1 <1>   0.0800 
 53 H        9.4270    -0.9940     1.4680 H     1 <1>   0.0800 
 54 H       11.1140     4.5720     1.1870 H     1 <1>   0.0800 
 55 H       11.6550     3.3860     0.0460 H     1 <1>   0.0800 
 56 H       10.0700     3.5940    -1.8120 H     1 <1>   0.0800 
 57 H       10.0000     5.1270    -0.9870 H     1 <1>   0.0800 
 58 H        8.5340     4.3510    -1.4640 H     1 <1>   0.0800 
 59 H        8.4710     3.6290     2.1520 H     1 <1>   0.0800 
 60 H        7.5400     4.1790     0.7820 H     1 <1>   0.0800 
 61 H        8.8400     5.1540     1.3940 H     1 <1>   0.0800 
 62 H       12.2290     2.7410     2.3440 H     1 <1>   0.0800 
 63 H       10.5400     2.7130     2.7640 H     1 <1>   0.0800 
@<TRIPOS>BOND
  1   1   2  2   
  2   2   3  am  
  3   2   4  1   
  4   3   5  1   
  5   3   6  1   
  6   4   7  1   
  7   4   8  2   
  8   5   9  1   
  9   5  28  1   
 10   5  29  1   
 11   6  10  1   
 12   6  30  1   
 13   6  31  1   
 14   7  11  1   
 15   8  12  1   
 16   8  13  1   
 17   9  14  1   
 18   9  32  1   
 19   9  33  1   
 20  10  15  1   
 21  10  34  1   
 22  10  35  1   
 23  11  12  2   
 24  11  16  1   
 25  13  36  1   
 26  13  37  1   
 27  13  38  1   
 28  14  15  1   
 29  14  17  1   
 30  14  39  1   
 31  15  40  1   
 32  15  41  1   
 33  16  42  1   
 34  16  43  1   
 35  16  44  1   
 36  17  18  1   
 37  17  45  1   
 38  17  46  1   
 39  18  19  1   
 40  18  47  1   
 41  18  48  1   
 42  19  20  2   
 43  19  21  1   
 44  20  22  1   
 45  20  23  1   
 46  21  24  1   
 47  21  25  1   
 48  21  26  1   
 49  22  27  1   
 50  22  49  1   
 51  22  50  1   
 52  23  51  1   
 53  23  52  1   
 54  23  53  1   
 55  24  27  1   
 56  24  54  1   
 57  24  55  1   
 58  25  56  1   
 59  25  57  1   
 60  25  58  1   
 61  26  59  1   
 62  26  60  1   
 63  26  61  1   
 64  27  62  1   
 65  27  63  1   
@<TRIPOS>SUBSTRUCTURE
  1 ****  14 GROUP 4 **** **** 0

# MOE 2024.06 (io_trps.svl 2023.06)
