@<TRIPOS>MOLECULE
NONAME
49 50 1 0 0 
SMALL
USER_CHARGES


@<TRIPOS>ATOM
  1 O       -0.7700    -0.2450    -0.0920 O.2   1 <1>  -0.5700 
  2 C       -1.6560     0.5780    -0.1780 C.2   1 <1>   0.5690 
  3 N       -2.9240     0.2740     0.2750 N.am  1 <1>  -0.6600 
  4 C       -1.2610     1.9260    -0.8180 C.3   1 <1>   0.2610 
  5 C       -3.1180    -0.8530     1.2300 C.3   1 <1>   0.3200 
  6 C       -4.1540     1.0790    -0.0120 C.3   1 <1>   0.1400 
  7 O       -1.7080     3.0110    -0.0140 O.3   1 <1>  -0.3630 
  8 C       -1.7760     2.1090    -2.2560 C.3   1 <1>  -0.2400 
  9 C       -4.0290    -1.9040     0.6280 C.2   1 <1>  -0.3320 
 10 C       -4.8910     0.5440    -1.2480 C.3   1 <1>   0.1200 
 11 C       -1.2130     4.2710    -0.1150 C.ar  1 <1>   0.0830 
 12 N       -3.7100    -2.6840    -0.4250 N.pl3 1 <1>   0.0480 
 13 C       -5.2800    -2.2540     1.0020 C.2   1 <1>   0.0770 
 14 O       -5.8430     1.4680    -1.6530 O.3   1 <1>  -0.6800 
 15 C       -1.9240     5.2660     0.5340 C.ar  1 <1>  -0.1500 
 16 C       -0.0590     4.6080    -0.8140 C.ar  1 <1>  -0.1500 
 17 C       -4.8060    -3.4500    -0.6240 C.2   1 <1>   0.0360 
 18 C       -2.4520    -2.7100    -1.1930 C.3   1 <1>   0.0160 
 19 N       -5.7700    -3.2210     0.2080 N.2   1 <1>  -0.5650 
 20 C       -1.5100     6.5880     0.4920 C.ar  1 <1>  -0.1430 
 21 C        0.3590     5.9250    -0.8590 C.ar  1 <1>  -0.1500 
 22 C       -0.3580     6.9220    -0.2120 C.ar  1 <1>  -0.1430 
 23 C       -2.3310     7.6420     1.2210 C.3   1 <1>  -0.0970 
 24 C        0.1390     8.3590    -0.2890 C.3   1 <1>  -0.0970 
 25 H       -0.1870     1.9470    -0.8190 H     1 <1>   0.0800 
 26 H       -3.5550    -0.4710     2.1350 H     1 <1>   0.0800 
 27 H       -2.1770    -1.3050     1.4960 H     1 <1>   0.0800 
 28 H       -3.8970     2.1070    -0.1820 H     1 <1>   0.0800 
 29 H       -4.8120     1.0440     0.8390 H     1 <1>   0.0800 
 30 H       -2.8400     2.2530    -2.2680 H     1 <1>   0.0800 
 31 H       -1.5360     1.2400    -2.8390 H     1 <1>   0.0800 
 32 H       -1.3100     2.9600    -2.7160 H     1 <1>   0.0800 
 33 H       -5.3930    -0.3850    -1.0440 H     1 <1>   0.0800 
 34 H       -4.2060     0.4060    -2.0650 H     1 <1>   0.0800 
 35 H       -5.8670    -1.8550     1.8120 H     1 <1>   0.1500 
 36 H       -6.6210     1.4460    -1.0610 H     1 <1>   0.4000 
 37 H       -2.8110     4.9900     1.0730 H     1 <1>   0.1500 
 38 H        0.5280     3.8700    -1.3240 H     1 <1>   0.1500 
 39 H       -4.8530    -4.1820    -1.4110 H     1 <1>   0.1500 
 40 H       -1.6210    -2.7720    -0.5140 H     1 <1>   0.0800 
 41 H       -2.3710    -1.8080    -1.7710 H     1 <1>   0.0800 
 42 H       -2.4430    -3.5600    -1.8480 H     1 <1>   0.0800 
 43 H        1.2520     6.1720    -1.4050 H     1 <1>   0.1500 
 44 H       -3.1850     7.2010     1.7020 H     1 <1>   0.0800 
 45 H       -2.6810     8.3830     0.5250 H     1 <1>   0.0800 
 46 H       -1.7300     8.1210     1.9720 H     1 <1>   0.0800 
 47 H       -0.6060     8.9810    -0.7490 H     1 <1>   0.0800 
 48 H        1.0410     8.4250    -0.8710 H     1 <1>   0.0800 
 49 H        0.3470     8.7290     0.6980 H     1 <1>   0.0800 
@<TRIPOS>BOND
  1   1   2  2   
  2   2   3  am  
  3   2   4  1   
  4   3   5  1   
  5   3   6  1   
  6   4   7  1   
  7   4   8  1   
  8   4  25  1   
  9   5   9  1   
 10   5  26  1   
 11   5  27  1   
 12   6  10  1   
 13   6  28  1   
 14   6  29  1   
 15   7  11  1   
 16   8  30  1   
 17   8  31  1   
 18   8  32  1   
 19   9  12  1   
 20   9  13  2   
 21  10  14  1   
 22  10  33  1   
 23  10  34  1   
 24  11  15  ar  
 25  11  16  ar  
 26  12  17  1   
 27  12  18  1   
 28  13  19  1   
 29  13  35  1   
 30  14  36  1   
 31  15  20  ar  
 32  15  37  1   
 33  16  21  ar  
 34  16  38  1   
 35  17  19  2   
 36  17  39  1   
 37  18  40  1   
 38  18  41  1   
 39  18  42  1   
 40  20  22  ar  
 41  20  23  1   
 42  21  22  ar  
 43  21  43  1   
 44  22  24  1   
 45  23  44  1   
 46  23  45  1   
 47  23  46  1   
 48  24  47  1   
 49  24  48  1   
 50  24  49  1   
@<TRIPOS>SUBSTRUCTURE
  1 ****   4 GROUP 4 **** **** 0

# MOE 2024.06 (io_trps.svl 2023.06)
