@<TRIPOS>MOLECULE
NONAME
49 52 1 0 0 
SMALL
USER_CHARGES


@<TRIPOS>ATOM
  1 O       -3.1690    -1.4590     3.0300 O.2   1 <1>  -0.5700 
  2 C       -2.5140    -1.7080     2.0410 C.2   1 <1>   0.6900 
  3 N       -2.4130    -2.9880     1.5210 N.am  1 <1>  -0.4690 
  4 N       -1.8780    -0.6960     1.3980 N.am  1 <1>  -0.4900 
  5 C       -1.6090    -3.2350     0.4130 C.2   1 <1>  -0.0410 
  6 C       -3.2580    -4.0970     2.0780 C.3   1 <1>   0.2010 
  7 C       -1.1360    -0.8790     0.2740 C.2   1 <1>   0.6160 
  8 C       -0.9750    -2.2170    -0.2140 C.2   1 <1>  -0.1240 
  9 C       -4.1280    -4.7660     1.0110 C.2   1 <1>   0.5690 
 10 O       -0.6670     0.1020    -0.2680 O.2   1 <1>  -0.5700 
 11 C       -0.0960    -2.4500    -1.4360 C.3   1 <1>  -0.1020 
 12 O       -3.7570    -5.8430     0.6020 O.2   1 <1>  -0.5700 
 13 N       -5.2660    -4.1720     0.5130 N.am  1 <1>  -0.6600 
 14 C       -5.7340    -2.7920     0.8780 C.3   1 <1>   0.1400 
 15 C       -6.0170    -4.8450    -0.5920 C.3   1 <1>   0.1400 
 16 C       -6.0210    -1.9730    -0.3940 C.3   1 <1>   0.1430 
 17 C       -7.3400    -4.1330    -0.9140 C.3   1 <1>  -0.1600 
 18 C       -6.3430    -0.5310    -0.0420 C.ar  1 <1>   0.1670 
 19 C       -7.1810    -2.6210    -1.1900 C.3   1 <1>  -0.1600 
 20 C       -4.7480    -1.8150    -1.2740 C.3   1 <1>  -0.1600 
 21 N       -7.2030    -0.1490     0.8710 N.ar  1 <1>  -0.6200 
 22 C       -5.6160     0.3470    -0.7910 C.ar  1 <1>  -0.1440 
 23 C       -4.7060    -0.3580    -1.7630 C.3   1 <1>  -0.0170 
 24 C       -7.3090     1.1660     0.9940 C.ar  1 <1>   0.7200 
 25 C       -5.8030     1.6890    -0.5660 C.ar  1 <1>   0.1600 
 26 N       -6.6550     2.1160     0.3390 N.ar  1 <1>  -0.6200 
 27 N       -8.1670     1.5920     1.9210 N.pl3 1 <1>  -0.9000 
 28 H       -1.9800     0.2420     1.7650 H     1 <1>   0.3700 
 29 H       -1.5280    -4.2600     0.0820 H     1 <1>   0.1500 
 30 H       -3.8950    -3.7380     2.8650 H     1 <1>   0.0800 
 31 H       -2.6080    -4.8400     2.5030 H     1 <1>   0.0800 
 32 H        0.9040    -2.1090    -1.2370 H     1 <1>   0.0800 
 33 H       -0.4830    -1.9000    -2.2760 H     1 <1>   0.0800 
 34 H       -0.0610    -3.4930    -1.6940 H     1 <1>   0.0800 
 35 H       -5.0130    -2.2730     1.4750 H     1 <1>   0.0800 
 36 H       -6.6360    -2.8670     1.4620 H     1 <1>   0.0800 
 37 H       -6.2160    -5.8670    -0.3120 H     1 <1>   0.0800 
 38 H       -5.3940    -4.8620    -1.4700 H     1 <1>   0.0800 
 39 H       -8.0000    -4.2700    -0.0750 H     1 <1>   0.0800 
 40 H       -7.8060    -4.6070    -1.7600 H     1 <1>   0.0800 
 41 H       -7.0380    -2.4540    -2.2440 H     1 <1>   0.0800 
 42 H       -8.1070    -2.1410    -0.9240 H     1 <1>   0.0800 
 43 H       -4.7180    -2.5130    -2.0920 H     1 <1>   0.0800 
 44 H       -3.8780    -1.9820    -0.6700 H     1 <1>   0.0800 
 45 H       -5.1070    -0.2770    -2.7590 H     1 <1>   0.0800 
 46 H       -3.7050     0.0400    -1.7370 H     1 <1>   0.0800 
 47 H       -5.2490     2.4190    -1.1320 H     1 <1>   0.1500 
 48 H       -8.0250     2.5500     2.2270 H     1 <1>   0.4000 
 49 H       -8.3970     0.9110     2.6370 H     1 <1>   0.4000 
@<TRIPOS>BOND
  1   1   2  2   
  2   2   3  am  
  3   2   4  am  
  4   3   5  1   
  5   3   6  1   
  6   4   7  am  
  7   4  28  1   
  8   5   8  2   
  9   5  29  1   
 10   6   9  1   
 11   6  30  1   
 12   6  31  1   
 13   7   8  1   
 14   7  10  2   
 15   8  11  1   
 16   9  12  2   
 17   9  13  am  
 18  11  32  1   
 19  11  33  1   
 20  11  34  1   
 21  13  14  1   
 22  13  15  1   
 23  14  16  1   
 24  14  35  1   
 25  14  36  1   
 26  15  17  1   
 27  15  37  1   
 28  15  38  1   
 29  16  18  1   
 30  16  19  1   
 31  16  20  1   
 32  17  19  1   
 33  17  39  1   
 34  17  40  1   
 35  18  21  ar  
 36  18  22  ar  
 37  19  41  1   
 38  19  42  1   
 39  20  23  1   
 40  20  43  1   
 41  20  44  1   
 42  21  24  ar  
 43  22  23  1   
 44  22  25  ar  
 45  23  45  1   
 46  23  46  1   
 47  24  26  ar  
 48  24  27  1   
 49  25  26  ar  
 50  25  47  1   
 51  27  48  1   
 52  27  49  1   
@<TRIPOS>SUBSTRUCTURE
  1 ****  20 GROUP 4 **** **** 0

# MOE 2024.06 (io_trps.svl 2023.06)
