@<TRIPOS>MOLECULE
NONAME
54 57 1 0 0 
SMALL
USER_CHARGES


@<TRIPOS>ATOM
  1 S        0.0230    -0.2710    -0.4530 S.3   1 <1>  -0.0800 
  2 C       -0.5440     1.3270     0.0070 C.2   1 <1>  -0.1400 
  3 C       -1.3200    -1.0470     0.3640 C.2   1 <1>  -0.1400 
  4 C       -1.6770     1.2240     0.7280 C.2   1 <1>  -0.1500 
  5 C        0.2860     2.5170    -0.4630 C.3   1 <1>   0.1000 
  6 C       -2.1180    -0.1210     0.9350 C.2   1 <1>  -0.1500 
  7 C       -1.3390    -2.5600     0.2860 C.3   1 <1>   0.5230 
  8 C        1.6220     2.5730     0.2970 C.3   1 <1>  -0.1600 
  9 C       -0.4810     3.8400    -0.2940 C.3   1 <1>  -0.1600 
 10 N       -2.6980    -3.0610     0.6030 N.4   1 <1>  -0.9590 
 11 C        2.4720     3.7770    -0.1360 C.3   1 <1>  -0.1600 
 12 C        0.3630     5.0430    -0.7390 C.3   1 <1>  -0.1600 
 13 C       -3.7430    -2.6630    -0.3750 C.3   1 <1>   0.3430 
 14 C       -2.8020    -4.5410     0.7250 C.3   1 <1>   0.3430 
 15 C        1.6960     5.0910     0.0200 C.3   1 <1>  -0.1600 
 16 C       -4.9100    -3.5870    -0.0300 C.3   1 <1>   0.2000 
 17 C       -4.2250    -4.9230     0.2720 C.3   1 <1>  -0.0800 
 18 O       -5.4810    -3.1200     1.1490 O.3   1 <1>  -0.6800 
 19 C       -4.2060    -5.8380    -0.9700 C.3   1 <1>  -0.0170 
 20 C       -3.5320    -7.1710    -0.6850 C.ar  1 <1>   0.1670 
 21 N       -2.2080    -7.1550    -0.6310 N.ar  1 <1>  -0.6200 
 22 C       -4.3040    -8.3090    -0.5030 C.ar  1 <1>  -0.1500 
 23 C       -1.6310    -8.3260    -0.3970 C.ar  1 <1>   0.1600 
 24 C       -3.6890    -9.5170    -0.2520 C.ar  1 <1>  -0.1500 
 25 C       -2.3130    -9.5140    -0.2020 C.ar  1 <1>  -0.1500 
 26 H       -2.2340     2.0510     1.1360 H     1 <1>   0.1500 
 27 H        0.4920     2.3840    -1.5110 H     1 <1>   0.0800 
 28 H       -3.0110    -0.3010     1.5070 H     1 <1>   0.1500 
 29 H       -0.6200    -2.9590     0.9820 H     1 <1>   0.0800 
 30 H       -1.0590    -2.8710    -0.7080 H     1 <1>   0.0800 
 31 H        1.4250     2.6370     1.3530 H     1 <1>   0.0800 
 32 H        2.1790     1.6690     0.1210 H     1 <1>   0.0800 
 33 H       -1.3870     3.8050    -0.8720 H     1 <1>   0.0800 
 34 H       -0.7500     3.9680     0.7410 H     1 <1>   0.0800 
 35 H       -2.9990    -2.6570     1.5020 H     1 <1>   0.4500 
 36 H        3.3690     3.8170     0.4580 H     1 <1>   0.0800 
 37 H        2.7640     3.6560    -1.1650 H     1 <1>   0.0800 
 38 H        0.5560     4.9750    -1.7960 H     1 <1>   0.0800 
 39 H       -0.1850     5.9530    -0.5620 H     1 <1>   0.0800 
 40 H       -4.0200    -1.6260    -0.2790 H     1 <1>   0.0800 
 41 H       -3.4050    -2.8590    -1.3790 H     1 <1>   0.0800 
 42 H       -2.0710    -5.0070     0.0870 H     1 <1>   0.0800 
 43 H       -2.6270    -4.8550     1.7410 H     1 <1>   0.0800 
 44 H        2.2920     5.9080    -0.3500 H     1 <1>   0.0800 
 45 H        1.5050     5.2700     1.0640 H     1 <1>   0.0800 
 46 H       -5.6640    -3.6240    -0.7980 H     1 <1>   0.0800 
 47 H       -4.7330    -5.4470     1.0640 H     1 <1>   0.0800 
 48 H       -6.3210    -3.5850     1.3480 H     1 <1>   0.4000 
 49 H       -3.6870    -5.3620    -1.7840 H     1 <1>   0.0800 
 50 H       -5.2150    -6.0190    -1.2960 H     1 <1>   0.0800 
 51 H       -5.3770    -8.2630    -0.5570 H     1 <1>   0.1500 
 52 H       -0.5550    -8.3440    -0.3600 H     1 <1>   0.1500 
 53 H       -4.2560   -10.4210    -0.1060 H     1 <1>   0.1500 
 54 H       -1.7720   -10.4250    -0.0150 H     1 <1>   0.1500 
@<TRIPOS>BOND
  1   1   2  1   
  2   1   3  1   
  3   2   4  2   
  4   2   5  1   
  5   3   6  2   
  6   3   7  1   
  7   4   6  1   
  8   4  26  1   
  9   5   8  1   
 10   5   9  1   
 11   5  27  1   
 12   6  28  1   
 13   7  10  1   
 14   7  29  1   
 15   7  30  1   
 16   8  11  1   
 17   8  31  1   
 18   8  32  1   
 19   9  12  1   
 20   9  33  1   
 21   9  34  1   
 22  10  13  1   
 23  10  14  1   
 24  10  35  1   
 25  11  15  1   
 26  11  36  1   
 27  11  37  1   
 28  12  15  1   
 29  12  38  1   
 30  12  39  1   
 31  13  16  1   
 32  13  40  1   
 33  13  41  1   
 34  14  17  1   
 35  14  42  1   
 36  14  43  1   
 37  15  44  1   
 38  15  45  1   
 39  16  17  1   
 40  16  18  1   
 41  16  46  1   
 42  17  19  1   
 43  17  47  1   
 44  18  48  1   
 45  19  20  1   
 46  19  49  1   
 47  19  50  1   
 48  20  21  ar  
 49  20  22  ar  
 50  21  23  ar  
 51  22  24  ar  
 52  22  51  1   
 53  23  25  ar  
 54  23  52  1   
 55  24  25  ar  
 56  24  53  1   
 57  25  54  1   
@<TRIPOS>SUBSTRUCTURE
  1 ****   7 GROUP 4 **** **** 0

# MOE 2024.06 (io_trps.svl 2023.06)
