@<TRIPOS>MOLECULE
NONAME
39 41 1 0 0 
SMALL
USER_CHARGES


@<TRIPOS>ATOM
  1 S       -2.0160    -0.3310    -0.5810 S.3   1 <1>  -0.0800 
  2 C       -1.6060    -1.1580     0.8850 C.2   1 <1>   0.4420 
  3 C       -1.1580     1.0380     0.0350 C.2   1 <1>   0.1980 
  4 N       -0.9120    -0.4240     1.6780 N.2   1 <1>  -0.3380 
  5 N       -2.0590    -2.4480     1.0080 N.am  1 <1>  -0.4940 
  6 N       -0.6610     0.8270     1.1860 N.2   1 <1>  -0.3380 
  7 C       -1.1010     2.2780    -0.8340 C.3   1 <1>   0.0200 
  8 C       -1.9140    -3.3590     2.0150 C.2   1 <1>   0.7160 
  9 C       -0.3130     3.3960    -0.1550 C.3   1 <1>   0.1200 
 10 O       -1.2970    -3.0920     3.0270 O.2   1 <1>  -0.5700 
 11 C       -2.5150    -4.6430     1.8410 C.2   1 <1>  -0.0860 
 12 O       -0.3040     4.4950    -1.0070 O.3   1 <1>  -0.5600 
 13 C       -3.2410    -5.1220     0.7810 C.2   1 <1>  -0.0260 
 14 C       -2.4880    -5.7080     2.7380 C.2   1 <1>   0.1390 
 15 C        0.3860     5.5880    -0.5030 C.3   1 <1>   0.1200 
 16 N       -3.5960    -4.5130    -0.4030 N.2   1 <1>  -0.5760 
 17 N       -3.5910    -6.4090     1.1050 N.pl3 1 <1>   0.6010 
 18 N       -3.1220    -6.7630     2.3170 N.2   1 <1>  -0.7070 
 19 C        0.3060     6.7000    -1.5420 C.3   1 <1>  -0.2400 
 20 C       -4.2980    -5.2350    -1.2230 C.2   1 <1>   0.3760 
 21 C       -4.3350    -7.1530     0.2210 C.2   1 <1>  -0.1810 
 22 C       -4.7000    -6.5770    -0.9570 C.2   1 <1>  -0.1240 
 23 C       -5.5220    -7.3250    -1.9950 C.3   1 <1>  -0.1020 
 24 H       -2.6030    -2.8210     0.2260 H     1 <1>   0.3700 
 25 H       -2.1030     2.6180    -1.0240 H     1 <1>   0.0800 
 26 H       -0.6300     2.0300    -1.7670 H     1 <1>   0.0800 
 27 H        0.7020     3.0850     0.0250 H     1 <1>   0.0800 
 28 H       -0.7810     3.6770     0.7740 H     1 <1>   0.0800 
 29 H       -1.9870    -5.6620     3.6930 H     1 <1>   0.1500 
 30 H        1.4110     5.3040    -0.3290 H     1 <1>   0.0800 
 31 H       -0.0740     5.8970     0.4200 H     1 <1>   0.0800 
 32 H        0.7560     6.3760    -2.4630 H     1 <1>   0.0800 
 33 H        0.8310     7.5680    -1.1880 H     1 <1>   0.0800 
 34 H       -0.7210     6.9660    -1.7180 H     1 <1>   0.0800 
 35 H       -4.5990    -4.8030    -2.1610 H     1 <1>   0.0600 
 36 H       -4.5790    -8.1520     0.5290 H     1 <1>   0.1500 
 37 H       -6.4480    -6.8080    -2.1760 H     1 <1>   0.0800 
 38 H       -5.7490    -8.3210    -1.6560 H     1 <1>   0.0800 
 39 H       -4.9760    -7.3960    -2.9190 H     1 <1>   0.0800 
@<TRIPOS>BOND
  1   1   2  1   
  2   1   3  1   
  3   2   4  2   
  4   2   5  1   
  5   3   6  2   
  6   3   7  1   
  7   4   6  1   
  8   5   8  am  
  9   5  24  1   
 10   7   9  1   
 11   7  25  1   
 12   7  26  1   
 13   8  10  2   
 14   8  11  1   
 15   9  12  1   
 16   9  27  1   
 17   9  28  1   
 18  11  13  2   
 19  11  14  1   
 20  12  15  1   
 21  13  16  1   
 22  13  17  1   
 23  14  18  2   
 24  14  29  1   
 25  15  19  1   
 26  15  30  1   
 27  15  31  1   
 28  16  20  2   
 29  17  18  1   
 30  17  21  1   
 31  19  32  1   
 32  19  33  1   
 33  19  34  1   
 34  20  22  1   
 35  20  35  1   
 36  21  22  2   
 37  21  36  1   
 38  22  23  1   
 39  23  37  1   
 40  23  38  1   
 41  23  39  1   
@<TRIPOS>SUBSTRUCTURE
  1 ****   5 GROUP 4 **** **** 0

# MOE 2024.06 (io_trps.svl 2023.06)
