@<TRIPOS>MOLECULE
NONAME
53 55 1 0 0 
SMALL
USER_CHARGES


@<TRIPOS>ATOM
  1 S       -2.1390    -0.7370     2.2520 S.3   1 <1>  -0.4600 
  2 C       -2.8340     0.8740     1.8330 C.3   1 <1>   0.0700 
  3 C       -3.6020    -1.7730     2.4680 C.3   1 <1>   0.0700 
  4 C       -3.7100     0.6920     0.5920 C.3   1 <1>  -0.1600 
  5 C       -4.4120    -1.7070     1.1730 C.3   1 <1>  -0.1600 
  6 C       -4.8730    -0.2780     0.8570 C.3   1 <1>   0.4230 
  7 N       -5.8190    -0.3110    -0.2930 N.4   1 <1>  -0.9590 
  8 C       -5.2100    -0.7030    -1.6080 C.3   1 <1>   0.3430 
  9 C       -6.6790     0.9020    -0.4000 C.3   1 <1>   0.3430 
 10 C       -6.2920    -1.0540    -2.6500 C.3   1 <1>   0.1400 
 11 C       -8.1550     0.5060    -0.5370 C.3   1 <1>  -0.1600 
 12 N       -7.6060    -1.4130    -2.0150 N.am  1 <1>  -0.6600 
 13 C       -8.5320    -0.2690    -1.8120 C.3   1 <1>   0.1400 
 14 C       -7.7460    -2.6250    -1.3940 C.2   1 <1>   0.5690 
 15 O       -6.7830    -3.1300    -0.8670 O.2   1 <1>  -0.5700 
 16 C       -9.0830    -3.3490    -1.3350 C.3   1 <1>  -0.0990 
 17 C       -9.4860    -3.8150     0.0790 C.3   1 <1>  -0.0800 
 18 C      -10.7980    -4.6180     0.0190 C.3   1 <1>   0.1200 
 19 C       -9.6250    -2.6400     1.0620 C.3   1 <1>  -0.1600 
 20 O      -11.1680    -5.0170     1.3020 O.3   1 <1>  -0.5600 
 21 C      -10.1950    -3.1340     2.3980 C.3   1 <1>  -0.1600 
 22 C      -11.4580    -3.9750     2.1800 C.3   1 <1>   0.1200 
 23 H       -2.0050     1.5350     1.6430 H     1 <1>   0.0800 
 24 H       -3.3910     1.2210     2.6870 H     1 <1>   0.0800 
 25 H       -4.1470    -1.3970     3.3160 H     1 <1>   0.0800 
 26 H       -3.2550    -2.7730     2.6690 H     1 <1>   0.0800 
 27 H       -3.0860     0.3290    -0.2050 H     1 <1>   0.0800 
 28 H       -4.0900     1.6590     0.3170 H     1 <1>   0.0800 
 29 H       -5.2690    -2.3470     1.2880 H     1 <1>   0.0800 
 30 H       -3.8030    -2.1000     0.3780 H     1 <1>   0.0800 
 31 H       -5.4110     0.0800     1.7200 H     1 <1>   0.0800 
 32 H       -6.4590    -1.1100    -0.1210 H     1 <1>   0.4500 
 33 H       -4.6010    -1.5810    -1.4670 H     1 <1>   0.0800 
 34 H       -4.5740     0.0800    -1.9860 H     1 <1>   0.0800 
 35 H       -6.3750     1.4980    -1.2450 H     1 <1>   0.0800 
 36 H       -6.5660     1.5030     0.4870 H     1 <1>   0.0800 
 37 H       -5.9450    -1.8860    -3.2400 H     1 <1>   0.0800 
 38 H       -6.4260    -0.2250    -3.3220 H     1 <1>   0.0800 
 39 H       -8.7410     1.4090    -0.5230 H     1 <1>   0.0800 
 40 H       -8.4510    -0.0560     0.3280 H     1 <1>   0.0800 
 41 H       -8.4860     0.3840    -2.6680 H     1 <1>   0.0800 
 42 H       -9.5470    -0.6150    -1.7310 H     1 <1>   0.0800 
 43 H       -8.9910    -4.2170    -1.9630 H     1 <1>   0.0800 
 44 H       -9.8600    -2.7420    -1.7560 H     1 <1>   0.0800 
 45 H       -8.7220    -4.4820     0.4440 H     1 <1>   0.0800 
 46 H      -10.6680    -5.5090    -0.5700 H     1 <1>   0.0800 
 47 H      -11.6000    -4.0350    -0.4010 H     1 <1>   0.0800 
 48 H      -10.2900    -1.9000     0.6510 H     1 <1>   0.0800 
 49 H       -8.6660    -2.1900     1.2380 H     1 <1>   0.0800 
 50 H      -10.4260    -2.2980     3.0340 H     1 <1>   0.0800 
 51 H       -9.4660    -3.7420     2.9040 H     1 <1>   0.0800 
 52 H      -11.7870    -4.4100     3.1080 H     1 <1>   0.0800 
 53 H      -12.2580    -3.3860     1.7650 H     1 <1>   0.0800 
@<TRIPOS>BOND
  1   1   2  1   
  2   1   3  1   
  3   2   4  1   
  4   2  23  1   
  5   2  24  1   
  6   3   5  1   
  7   3  25  1   
  8   3  26  1   
  9   4   6  1   
 10   4  27  1   
 11   4  28  1   
 12   5   6  1   
 13   5  29  1   
 14   5  30  1   
 15   6   7  1   
 16   6  31  1   
 17   7   8  1   
 18   7   9  1   
 19   7  32  1   
 20   8  10  1   
 21   8  33  1   
 22   8  34  1   
 23   9  11  1   
 24   9  35  1   
 25   9  36  1   
 26  10  12  1   
 27  10  37  1   
 28  10  38  1   
 29  11  13  1   
 30  11  39  1   
 31  11  40  1   
 32  12  13  1   
 33  12  14  am  
 34  13  41  1   
 35  13  42  1   
 36  14  15  2   
 37  14  16  1   
 38  16  17  1   
 39  16  43  1   
 40  16  44  1   
 41  17  18  1   
 42  17  19  1   
 43  17  45  1   
 44  18  20  1   
 45  18  46  1   
 46  18  47  1   
 47  19  21  1   
 48  19  48  1   
 49  19  49  1   
 50  20  22  1   
 51  21  22  1   
 52  21  50  1   
 53  21  51  1   
 54  22  52  1   
 55  22  53  1   
@<TRIPOS>SUBSTRUCTURE
  1 ****  15 GROUP 4 **** **** 0

# MOE 2024.06 (io_trps.svl 2023.06)
