@<TRIPOS>MOLECULE
NONAME
54 55 1 0 0 
SMALL
USER_CHARGES


@<TRIPOS>ATOM
  1 O        2.5460     2.6220     1.6640 O.co2 1 <1>  -0.9000 
  2 C        2.1430     1.4650     1.4660 C.2   1 <1>   0.9060 
  3 O        2.0070     0.6700     2.3930 O.co2 1 <1>  -0.9000 
  4 C        2.1170     0.9190     0.0250 C.3   1 <1>  -0.1060 
  5 C        3.2310    -0.1550     0.0260 C.3   1 <1>   0.2000 
  6 C        2.5080     2.0150    -1.0220 C.3   1 <1>  -0.1600 
  7 C        0.7320     0.3010    -0.3110 C.3   1 <1>  -0.1600 
  8 O        3.3780    -0.6830    -1.2590 O.3   1 <1>  -0.6800 
  9 C        4.5840     0.4640     0.4710 C.3   1 <1>   0.3430 
 10 C        4.0240     2.2760    -1.1250 C.3   1 <1>   0.3430 
 11 C       -0.4260     1.3100    -0.2370 C.3   1 <1>  -0.1600 
 12 N        4.6780     1.9390     0.1660 N.4   1 <1>  -0.9590 
 13 C       -1.7620     0.6320    -0.5520 C.3   1 <1>  -0.2400 
 14 C        6.0340     2.5060     0.3690 C.3   1 <1>   0.3430 
 15 C        5.9610     4.0010     0.6840 C.3   1 <1>   0.1200 
 16 O        7.2830     4.4800     0.7400 O.3   1 <1>  -0.3630 
 17 C        7.5390     5.8170     0.7730 C.ar  1 <1>   0.0830 
 18 C        8.7840     6.2610     0.3210 C.ar  1 <1>   0.0830 
 19 C        6.6070     6.7380     1.2410 C.ar  1 <1>  -0.1500 
 20 O        9.6710     5.3240    -0.1280 O.3   1 <1>  -0.3630 
 21 C        9.0720     7.6230     0.3380 C.ar  1 <1>  -0.1500 
 22 C        6.9080     8.0890     1.2500 C.ar  1 <1>  -0.1500 
 23 C       10.9860     5.6740    -0.4970 C.3   1 <1>   0.0400 
 24 C        8.1380     8.5370     0.7980 C.ar  1 <1>  -0.1430 
 25 C        8.4640    10.0200     0.8120 C.3   1 <1>  -0.0970 
 26 H        2.9800    -0.9700     0.6850 H     1 <1>   0.0800 
 27 H        2.0110     2.9390    -0.7820 H     1 <1>   0.0800 
 28 H        2.1660     1.7280    -2.0000 H     1 <1>   0.0800 
 29 H        0.7490    -0.1310    -1.2950 H     1 <1>   0.0800 
 30 H        0.5330    -0.4920     0.3910 H     1 <1>   0.0800 
 31 H        2.5430    -1.1190    -1.5220 H     1 <1>   0.4000 
 32 H        5.3850    -0.0760    -0.0030 H     1 <1>   0.0800 
 33 H        4.6700     0.3360     1.5380 H     1 <1>   0.0800 
 34 H        4.1930     3.3080    -1.3800 H     1 <1>   0.0800 
 35 H        4.4400     1.6540    -1.9010 H     1 <1>   0.0800 
 36 H       -0.4770     1.7340     0.7530 H     1 <1>   0.0800 
 37 H       -0.2700     2.1130    -0.9350 H     1 <1>   0.0800 
 38 H        4.0400     2.3800     0.8820 H     1 <1>   0.4500 
 39 H       -1.9570    -0.1560     0.1550 H     1 <1>   0.0800 
 40 H       -1.7520     0.2160    -1.5440 H     1 <1>   0.0800 
 41 H       -2.5610     1.3500    -0.4890 H     1 <1>   0.0800 
 42 H        6.5080     2.0120     1.2000 H     1 <1>   0.0800 
 43 H        6.6290     2.3510    -0.5150 H     1 <1>   0.0800 
 44 H        5.4950     4.1630     1.6410 H     1 <1>   0.0800 
 45 H        5.4440     4.5380    -0.0900 H     1 <1>   0.0800 
 46 H        5.6490     6.4250     1.6090 H     1 <1>   0.1500 
 47 H       10.0200     7.9910    -0.0040 H     1 <1>   0.1500 
 48 H        6.1790     8.7910     1.6160 H     1 <1>   0.1500 
 49 H       11.5080     4.7730    -0.7670 H     1 <1>   0.0800 
 50 H       11.4730     6.1390     0.3420 H     1 <1>   0.0800 
 51 H       10.9480     6.3400    -1.3410 H     1 <1>   0.0800 
 52 H        7.5650    10.6070     0.7630 H     1 <1>   0.0800 
 53 H        9.0810    10.2770    -0.0300 H     1 <1>   0.0800 
 54 H        8.9910    10.2680     1.7170 H     1 <1>   0.0800 
@<TRIPOS>BOND
  1   1   2  ar  
  2   2   3  ar  
  3   2   4  1   
  4   4   5  1   
  5   4   6  1   
  6   4   7  1   
  7   5   8  1   
  8   5   9  1   
  9   5  26  1   
 10   6  10  1   
 11   6  27  1   
 12   6  28  1   
 13   7  11  1   
 14   7  29  1   
 15   7  30  1   
 16   8  31  1   
 17   9  12  1   
 18   9  32  1   
 19   9  33  1   
 20  10  12  1   
 21  10  34  1   
 22  10  35  1   
 23  11  13  1   
 24  11  36  1   
 25  11  37  1   
 26  12  14  1   
 27  12  38  1   
 28  13  39  1   
 29  13  40  1   
 30  13  41  1   
 31  14  15  1   
 32  14  42  1   
 33  14  43  1   
 34  15  16  1   
 35  15  44  1   
 36  15  45  1   
 37  16  17  1   
 38  17  18  ar  
 39  17  19  ar  
 40  18  20  1   
 41  18  21  ar  
 42  19  22  ar  
 43  19  46  1   
 44  20  23  1   
 45  21  24  ar  
 46  21  47  1   
 47  22  24  ar  
 48  22  48  1   
 49  23  49  1   
 50  23  50  1   
 51  23  51  1   
 52  24  25  1   
 53  25  52  1   
 54  25  53  1   
 55  25  54  1   
@<TRIPOS>SUBSTRUCTURE
  1 ****  15 GROUP 4 **** **** 0

# MOE 2024.06 (io_trps.svl 2023.06)
