@<TRIPOS>MOLECULE
NONAME
41 43 1 0 0 
SMALL
USER_CHARGES


@<TRIPOS>ATOM
  1 O       -2.0110    -0.4300    -0.9870 O.2   1 <1>  -0.5700 
  2 C       -2.3110     0.4560    -0.1930 C.2   1 <1>   0.6160 
  3 N       -2.0330     1.7770    -0.5400 N.am  1 <1>  -0.4690 
  4 C       -2.9400     0.1900     1.0670 C.2   1 <1>   0.0290 
  5 C       -2.3370     2.8080     0.3160 C.2   1 <1>  -0.0410 
  6 C       -1.3740     2.0670    -1.8410 C.3   1 <1>   0.0600 
  7 C       -3.2480    -1.1610     1.4490 C.2   1 <1>   0.6160 
  8 C       -3.2190     1.2440     1.9020 C.2   1 <1>  -0.1500 
  9 C       -2.9190     2.5650     1.5210 C.2   1 <1>  -0.1500 
 10 O       -2.8730    -1.5630     2.5370 O.2   1 <1>  -0.5700 
 11 N       -4.0310    -2.0050     0.6920 N.am  1 <1>  -0.6600 
 12 C       -4.7710    -1.6480    -0.5410 C.3   1 <1>   0.1400 
 13 C       -4.3570    -3.3960     1.1020 C.3   1 <1>   0.1400 
 14 C       -5.9350    -2.6330    -0.5740 C.3   1 <1>   0.2000 
 15 C       -5.3820    -3.9070     0.0730 C.3   1 <1>  -0.0800 
 16 O       -6.9420    -2.1450     0.2410 O.3   1 <1>  -0.6800 
 17 C       -4.7330    -4.8290    -0.9800 C.3   1 <1>  -0.0170 
 18 C       -4.4470    -6.2150    -0.4200 C.ar  1 <1>   0.1670 
 19 N       -3.2710    -6.3950     0.1590 N.ar  1 <1>  -0.6200 
 20 C       -5.4060    -7.2210    -0.5360 C.ar  1 <1>   0.1600 
 21 C       -3.1190    -7.6280     0.6100 C.ar  1 <1>   0.1600 
 22 N       -5.2580    -8.4560    -0.0850 N.ar  1 <1>  -0.6200 
 23 C       -4.0800    -8.6250     0.4920 C.ar  1 <1>   0.1600 
 24 H       -2.0980     3.8120     0.0050 H     1 <1>   0.1500 
 25 H       -1.2260     3.1250    -1.9660 H     1 <1>   0.0800 
 26 H       -1.9880     1.6990    -2.6450 H     1 <1>   0.0800 
 27 H       -0.4200     1.5700    -1.8770 H     1 <1>   0.0800 
 28 H       -3.6700     1.0720     2.8660 H     1 <1>   0.1500 
 29 H       -3.1550     3.3670     2.1990 H     1 <1>   0.1500 
 30 H       -5.1100    -0.6260    -0.5330 H     1 <1>   0.0800 
 31 H       -4.1310    -1.8100    -1.3910 H     1 <1>   0.0800 
 32 H       -3.4610    -3.9920     1.1250 H     1 <1>   0.0800 
 33 H       -4.7890    -3.3820     2.0880 H     1 <1>   0.0800 
 34 H       -6.3410    -2.7780    -1.5610 H     1 <1>   0.0800 
 35 H       -6.1700    -4.4540     0.5620 H     1 <1>   0.0800 
 36 H       -6.5550    -1.9150     1.1100 H     1 <1>   0.4000 
 37 H       -3.8180    -4.3940    -1.3440 H     1 <1>   0.0800 
 38 H       -5.3960    -4.9330    -1.8200 H     1 <1>   0.0800 
 39 H       -6.3380    -6.9950    -1.0210 H     1 <1>   0.1500 
 40 H       -2.1890    -7.8620     1.0970 H     1 <1>   0.1500 
 41 H       -3.8640    -9.6000     0.8910 H     1 <1>   0.1500 
@<TRIPOS>BOND
  1   1   2  2   
  2   2   3  am  
  3   2   4  1   
  4   3   5  1   
  5   3   6  1   
  6   4   7  1   
  7   4   8  2   
  8   5   9  2   
  9   5  24  1   
 10   6  25  1   
 11   6  26  1   
 12   6  27  1   
 13   7  10  2   
 14   7  11  am  
 15   8   9  1   
 16   8  28  1   
 17   9  29  1   
 18  11  12  1   
 19  11  13  1   
 20  12  14  1   
 21  12  30  1   
 22  12  31  1   
 23  13  15  1   
 24  13  32  1   
 25  13  33  1   
 26  14  15  1   
 27  14  16  1   
 28  14  34  1   
 29  15  17  1   
 30  15  35  1   
 31  16  36  1   
 32  17  18  1   
 33  17  37  1   
 34  17  38  1   
 35  18  19  ar  
 36  18  20  ar  
 37  19  21  ar  
 38  20  22  ar  
 39  20  39  1   
 40  21  23  ar  
 41  21  40  1   
 42  22  23  ar  
 43  23  41  1   
@<TRIPOS>SUBSTRUCTURE
  1 ****  11 GROUP 4 **** **** 0

# MOE 2024.06 (io_trps.svl 2023.06)
