@<TRIPOS>MOLECULE
NONAME
55 58 1 0 0 
SMALL
USER_CHARGES


@<TRIPOS>ATOM
  1 O       -0.0840    -0.8480     1.6890 O.2   1 <1>  -0.5700 
  2 C        0.8900    -1.3490     1.1510 C.2   1 <1>   0.7670 
  3 N        1.8120    -0.5400     0.5470 N.2   1 <1>  -0.6610 
  4 C        1.0510    -2.7560     1.1350 C.2   1 <1>  -0.1360 
  5 C        2.8090    -1.1000    -0.0300 C.2   1 <1>   0.4390 
  6 C        2.1050    -3.3200     0.5000 C.2   1 <1>  -0.0380 
  7 N        2.9960    -2.4520    -0.0840 N.pl3 1 <1>  -0.5500 
  8 C        3.8560    -0.2470    -0.7020 C.3   1 <1>  -0.1790 
  9 C        2.3460    -4.8260     0.4050 C.3   1 <1>   0.2480 
 10 N        1.0690    -5.5700     0.4390 N.3   1 <1>  -0.8100 
 11 C        0.2700    -5.3700    -0.8020 C.3   1 <1>   0.1100 
 12 C        1.2640    -7.0190     0.6930 C.3   1 <1>   0.1100 
 13 C       -1.0610    -6.1610    -0.7760 C.3   1 <1>   0.3430 
 14 C       -0.0870    -7.7740     0.7990 C.3   1 <1>   0.3430 
 15 N       -1.2380    -6.8470     0.5460 N.4   1 <1>  -0.9590 
 16 C       -2.5800    -7.4560     0.7630 C.3   1 <1>   0.7100 
 17 C       -2.7070    -8.6950    -0.1320 C.ar  1 <1>  -0.1440 
 18 C       -3.6880    -6.4010     0.6070 C.ar  1 <1>  -0.1440 
 19 C       -2.9450    -8.6110    -1.5010 C.ar  1 <1>  -0.1500 
 20 C       -2.5680    -9.9510     0.4460 C.ar  1 <1>  -0.1500 
 21 C       -4.9260    -6.7320     0.0620 C.ar  1 <1>  -0.1500 
 22 C       -3.4940    -5.0900     1.0400 C.ar  1 <1>  -0.1500 
 23 C       -3.0220    -9.7560    -2.2740 C.ar  1 <1>  -0.1500 
 24 C       -2.6460   -11.0950    -0.3280 C.ar  1 <1>  -0.1500 
 25 C       -5.9190    -5.7800    -0.0820 C.ar  1 <1>  -0.1500 
 26 C       -4.4870    -4.1370     0.8960 C.ar  1 <1>  -0.1500 
 27 C       -2.8700   -10.9980    -1.6890 C.ar  1 <1>  -0.1500 
 28 C       -5.6990    -4.4800     0.3310 C.ar  1 <1>  -0.1500 
 29 H        0.3000    -3.3250     1.6430 H     1 <1>   0.1500 
 30 H        3.8350    -2.7890    -0.5630 H     1 <1>   0.4000 
 31 H        4.8150    -0.4150    -0.2480 H     1 <1>   0.0800 
 32 H        3.6060     0.7940    -0.5970 H     1 <1>   0.0800 
 33 H        3.9070    -0.4830    -1.7490 H     1 <1>   0.0800 
 34 H        2.9630    -5.1200     1.2370 H     1 <1>   0.0800 
 35 H        2.8750    -5.0580    -0.5050 H     1 <1>   0.0800 
 36 H        0.8410    -5.6740    -1.6630 H     1 <1>   0.0800 
 37 H        0.0420    -4.3240    -0.9240 H     1 <1>   0.0800 
 38 H        1.8080    -7.1540     1.6130 H     1 <1>   0.0800 
 39 H        1.8520    -7.4550    -0.0980 H     1 <1>   0.0800 
 40 H       -1.0510    -6.8890    -1.5700 H     1 <1>   0.0800 
 41 H       -1.8780    -5.4820    -0.9620 H     1 <1>   0.0800 
 42 H       -0.1700    -8.2050     1.7830 H     1 <1>   0.0800 
 43 H       -0.1000    -8.5830     0.0860 H     1 <1>   0.0800 
 44 H       -1.1180    -6.0930     1.2300 H     1 <1>   0.4500 
 45 H       -2.6290    -7.7990     1.7840 H     1 <1>   0.0800 
 46 H       -3.0860    -7.6590    -1.9840 H     1 <1>   0.1500 
 47 H       -2.4010   -10.0610     1.5040 H     1 <1>   0.1500 
 48 H       -5.1500    -7.7370    -0.2580 H     1 <1>   0.1500 
 49 H       -2.5760    -4.7730     1.5020 H     1 <1>   0.1500 
 50 H       -3.2070    -9.6850    -3.3330 H     1 <1>   0.1500 
 51 H       -2.5380   -12.0670     0.1260 H     1 <1>   0.1500 
 52 H       -6.8690    -6.0510    -0.5120 H     1 <1>   0.1500 
 53 H       -4.3210    -3.1250     1.2280 H     1 <1>   0.1500 
 54 H       -2.9310   -11.8900    -2.2900 H     1 <1>   0.1500 
 55 H       -6.4730    -3.7390     0.2180 H     1 <1>   0.1500 
@<TRIPOS>BOND
  1   1   2  2   
  2   2   3  1   
  3   2   4  1   
  4   3   5  2   
  5   4   6  2   
  6   4  29  1   
  7   5   7  1   
  8   5   8  1   
  9   6   7  1   
 10   6   9  1   
 11   7  30  1   
 12   8  31  1   
 13   8  32  1   
 14   8  33  1   
 15   9  10  1   
 16   9  34  1   
 17   9  35  1   
 18  10  11  1   
 19  10  12  1   
 20  11  13  1   
 21  11  36  1   
 22  11  37  1   
 23  12  14  1   
 24  12  38  1   
 25  12  39  1   
 26  13  15  1   
 27  13  40  1   
 28  13  41  1   
 29  14  15  1   
 30  14  42  1   
 31  14  43  1   
 32  15  16  1   
 33  15  44  1   
 34  16  17  1   
 35  16  18  1   
 36  16  45  1   
 37  17  19  ar  
 38  17  20  ar  
 39  18  21  ar  
 40  18  22  ar  
 41  19  23  ar  
 42  19  46  1   
 43  20  24  ar  
 44  20  47  1   
 45  21  25  ar  
 46  21  48  1   
 47  22  26  ar  
 48  22  49  1   
 49  23  27  ar  
 50  23  50  1   
 51  24  27  ar  
 52  24  51  1   
 53  25  28  ar  
 54  25  52  1   
 55  26  28  ar  
 56  26  53  1   
 57  27  54  1   
 58  28  55  1   
@<TRIPOS>SUBSTRUCTURE
  1 ****  13 GROUP 4 **** **** 0

# MOE 2024.06 (io_trps.svl 2023.06)
