@<TRIPOS>MOLECULE
NONAME
58 60 1 0 0 
SMALL
USER_CHARGES


@<TRIPOS>ATOM
  1 O       -0.6800     0.5380    -0.9520 O.2   1 <1>  -0.5700 
  2 C       -1.6450     1.0170    -0.4060 C.2   1 <1>   0.5690 
  3 N       -2.7130     0.2400    -0.0540 N.am  1 <1>  -0.6600 
  4 C       -1.6790     2.5150    -0.1210 C.3   1 <1>  -0.0990 
  5 C       -4.0080     0.7050     0.4990 C.3   1 <1>   0.1400 
  6 C       -2.7430    -1.2190    -0.3110 C.3   1 <1>   0.1400 
  7 C       -0.3030     3.2040    -0.1870 C.3   1 <1>  -0.1600 
  8 C       -4.9310    -0.5090     0.4070 C.3   1 <1>   0.2000 
  9 C       -4.0080    -1.7270     0.3810 C.3   1 <1>  -0.0800 
 10 C       -0.4040     4.7030     0.1190 C.3   1 <1>  -0.0160 
 11 O       -5.7880    -0.5810     1.4940 O.3   1 <1>  -0.6800 
 12 C       -4.6440    -2.9440    -0.3080 C.3   1 <1>  -0.0170 
 13 C        0.9660     5.3580     0.0590 C.ar  1 <1>  -0.1430 
 14 C       -3.6980    -4.1340    -0.3020 C.ar  1 <1>  -0.1430 
 15 C        1.7240     5.5070     1.2100 C.ar  1 <1>  -0.1500 
 16 C        1.4720     5.8110    -1.1480 C.ar  1 <1>  -0.1500 
 17 C       -3.6030    -4.9770     0.7860 C.ar  1 <1>  -0.1500 
 18 C       -2.8860    -4.4340    -1.3770 C.ar  1 <1>  -0.1500 
 19 C        2.9730     6.1040     1.1670 C.ar  1 <1>  -0.1430 
 20 C        2.7180     6.4090    -1.2040 C.ar  1 <1>  -0.1500 
 21 C       -2.7240    -6.0470     0.7500 C.ar  1 <1>   0.1600 
 22 C       -2.0400    -5.5290    -1.3110 C.ar  1 <1>   0.1600 
 23 C        3.4780     6.5610    -0.0470 C.ar  1 <1>   0.0820 
 24 C        3.7840     6.2560     2.4460 C.3   1 <1>  -0.0970 
 25 N       -1.9390    -6.3430    -0.2730 N.ar  1 <1>  -0.6200 
 26 O        4.7080     7.1410    -0.0410 O.3   1 <1>  -0.3630 
 27 C        5.3100     7.6100    -1.2240 C.3   1 <1>   0.1200 
 28 C        6.6770     8.1810    -0.8620 C.3   1 <1>  -0.2400 
 29 H       -2.3370     2.9700    -0.8370 H     1 <1>   0.0800 
 30 H       -2.0880     2.6660     0.8610 H     1 <1>   0.0800 
 31 H       -3.8680     1.0030     1.5240 H     1 <1>   0.0800 
 32 H       -4.3970     1.5240    -0.0810 H     1 <1>   0.0800 
 33 H       -2.7900    -1.3800    -1.3750 H     1 <1>   0.0800 
 34 H       -1.8580    -1.6950     0.0800 H     1 <1>   0.0800 
 35 H        0.3650     2.7400     0.5190 H     1 <1>   0.0800 
 36 H        0.1190     3.0700    -1.1690 H     1 <1>   0.0800 
 37 H       -5.5250    -0.4470    -0.4890 H     1 <1>   0.0800 
 38 H       -3.7340    -1.9900     1.3880 H     1 <1>   0.0800 
 39 H       -0.8280     4.8490     1.0970 H     1 <1>   0.0800 
 40 H       -1.0550     5.1780    -0.5940 H     1 <1>   0.0800 
 41 H       -5.2830    -0.7100     2.3200 H     1 <1>   0.4000 
 42 H       -4.9090    -2.6970    -1.3220 H     1 <1>   0.0800 
 43 H       -5.5510    -3.2100     0.2060 H     1 <1>   0.0800 
 44 H        1.3360     5.1520     2.1480 H     1 <1>   0.1500 
 45 H        0.8970     5.6960    -2.0490 H     1 <1>   0.1500 
 46 H       -4.2040    -4.8130     1.6620 H     1 <1>   0.1500 
 47 H       -2.8990    -3.8300    -2.2660 H     1 <1>   0.1500 
 48 H        3.0760     6.7460    -2.1570 H     1 <1>   0.1500 
 49 H       -2.6640    -6.6940     1.6080 H     1 <1>   0.1500 
 50 H       -1.4120    -5.7470    -2.1590 H     1 <1>   0.1500 
 51 H        3.2620     5.8440     3.2900 H     1 <1>   0.0800 
 52 H        3.9760     7.2970     2.6320 H     1 <1>   0.0800 
 53 H        4.7250     5.7450     2.3410 H     1 <1>   0.0800 
 54 H        5.4110     6.7830    -1.9050 H     1 <1>   0.0800 
 55 H        4.6790     8.3720    -1.6480 H     1 <1>   0.0800 
 56 H        7.2920     7.4160    -0.4230 H     1 <1>   0.0800 
 57 H        6.5650     8.9940    -0.1670 H     1 <1>   0.0800 
 58 H        7.1640     8.5490    -1.7460 H     1 <1>   0.0800 
@<TRIPOS>BOND
  1   1   2  2   
  2   2   3  am  
  3   2   4  1   
  4   3   5  1   
  5   3   6  1   
  6   4   7  1   
  7   4  29  1   
  8   4  30  1   
  9   5   8  1   
 10   5  31  1   
 11   5  32  1   
 12   6   9  1   
 13   6  33  1   
 14   6  34  1   
 15   7  10  1   
 16   7  35  1   
 17   7  36  1   
 18   8   9  1   
 19   8  11  1   
 20   8  37  1   
 21   9  12  1   
 22   9  38  1   
 23  10  13  1   
 24  10  39  1   
 25  10  40  1   
 26  11  41  1   
 27  12  14  1   
 28  12  42  1   
 29  12  43  1   
 30  13  15  ar  
 31  13  16  ar  
 32  14  17  ar  
 33  14  18  ar  
 34  15  19  ar  
 35  15  44  1   
 36  16  20  ar  
 37  16  45  1   
 38  17  21  ar  
 39  17  46  1   
 40  18  22  ar  
 41  18  47  1   
 42  19  23  ar  
 43  19  24  1   
 44  20  23  ar  
 45  20  48  1   
 46  21  25  ar  
 47  21  49  1   
 48  22  25  ar  
 49  22  50  1   
 50  23  26  1   
 51  24  51  1   
 52  24  52  1   
 53  24  53  1   
 54  26  27  1   
 55  27  28  1   
 56  27  54  1   
 57  27  55  1   
 58  28  56  1   
 59  28  57  1   
 60  28  58  1   
@<TRIPOS>SUBSTRUCTURE
  1 ****   2 GROUP 4 **** **** 0

# MOE 2024.06 (io_trps.svl 2023.06)
