@<TRIPOS>MOLECULE
NONAME
47 49 1 0 0 
SMALL
USER_CHARGES


@<TRIPOS>ATOM
  1 O        2.7270     1.6960     1.8690 O.co2 1 <1>  -0.9000 
  2 C        2.4430     0.5400     1.5480 C.2   1 <1>   0.9060 
  3 O        2.6700    -0.3990     2.3160 O.co2 1 <1>  -0.9000 
  4 C        2.1900     0.2230     0.0600 C.3   1 <1>  -0.1060 
  5 C        3.3510    -0.7080    -0.3460 C.3   1 <1>   0.4230 
  6 C        2.2800     1.5030    -0.8370 C.3   1 <1>  -0.1600 
  7 C        0.8110    -0.4460    -0.1790 C.3   1 <1>  -0.1600 
  8 N        3.1950    -2.0530     0.3250 N.4   1 <1>  -0.9590 
  9 C        4.7150     0.0120    -0.0410 C.3   1 <1>   0.3430 
 10 C        3.6950     2.0830    -1.0400 C.3   1 <1>   0.3430 
 11 C        0.7350    -1.8680     0.3950 C.3   1 <1>  -0.1600 
 12 C        1.9200    -2.7310    -0.0370 C.3   1 <1>   0.3430 
 13 C        4.3530    -2.9900     0.2410 C.3   1 <1>   0.2630 
 14 N        4.6270     1.5210    -0.0260 N.4   1 <1>  -0.9590 
 15 C        5.9270     2.2300     0.1000 C.3   1 <1>   0.4860 
 16 C        5.6810     3.7160     0.2920 C.ar  1 <1>  -0.1430 
 17 C        4.8940     4.1690     1.3420 C.ar  1 <1>  -0.1500 
 18 C        6.2360     4.6350    -0.5890 C.ar  1 <1>  -0.1500 
 19 C        4.6530     5.5240     1.4910 C.ar  1 <1>   0.0820 
 20 C        6.0010     5.9910    -0.4280 C.ar  1 <1>  -0.1500 
 21 O        3.8690     5.9570     2.4870 O.3   1 <1>  -0.5330 
 22 C        5.2070     6.4380     0.6130 C.ar  1 <1>  -0.1500 
 23 H        3.2940    -0.8600    -1.4100 H     1 <1>   0.0800 
 24 H        1.6620     2.2730    -0.4040 H     1 <1>   0.0800 
 25 H        1.8730     1.3110    -1.8140 H     1 <1>   0.0800 
 26 H        0.0370     0.1580     0.2660 H     1 <1>   0.0800 
 27 H        0.6070    -0.5030    -1.2350 H     1 <1>   0.0800 
 28 H        3.0550    -1.7720     1.3360 H     1 <1>   0.4500 
 29 H        5.4410    -0.2990    -0.7710 H     1 <1>   0.0800 
 30 H        5.0470    -0.3080     0.9340 H     1 <1>   0.0800 
 31 H        3.6460     3.1580    -0.9460 H     1 <1>   0.0800 
 32 H        4.0520     1.8500    -2.0300 H     1 <1>   0.0800 
 33 H       -0.1780    -2.3360     0.0690 H     1 <1>   0.0800 
 34 H        0.7000    -1.8290     1.4710 H     1 <1>   0.0800 
 35 H        1.8810    -2.9010    -1.1010 H     1 <1>   0.0800 
 36 H        1.8570    -3.6850     0.4630 H     1 <1>   0.0800 
 37 H        4.5400    -3.2690    -0.7830 H     1 <1>   0.0800 
 38 H        4.1430    -3.8830     0.8080 H     1 <1>   0.0800 
 39 H        5.2390    -2.5350     0.6520 H     1 <1>   0.0800 
 40 H        4.1210     1.7640     0.8700 H     1 <1>   0.4500 
 41 H        6.4690     1.8530     0.9520 H     1 <1>   0.0800 
 42 H        6.5220     2.0720    -0.7840 H     1 <1>   0.0800 
 43 H        4.4570     3.4840     2.0490 H     1 <1>   0.1500 
 44 H        6.8560     4.3140    -1.4080 H     1 <1>   0.1500 
 45 H        6.4340     6.7030    -1.1100 H     1 <1>   0.1500 
 46 H        3.4620     5.2300     2.9970 H     1 <1>   0.4500 
 47 H        5.0120     7.4860     0.7510 H     1 <1>   0.1500 
@<TRIPOS>BOND
  1   1   2  ar  
  2   2   3  ar  
  3   2   4  1   
  4   4   5  1   
  5   4   6  1   
  6   4   7  1   
  7   5   8  1   
  8   5   9  1   
  9   5  23  1   
 10   6  10  1   
 11   6  24  1   
 12   6  25  1   
 13   7  11  1   
 14   7  26  1   
 15   7  27  1   
 16   8  12  1   
 17   8  13  1   
 18   8  28  1   
 19   9  14  1   
 20   9  29  1   
 21   9  30  1   
 22  10  14  1   
 23  10  31  1   
 24  10  32  1   
 25  11  12  1   
 26  11  33  1   
 27  11  34  1   
 28  12  35  1   
 29  12  36  1   
 30  13  37  1   
 31  13  38  1   
 32  13  39  1   
 33  14  15  1   
 34  14  40  1   
 35  15  16  1   
 36  15  41  1   
 37  15  42  1   
 38  16  17  ar  
 39  16  18  ar  
 40  17  19  ar  
 41  17  43  1   
 42  18  20  ar  
 43  18  44  1   
 44  19  21  1   
 45  19  22  ar  
 46  20  22  ar  
 47  20  45  1   
 48  21  46  1   
 49  22  47  1   
@<TRIPOS>SUBSTRUCTURE
  1 ****  14 GROUP 4 **** **** 0

# MOE 2024.06 (io_trps.svl 2023.06)
