@<TRIPOS>MOLECULE
NONAME
46 48 1 0 0 
SMALL
USER_CHARGES


@<TRIPOS>ATOM
  1 O       -1.7300    -0.7410    -2.7610 O.2   1 <1>  -0.5700 
  2 C       -1.9570    -0.9980    -1.6060 C.2   1 <1>   0.5690 
  3 N       -1.9970    -0.0360    -0.6370 N.am  1 <1>  -0.6600 
  4 C       -2.2500    -2.4350    -1.2650 C.3   1 <1>  -0.0190 
  5 C       -2.3490    -0.3280     0.7810 C.3   1 <1>   0.2200 
  6 C       -1.6350     1.3840    -0.9400 C.3   1 <1>   0.0600 
  7 C       -1.2500    -3.0100    -0.2380 C.3   1 <1>   0.1200 
  8 C       -3.7410    -2.5650    -0.9370 C.3   1 <1>   0.3430 
  9 C       -1.3200    -1.2930     1.4200 C.3   1 <1>   0.1200 
 10 C       -3.8240    -0.8010     0.9010 C.3   1 <1>   0.3430 
 11 O       -1.5430    -2.6370     1.0810 O.3   1 <1>  -0.5600 
 12 N       -4.0810    -2.2250     0.4850 N.4   1 <1>  -0.9590 
 13 C       -5.4310    -2.7050     0.8840 C.3   1 <1>   0.4860 
 14 C       -5.4990    -4.2080     0.6830 C.ar  1 <1>  -0.1440 
 15 C       -4.7280    -5.0620     1.4590 C.ar  1 <1>  -0.1500 
 16 C       -6.3290    -4.7420    -0.2920 C.ar  1 <1>  -0.1500 
 17 C       -4.7840    -6.4290     1.2530 C.ar  1 <1>  -0.1500 
 18 C       -6.3780    -6.1110    -0.4900 C.ar  1 <1>  -0.1500 
 19 C       -5.6070    -6.9720     0.2760 C.ar  1 <1>   0.0730 
 20 C       -5.6620    -8.3870     0.0630 C.1   1 <1>  -0.0730 
 21 C       -5.7160    -9.5620    -0.1210 C.1   1 <1>  -0.2000 
 22 C       -5.7870   -11.0300    -0.3550 C.3   1 <1>   0.3200 
 23 O       -7.1190   -11.3720    -0.4310 O.3   1 <1>  -0.6800 
 24 H       -2.0920    -2.9870    -2.1740 H     1 <1>   0.0800 
 25 H       -2.2760     0.6010     1.3210 H     1 <1>   0.0800 
 26 H       -0.7970     1.6870    -0.3370 H     1 <1>   0.0800 
 27 H       -2.4710     2.0310    -0.7360 H     1 <1>   0.0800 
 28 H       -1.3630     1.5020    -1.9760 H     1 <1>   0.0800 
 29 H       -0.2420    -2.7050    -0.4710 H     1 <1>   0.0800 
 30 H       -1.2860    -4.0850    -0.2700 H     1 <1>   0.0800 
 31 H       -4.0220    -3.5890    -1.1260 H     1 <1>   0.0800 
 32 H       -4.3090    -1.9440    -1.6110 H     1 <1>   0.0800 
 33 H       -1.3970    -1.2310     2.4920 H     1 <1>   0.0800 
 34 H       -0.3140    -1.0200     1.1450 H     1 <1>   0.0800 
 35 H       -4.4450    -0.1340     0.3250 H     1 <1>   0.0800 
 36 H       -4.1100    -0.6960     1.9350 H     1 <1>   0.0800 
 37 H       -3.3890    -2.7820     1.0260 H     1 <1>   0.4500 
 38 H       -5.6130    -2.4800     1.9220 H     1 <1>   0.0800 
 39 H       -6.1880    -2.2190     0.2910 H     1 <1>   0.0800 
 40 H       -4.0800    -4.6820     2.2300 H     1 <1>   0.1500 
 41 H       -6.9470    -4.1080    -0.9060 H     1 <1>   0.1500 
 42 H       -4.1840    -7.0890     1.8570 H     1 <1>   0.1500 
 43 H       -7.0240    -6.5230    -1.2470 H     1 <1>   0.1500 
 44 H       -5.3420   -11.5710     0.4620 H     1 <1>   0.0800 
 45 H       -5.3120   -11.3060    -1.2810 H     1 <1>   0.0800 
 46 H       -7.6120   -10.8580     0.2370 H     1 <1>   0.4000 
@<TRIPOS>BOND
  1   1   2  2   
  2   2   3  am  
  3   2   4  1   
  4   3   5  1   
  5   3   6  1   
  6   4   7  1   
  7   4   8  1   
  8   4  24  1   
  9   5   9  1   
 10   5  10  1   
 11   5  25  1   
 12   6  26  1   
 13   6  27  1   
 14   6  28  1   
 15   7  11  1   
 16   7  29  1   
 17   7  30  1   
 18   8  12  1   
 19   8  31  1   
 20   8  32  1   
 21   9  11  1   
 22   9  33  1   
 23   9  34  1   
 24  10  12  1   
 25  10  35  1   
 26  10  36  1   
 27  12  13  1   
 28  12  37  1   
 29  13  14  1   
 30  13  38  1   
 31  13  39  1   
 32  14  15  ar  
 33  14  16  ar  
 34  15  17  ar  
 35  15  40  1   
 36  16  18  ar  
 37  16  41  1   
 38  17  19  ar  
 39  17  42  1   
 40  18  19  ar  
 41  18  43  1   
 42  19  20  1   
 43  20  21  3   
 44  21  22  1   
 45  22  23  1   
 46  22  44  1   
 47  22  45  1   
 48  23  46  1   
@<TRIPOS>SUBSTRUCTURE
  1 ****   8 GROUP 4 **** **** 0

# MOE 2024.06 (io_trps.svl 2023.06)
