@<TRIPOS>MOLECULE
Untitled Document
40 42 1 0 0 
SMALL
USER_CHARGES


@<TRIPOS>ATOM
  1 O       -0.4050     1.3510     0.6610 O.2   1 <1>  -0.5700 
  2 C       -0.1130     2.4110     0.1430 C.2   1 <1>   0.6160 
  3 N        1.1840     2.6200    -0.2710 N.am  1 <1>  -0.6600 
  4 C       -1.1380     3.4200    -0.0160 C.2   1 <1>  -0.1360 
  5 C        1.8070     3.9750    -0.3110 C.3   1 <1>   0.2200 
  6 C        2.1550     1.4730    -0.3270 C.3   1 <1>   0.1400 
  7 C       -2.3670     3.4330     0.5300 C.2   1 <1>  -0.3000 
  8 C        3.1900     3.9870     0.3750 C.3   1 <1>  -0.1600 
  9 C        1.9030     4.4410    -1.7630 C.3   1 <1>  -0.2400 
 10 C        3.1620     1.5030     0.8450 C.3   1 <1>   0.2890 
 11 C        3.2970     2.9050     1.4630 C.3   1 <1>  -0.1600 
 12 N        4.5000     1.0980     0.3520 N.pl3 1 <1>  -0.8690 
 13 C        4.9170    -0.2000     0.2030 C.ar  1 <1>   0.4100 
 14 N        4.0320    -1.1590     0.3300 N.ar  1 <1>  -0.6200 
 15 C        6.2570    -0.4890    -0.0850 C.ar  1 <1>   0.0000 
 16 C        4.4870    -2.4100     0.1730 C.ar  1 <1>   0.4700 
 17 C        6.5890    -1.8190    -0.2200 C.ar  1 <1>   0.1050 
 18 C        7.4530     0.2390    -0.2910 C.2   1 <1>  -0.1500 
 19 N        5.7060    -2.8130    -0.0930 N.ar  1 <1>  -0.5670 
 20 N        7.9180    -1.9240    -0.4940 N.pl3 1 <1>   0.0330 
 21 C        8.4410    -0.6580    -0.5360 C.2   1 <1>  -0.3020 
 22 H       -0.8510     4.2280    -0.6570 H     1 <1>   0.1500 
 23 H        1.1750     4.6570     0.2340 H     1 <1>   0.0800 
 24 H        1.6350     0.5310    -0.3160 H     1 <1>   0.0800 
 25 H        2.6910     1.5330    -1.2560 H     1 <1>   0.0800 
 26 H       -3.0940     4.2090     0.3730 H     1 <1>   0.1500 
 27 H       -2.7310     2.6520     1.1780 H     1 <1>   0.1500 
 28 H        3.9630     3.8260    -0.3560 H     1 <1>   0.0800 
 29 H        3.3580     4.9580     0.8050 H     1 <1>   0.0800 
 30 H        2.5370     3.7820    -2.3290 H     1 <1>   0.0800 
 31 H        2.3170     5.4320    -1.8040 H     1 <1>   0.0800 
 32 H        0.9300     4.4610    -2.2170 H     1 <1>   0.0800 
 33 H        2.8410     0.8090     1.6040 H     1 <1>   0.0800 
 34 H        2.4920     3.0430     2.1650 H     1 <1>   0.0800 
 35 H        4.2190     2.9870     2.0100 H     1 <1>   0.0800 
 36 H        5.1990     1.8390     0.3210 H     1 <1>   0.4000 
 37 H        3.7430    -3.1800     0.2830 H     1 <1>   0.1500 
 38 H        7.5240     1.3110    -0.2520 H     1 <1>   0.1500 
 39 H        8.4040    -2.8130    -0.6380 H     1 <1>   0.2700 
 40 H        9.4830    -0.4770    -0.7380 H     1 <1>   0.1500 
@<TRIPOS>BOND
  1   1   2  2   
  2   2   3  am  
  3   2   4  1   
  4   3   5  1   
  5   3   6  1   
  6   4   7  2   
  7   4  22  1   
  8   5   8  1   
  9   5   9  1   
 10   5  23  1   
 11   6  10  1   
 12   6  24  1   
 13   6  25  1   
 14   7  26  1   
 15   7  27  1   
 16   8  11  1   
 17   8  28  1   
 18   8  29  1   
 19   9  30  1   
 20   9  31  1   
 21   9  32  1   
 22  10  11  1   
 23  10  12  1   
 24  10  33  1   
 25  11  34  1   
 26  11  35  1   
 27  12  13  1   
 28  12  36  1   
 29  13  14  ar  
 30  13  15  ar  
 31  14  16  ar  
 32  15  17  ar  
 33  15  18  1   
 34  16  19  ar  
 35  16  37  1   
 36  17  19  ar  
 37  17  20  1   
 38  18  21  2   
 39  18  38  1   
 40  20  21  1   
 41  20  39  1   
 42  21  40  1   
@<TRIPOS>SUBSTRUCTURE
  1 ****  10 GROUP 4 **** **** 0

# MOE 2024.06 (io_trps.svl 2023.06)
