@<TRIPOS>MOLECULE
NONAME
59 62 1 0 0 
SMALL
USER_CHARGES


@<TRIPOS>ATOM
  1 O       -0.0140     0.0780    -0.9600 O.2   1 <1>  -0.5700 
  2 C       -1.0240     0.7300    -1.0680 C.2   1 <1>   0.5690 
  3 N       -2.2640     0.1440    -1.0800 N.am  1 <1>  -0.6600 
  4 C       -0.8520     2.2350    -1.1650 C.3   1 <1>  -0.0990 
  5 C       -3.5810     0.8540    -1.0870 C.3   1 <1>   0.1400 
  6 C       -2.4230    -1.3450    -1.0310 C.3   1 <1>   0.1400 
  7 C       -0.8620     2.8770     0.2290 C.3   1 <1>  -0.0220 
  8 C       -4.4920     0.3240     0.0350 C.3   1 <1>   0.2950 
  9 C       -3.4230    -1.7690     0.0680 C.3   1 <1>   0.2000 
 10 C       -0.5750     4.3810     0.1500 C.2   1 <1>  -0.1240 
 11 O       -4.6240    -1.0620    -0.0700 O.3   1 <1>  -0.5600 
 12 C       -5.8920     0.9370    -0.0470 C.3   1 <1>  -0.1950 
 13 C       -3.7820    -3.2590     0.0130 C.3   1 <1>  -0.1600 
 14 C       -1.6650     5.3200     0.0850 C.2   1 <1>   0.3750 
 15 C        0.7090     4.8580     0.1410 C.2   1 <1>  -0.1690 
 16 C       -6.1990     2.2570     0.5910 C.3   1 <1>  -0.2000 
 17 C       -6.7860     0.9920     1.1520 C.3   1 <1>  -0.2000 
 18 C       -2.5840    -4.1790     0.3010 C.3   1 <1>  -0.1600 
 19 N       -1.5020     6.5990     0.0300 N.2   1 <1>  -0.5760 
 20 C       -3.1090     4.8480     0.0740 C.3   1 <1>  -0.1790 
 21 N        0.8680     6.2360     0.0900 N.pl3 1 <1>   0.6010 
 22 C        2.0020     4.0370     0.1760 C.3   1 <1>  -0.1020 
 23 C       -3.0150    -5.6500     0.3280 C.3   1 <1>  -0.1600 
 24 C       -0.2140     7.0590     0.0360 C.2   1 <1>   0.3120 
 25 N        1.9700     6.9830     0.0810 N.2   1 <1>  -0.7070 
 26 C       -1.8230    -6.5680     0.6110 C.3   1 <1>  -0.2400 
 27 N        0.1520     8.3010    -0.0070 N.2   1 <1>  -0.5650 
 28 C        1.4780     8.1820     0.0230 C.2   1 <1>   0.3660 
 29 H        0.0960     2.4270    -1.6350 H     1 <1>   0.0800 
 30 H       -1.6050     2.6620    -1.7980 H     1 <1>   0.0800 
 31 H       -3.4560     1.9090    -0.9510 H     1 <1>   0.0800 
 32 H       -4.0620     0.6940    -2.0360 H     1 <1>   0.0800 
 33 H       -2.7780    -1.6910    -1.9860 H     1 <1>   0.0800 
 34 H       -1.4740    -1.8150    -0.8460 H     1 <1>   0.0800 
 35 H       -0.1200     2.3960     0.8410 H     1 <1>   0.0800 
 36 H       -1.7990     2.6800     0.7160 H     1 <1>   0.0800 
 37 H       -4.0580     0.5470     0.9950 H     1 <1>   0.0800 
 38 H       -3.0120    -1.5410     1.0370 H     1 <1>   0.0800 
 39 H       -6.3650     0.7280    -0.9920 H     1 <1>   0.1000 
 40 H       -4.5450    -3.4460     0.7490 H     1 <1>   0.0800 
 41 H       -4.1880    -3.4900    -0.9560 H     1 <1>   0.0800 
 42 H       -5.4520     2.7620     1.1780 H     1 <1>   0.1000 
 43 H       -6.8560     2.9420     0.0830 H     1 <1>   0.1000 
 44 H       -7.8350     0.7940     1.0140 H     1 <1>   0.1000 
 45 H       -6.4160     0.6070     2.0870 H     1 <1>   0.1000 
 46 H       -1.8300    -4.0510    -0.4570 H     1 <1>   0.0800 
 47 H       -2.1510    -3.9180     1.2520 H     1 <1>   0.0800 
 48 H       -3.2800     4.1930    -0.7570 H     1 <1>   0.0800 
 49 H       -3.7730     5.6890    -0.0260 H     1 <1>   0.0800 
 50 H       -3.3440     4.3500     0.9960 H     1 <1>   0.0800 
 51 H        2.6430     4.3350    -0.6350 H     1 <1>   0.0800 
 52 H        1.8380     2.9810     0.0850 H     1 <1>   0.0800 
 53 H        2.5250     4.2220     1.0980 H     1 <1>   0.0800 
 54 H       -3.7620    -5.7950     1.0890 H     1 <1>   0.0800 
 55 H       -3.4500    -5.9170    -0.6210 H     1 <1>   0.0800 
 56 H       -1.3860    -6.3330     1.5660 H     1 <1>   0.0800 
 57 H       -1.0720    -6.4570    -0.1520 H     1 <1>   0.0800 
 58 H       -2.1450    -7.5940     0.6260 H     1 <1>   0.0800 
 59 H        2.1020     9.0610     0.0000 H     1 <1>   0.1500 
@<TRIPOS>BOND
  1   1   2  2   
  2   2   3  am  
  3   2   4  1   
  4   3   5  1   
  5   3   6  1   
  6   4   7  1   
  7   4  29  1   
  8   4  30  1   
  9   5   8  1   
 10   5  31  1   
 11   5  32  1   
 12   6   9  1   
 13   6  33  1   
 14   6  34  1   
 15   7  10  1   
 16   7  35  1   
 17   7  36  1   
 18   8  11  1   
 19   8  12  1   
 20   8  37  1   
 21   9  11  1   
 22   9  13  1   
 23   9  38  1   
 24  10  14  1   
 25  10  15  2   
 26  12  16  1   
 27  12  17  1   
 28  12  39  1   
 29  13  18  1   
 30  13  40  1   
 31  13  41  1   
 32  14  19  2   
 33  14  20  1   
 34  15  21  1   
 35  15  22  1   
 36  16  17  1   
 37  16  42  1   
 38  16  43  1   
 39  17  44  1   
 40  17  45  1   
 41  18  23  1   
 42  18  46  1   
 43  18  47  1   
 44  19  24  1   
 45  20  48  1   
 46  20  49  1   
 47  20  50  1   
 48  21  24  1   
 49  21  25  1   
 50  22  51  1   
 51  22  52  1   
 52  22  53  1   
 53  23  26  1   
 54  23  54  1   
 55  23  55  1   
 56  24  27  2   
 57  25  28  2   
 58  26  56  1   
 59  26  57  1   
 60  26  58  1   
 61  27  28  1   
 62  28  59  1   
@<TRIPOS>SUBSTRUCTURE
  1 ****   7 GROUP 4 **** **** 0

# MOE 2024.06 (io_trps.svl 2023.06)
