@<TRIPOS>MOLECULE
NONAME
55 60 1 0 0 
SMALL
USER_CHARGES


@<TRIPOS>ATOM
  1 O       -0.5480    -1.8260    -2.3780 O.3   1 <1>  -0.0190 
  2 N       -1.5010    -2.6770    -2.1360 N.2   1 <1>  -0.4100 
  3 C       -0.0850    -1.5190    -1.1910 C.2   1 <1>   0.3930 
  4 C       -1.5490    -2.8320    -0.8730 C.2   1 <1>   0.3350 
  5 N       -0.6640    -2.1010    -0.2150 N.2   1 <1>  -0.5650 
  6 C        1.0630    -0.5260    -1.0930 C.3   1 <1>  -0.0150 
  7 C       -2.5370    -3.7430    -0.1430 C.3   1 <1>   0.5240 
  8 C        1.2310     0.3640     0.1020 C.3   1 <1>  -0.2000 
  9 C        0.8090     0.9470    -1.2130 C.3   1 <1>  -0.2000 
 10 N       -3.8700    -3.8160    -0.8450 N.4   1 <1>  -0.9590 
 11 C       -4.5530    -2.4720    -0.9320 C.3   1 <1>   0.3430 
 12 C       -4.7530    -4.8830    -0.2700 C.3   1 <1>   0.3430 
 13 C       -5.0410    -1.9180     0.4280 C.3   1 <1>   0.1430 
 14 C       -5.7840    -4.3420     0.7330 C.3   1 <1>  -0.1600 
 15 C       -6.2730    -1.0970     0.1040 C.ar  1 <1>   0.1670 
 16 C       -5.3470    -3.0490     1.4420 C.3   1 <1>  -0.1600 
 17 C       -4.0840    -0.8550     1.0370 C.3   1 <1>  -0.1600 
 18 N       -7.4150    -1.5960    -0.2960 N.ar  1 <1>  -0.6200 
 19 C       -6.0510     0.2370     0.2400 C.ar  1 <1>  -0.1440 
 20 C       -4.6410     0.5360     0.6770 C.3   1 <1>  -0.0170 
 21 C       -8.3860    -0.7040    -0.5460 C.ar  1 <1>   0.6200 
 22 C       -7.0900     1.0870    -0.0410 C.ar  1 <1>   0.1600 
 23 N       -8.2540     0.6240    -0.4350 N.ar  1 <1>  -0.6200 
 24 C       -9.6740    -1.2220    -0.9800 C.ar  1 <1>   0.0000 
 25 C      -10.4740    -0.5240    -1.8870 C.ar  1 <1>  -0.1500 
 26 C      -10.1680    -2.4420    -0.5090 C.ar  1 <1>  -0.1500 
 27 C      -11.6970    -1.0160    -2.3070 C.ar  1 <1>  -0.1500 
 28 C      -11.3890    -2.9410    -0.9250 C.ar  1 <1>  -0.1500 
 29 C      -12.1570    -2.2280    -1.8270 C.ar  1 <1>  -0.1500 
 30 H        1.9590    -0.9090    -1.5480 H     1 <1>   0.1000 
 31 H       -2.6690    -3.3720     0.8580 H     1 <1>   0.0800 
 32 H       -2.1020    -4.7250    -0.0800 H     1 <1>   0.0800 
 33 H        2.2270     0.5590     0.4620 H     1 <1>   0.1000 
 34 H        0.5110     0.3060     0.8990 H     1 <1>   0.1000 
 35 H       -0.2020     1.2980    -1.3190 H     1 <1>   0.1000 
 36 H        1.5130     1.5480    -1.7630 H     1 <1>   0.1000 
 37 H       -3.6380    -4.0780    -1.8160 H     1 <1>   0.4500 
 38 H       -5.4190    -2.5800    -1.5650 H     1 <1>   0.0800 
 39 H       -3.9070    -1.7480    -1.4020 H     1 <1>   0.0800 
 40 H       -4.1440    -5.6280     0.2160 H     1 <1>   0.0800 
 41 H       -5.2870    -5.3760    -1.0670 H     1 <1>   0.0800 
 42 H       -5.9940    -5.1040     1.4640 H     1 <1>   0.0800 
 43 H       -6.7080    -4.1630     0.2090 H     1 <1>   0.0800 
 44 H       -6.1210    -2.7260     2.1190 H     1 <1>   0.0800 
 45 H       -4.4760    -3.2620     2.0360 H     1 <1>   0.0800 
 46 H       -3.0690    -0.9570     0.7000 H     1 <1>   0.0800 
 47 H       -4.0890    -0.9350     2.1110 H     1 <1>   0.0800 
 48 H       -4.0910     0.9750    -0.1380 H     1 <1>   0.0800 
 49 H       -4.6250     1.2000     1.5250 H     1 <1>   0.0800 
 50 H       -6.9690     2.1540     0.0530 H     1 <1>   0.1500 
 51 H      -10.1320     0.4220    -2.2700 H     1 <1>   0.1500 
 52 H       -9.5860    -3.0070     0.1970 H     1 <1>   0.1500 
 53 H      -12.2910    -0.4550    -3.0080 H     1 <1>   0.1500 
 54 H      -11.7450    -3.8830    -0.5450 H     1 <1>   0.1500 
 55 H      -13.1080    -2.6130    -2.1520 H     1 <1>   0.1500 
@<TRIPOS>BOND
  1   1   2  1   
  2   1   3  1   
  3   2   4  2   
  4   3   5  2   
  5   3   6  1   
  6   4   5  1   
  7   4   7  1   
  8   6   8  1   
  9   6   9  1   
 10   6  30  1   
 11   7  10  1   
 12   7  31  1   
 13   7  32  1   
 14   8   9  1   
 15   8  33  1   
 16   8  34  1   
 17   9  35  1   
 18   9  36  1   
 19  10  11  1   
 20  10  12  1   
 21  10  37  1   
 22  11  13  1   
 23  11  38  1   
 24  11  39  1   
 25  12  14  1   
 26  12  40  1   
 27  12  41  1   
 28  13  15  1   
 29  13  16  1   
 30  13  17  1   
 31  14  16  1   
 32  14  42  1   
 33  14  43  1   
 34  15  18  ar  
 35  15  19  ar  
 36  16  44  1   
 37  16  45  1   
 38  17  20  1   
 39  17  46  1   
 40  17  47  1   
 41  18  21  ar  
 42  19  20  1   
 43  19  22  ar  
 44  20  48  1   
 45  20  49  1   
 46  21  23  ar  
 47  21  24  1   
 48  22  23  ar  
 49  22  50  1   
 50  24  25  ar  
 51  24  26  ar  
 52  25  27  ar  
 53  25  51  1   
 54  26  28  ar  
 55  26  52  1   
 56  27  29  ar  
 57  27  53  1   
 58  28  29  ar  
 59  28  54  1   
 60  29  55  1   
@<TRIPOS>SUBSTRUCTURE
  1 ****  13 GROUP 4 **** **** 0

# MOE 2024.06 (io_trps.svl 2023.06)
