@<TRIPOS>MOLECULE
NONAME
48 50 1 0 0 
SMALL
USER_CHARGES


@<TRIPOS>ATOM
  1 O       -0.4050     0.1230     0.6650 O.2   1 <1>  -0.5700 
  2 C       -1.4360     0.7580     0.5600 C.2   1 <1>   0.5440 
  3 N       -2.6220     0.0710     0.4410 N.am  1 <1>  -0.6600 
  4 C       -1.4070     2.1970     0.5590 C.ar  1 <1>   0.0860 
  5 C       -3.8860     0.6420    -0.0920 C.3   1 <1>   0.1400 
  6 C       -2.6770    -1.4110     0.4430 C.3   1 <1>   0.1400 
  7 C       -0.6900     2.9630    -0.3490 C.ar  1 <1>   0.1660 
  8 C       -2.1270     2.9140     1.4950 C.ar  1 <1>   0.1600 
  9 C       -4.6640    -0.5620    -0.6250 C.3   1 <1>   0.2000 
 10 C       -4.1360    -1.7660     0.1530 C.3   1 <1>  -0.0800 
 11 N       -0.7120     4.2730    -0.3310 N.ar  1 <1>  -0.6200 
 12 C        0.1660     2.3240    -1.4280 C.3   1 <1>  -0.0960 
 13 N       -2.1710     4.2210     1.5310 N.ar  1 <1>  -0.6200 
 14 O       -6.0270    -0.4210    -0.4220 O.3   1 <1>  -0.6800 
 15 C       -4.3110    -3.0910    -0.6040 C.3   1 <1>  -0.0160 
 16 C       -1.4530     4.8610     0.6090 C.ar  1 <1>   0.7200 
 17 C       -3.7740    -4.2600     0.2080 C.ar  1 <1>  -0.1440 
 18 N       -1.4790     6.2360     0.6270 N.pl3 1 <1>  -0.8380 
 19 C       -2.5010    -4.7610     0.0220 C.ar  1 <1>  -0.1500 
 20 C       -4.5370    -4.8780     1.1770 C.ar  1 <1>  -0.1500 
 21 C       -2.4410     7.0080     1.4630 C.3   1 <1>   0.1290 
 22 C       -0.5200     7.0600    -0.1630 C.3   1 <1>   0.1290 
 23 C       -2.0640    -5.8230     0.7970 C.ar  1 <1>   0.1600 
 24 C       -4.0050    -5.9360     1.8960 C.ar  1 <1>   0.1600 
 25 N       -2.7860    -6.4220     1.7300 N.ar  1 <1>  -0.6200 
 26 H       -4.4240     1.1200     0.7080 H     1 <1>   0.0800 
 27 H       -3.6870     1.3470    -0.8810 H     1 <1>   0.0800 
 28 H       -2.0270    -1.7840    -0.3310 H     1 <1>   0.0800 
 29 H       -2.3550    -1.8030     1.3940 H     1 <1>   0.0800 
 30 H       -2.6870     2.3740     2.2380 H     1 <1>   0.1500 
 31 H       -4.4870    -0.6690    -1.6820 H     1 <1>   0.0800 
 32 H       -4.6410    -1.8280     1.1010 H     1 <1>   0.0800 
 33 H       -0.3280     1.4710    -1.8540 H     1 <1>   0.0800 
 34 H        1.1020     2.0100    -1.0030 H     1 <1>   0.0800 
 35 H        0.3640     3.0300    -2.2150 H     1 <1>   0.0800 
 36 H       -6.2280    -0.3520     0.5320 H     1 <1>   0.4000 
 37 H       -3.8040    -3.0450    -1.5520 H     1 <1>   0.0800 
 38 H       -5.3570    -3.2500    -0.8060 H     1 <1>   0.0800 
 39 H       -1.8430    -4.3380    -0.7140 H     1 <1>   0.1500 
 40 H       -5.5400    -4.5500     1.3800 H     1 <1>   0.1500 
 41 H       -2.7090     7.9240     0.9670 H     1 <1>   0.0800 
 42 H       -1.9890     7.2360     2.4120 H     1 <1>   0.0800 
 43 H       -3.3400     6.4410     1.6310 H     1 <1>   0.0800 
 44 H       -0.2910     7.9690     0.3650 H     1 <1>   0.0800 
 45 H       -0.9550     7.3010    -1.1170 H     1 <1>   0.0800 
 46 H        0.3990     6.5240    -0.3230 H     1 <1>   0.0800 
 47 H       -1.0680    -6.2000     0.6390 H     1 <1>   0.1500 
 48 H       -4.6150    -6.4060     2.6480 H     1 <1>   0.1500 
@<TRIPOS>BOND
  1   1   2  2   
  2   2   3  am  
  3   2   4  1   
  4   3   5  1   
  5   3   6  1   
  6   4   7  ar  
  7   4   8  ar  
  8   5   9  1   
  9   5  26  1   
 10   5  27  1   
 11   6  10  1   
 12   6  28  1   
 13   6  29  1   
 14   7  11  ar  
 15   7  12  1   
 16   8  13  ar  
 17   8  30  1   
 18   9  10  1   
 19   9  14  1   
 20   9  31  1   
 21  10  15  1   
 22  10  32  1   
 23  11  16  ar  
 24  12  33  1   
 25  12  34  1   
 26  12  35  1   
 27  13  16  ar  
 28  14  36  1   
 29  15  17  1   
 30  15  37  1   
 31  15  38  1   
 32  16  18  1   
 33  17  19  ar  
 34  17  20  ar  
 35  18  21  1   
 36  18  22  1   
 37  19  23  ar  
 38  19  39  1   
 39  20  24  ar  
 40  20  40  1   
 41  21  41  1   
 42  21  42  1   
 43  21  43  1   
 44  22  44  1   
 45  22  45  1   
 46  22  46  1   
 47  23  25  ar  
 48  23  47  1   
 49  24  25  ar  
 50  24  48  1   
@<TRIPOS>SUBSTRUCTURE
  1 ****   3 GROUP 4 **** **** 0

# MOE 2024.06 (io_trps.svl 2023.06)
