@<TRIPOS>MOLECULE
NONAME
59 63 1 0 0 
SMALL
USER_CHARGES


@<TRIPOS>ATOM
  1 O        2.3990     3.1170    -1.1250 O.3   1 <1>  -0.6800 
  2 C        2.2260     2.5480     0.1240 C.3   1 <1>   0.2800 
  3 C        3.5400     1.8530     0.5970 C.3   1 <1>  -0.0800 
  4 C        1.1060     1.5020    -0.0280 C.3   1 <1>  -0.1600 
  5 C        1.7720     3.6790     1.0720 C.3   1 <1>  -0.1600 
  6 C        3.6380     0.3530     0.2840 C.3   1 <1>  -0.0800 
  7 C        4.8400     2.4360     0.0400 C.3   1 <1>   0.2090 
  8 C        1.4530     0.3670    -1.0170 C.3   1 <1>  -0.1600 
  9 C        2.7560     4.8520     1.2340 C.3   1 <1>  -0.2400 
 10 C        2.9530     0.0200    -1.0510 C.3   1 <1>  -0.1600 
 11 C        5.1390     0.0470     0.2780 C.3   1 <1>   0.2090 
 12 N        5.8480     1.3440     0.0870 N.pl3 1 <1>  -0.8220 
 13 C        7.0040     1.5960     0.8420 C.2   1 <1>   0.2710 
 14 N        7.3290     1.0120     1.9420 N.2   1 <1>  -0.3380 
 15 N        7.9510     2.4810     0.5320 N.pl3 1 <1>   0.3140 
 16 N        8.4910     1.5470     2.3130 N.2   1 <1>   0.0000 
 17 N        8.8830     2.4310     1.4730 N.2   1 <1>  -0.4180 
 18 C        8.0480     3.3400    -0.6620 C.3   1 <1>   0.2390 
 19 C        7.2310     4.6190    -0.5000 C.ar  1 <1>  -0.1440 
 20 C        7.3980     5.4320     0.6110 C.ar  1 <1>  -0.1500 
 21 C        6.2960     4.9760    -1.4590 C.ar  1 <1>  -0.1500 
 22 C        6.6300     6.5710     0.7640 C.ar  1 <1>  -0.1500 
 23 C        5.5280     6.1140    -1.2980 C.ar  1 <1>  -0.1500 
 24 C        5.6770     6.9310    -0.1820 C.ar  1 <1>   0.0000 
 25 C        4.8620     8.1140    -0.0090 C.ar  1 <1>   0.0000 
 26 C        4.7980     9.0930    -0.9970 C.ar  1 <1>  -0.1500 
 27 C        4.1160     8.3060     1.1500 C.ar  1 <1>  -0.1500 
 28 C        4.0150    10.2220    -0.8350 C.ar  1 <1>  -0.1500 
 29 C        3.3310     9.4330     1.3180 C.ar  1 <1>  -0.1500 
 30 C        3.2790    10.3930     0.3240 C.ar  1 <1>  -0.1500 
 31 H        1.5620     3.5250    -1.4090 H     1 <1>   0.4000 
 32 H        3.5960     1.9380     1.6670 H     1 <1>   0.0800 
 33 H        0.9310     1.0640     0.9390 H     1 <1>   0.0800 
 34 H        0.1860     1.9730    -0.3260 H     1 <1>   0.0800 
 35 H        0.8330     4.0700     0.7230 H     1 <1>   0.0800 
 36 H        1.5880     3.2590     2.0460 H     1 <1>   0.0800 
 37 H        3.1670    -0.2250     1.0600 H     1 <1>   0.0800 
 38 H        5.1530     3.2870     0.6190 H     1 <1>   0.0800 
 39 H        4.7290     2.7310    -0.9880 H     1 <1>   0.0800 
 40 H        0.8870    -0.5080    -0.7470 H     1 <1>   0.0800 
 41 H        1.1500     0.6520    -2.0100 H     1 <1>   0.0800 
 42 H        3.0170     5.2710     0.2780 H     1 <1>   0.0800 
 43 H        3.6550     4.5360     1.7310 H     1 <1>   0.0800 
 44 H        2.3040     5.6270     1.8270 H     1 <1>   0.0800 
 45 H        3.4260     0.5920    -1.8320 H     1 <1>   0.0800 
 46 H        3.0780    -1.0220    -1.2890 H     1 <1>   0.0800 
 47 H        5.3980    -0.6330    -0.5150 H     1 <1>   0.0800 
 48 H        5.4150    -0.4010     1.2170 H     1 <1>   0.0800 
 49 H        9.0810     3.5880    -0.8200 H     1 <1>   0.0800 
 50 H        7.6980     2.7750    -1.5060 H     1 <1>   0.0800 
 51 H        8.1220     5.1810     1.3680 H     1 <1>   0.1500 
 52 H        6.1480     4.3650    -2.3340 H     1 <1>   0.1500 
 53 H        6.7700     7.1930     1.6310 H     1 <1>   0.1500 
 54 H        4.7950     6.3710    -2.0420 H     1 <1>   0.1500 
 55 H        5.3710     8.9680    -1.8980 H     1 <1>   0.1500 
 56 H        4.1500     7.5610     1.9250 H     1 <1>   0.1500 
 57 H        3.9790    10.9680    -1.6100 H     1 <1>   0.1500 
 58 H        2.7610     9.5640     2.2210 H     1 <1>   0.1500 
 59 H        2.6700    11.2710     0.4520 H     1 <1>   0.1500 
@<TRIPOS>BOND
  1   1   2  1   
  2   1  31  1   
  3   2   3  1   
  4   2   4  1   
  5   2   5  1   
  6   3   6  1   
  7   3   7  1   
  8   3  32  1   
  9   4   8  1   
 10   4  33  1   
 11   4  34  1   
 12   5   9  1   
 13   5  35  1   
 14   5  36  1   
 15   6  10  1   
 16   6  11  1   
 17   6  37  1   
 18   7  12  1   
 19   7  38  1   
 20   7  39  1   
 21   8  10  1   
 22   8  40  1   
 23   8  41  1   
 24   9  42  1   
 25   9  43  1   
 26   9  44  1   
 27  10  45  1   
 28  10  46  1   
 29  11  12  1   
 30  11  47  1   
 31  11  48  1   
 32  12  13  1   
 33  13  14  2   
 34  13  15  1   
 35  14  16  1   
 36  15  17  1   
 37  15  18  1   
 38  16  17  2   
 39  18  19  1   
 40  18  49  1   
 41  18  50  1   
 42  19  20  ar  
 43  19  21  ar  
 44  20  22  ar  
 45  20  51  1   
 46  21  23  ar  
 47  21  52  1   
 48  22  24  ar  
 49  22  53  1   
 50  23  24  ar  
 51  23  54  1   
 52  24  25  1   
 53  25  26  ar  
 54  25  27  ar  
 55  26  28  ar  
 56  26  55  1   
 57  27  29  ar  
 58  27  56  1   
 59  28  30  ar  
 60  28  57  1   
 61  29  30  ar  
 62  29  58  1   
 63  30  59  1   
@<TRIPOS>SUBSTRUCTURE
  1 ****   7 GROUP 4 **** **** 0

# MOE 2024.06 (io_trps.svl 2023.06)
