@<TRIPOS>MOLECULE
NONAME
51 54 1 0 0 
SMALL
USER_CHARGES


@<TRIPOS>ATOM
  1 O        1.5660     0.0550     1.5830 O.2   1 <1>  -0.5700 
  2 C        1.6500    -1.1290     1.3150 C.2   1 <1>   0.5440 
  3 N        2.7440    -1.5750     0.6050 N.am  1 <1>  -0.6600 
  4 C        0.6020    -2.0270     1.7560 C.ar  1 <1>   0.0860 
  5 C        3.6440    -0.6400    -0.1310 C.3   1 <1>   0.1400 
  6 C        3.1970    -2.9960     0.5200 C.3   1 <1>   0.1400 
  7 C       -0.0060    -2.9390     0.9150 C.ar  1 <1>  -0.1500 
  8 C        0.1280    -2.0290     3.0610 C.ar  1 <1>  -0.1500 
  9 C        3.8970    -1.1560    -1.5580 C.3   1 <1>   0.1200 
 10 C        3.4540    -3.3840    -0.9450 C.3   1 <1>   0.1200 
 11 C       -0.9770    -3.8040     1.3870 C.ar  1 <1>   0.4100 
 12 C       -0.8540    -2.9220     3.4410 C.ar  1 <1>   0.1600 
 13 O        4.3460    -2.4840    -1.5400 O.3   1 <1>  -0.5600 
 14 N       -1.4100    -3.8160     2.6410 N.ar  1 <1>  -0.6200 
 15 N       -1.5170    -4.7320     0.5270 N.pl3 1 <1>  -0.8380 
 16 C       -3.0000    -4.7440     0.3930 C.3   1 <1>   0.2090 
 17 C       -1.0590    -6.1390     0.7310 C.3   1 <1>   0.2090 
 18 C       -3.4460    -6.0440     1.0590 C.3   1 <1>   0.2000 
 19 C       -2.3160    -7.0220     0.7470 C.3   1 <1>  -0.0800 
 20 O       -3.4660    -5.8380     2.4280 O.3   1 <1>  -0.6800 
 21 C       -2.5420    -7.7300    -0.6030 C.3   1 <1>  -0.0160 
 22 C       -1.4980    -8.8060    -0.8590 C.ar  1 <1>   0.1670 
 23 N       -0.4500    -8.4570    -1.5910 N.ar  1 <1>  -0.6200 
 24 C       -1.6850   -10.0740    -0.3300 C.ar  1 <1>  -0.1500 
 25 C        0.4430    -9.4100    -1.8070 C.ar  1 <1>   0.1600 
 26 C       -0.7450   -11.0560    -0.5610 C.ar  1 <1>  -0.1500 
 27 C        0.3460   -10.7030    -1.3230 C.ar  1 <1>  -0.1500 
 28 H        3.2070     0.3430    -0.1820 H     1 <1>   0.0800 
 29 H        4.5800    -0.5600     0.3940 H     1 <1>   0.0800 
 30 H        4.1150    -3.1020     1.0720 H     1 <1>   0.0800 
 31 H        2.4790    -3.6650     0.9540 H     1 <1>   0.0800 
 32 H        0.2690    -2.9940    -0.1200 H     1 <1>   0.1500 
 33 H        0.5330    -1.3290     3.7690 H     1 <1>   0.1500 
 34 H        4.6520    -0.5600    -2.0380 H     1 <1>   0.0800 
 35 H        2.9950    -1.1060    -2.1410 H     1 <1>   0.0800 
 36 H        2.5350    -3.3830    -1.5060 H     1 <1>   0.0800 
 37 H        3.8920    -4.3640    -0.9990 H     1 <1>   0.0800 
 38 H       -1.2020    -2.9020     4.4610 H     1 <1>   0.1500 
 39 H       -3.4590    -3.8860     0.8550 H     1 <1>   0.0800 
 40 H       -3.2540    -4.7580    -0.6520 H     1 <1>   0.0800 
 41 H       -0.3740    -6.4170    -0.0500 H     1 <1>   0.0800 
 42 H       -0.5490    -6.2240     1.6770 H     1 <1>   0.0800 
 43 H       -4.4200    -6.3790     0.7490 H     1 <1>   0.0800 
 44 H       -2.2410    -7.7710     1.5170 H     1 <1>   0.0800 
 45 H       -2.7200    -5.2160     2.6400 H     1 <1>   0.4000 
 46 H       -2.5190    -7.0160    -1.4080 H     1 <1>   0.0800 
 47 H       -3.5130    -8.1910    -0.6060 H     1 <1>   0.0800 
 48 H       -2.5570   -10.2950     0.2580 H     1 <1>   0.1500 
 49 H        1.2990    -9.1450    -2.4030 H     1 <1>   0.1500 
 50 H       -0.8590   -12.0510    -0.1640 H     1 <1>   0.1500 
 51 H        1.1150   -11.4210    -1.5430 H     1 <1>   0.1500 
@<TRIPOS>BOND
  1   1   2  2   
  2   2   3  am  
  3   2   4  1   
  4   3   5  1   
  5   3   6  1   
  6   4   7  ar  
  7   4   8  ar  
  8   5   9  1   
  9   5  28  1   
 10   5  29  1   
 11   6  10  1   
 12   6  30  1   
 13   6  31  1   
 14   7  11  ar  
 15   7  32  1   
 16   8  12  ar  
 17   8  33  1   
 18   9  13  1   
 19   9  34  1   
 20   9  35  1   
 21  10  13  1   
 22  10  36  1   
 23  10  37  1   
 24  11  14  ar  
 25  11  15  1   
 26  12  14  ar  
 27  12  38  1   
 28  15  16  1   
 29  15  17  1   
 30  16  18  1   
 31  16  39  1   
 32  16  40  1   
 33  17  19  1   
 34  17  41  1   
 35  17  42  1   
 36  18  19  1   
 37  18  20  1   
 38  18  43  1   
 39  19  21  1   
 40  19  44  1   
 41  20  45  1   
 42  21  22  1   
 43  21  46  1   
 44  21  47  1   
 45  22  23  ar  
 46  22  24  ar  
 47  23  25  ar  
 48  24  26  ar  
 49  24  48  1   
 50  25  27  ar  
 51  25  49  1   
 52  26  27  ar  
 53  26  50  1   
 54  27  51  1   
@<TRIPOS>SUBSTRUCTURE
  1 ****  15 GROUP 4 **** **** 0

# MOE 2024.06 (io_trps.svl 2023.06)
