@<TRIPOS>MOLECULE
NONAME
50 53 1 0 0 
SMALL
USER_CHARGES


@<TRIPOS>ATOM
  1 O       -1.6490    -1.4610    -0.0100 O.co2 1 <1>  -0.9000 
  2 C       -2.8780    -1.5010     0.0960 C.2   1 <1>   0.9790 
  3 O       -3.4680    -2.6020     0.0690 O.co2 1 <1>  -0.9000 
  4 C       -3.6850    -0.3130     0.2910 C.ar  1 <1>  -0.1790 
  5 C       -3.4280     0.9920    -0.2530 C.ar  1 <1>   0.0000 
  6 C       -4.8320    -0.4750     1.0100 C.ar  1 <1>  -0.1500 
  7 C       -4.4030     1.9950    -0.0650 C.ar  1 <1>   0.3610 
  8 C       -2.2640     1.3470    -0.9550 C.ar  1 <1>  -0.1500 
  9 C       -5.8800     0.4610     1.0340 C.ar  1 <1>   0.4610 
 10 N       -5.5950     1.6750     0.5660 N.ar  1 <1>  -0.1790 
 11 C       -4.1830     3.2920    -0.5420 C.ar  1 <1>  -0.1500 
 12 C       -2.0660     2.6230    -1.4240 C.ar  1 <1>  -0.1500 
 13 N       -7.1410     0.1010     1.3690 N.pl3 1 <1>  -0.8380 
 14 C       -3.0270     3.6060    -1.2150 C.ar  1 <1>  -0.1500 
 15 C       -7.4590    -1.3210     1.7450 C.3   1 <1>   0.2090 
 16 C       -8.3860     0.7230     0.8100 C.3   1 <1>   0.2090 
 17 C       -7.5980    -2.0850     0.3980 C.3   1 <1>   0.4230 
 18 C       -8.7470    -0.0310    -0.4910 C.3   1 <1>  -0.1600 
 19 N       -7.5310    -3.5800     0.4770 N.4   1 <1>  -0.9590 
 20 C       -8.8730    -1.5830    -0.3140 C.3   1 <1>  -0.1060 
 21 C       -7.7760    -4.2700    -0.8270 C.3   1 <1>   0.3430 
 22 C       -6.2690    -4.0830     1.1040 C.3   1 <1>   0.2630 
 23 C      -10.0410    -1.9530     0.6130 C.2   1 <1>   0.9060 
 24 C       -9.0490    -2.2570    -1.7050 C.3   1 <1>  -0.1600 
 25 C       -7.9560    -3.2970    -1.9980 C.3   1 <1>  -0.1600 
 26 O      -10.0570    -3.0880     1.1130 O.co2 1 <1>  -0.9000 
 27 O      -10.8610    -1.0920     0.9220 O.co2 1 <1>  -0.9000 
 28 H       -4.9380    -1.4030     1.5320 H     1 <1>   0.1500 
 29 H       -1.4990     0.6080    -1.1280 H     1 <1>   0.1500 
 30 H       -6.3210     2.3770     0.6400 H     1 <1>   0.4570 
 31 H       -4.9210     4.0580    -0.3880 H     1 <1>   0.1500 
 32 H       -1.1600     2.8660    -1.9550 H     1 <1>   0.1500 
 33 H       -2.8500     4.6030    -1.5860 H     1 <1>   0.1500 
 34 H       -6.6990    -1.7380     2.3750 H     1 <1>   0.0800 
 35 H       -8.3690    -1.3530     2.3200 H     1 <1>   0.0800 
 36 H       -9.1900     0.6390     1.5250 H     1 <1>   0.0800 
 37 H       -8.2500     1.7690     0.6030 H     1 <1>   0.0800 
 38 H       -6.7600    -1.7820    -0.2050 H     1 <1>   0.0800 
 39 H       -9.6830     0.3570    -0.8590 H     1 <1>   0.0800 
 40 H       -7.9990     0.1900    -1.2310 H     1 <1>   0.0800 
 41 H       -8.3940    -3.7960     1.0430 H     1 <1>   0.4500 
 42 H       -6.9600    -4.9380    -1.0480 H     1 <1>   0.0800 
 43 H       -8.6730    -4.8610    -0.7340 H     1 <1>   0.0800 
 44 H       -5.4130    -3.7760     0.5210 H     1 <1>   0.0800 
 45 H       -6.2810    -5.1590     1.1520 H     1 <1>   0.0800 
 46 H       -6.1600    -3.7000     2.1030 H     1 <1>   0.0800 
 47 H      -10.0090    -2.7490    -1.7360 H     1 <1>   0.0800 
 48 H       -9.0570    -1.5240    -2.4930 H     1 <1>   0.0800 
 49 H       -7.0180    -2.8100    -2.2030 H     1 <1>   0.0800 
 50 H       -8.2240    -3.8550    -2.8770 H     1 <1>   0.0800 
@<TRIPOS>BOND
  1   1   2  ar  
  2   2   3  ar  
  3   2   4  1   
  4   4   5  ar  
  5   4   6  ar  
  6   5   7  ar  
  7   5   8  ar  
  8   6   9  ar  
  9   6  28  1   
 10   7  10  ar  
 11   7  11  ar  
 12   8  12  ar  
 13   8  29  1   
 14   9  10  ar  
 15   9  13  1   
 16  10  30  1   
 17  11  14  ar  
 18  11  31  1   
 19  12  14  ar  
 20  12  32  1   
 21  13  15  1   
 22  13  16  1   
 23  14  33  1   
 24  15  17  1   
 25  15  34  1   
 26  15  35  1   
 27  16  18  1   
 28  16  36  1   
 29  16  37  1   
 30  17  19  1   
 31  17  20  1   
 32  17  38  1   
 33  18  20  1   
 34  18  39  1   
 35  18  40  1   
 36  19  21  1   
 37  19  22  1   
 38  19  41  1   
 39  20  23  1   
 40  20  24  1   
 41  21  25  1   
 42  21  42  1   
 43  21  43  1   
 44  22  44  1   
 45  22  45  1   
 46  22  46  1   
 47  23  26  ar  
 48  23  27  ar  
 49  24  25  1   
 50  24  47  1   
 51  24  48  1   
 52  25  49  1   
 53  25  50  1   
@<TRIPOS>SUBSTRUCTURE
  1 ****   9 GROUP 4 **** **** 0

# MOE 2024.06 (io_trps.svl 2023.06)
