@<TRIPOS>MOLECULE
NONAME
43 45 1 0 0 
SMALL
USER_CHARGES


@<TRIPOS>ATOM
  1 O       -1.1310     0.1180     1.7800 O.2   1 <1>  -0.5700 
  2 C       -1.5510     0.5990     0.7540 C.2   1 <1>   0.5690 
  3 N       -2.1810    -0.1520    -0.2000 N.am  1 <1>  -0.6600 
  4 C       -1.3630     2.0910     0.5430 C.3   1 <1>  -0.0990 
  5 C       -2.2650    -1.6450    -0.0140 C.3   1 <1>   0.3640 
  6 C       -2.8930     0.4520    -1.3730 C.3   1 <1>   0.1400 
  7 C       -0.4190     2.7080     1.5850 C.3   1 <1>   0.0960 
  8 C       -0.9800    -2.3110    -0.5180 C.ar  1 <1>  -0.1440 
  9 C       -3.5090    -2.3260    -0.6650 C.3   1 <1>   0.2000 
 10 C       -3.6930    -0.5670    -2.1950 C.3   1 <1>   0.1200 
 11 N       -0.2260     4.1420     1.3090 N.pl3 1 <1>   0.0480 
 12 C       -0.3820    -1.9660    -1.7250 C.ar  1 <1>  -0.1500 
 13 C       -0.3940    -3.3030     0.2560 C.ar  1 <1>  -0.1500 
 14 O       -4.3590    -1.4310    -1.3370 O.3   1 <1>  -0.5600 
 15 C       -4.3700    -3.0660     0.3680 C.3   1 <1>   0.1200 
 16 C       -0.9560     5.1770     1.7260 C.2   1 <1>   0.0360 
 17 C        0.7030     4.7270     0.5520 C.2   1 <1>   0.0360 
 18 C        0.7700    -2.6050    -2.1500 C.ar  1 <1>  -0.1500 
 19 C        0.7590    -3.9420    -0.1660 C.ar  1 <1>  -0.1500 
 20 O       -3.6430    -4.0910     0.9690 O.3   1 <1>  -0.6800 
 21 N       -0.5140     6.2940     1.2610 N.2   1 <1>  -0.3380 
 22 N        0.5500     6.0050     0.5080 N.2   1 <1>  -0.3380 
 23 C        1.3410    -3.5940    -1.3710 C.ar  1 <1>  -0.1500 
 24 H       -0.9520     2.2490    -0.4360 H     1 <1>   0.0800 
 25 H       -2.3240     2.5660     0.6070 H     1 <1>   0.0800 
 26 H       -2.3210    -1.8370     1.0440 H     1 <1>   0.0800 
 27 H       -3.5800     1.1980    -1.0130 H     1 <1>   0.0800 
 28 H       -2.1820     0.9380    -2.0160 H     1 <1>   0.0800 
 29 H        0.5370     2.2140     1.5550 H     1 <1>   0.0800 
 30 H       -0.8280     2.5920     2.5730 H     1 <1>   0.0800 
 31 H       -3.1780    -3.0420    -1.3960 H     1 <1>   0.0800 
 32 H       -3.0560    -1.1390    -2.8470 H     1 <1>   0.0800 
 33 H       -4.4300    -0.0610    -2.7950 H     1 <1>   0.0800 
 34 H       -0.8030    -1.1970    -2.3420 H     1 <1>   0.1500 
 35 H       -0.8340    -3.5840     1.1990 H     1 <1>   0.1500 
 36 H       -5.2340    -3.5010    -0.1030 H     1 <1>   0.0800 
 37 H       -4.6850    -2.3880     1.1420 H     1 <1>   0.0800 
 38 H       -1.8100     5.0780     2.3710 H     1 <1>   0.1500 
 39 H        1.4800     4.1850     0.0440 H     1 <1>   0.1500 
 40 H        1.2250    -2.3310    -3.0860 H     1 <1>   0.1500 
 41 H        1.2020    -4.7080     0.4460 H     1 <1>   0.1500 
 42 H       -3.4640    -4.8120     0.3340 H     1 <1>   0.4000 
 43 H        2.2380    -4.0910    -1.6990 H     1 <1>   0.1500 
@<TRIPOS>BOND
  1   1   2  2   
  2   2   3  am  
  3   2   4  1   
  4   3   5  1   
  5   3   6  1   
  6   4   7  1   
  7   4  24  1   
  8   4  25  1   
  9   5   8  1   
 10   5   9  1   
 11   5  26  1   
 12   6  10  1   
 13   6  27  1   
 14   6  28  1   
 15   7  11  1   
 16   7  29  1   
 17   7  30  1   
 18   8  12  ar  
 19   8  13  ar  
 20   9  14  1   
 21   9  15  1   
 22   9  31  1   
 23  10  14  1   
 24  10  32  1   
 25  10  33  1   
 26  11  16  1   
 27  11  17  1   
 28  12  18  ar  
 29  12  34  1   
 30  13  19  ar  
 31  13  35  1   
 32  15  20  1   
 33  15  36  1   
 34  15  37  1   
 35  16  21  2   
 36  16  38  1   
 37  17  22  2   
 38  17  39  1   
 39  18  23  ar  
 40  18  40  1   
 41  19  23  ar  
 42  19  41  1   
 43  20  42  1   
 44  21  22  1   
 45  23  43  1   
@<TRIPOS>SUBSTRUCTURE
  1 ****   3 GROUP 4 **** **** 0

# MOE 2024.06 (io_trps.svl 2023.06)
