@<TRIPOS>MOLECULE
NONAME
47 49 1 0 0 
SMALL
USER_CHARGES


@<TRIPOS>ATOM
  1 S        0.4280     0.4820    -0.7870 S.o2  1 <1>   1.3330 
  2 O        0.1610    -0.5320     0.2080 O.2   1 <1>  -0.6500 
  3 O       -0.3140     0.4800    -2.0270 O.2   1 <1>  -0.6500 
  4 N        0.2000     1.9990    -0.0580 N.am  1 <1>  -0.8490 
  5 C        2.1830     0.4430    -1.1580 C.3   1 <1>  -0.0550 
  6 C        0.2850     3.1200    -1.0020 C.3   1 <1>   0.1160 
  7 C       -1.0670     2.0610     0.6760 C.3   1 <1>   0.1160 
  8 C        3.0850     0.6790     0.0670 C.3   1 <1>  -0.0800 
  9 C        4.5440     0.8790    -0.3400 C.3   1 <1>   0.2200 
 10 C        3.1280    -0.4960     1.0470 C.3   1 <1>   0.1200 
 11 N        5.0020     2.2010     0.1370 N.am  1 <1>  -0.7300 
 12 C        5.2740    -0.2530     0.3770 C.3   1 <1>   0.1200 
 13 O        4.4570    -0.5990     1.4450 O.3   1 <1>  -0.5600 
 14 C        4.7090     3.3870    -0.4730 C.2   1 <1>   0.7150 
 15 O        4.0920     3.3600    -1.5230 O.2   1 <1>  -0.5700 
 16 C        5.0950     4.6400     0.1220 C.2   1 <1>   0.0550 
 17 O        5.7160     4.6550     1.2910 O.3   1 <1>  -0.0190 
 18 C        4.9270     5.9010    -0.3170 C.2   1 <1>  -0.1500 
 19 N        5.9400     5.9080     1.6000 N.2   1 <1>  -0.4100 
 20 C        5.4890     6.6870     0.6680 C.2   1 <1>   0.2350 
 21 C        5.5640     8.1370     0.6760 C.ar  1 <1>   0.0540 
 22 C        5.4590     8.8860    -0.4960 C.ar  1 <1>  -0.1500 
 23 C        5.7460     8.8370     1.8690 C.ar  1 <1>  -0.1500 
 24 C        5.5230    10.2680    -0.4780 C.ar  1 <1>  -0.1500 
 25 C        5.8120    10.2180     1.8950 C.ar  1 <1>  -0.1500 
 26 C        5.7000    10.9380     0.7200 C.ar  1 <1>  -0.1500 
 27 H        2.4280    -0.4990    -1.6080 H     1 <1>   0.0800 
 28 H        2.3900     1.2060    -1.8830 H     1 <1>   0.0800 
 29 H        0.1760     4.0530    -0.4770 H     1 <1>   0.0800 
 30 H       -0.4900     3.0450    -1.7480 H     1 <1>   0.0800 
 31 H        1.2420     3.1240    -1.4940 H     1 <1>   0.0800 
 32 H       -1.1750     3.0190     1.1530 H     1 <1>   0.0800 
 33 H       -1.0870     1.3000     1.4390 H     1 <1>   0.0800 
 34 H       -1.8960     1.9000     0.0060 H     1 <1>   0.0800 
 35 H        2.7290     1.5430     0.6010 H     1 <1>   0.0800 
 36 H        4.6960     0.8090    -1.4040 H     1 <1>   0.0800 
 37 H        2.8490    -1.4240     0.5770 H     1 <1>   0.0800 
 38 H        2.5110    -0.3290     1.9140 H     1 <1>   0.0800 
 39 H        5.3510     2.2210     1.0990 H     1 <1>   0.3700 
 40 H        6.2450     0.0340     0.7420 H     1 <1>   0.0800 
 41 H        5.3600    -1.1150    -0.2610 H     1 <1>   0.0800 
 42 H        4.4560     6.2310    -1.2240 H     1 <1>   0.1500 
 43 H        5.3290     8.3890    -1.4400 H     1 <1>   0.1500 
 44 H        5.8350     8.2880     2.7900 H     1 <1>   0.1500 
 45 H        5.4390    10.8250    -1.3950 H     1 <1>   0.1500 
 46 H        5.9520    10.7330     2.8300 H     1 <1>   0.1500 
 47 H        5.7510    12.0130     0.7370 H     1 <1>   0.1500 
@<TRIPOS>BOND
  1   1   2  2   
  2   1   3  2   
  3   1   4  am  
  4   1   5  1   
  5   4   6  1   
  6   4   7  1   
  7   5   8  1   
  8   5  27  1   
  9   5  28  1   
 10   6  29  1   
 11   6  30  1   
 12   6  31  1   
 13   7  32  1   
 14   7  33  1   
 15   7  34  1   
 16   8   9  1   
 17   8  10  1   
 18   8  35  1   
 19   9  11  1   
 20   9  12  1   
 21   9  36  1   
 22  10  13  1   
 23  10  37  1   
 24  10  38  1   
 25  11  14  am  
 26  11  39  1   
 27  12  13  1   
 28  12  40  1   
 29  12  41  1   
 30  14  15  2   
 31  14  16  1   
 32  16  17  1   
 33  16  18  2   
 34  17  19  1   
 35  18  20  1   
 36  18  42  1   
 37  19  20  2   
 38  20  21  1   
 39  21  22  ar  
 40  21  23  ar  
 41  22  24  ar  
 42  22  43  1   
 43  23  25  ar  
 44  23  44  1   
 45  24  26  ar  
 46  24  45  1   
 47  25  26  ar  
 48  25  46  1   
 49  26  47  1   
@<TRIPOS>SUBSTRUCTURE
  1 ****  14 GROUP 4 **** **** 0

# MOE 2024.06 (io_trps.svl 2023.06)
