@<TRIPOS>MOLECULE
NONAME
51 54 1 0 0 
SMALL
USER_CHARGES


@<TRIPOS>ATOM
  1 O        1.5480     0.0030    -0.2390 O.3   1 <1>  -0.5600 
  2 C        2.3010    -0.9270     0.5000 C.3   1 <1>   0.4240 
  3 C        0.1700    -0.2020    -0.3400 C.3   1 <1>   0.1200 
  4 C        1.7830    -2.3670     0.3250 C.ar  1 <1>  -0.1440 
  5 C        2.2810    -0.4760     1.9740 C.3   1 <1>  -0.1600 
  6 C        3.7270    -0.8060    -0.0480 C.3   1 <1>  -0.1600 
  7 C       -0.0890    -1.4990    -1.1010 C.3   1 <1>  -0.0160 
  8 C        0.6540    -2.6400    -0.4330 C.ar  1 <1>  -0.1440 
  9 C        2.4440    -3.4310     0.9230 C.ar  1 <1>  -0.1500 
 10 C        3.2630     0.6580     2.2920 C.3   1 <1>   0.3430 
 11 C        4.2400     0.6370    -0.0140 C.3   1 <1>   0.3430 
 12 C        0.2050    -3.9420    -0.5840 C.ar  1 <1>  -0.1500 
 13 C        2.0130    -4.7390     0.7870 C.ar  1 <1>   0.0830 
 14 N        3.5800     1.4270     1.0660 N.4   1 <1>  -0.9590 
 15 C        0.8670    -5.0090     0.0190 C.ar  1 <1>   0.0830 
 16 O        2.7970    -5.6410     1.4490 O.3   1 <1>  -0.3630 
 17 C        4.2100     2.7530     1.2890 C.3   1 <1>   0.5230 
 18 O        0.4140    -6.2890    -0.1260 O.3   1 <1>  -0.3630 
 19 C        2.6310    -7.0370     1.3470 C.3   1 <1>   0.0400 
 20 C        3.7080     3.7020     0.2080 C.2   1 <1>   0.0060 
 21 C       -0.7370    -6.6090    -0.8780 C.3   1 <1>   0.0400 
 22 N        2.6540     3.4630    -0.5120 N.2   1 <1>  -0.5650 
 23 N        4.3090     4.8780    -0.0940 N.pl3 1 <1>   0.0330 
 24 C        2.5640     4.5330    -1.3240 C.2   1 <1>   0.0770 
 25 C        3.5660     5.4050    -1.0820 C.2   1 <1>  -0.3020 
 26 H       -0.2520     0.6350    -0.8710 H     1 <1>   0.0800 
 27 H       -0.2590    -0.2450     0.6460 H     1 <1>   0.0800 
 28 H        2.5390    -1.3030     2.6100 H     1 <1>   0.0800 
 29 H        1.2870    -0.1850     2.2550 H     1 <1>   0.0800 
 30 H        3.7550    -1.1720    -1.0590 H     1 <1>   0.0800 
 31 H        4.3920    -1.4240     0.5260 H     1 <1>   0.0800 
 32 H        0.2450    -1.3920    -2.1170 H     1 <1>   0.0800 
 33 H       -1.1460    -1.6960    -1.1120 H     1 <1>   0.0800 
 34 H        3.3240    -3.2680     1.5170 H     1 <1>   0.1500 
 35 H        4.1720     0.2400     2.6920 H     1 <1>   0.0800 
 36 H        2.8290     1.3030     3.0390 H     1 <1>   0.0800 
 37 H        4.0190     1.1050    -0.9620 H     1 <1>   0.0800 
 38 H        5.3100     0.6320     0.1180 H     1 <1>   0.0800 
 39 H       -0.6700    -4.1040    -1.1830 H     1 <1>   0.1500 
 40 H        2.6670     1.6790     0.6220 H     1 <1>   0.4500 
 41 H        5.2830     2.6690     1.2550 H     1 <1>   0.0800 
 42 H        3.9180     3.1430     2.2500 H     1 <1>   0.0800 
 43 H        3.4210    -7.5100     1.9010 H     1 <1>   0.0800 
 44 H        2.6880    -7.3210     0.3110 H     1 <1>   0.0800 
 45 H        1.6790    -7.3060     1.7680 H     1 <1>   0.0800 
 46 H       -0.8790    -7.6730    -0.8320 H     1 <1>   0.0800 
 47 H       -0.5830    -6.3060    -1.8990 H     1 <1>   0.0800 
 48 H       -1.5860    -6.1090    -0.4480 H     1 <1>   0.0800 
 49 H        5.1440     5.3050     0.3230 H     1 <1>   0.2700 
 50 H        1.7720     4.6240    -2.0510 H     1 <1>   0.1500 
 51 H        3.7790     6.3500    -1.5510 H     1 <1>   0.1500 
@<TRIPOS>BOND
  1   1   2  1   
  2   1   3  1   
  3   2   4  1   
  4   2   5  1   
  5   2   6  1   
  6   3   7  1   
  7   3  26  1   
  8   3  27  1   
  9   4   8  ar  
 10   4   9  ar  
 11   5  10  1   
 12   5  28  1   
 13   5  29  1   
 14   6  11  1   
 15   6  30  1   
 16   6  31  1   
 17   7   8  1   
 18   7  32  1   
 19   7  33  1   
 20   8  12  ar  
 21   9  13  ar  
 22   9  34  1   
 23  10  14  1   
 24  10  35  1   
 25  10  36  1   
 26  11  14  1   
 27  11  37  1   
 28  11  38  1   
 29  12  15  ar  
 30  12  39  1   
 31  13  15  ar  
 32  13  16  1   
 33  14  17  1   
 34  14  40  1   
 35  15  18  1   
 36  16  19  1   
 37  17  20  1   
 38  17  41  1   
 39  17  42  1   
 40  18  21  1   
 41  19  43  1   
 42  19  44  1   
 43  19  45  1   
 44  20  22  2   
 45  20  23  1   
 46  21  46  1   
 47  21  47  1   
 48  21  48  1   
 49  22  24  1   
 50  23  25  1   
 51  23  49  1   
 52  24  25  2   
 53  24  50  1   
 54  25  51  1   
@<TRIPOS>SUBSTRUCTURE
  1 ****   2 GROUP 4 **** **** 0

# MOE 2024.06 (io_trps.svl 2023.06)
