@<TRIPOS>MOLECULE
NONAME
44 47 1 0 0 
SMALL
USER_CHARGES


@<TRIPOS>ATOM
  1 O       -1.1870     0.6490    -1.2350 O.2   1 <1>  -0.5700 
  2 C       -1.1930     0.7240    -0.0170 C.2   1 <1>   0.7160 
  3 N       -1.4810    -0.4010     0.6990 N.am  1 <1>  -0.7300 
  4 C       -0.9250     1.9660     0.6930 C.2   1 <1>   0.2030 
  5 C       -1.8710    -1.7160     0.1490 C.3   1 <1>   0.2200 
  6 N       -1.0240     2.1290     2.0050 N.2   1 <1>  -0.7070 
  7 C       -0.5300     3.1710     0.0960 C.2   1 <1>  -0.1810 
  8 C       -3.3790    -1.8640     0.2420 C.3   1 <1>  -0.0800 
  9 C       -1.3730    -2.8380     1.0610 C.3   1 <1>   0.1200 
 10 N       -0.6970     3.4120     2.2360 N.pl3 1 <1>   0.3000 
 11 C       -0.4050     4.0570     1.0930 C.2   1 <1>  -0.3320 
 12 C       -0.2650     3.5250    -1.3600 C.3   1 <1>   0.3010 
 13 C       -3.5490    -2.3750     1.6720 C.3   1 <1>   0.1200 
 14 C       -3.9140    -2.8620    -0.8020 C.3   1 <1>  -0.0160 
 15 O       -2.4050    -3.1230     1.9620 O.3   1 <1>  -0.5600 
 16 C        0.0090     5.4940     0.8510 C.3   1 <1>   0.0200 
 17 O        0.4170     4.7560    -1.4280 O.3   1 <1>  -0.5600 
 18 C       -5.4290    -2.9790    -0.7260 C.ar  1 <1>  -0.1430 
 19 C       -0.1280     5.7970    -0.6560 C.3   1 <1>   0.1200 
 20 C       -6.2570    -1.9900    -1.2160 C.ar  1 <1>  -0.1500 
 21 C       -6.0530    -4.0740    -0.1640 C.ar  1 <1>  -0.1500 
 22 C       -7.6310    -2.1360    -1.1190 C.ar  1 <1>   0.1600 
 23 C       -7.4370    -4.1230    -0.1170 C.ar  1 <1>   0.1600 
 24 N       -8.2410    -3.1790    -0.5790 N.ar  1 <1>  -0.6200 
 25 H       -1.5250    -0.2850     1.7160 H     1 <1>   0.3700 
 26 H       -1.4960    -1.8200    -0.8560 H     1 <1>   0.0800 
 27 H       -3.8750    -0.9190     0.1070 H     1 <1>   0.0800 
 28 H       -0.4870    -2.5630     1.6050 H     1 <1>   0.0800 
 29 H       -1.1880    -3.7310     0.4920 H     1 <1>   0.0800 
 30 H       -0.6800     3.8200     3.1790 H     1 <1>   0.2700 
 31 H       -1.1880     3.6120    -1.9050 H     1 <1>   0.0800 
 32 H        0.3550     2.7800    -1.8270 H     1 <1>   0.0800 
 33 H       -4.4200    -2.9920     1.8070 H     1 <1>   0.0800 
 34 H       -3.5820    -1.5530     2.3660 H     1 <1>   0.0800 
 35 H       -3.4680    -3.8300    -0.6560 H     1 <1>   0.0800 
 36 H       -3.6450    -2.5250    -1.7880 H     1 <1>   0.0800 
 37 H        1.0310     5.6360     1.1540 H     1 <1>   0.0800 
 38 H       -0.6130     6.1690     1.4100 H     1 <1>   0.0800 
 39 H        0.3960     6.7030    -0.9050 H     1 <1>   0.0800 
 40 H       -1.1640     5.9070    -0.9270 H     1 <1>   0.0800 
 41 H       -5.8470    -1.1060    -1.6710 H     1 <1>   0.1500 
 42 H       -5.4780    -4.8880     0.2390 H     1 <1>   0.1500 
 43 H       -8.2610    -1.3540    -1.5050 H     1 <1>   0.1500 
 44 H       -7.9060    -4.9850     0.3250 H     1 <1>   0.1500 
@<TRIPOS>BOND
  1   1   2  2   
  2   2   3  am  
  3   2   4  1   
  4   3   5  1   
  5   3  25  1   
  6   4   6  2   
  7   4   7  1   
  8   5   8  1   
  9   5   9  1   
 10   5  26  1   
 11   6  10  1   
 12   7  11  2   
 13   7  12  1   
 14   8  13  1   
 15   8  14  1   
 16   8  27  1   
 17   9  15  1   
 18   9  28  1   
 19   9  29  1   
 20  10  11  1   
 21  10  30  1   
 22  11  16  1   
 23  12  17  1   
 24  12  31  1   
 25  12  32  1   
 26  13  15  1   
 27  13  33  1   
 28  13  34  1   
 29  14  18  1   
 30  14  35  1   
 31  14  36  1   
 32  16  19  1   
 33  16  37  1   
 34  16  38  1   
 35  17  19  1   
 36  18  20  ar  
 37  18  21  ar  
 38  19  39  1   
 39  19  40  1   
 40  20  22  ar  
 41  20  41  1   
 42  21  23  ar  
 43  21  42  1   
 44  22  24  ar  
 45  22  43  1   
 46  23  24  ar  
 47  23  44  1   
@<TRIPOS>SUBSTRUCTURE
  1 ****   3 GROUP 4 **** **** 0

# MOE 2024.06 (io_trps.svl 2023.06)
