@<TRIPOS>MOLECULE
NONAME
47 49 1 0 0 
SMALL
USER_CHARGES


@<TRIPOS>ATOM
  1 O       -2.8910     0.2450     0.7760 O.2   1 <1>  -0.5700 
  2 C       -2.7680     1.1360    -0.0470 C.2   1 <1>   0.5440 
  3 N       -3.6270     1.0870    -1.1170 N.am  1 <1>  -0.6600 
  4 C       -1.7940     2.2050     0.1160 C.ar  1 <1>   0.0860 
  5 C       -5.0120     1.6100    -0.8990 C.3   1 <1>   0.1400 
  6 C       -3.6090    -0.1520    -1.9630 C.3   1 <1>   0.1400 
  7 C       -1.0100     2.2980     1.2670 C.ar  1 <1>  -0.1500 
  8 C       -1.6000     3.1800    -0.8650 C.ar  1 <1>  -0.1500 
  9 C       -5.9280     0.5530    -0.2200 C.3   1 <1>   0.4230 
 10 C       -4.7140    -1.1600    -1.5580 C.3   1 <1>   0.3430 
 11 C       -0.0750     3.3080     1.4550 C.ar  1 <1>   0.0730 
 12 C       -0.6760     4.1940    -0.7000 C.ar  1 <1>  -0.1500 
 13 N       -5.2960    -0.8220    -0.2130 N.4   1 <1>  -0.9590 
 14 C       -7.3280     0.5150    -0.8740 C.3   1 <1>   0.1200 
 15 C        0.7150     3.3750     2.6530 C.1   1 <1>   0.4840 
 16 C        0.0810     4.2580     0.4540 C.ar  1 <1>  -0.1500 
 17 C       -6.2310    -1.8270     0.3860 C.3   1 <1>   0.4230 
 18 O       -8.1290    -0.4630    -0.2740 O.3   1 <1>  -0.5600 
 19 N        1.3420     3.4340     3.6040 N.1   1 <1>  -0.5570 
 20 C       -7.6160    -1.7680    -0.3040 C.3   1 <1>   0.1200 
 21 C       -5.6060    -3.2310     0.3640 C.3   1 <1>  -0.1600 
 22 C       -6.3510    -4.2200     1.2740 C.3   1 <1>  -0.1600 
 23 C       -5.6500    -5.5800     1.2900 C.3   1 <1>  -0.2400 
 24 H       -4.9750     2.4920    -0.2820 H     1 <1>   0.0800 
 25 H       -5.4240     1.9060    -1.8490 H     1 <1>   0.0800 
 26 H       -3.7230     0.1150    -2.9990 H     1 <1>   0.0800 
 27 H       -2.6500    -0.6340    -1.8620 H     1 <1>   0.0800 
 28 H       -1.1330     1.5570     2.0410 H     1 <1>   0.1500 
 29 H       -2.1750     3.1480    -1.7740 H     1 <1>   0.1500 
 30 H       -6.0690     0.8640     0.8020 H     1 <1>   0.0800 
 31 H       -4.2840    -2.1480    -1.5430 H     1 <1>   0.0800 
 32 H       -5.4920    -1.1540    -2.3030 H     1 <1>   0.0800 
 33 H       -0.5430     4.9360    -1.4710 H     1 <1>   0.1500 
 34 H       -4.4660    -0.7140     0.4100 H     1 <1>   0.4500 
 35 H       -7.2640     0.3050    -1.9270 H     1 <1>   0.0800 
 36 H       -7.8240     1.4610    -0.7440 H     1 <1>   0.0800 
 37 H        0.8000     5.0510     0.5760 H     1 <1>   0.1500 
 38 H       -6.3860    -1.5630     1.4190 H     1 <1>   0.0800 
 39 H       -8.3180    -2.3970     0.2140 H     1 <1>   0.0800 
 40 H       -7.5580    -2.0950    -1.3280 H     1 <1>   0.0800 
 41 H       -5.6020    -3.6230    -0.6380 H     1 <1>   0.0800 
 42 H       -4.5890    -3.1630     0.7120 H     1 <1>   0.0800 
 43 H       -6.3880    -3.8370     2.2810 H     1 <1>   0.0800 
 44 H       -7.3630    -4.3610     0.9340 H     1 <1>   0.0800 
 45 H       -4.6430    -5.4870     1.6600 H     1 <1>   0.0800 
 46 H       -5.6180    -6.0050     0.3020 H     1 <1>   0.0800 
 47 H       -6.1820    -6.2610     1.9320 H     1 <1>   0.0800 
@<TRIPOS>BOND
  1   1   2  2   
  2   2   3  am  
  3   2   4  1   
  4   3   5  1   
  5   3   6  1   
  6   4   7  ar  
  7   4   8  ar  
  8   5   9  1   
  9   5  24  1   
 10   5  25  1   
 11   6  10  1   
 12   6  26  1   
 13   6  27  1   
 14   7  11  ar  
 15   7  28  1   
 16   8  12  ar  
 17   8  29  1   
 18   9  13  1   
 19   9  14  1   
 20   9  30  1   
 21  10  13  1   
 22  10  31  1   
 23  10  32  1   
 24  11  15  1   
 25  11  16  ar  
 26  12  16  ar  
 27  12  33  1   
 28  13  17  1   
 29  13  34  1   
 30  14  18  1   
 31  14  35  1   
 32  14  36  1   
 33  15  19  3   
 34  16  37  1   
 35  17  20  1   
 36  17  21  1   
 37  17  38  1   
 38  18  20  1   
 39  20  39  1   
 40  20  40  1   
 41  21  22  1   
 42  21  41  1   
 43  21  42  1   
 44  22  23  1   
 45  22  43  1   
 46  22  44  1   
 47  23  45  1   
 48  23  46  1   
 49  23  47  1   
@<TRIPOS>SUBSTRUCTURE
  1 ****   1 GROUP 4 **** **** 0

# MOE 2024.06 (io_trps.svl 2023.06)
