@<TRIPOS>MOLECULE
NONAME
45 47 1 0 0 
SMALL
USER_CHARGES


@<TRIPOS>ATOM
  1 F       -1.8630    -0.0210     0.2070 F     1 <1>  -0.1900 
  2 C       -2.3240     1.1470    -0.1530 C.ar  1 <1>   0.1900 
  3 C       -3.5000     1.2290    -0.8810 C.ar  1 <1>   0.0860 
  4 C       -1.6140     2.2770     0.2090 C.ar  1 <1>   0.1600 
  5 C       -4.2880     0.0870    -1.2790 C.2   1 <1>   0.5440 
  6 C       -3.8660     2.5260    -1.2190 C.ar  1 <1>  -0.1500 
  7 N       -1.9820     3.5110    -0.1030 N.ar  1 <1>  -0.6200 
  8 O       -4.4750    -0.1080    -2.4650 O.2   1 <1>  -0.5700 
  9 N       -4.8880    -0.7520    -0.3650 N.am  1 <1>  -0.6600 
 10 C       -3.0960     3.6040    -0.8160 C.ar  1 <1>   0.1600 
 11 C       -5.6300    -1.9740    -0.8100 C.3   1 <1>   0.1400 
 12 C       -5.0660    -0.4180     1.0750 C.3   1 <1>   0.1400 
 13 C       -7.1350    -1.7090    -0.9820 C.3   1 <1>   0.1400 
 14 C       -6.2130     0.5820     1.2800 C.3   1 <1>  -0.1600 
 15 N       -7.7520    -1.0820     0.2370 N.am  1 <1>  -0.6600 
 16 C       -7.4380     0.3660     0.3810 C.3   1 <1>   0.1400 
 17 C       -8.5730    -1.7170     1.1410 C.2   1 <1>   0.5690 
 18 O       -9.0640    -1.1030     2.0640 O.2   1 <1>  -0.5700 
 19 C       -8.8710    -3.2140     1.0320 C.3   1 <1>   0.2370 
 20 N       -9.8860    -3.4210    -0.0210 N.pl3 1 <1>   0.3140 
 21 C       -9.3220    -3.8790     2.3500 C.3   1 <1>  -0.2400 
 22 N       -9.6670    -4.2610    -1.0560 N.2   1 <1>  -0.7070 
 23 C      -11.1050    -2.8490    -0.1140 C.2   1 <1>  -0.3020 
 24 C      -10.7490    -4.2000    -1.7710 C.2   1 <1>   0.1390 
 25 C      -11.6880    -3.3300    -1.2320 C.2   1 <1>  -0.1500 
 26 H       -0.7080     2.1560     0.7770 H     1 <1>   0.1500 
 27 H       -4.7540     2.6850    -1.8040 H     1 <1>   0.1500 
 28 H       -3.4100     4.5970    -1.0950 H     1 <1>   0.1500 
 29 H       -5.4830    -2.7630    -0.0950 H     1 <1>   0.0800 
 30 H       -5.2290    -2.3190    -1.7480 H     1 <1>   0.0800 
 31 H       -4.1550    -0.0220     1.4860 H     1 <1>   0.0800 
 32 H       -5.2910    -1.3210     1.6170 H     1 <1>   0.0800 
 33 H       -7.6220    -2.6330    -1.2310 H     1 <1>   0.0800 
 34 H       -7.2720    -1.0550    -1.8260 H     1 <1>   0.0800 
 35 H       -5.8450     1.5790     1.1230 H     1 <1>   0.0800 
 36 H       -6.5290     0.5270     2.3070 H     1 <1>   0.0800 
 37 H       -7.2460     0.7870    -0.5910 H     1 <1>   0.0800 
 38 H       -8.2860     0.8870     0.7940 H     1 <1>   0.0800 
 39 H       -7.9720    -3.7060     0.7150 H     1 <1>   0.0800 
 40 H      -10.2360    -3.4340     2.7030 H     1 <1>   0.0800 
 41 H       -8.5670    -3.7430     3.1030 H     1 <1>   0.0800 
 42 H       -9.4740    -4.9330     2.1990 H     1 <1>   0.0800 
 43 H      -11.4780    -2.1450     0.6090 H     1 <1>   0.1500 
 44 H      -10.8930    -4.7640    -2.6780 H     1 <1>   0.1500 
 45 H      -12.6580    -3.1090    -1.6390 H     1 <1>   0.1500 
@<TRIPOS>BOND
  1   1   2  1   
  2   2   3  ar  
  3   2   4  ar  
  4   3   5  1   
  5   3   6  ar  
  6   4   7  ar  
  7   4  26  1   
  8   5   8  2   
  9   5   9  am  
 10   6  10  ar  
 11   6  27  1   
 12   7  10  ar  
 13   9  11  1   
 14   9  12  1   
 15  10  28  1   
 16  11  13  1   
 17  11  29  1   
 18  11  30  1   
 19  12  14  1   
 20  12  31  1   
 21  12  32  1   
 22  13  15  1   
 23  13  33  1   
 24  13  34  1   
 25  14  16  1   
 26  14  35  1   
 27  14  36  1   
 28  15  16  1   
 29  15  17  am  
 30  16  37  1   
 31  16  38  1   
 32  17  18  2   
 33  17  19  1   
 34  19  20  1   
 35  19  21  1   
 36  19  39  1   
 37  20  22  1   
 38  20  23  1   
 39  21  40  1   
 40  21  41  1   
 41  21  42  1   
 42  22  24  2   
 43  23  25  2   
 44  23  43  1   
 45  24  25  1   
 46  24  44  1   
 47  25  45  1   
@<TRIPOS>SUBSTRUCTURE
  1 ****  15 GROUP 4 **** **** 0

# MOE 2024.06 (io_trps.svl 2023.06)
