@<TRIPOS>MOLECULE
NONAME
52 55 1 0 0 
SMALL
USER_CHARGES


@<TRIPOS>ATOM
  1 O       -3.0490     1.8880    -1.2210 O.2   1 <1>  -0.5700 
  2 C       -2.5300     1.5080    -0.1980 C.2   1 <1>   0.5690 
  3 N       -2.2070     0.2010    -0.0160 N.am  1 <1>  -0.7300 
  4 C       -2.2320     2.5210     0.9180 C.3   1 <1>   0.1710 
  5 C       -2.3180    -0.8560    -1.0460 C.3   1 <1>   0.2200 
  6 N       -0.8520     3.0850     0.9330 N.3   1 <1>  -0.8100 
  7 C       -3.3940    -1.8710    -0.6810 C.3   1 <1>  -0.0800 
  8 C       -1.0760    -1.7310    -0.9720 C.3   1 <1>   0.1200 
  9 C       -0.5640     3.7710    -0.3420 C.3   1 <1>   0.2530 
 10 C        0.1640     2.0600     1.2440 C.3   1 <1>   0.1100 
 11 C       -2.6560    -2.8390     0.2530 C.3   1 <1>   0.1200 
 12 C       -4.6950    -1.2910    -0.0980 C.3   1 <1>  -0.0160 
 13 O       -1.2910    -2.5550     0.1310 O.3   1 <1>  -0.5600 
 14 C        0.5150     4.8310    -0.1820 C.ar  1 <1>  -0.1440 
 15 C        1.5420     2.6490     1.5740 C.3   1 <1>   0.1200 
 16 C       -5.7280    -2.3860     0.1160 C.ar  1 <1>  -0.1440 
 17 C        1.8190     4.4870     0.1550 C.ar  1 <1>   0.0820 
 18 C        0.2130     6.1660    -0.4110 C.ar  1 <1>  -0.1500 
 19 O        2.1530     3.2110     0.4320 O.3   1 <1>  -0.3630 
 20 C       -5.9390    -2.9670     1.3500 C.ar  1 <1>  -0.1500 
 21 C       -6.5090    -2.8550    -0.9200 C.ar  1 <1>  -0.1500 
 22 C        2.8090     5.4540     0.2250 C.ar  1 <1>  -0.1500 
 23 C        1.1990     7.1360    -0.3260 C.ar  1 <1>  -0.1500 
 24 C       -6.8900    -3.9660     1.4820 C.ar  1 <1>   0.1600 
 25 C       -7.4330    -3.8590    -0.6810 C.ar  1 <1>   0.1600 
 26 C        2.4990     6.7800    -0.0130 C.ar  1 <1>  -0.1500 
 27 N       -7.6400    -4.4280     0.4950 N.ar  1 <1>  -0.6200 
 28 H       -1.7640    -0.1160     0.8490 H     1 <1>   0.3700 
 29 H       -2.4300     2.0570     1.8660 H     1 <1>   0.0800 
 30 H       -2.9300     3.3330     0.8170 H     1 <1>   0.0800 
 31 H       -2.4620    -0.4270    -2.0240 H     1 <1>   0.0800 
 32 H       -3.6430    -2.4170    -1.5740 H     1 <1>   0.0800 
 33 H       -0.1710    -1.1640    -0.8360 H     1 <1>   0.0800 
 34 H       -0.9920    -2.3560    -1.8440 H     1 <1>   0.0800 
 35 H       -0.2580     3.0570    -1.0890 H     1 <1>   0.0800 
 36 H       -1.4590     4.2490    -0.7030 H     1 <1>   0.0800 
 37 H       -0.1620     1.5090     2.1090 H     1 <1>   0.0800 
 38 H        0.2660     1.3660     0.4270 H     1 <1>   0.0800 
 39 H       -2.8260    -3.8660    -0.0240 H     1 <1>   0.0800 
 40 H       -2.9290    -2.6910     1.2830 H     1 <1>   0.0800 
 41 H       -5.0920    -0.5550    -0.7770 H     1 <1>   0.0800 
 42 H       -4.5020    -0.7950     0.8370 H     1 <1>   0.0800 
 43 H        2.1930     1.8690     1.9250 H     1 <1>   0.0800 
 44 H        1.4610     3.4030     2.3380 H     1 <1>   0.0800 
 45 H       -0.7910     6.4570    -0.6630 H     1 <1>   0.1500 
 46 H       -5.3770    -2.6560     2.2100 H     1 <1>   0.1500 
 47 H       -6.4100    -2.4500    -1.9110 H     1 <1>   0.1500 
 48 H        3.8130     5.1610     0.4720 H     1 <1>   0.1500 
 49 H        0.9530     8.1680    -0.5060 H     1 <1>   0.1500 
 50 H       -7.0410    -4.4090     2.4520 H     1 <1>   0.1500 
 51 H       -8.0340    -4.2130    -1.5020 H     1 <1>   0.1500 
 52 H        3.2660     7.5320     0.0460 H     1 <1>   0.1500 
@<TRIPOS>BOND
  1   1   2  2   
  2   2   3  am  
  3   2   4  1   
  4   3   5  1   
  5   3  28  1   
  6   4   6  1   
  7   4  29  1   
  8   4  30  1   
  9   5   7  1   
 10   5   8  1   
 11   5  31  1   
 12   6   9  1   
 13   6  10  1   
 14   7  11  1   
 15   7  12  1   
 16   7  32  1   
 17   8  13  1   
 18   8  33  1   
 19   8  34  1   
 20   9  14  1   
 21   9  35  1   
 22   9  36  1   
 23  10  15  1   
 24  10  37  1   
 25  10  38  1   
 26  11  13  1   
 27  11  39  1   
 28  11  40  1   
 29  12  16  1   
 30  12  41  1   
 31  12  42  1   
 32  14  17  ar  
 33  14  18  ar  
 34  15  19  1   
 35  15  43  1   
 36  15  44  1   
 37  16  20  ar  
 38  16  21  ar  
 39  17  19  1   
 40  17  22  ar  
 41  18  23  ar  
 42  18  45  1   
 43  20  24  ar  
 44  20  46  1   
 45  21  25  ar  
 46  21  47  1   
 47  22  26  ar  
 48  22  48  1   
 49  23  26  ar  
 50  23  49  1   
 51  24  27  ar  
 52  24  50  1   
 53  25  27  ar  
 54  25  51  1   
 55  26  52  1   
@<TRIPOS>SUBSTRUCTURE
  1 ****   3 GROUP 4 **** **** 0

# MOE 2024.06 (io_trps.svl 2023.06)
