@<TRIPOS>MOLECULE
NONAME
50 52 1 0 0 
SMALL
USER_CHARGES


@<TRIPOS>ATOM
  1 CL      -0.0360    -0.3380     0.4150 Cl    1 <1>  -0.1770 
  2 C       -0.3060    -2.0620     0.3940 C.ar  1 <1>   0.1770 
  3 C       -0.5920    -2.6890    -0.8050 C.ar  1 <1>  -0.1500 
  4 C       -0.2300    -2.7740     1.5770 C.ar  1 <1>  -0.1500 
  5 C       -0.8060    -4.0570    -0.8150 C.ar  1 <1>  -0.1500 
  6 C       -0.4450    -4.1420     1.5640 C.ar  1 <1>  -0.1500 
  7 C       -0.7380    -4.7880     0.3630 C.ar  1 <1>   0.0830 
  8 O       -0.9700    -6.1190     0.2610 O.3   1 <1>  -0.3630 
  9 C       -1.0250    -6.9490     1.4120 C.3   1 <1>   0.1810 
 10 C       -1.3970    -8.3840     1.0470 C.2   1 <1>   0.5690 
 11 O       -0.6920    -9.2680     1.4770 O.2   1 <1>  -0.5700 
 12 N       -2.5130    -8.6880     0.3000 N.am  1 <1>  -0.6600 
 13 C       -2.7580   -10.0710    -0.1910 C.3   1 <1>   0.1400 
 14 C       -3.6020    -7.7390    -0.0530 C.3   1 <1>   0.1400 
 15 C       -4.0540   -10.6170     0.4460 C.3   1 <1>   0.4230 
 16 C       -4.9000    -8.2230     0.6100 C.3   1 <1>  -0.1600 
 17 N       -4.3310   -12.0830     0.1520 N.4   1 <1>  -0.9590 
 18 C       -5.2970    -9.6900     0.2650 C.3   1 <1>   0.0000 
 19 C       -5.7160   -12.5170     0.5190 C.3   1 <1>   0.3430 
 20 C       -4.0260   -12.4840    -1.2600 C.3   1 <1>   0.2630 
 21 C       -6.3800   -10.1550     1.2810 C.3   1 <1>  -0.1600 
 22 C       -5.9430    -9.7270    -1.1530 C.3   1 <1>   0.1200 
 23 C       -6.2930   -11.6550     1.6450 C.3   1 <1>  -0.1600 
 24 O       -5.0090    -9.6210    -2.1700 O.3   1 <1>  -0.6800 
 25 H       -0.6430    -2.1140    -1.7120 H     1 <1>   0.1500 
 26 H       -0.0040    -2.2580     2.4930 H     1 <1>   0.1500 
 27 H       -1.0270    -4.5650    -1.7370 H     1 <1>   0.1500 
 28 H       -0.3770    -4.6800     2.4910 H     1 <1>   0.1500 
 29 H       -0.0550    -6.9400     1.8760 H     1 <1>   0.0800 
 30 H       -1.7570    -6.5500     2.0880 H     1 <1>   0.0800 
 31 H       -2.8200   -10.0440    -1.2620 H     1 <1>   0.0800 
 32 H       -1.9360   -10.7110     0.0760 H     1 <1>   0.0800 
 33 H       -3.3780    -6.7440     0.2910 H     1 <1>   0.0800 
 34 H       -3.7070    -7.6960    -1.1240 H     1 <1>   0.0800 
 35 H       -3.8480   -10.5710     1.5030 H     1 <1>   0.0800 
 36 H       -4.7540    -8.1210     1.6710 H     1 <1>   0.0800 
 37 H       -5.6970    -7.5510     0.3430 H     1 <1>   0.0800 
 38 H       -3.6830   -12.6020     0.7620 H     1 <1>   0.4500 
 39 H       -6.3610   -12.4310    -0.3400 H     1 <1>   0.0800 
 40 H       -5.7070   -13.5530     0.8200 H     1 <1>   0.0800 
 41 H       -4.6540   -11.9450    -1.9490 H     1 <1>   0.0800 
 42 H       -4.1960   -13.5400    -1.3940 H     1 <1>   0.0800 
 43 H       -2.9960   -12.2740    -1.5000 H     1 <1>   0.0800 
 44 H       -6.3010    -9.6050     2.2040 H     1 <1>   0.0800 
 45 H       -7.3620    -9.9380     0.8940 H     1 <1>   0.0800 
 46 H       -6.6390    -8.9120    -1.2610 H     1 <1>   0.0800 
 47 H       -6.4830   -10.6430    -1.3130 H     1 <1>   0.0800 
 48 H       -7.2770   -12.0140     1.8970 H     1 <1>   0.0800 
 49 H       -5.6820   -11.7820     2.5220 H     1 <1>   0.0800 
 50 H       -5.4370    -9.3450    -3.0090 H     1 <1>   0.4000 
@<TRIPOS>BOND
  1   1   2  1   
  2   2   3  ar  
  3   2   4  ar  
  4   3   5  ar  
  5   3  25  1   
  6   4   6  ar  
  7   4  26  1   
  8   5   7  ar  
  9   5  27  1   
 10   6   7  ar  
 11   6  28  1   
 12   7   8  1   
 13   8   9  1   
 14   9  10  1   
 15   9  29  1   
 16   9  30  1   
 17  10  11  2   
 18  10  12  am  
 19  12  13  1   
 20  12  14  1   
 21  13  15  1   
 22  13  31  1   
 23  13  32  1   
 24  14  16  1   
 25  14  33  1   
 26  14  34  1   
 27  15  17  1   
 28  15  18  1   
 29  15  35  1   
 30  16  18  1   
 31  16  36  1   
 32  16  37  1   
 33  17  19  1   
 34  17  20  1   
 35  17  38  1   
 36  18  21  1   
 37  18  22  1   
 38  19  23  1   
 39  19  39  1   
 40  19  40  1   
 41  20  41  1   
 42  20  42  1   
 43  20  43  1   
 44  21  23  1   
 45  21  44  1   
 46  21  45  1   
 47  22  24  1   
 48  22  46  1   
 49  22  47  1   
 50  23  48  1   
 51  23  49  1   
 52  24  50  1   
@<TRIPOS>SUBSTRUCTURE
  1 ****  14 GROUP 4 **** **** 0

# MOE 2024.06 (io_trps.svl 2023.06)
