@<TRIPOS>MOLECULE
NONAME
51 53 1 0 0 
SMALL
USER_CHARGES


@<TRIPOS>ATOM
  1 O       -0.2030    -0.3710    -0.9090 O.3   1 <1>  -0.0190 
  2 N        0.6700     0.3720    -0.3000 N.2   1 <1>  -0.4100 
  3 C       -1.3510     0.0230    -0.4170 C.2   1 <1>   0.2980 
  4 C        0.0290     1.1370     0.4940 C.2   1 <1>   0.3350 
  5 N       -1.2850     0.9530     0.4530 N.2   1 <1>  -0.5650 
  6 C       -2.6340    -0.6340    -0.9210 C.3   1 <1>   0.2900 
  7 C        0.6420     2.1880     1.4220 C.3   1 <1>   0.1010 
  8 N       -2.7230    -2.0930    -0.6570 N.3   1 <1>  -0.8100 
  9 C        0.6370     3.5690     0.7520 C.3   1 <1>  -0.2400 
 10 C        2.0680     1.8220     1.8630 C.3   1 <1>  -0.2400 
 11 C       -3.9630    -2.6580    -1.2660 C.3   1 <1>   0.2530 
 12 C       -2.6370    -2.3910     0.7830 C.3   1 <1>   0.0300 
 13 C       -4.1030    -4.1880    -1.2050 C.ar  1 <1>   0.4770 
 14 N       -4.7650    -4.6900    -0.1920 N.ar  1 <1>  -0.6200 
 15 N       -3.5810    -4.8790    -2.1830 N.ar  1 <1>  -0.6200 
 16 C       -4.8520    -6.0010    -0.1970 C.ar  1 <1>   0.7200 
 17 C       -3.7580    -6.1680    -2.0710 C.ar  1 <1>   0.7200 
 18 N       -4.3690    -6.7960    -1.1140 N.ar  1 <1>  -0.6200 
 19 N       -5.5380    -6.5130     0.8640 N.pl3 1 <1>  -0.6000 
 20 N       -3.2410    -6.9190    -3.0420 N.pl3 1 <1>  -0.9000 
 21 C       -5.8100    -7.8200     1.2880 C.ar  1 <1>   0.1000 
 22 C       -6.9980    -8.0720     1.9640 C.ar  1 <1>  -0.1500 
 23 C       -4.9280    -8.8760     1.0850 C.ar  1 <1>  -0.1500 
 24 C       -7.3100    -9.3410     2.4210 C.ar  1 <1>  -0.1430 
 25 C       -5.2300   -10.1470     1.5380 C.ar  1 <1>  -0.1500 
 26 C       -6.4200   -10.3800     2.2050 C.ar  1 <1>  -0.1500 
 27 C       -8.6130    -9.6040     3.1560 C.3   1 <1>  -0.0970 
 28 H       -2.6870    -0.4660    -1.9830 H     1 <1>   0.0800 
 29 H       -3.4710    -0.1350    -0.4640 H     1 <1>   0.0800 
 30 H        0.0260     2.2370     2.3030 H     1 <1>   0.0800 
 31 H        1.2370     3.5520    -0.1400 H     1 <1>   0.0800 
 32 H        1.0260     4.3150     1.4220 H     1 <1>   0.0800 
 33 H       -0.3690     3.8410     0.4820 H     1 <1>   0.0800 
 34 H        2.7270     1.7860     1.0130 H     1 <1>   0.0800 
 35 H        2.0680     0.8560     2.3360 H     1 <1>   0.0800 
 36 H        2.4430     2.5470     2.5630 H     1 <1>   0.0800 
 37 H       -3.9930    -2.3800    -2.3050 H     1 <1>   0.0800 
 38 H       -4.8230    -2.2230    -0.7890 H     1 <1>   0.0800 
 39 H       -1.7220    -1.9990     1.1940 H     1 <1>   0.0800 
 40 H       -2.6330    -3.4550     0.9420 H     1 <1>   0.0800 
 41 H       -3.4710    -1.9600     1.3120 H     1 <1>   0.0800 
 42 H       -5.9680    -5.7710     1.4070 H     1 <1>   0.4000 
 43 H       -3.1800    -7.9210    -2.8800 H     1 <1>   0.4000 
 44 H       -2.5400    -6.4910    -3.6410 H     1 <1>   0.4000 
 45 H       -7.6860    -7.2640     2.1270 H     1 <1>   0.1500 
 46 H       -3.9980    -8.7040     0.5770 H     1 <1>   0.1500 
 47 H       -4.5390   -10.9550     1.3720 H     1 <1>   0.1500 
 48 H       -6.6480   -11.3710     2.5560 H     1 <1>   0.1500 
 49 H       -9.3060    -8.7970     3.0050 H     1 <1>   0.0800 
 50 H       -8.4230    -9.7060     4.2090 H     1 <1>   0.0800 
 51 H       -9.0650   -10.5110     2.7940 H     1 <1>   0.0800 
@<TRIPOS>BOND
  1   1   2  1   
  2   1   3  1   
  3   2   4  2   
  4   3   5  2   
  5   3   6  1   
  6   4   5  1   
  7   4   7  1   
  8   6   8  1   
  9   6  28  1   
 10   6  29  1   
 11   7   9  1   
 12   7  10  1   
 13   7  30  1   
 14   8  11  1   
 15   8  12  1   
 16   9  31  1   
 17   9  32  1   
 18   9  33  1   
 19  10  34  1   
 20  10  35  1   
 21  10  36  1   
 22  11  13  1   
 23  11  37  1   
 24  11  38  1   
 25  12  39  1   
 26  12  40  1   
 27  12  41  1   
 28  13  14  ar  
 29  13  15  ar  
 30  14  16  ar  
 31  15  17  ar  
 32  16  18  ar  
 33  16  19  1   
 34  17  18  ar  
 35  17  20  1   
 36  19  21  1   
 37  19  42  1   
 38  20  43  1   
 39  20  44  1   
 40  21  22  ar  
 41  21  23  ar  
 42  22  24  ar  
 43  22  45  1   
 44  23  25  ar  
 45  23  46  1   
 46  24  26  ar  
 47  24  27  1   
 48  25  26  ar  
 49  25  47  1   
 50  26  48  1   
 51  27  49  1   
 52  27  50  1   
 53  27  51  1   
@<TRIPOS>SUBSTRUCTURE
  1 ****  13 GROUP 4 **** **** 0

# MOE 2024.06 (io_trps.svl 2023.06)
