@<TRIPOS>MOLECULE
NONAME
46 48 1 0 0 
SMALL
USER_CHARGES


@<TRIPOS>ATOM
  1 O        2.9030     0.9190    -2.6180 O.2   1 <1>  -0.5700 
  2 C        3.1110     1.2610    -1.4690 C.2   1 <1>   0.6950 
  3 N        3.2460     2.6050    -1.2230 N.2   1 <1>  -0.6610 
  4 C        3.2100     0.2880    -0.4100 C.ar  1 <1>   0.0860 
  5 C        3.4640     2.9930    -0.0240 C.2   1 <1>   0.4390 
  6 C        3.4470     0.7670     0.8790 C.ar  1 <1>   0.1000 
  7 C        3.0830    -1.0940    -0.5910 C.ar  1 <1>  -0.1500 
  8 N        3.5680     2.1360     1.0290 N.pl3 1 <1>  -0.5500 
  9 C        3.6170     4.4690     0.2980 C.3   1 <1>  -0.0990 
 10 C        3.5530    -0.1130     1.9530 C.ar  1 <1>  -0.1500 
 11 C        3.1880    -1.9640     0.4750 C.ar  1 <1>  -0.1500 
 12 C        3.6290     5.3510    -0.9520 C.3   1 <1>   0.2090 
 13 C        3.4240    -1.4710     1.7520 C.ar  1 <1>  -0.1500 
 14 N        3.7920     6.7760    -0.5500 N.pl3 1 <1>  -0.8690 
 15 C        4.9350     7.4790    -0.5210 C.ar  1 <1>   0.4100 
 16 N        6.0630     6.8130    -0.7930 N.ar  1 <1>  -0.6200 
 17 C        4.9560     8.8540    -0.2180 C.ar  1 <1>  -0.1430 
 18 C        7.1840     7.4610    -0.7920 C.ar  1 <1>   0.5280 
 19 C        6.1670     9.4900    -0.2270 C.ar  1 <1>   0.2110 
 20 C        3.6360     9.5710     0.0980 C.3   1 <1>  -0.0170 
 21 N        7.2750     8.7770    -0.5190 N.ar  1 <1>  -0.1790 
 22 C        8.4530     6.6990    -1.1130 C.3   1 <1>  -0.0970 
 23 C        3.7590    11.0690     0.4200 C.3   1 <1>  -0.1600 
 24 C        2.3880    11.6820     0.7220 C.3   1 <1>  -0.2400 
 25 H        2.9000    -1.4720    -1.5830 H     1 <1>   0.1500 
 26 H        3.7390     2.5150     1.9610 H     1 <1>   0.4000 
 27 H        4.5430     4.6110     0.8230 H     1 <1>   0.0800 
 28 H        2.8030     4.7680     0.9310 H     1 <1>   0.0800 
 29 H        3.7360     0.2670     2.9420 H     1 <1>   0.1500 
 30 H        3.0880    -3.0250     0.3210 H     1 <1>   0.1500 
 31 H        2.7070     5.2370    -1.4970 H     1 <1>   0.0800 
 32 H        4.4330     5.0500    -1.6040 H     1 <1>   0.0800 
 33 H        3.5060    -2.1560     2.5800 H     1 <1>   0.1500 
 34 H        2.9030     7.2350    -0.3380 H     1 <1>   0.4000 
 35 H        6.2790    10.5390    -0.0110 H     1 <1>   0.1500 
 36 H        3.1740     9.0810     0.9390 H     1 <1>   0.0800 
 37 H        2.9760     9.4590    -0.7460 H     1 <1>   0.0800 
 38 H        8.1940     9.2200    -0.5370 H     1 <1>   0.4570 
 39 H        8.2220     5.6650    -1.3050 H     1 <1>   0.0800 
 40 H        9.1380     6.7430    -0.2860 H     1 <1>   0.0800 
 41 H        8.9220     7.1050    -1.9910 H     1 <1>   0.0800 
 42 H        4.1880    11.5920    -0.4180 H     1 <1>   0.0800 
 43 H        4.3920    11.2110     1.2800 H     1 <1>   0.0800 
 44 H        1.7300    11.5810    -0.1240 H     1 <1>   0.0800 
 45 H        2.4930    12.7300     0.9440 H     1 <1>   0.0800 
 46 H        1.9340    11.2020     1.5720 H     1 <1>   0.0800 
@<TRIPOS>BOND
  1   1   2  2   
  2   2   3  1   
  3   2   4  1   
  4   3   5  2   
  5   4   6  ar  
  6   4   7  ar  
  7   5   8  1   
  8   5   9  1   
  9   6   8  1   
 10   6  10  ar  
 11   7  11  ar  
 12   7  25  1   
 13   8  26  1   
 14   9  12  1   
 15   9  27  1   
 16   9  28  1   
 17  10  13  ar  
 18  10  29  1   
 19  11  13  ar  
 20  11  30  1   
 21  12  14  1   
 22  12  31  1   
 23  12  32  1   
 24  13  33  1   
 25  14  15  1   
 26  14  34  1   
 27  15  16  ar  
 28  15  17  ar  
 29  16  18  ar  
 30  17  19  ar  
 31  17  20  1   
 32  18  21  ar  
 33  18  22  1   
 34  19  21  ar  
 35  19  35  1   
 36  20  23  1   
 37  20  36  1   
 38  20  37  1   
 39  21  38  1   
 40  22  39  1   
 41  22  40  1   
 42  22  41  1   
 43  23  24  1   
 44  23  42  1   
 45  23  43  1   
 46  24  44  1   
 47  24  45  1   
 48  24  46  1   
@<TRIPOS>SUBSTRUCTURE
  1 ****   9 GROUP 4 **** **** 0

# MOE 2024.06 (io_trps.svl 2023.06)
