@<TRIPOS>MOLECULE
NONAME
55 58 1 0 0 
SMALL
USER_CHARGES


@<TRIPOS>ATOM
  1 O        0.4160     0.2160     0.4900 O.2   1 <1>  -0.5700 
  2 C       -0.2950     1.1760     0.7250 C.2   1 <1>   0.5440 
  3 N       -1.6610     1.0570     0.5580 N.am  1 <1>  -0.6600 
  4 C        0.3120     2.4210     1.1630 C.ar  1 <1>   0.0860 
  5 C       -2.6350     2.1810     0.7340 C.3   1 <1>   0.1400 
  6 C       -2.2950    -0.2020     0.0800 C.3   1 <1>   0.1400 
  7 C        1.0810     3.2370     0.3180 C.ar  1 <1>  -0.1440 
  8 C        0.1210     2.8280     2.4820 C.ar  1 <1>  -0.1500 
  9 C       -3.3410     2.5060    -0.5970 C.3   1 <1>   0.1440 
 10 C       -2.9880     0.0510    -1.2630 C.3   1 <1>  -0.1600 
 11 C        1.6300     4.4230     0.8010 C.ar  1 <1>  -0.1440 
 12 C        1.3300     2.8120    -1.1310 C.3   1 <1>  -0.0970 
 13 C        0.6560     4.0070     2.9560 C.ar  1 <1>  -0.1500 
 14 C       -4.4120     3.5610    -0.3910 C.ar  1 <1>   0.1670 
 15 C       -3.9790     1.2290    -1.1890 C.3   1 <1>  -0.1600 
 16 C       -2.3860     3.2000    -1.6050 C.3   1 <1>  -0.1600 
 17 C        1.4080     4.8020     2.1150 C.ar  1 <1>  -0.1500 
 18 C        2.4890     5.3320    -0.0700 C.3   1 <1>  -0.0970 
 19 N       -5.3240     3.5400     0.5490 N.ar  1 <1>  -0.6200 
 20 C       -4.3240     4.5540    -1.3180 C.ar  1 <1>  -0.1430 
 21 C       -3.1880     4.3250    -2.2820 C.3   1 <1>  -0.0170 
 22 C       -6.1770     4.5680     0.5390 C.ar  1 <1>   0.7200 
 23 C       -5.2410     5.5720    -1.2490 C.ar  1 <1>   0.1600 
 24 N       -6.1720     5.5890    -0.3250 N.ar  1 <1>  -0.6200 
 25 N       -7.1570     4.5760     1.5130 N.pl3 1 <1>  -0.8380 
 26 C       -7.1050     3.6760     2.6980 C.3   1 <1>   0.1290 
 27 C       -8.3360     5.4830     1.4390 C.3   1 <1>   0.1290 
 28 H       -2.1530     3.0670     1.1070 H     1 <1>   0.0800 
 29 H       -3.3710     1.8850     1.4600 H     1 <1>   0.0800 
 30 H       -3.0170    -0.5270     0.8100 H     1 <1>   0.0800 
 31 H       -1.5630    -0.9840    -0.0310 H     1 <1>   0.0800 
 32 H       -0.4580     2.2030     3.1390 H     1 <1>   0.1500 
 33 H       -3.5120    -0.8400    -1.5610 H     1 <1>   0.0800 
 34 H       -2.2330     0.2420    -2.0060 H     1 <1>   0.0800 
 35 H        0.5860     2.1220    -1.4840 H     1 <1>   0.0800 
 36 H        2.2900     2.3320    -1.2020 H     1 <1>   0.0800 
 37 H        1.3130     3.6580    -1.7930 H     1 <1>   0.0800 
 38 H        0.4930     4.3050     3.9770 H     1 <1>   0.1500 
 39 H       -4.3790     1.4350    -2.1660 H     1 <1>   0.0800 
 40 H       -4.8040     0.9390    -0.5600 H     1 <1>   0.0800 
 41 H       -1.9720     2.5190    -2.3260 H     1 <1>   0.0800 
 42 H       -1.5720     3.6530    -1.0670 H     1 <1>   0.0800 
 43 H        1.8240     5.7180     2.4960 H     1 <1>   0.1500 
 44 H        3.2660     4.7630    -0.5470 H     1 <1>   0.0800 
 45 H        2.9560     6.1020     0.5170 H     1 <1>   0.0800 
 46 H        1.8820     5.8020    -0.8230 H     1 <1>   0.0800 
 47 H       -3.5790     3.9970    -3.2300 H     1 <1>   0.0800 
 48 H       -2.5920     5.2110    -2.4150 H     1 <1>   0.0800 
 49 H       -5.2120     6.3800    -1.9590 H     1 <1>   0.1500 
 50 H       -6.0840     3.4560     2.9590 H     1 <1>   0.0800 
 51 H       -7.6150     2.7560     2.4730 H     1 <1>   0.0800 
 52 H       -7.5760     4.1480     3.5430 H     1 <1>   0.0800 
 53 H       -8.5820     5.6990     0.4140 H     1 <1>   0.0800 
 54 H       -8.1110     6.4050     1.9460 H     1 <1>   0.0800 
 55 H       -9.1900     5.0200     1.9010 H     1 <1>   0.0800 
@<TRIPOS>BOND
  1   1   2  2   
  2   2   3  am  
  3   2   4  1   
  4   3   5  1   
  5   3   6  1   
  6   4   7  ar  
  7   4   8  ar  
  8   5   9  1   
  9   5  28  1   
 10   5  29  1   
 11   6  10  1   
 12   6  30  1   
 13   6  31  1   
 14   7  11  ar  
 15   7  12  1   
 16   8  13  ar  
 17   8  32  1   
 18   9  14  1   
 19   9  15  1   
 20   9  16  1   
 21  10  15  1   
 22  10  33  1   
 23  10  34  1   
 24  11  17  ar  
 25  11  18  1   
 26  12  35  1   
 27  12  36  1   
 28  12  37  1   
 29  13  17  ar  
 30  13  38  1   
 31  14  19  ar  
 32  14  20  ar  
 33  15  39  1   
 34  15  40  1   
 35  16  21  1   
 36  16  41  1   
 37  16  42  1   
 38  17  43  1   
 39  18  44  1   
 40  18  45  1   
 41  18  46  1   
 42  19  22  ar  
 43  20  21  1   
 44  20  23  ar  
 45  21  47  1   
 46  21  48  1   
 47  22  24  ar  
 48  22  25  1   
 49  23  24  ar  
 50  23  49  1   
 51  25  26  1   
 52  25  27  1   
 53  26  50  1   
 54  26  51  1   
 55  26  52  1   
 56  27  53  1   
 57  27  54  1   
 58  27  55  1   
@<TRIPOS>SUBSTRUCTURE
  1 ****   5 GROUP 4 **** **** 0

# MOE 2024.06 (io_trps.svl 2023.06)
