@<TRIPOS>MOLECULE
NONAME
46 48 1 0 0 
SMALL
USER_CHARGES


@<TRIPOS>ATOM
  1 S        0.9500    -0.6990    -1.1940 S.o2  1 <1>   1.2040 
  2 O        0.5230    -0.4540    -2.5550 O.2   1 <1>  -0.6500 
  3 O        1.9830    -1.6780    -0.9360 O.2   1 <1>  -0.6500 
  4 C        1.3780     0.8670    -0.3980 C.ar  1 <1>  -0.0090 
  5 C       -0.4960    -1.1930    -0.2750 C.3   1 <1>  -0.0550 
  6 C        2.2180     0.9020     0.7090 C.ar  1 <1>  -0.1500 
  7 C        0.8520     2.0700    -0.8530 C.ar  1 <1>  -0.1500 
  8 C       -1.0150    -2.5380    -0.7710 C.3   1 <1>   0.1100 
  9 C        2.5210     2.0940     1.3440 C.ar  1 <1>  -0.1500 
 10 C        1.1490     3.2680    -0.2250 C.ar  1 <1>  -0.1500 
 11 N       -2.1920    -2.9400     0.0060 N.3   1 <1>  -0.8100 
 12 C        1.9850     3.2790     0.8770 C.ar  1 <1>  -0.1500 
 13 C       -3.4180    -2.2020    -0.3440 C.3   1 <1>   0.1100 
 14 C       -2.5150    -4.3680    -0.1710 C.3   1 <1>   0.1100 
 15 C       -4.5410    -3.0860     0.1820 C.3   1 <1>   0.2000 
 16 C       -4.0480    -4.4820    -0.1970 C.3   1 <1>  -0.0800 
 17 O       -4.5500    -2.9540     1.5590 O.3   1 <1>  -0.6800 
 18 C       -4.6060    -5.6380     0.6560 C.3   1 <1>  -0.0160 
 19 C       -4.1190    -6.9830     0.1370 C.ar  1 <1>  -0.1430 
 20 C       -4.6990    -7.5920    -0.9570 C.ar  1 <1>  -0.1500 
 21 C       -3.0730    -7.6610     0.7290 C.ar  1 <1>  -0.1500 
 22 C       -4.2140    -8.8130    -1.3980 C.ar  1 <1>   0.1600 
 23 C       -2.6640    -8.8780     0.2080 C.ar  1 <1>   0.1600 
 24 N       -3.2080    -9.4700    -0.8430 N.ar  1 <1>  -0.6200 
 25 H       -0.2510    -1.2820     0.7650 H     1 <1>   0.0800 
 26 H       -1.2600    -0.4500    -0.3890 H     1 <1>   0.0800 
 27 H        2.6470    -0.0160     1.0790 H     1 <1>   0.1500 
 28 H        0.2040     2.0750    -1.7140 H     1 <1>   0.1500 
 29 H       -0.2360    -3.2730    -0.6410 H     1 <1>   0.0800 
 30 H       -1.2560    -2.4870    -1.8210 H     1 <1>   0.0800 
 31 H        3.1760     2.1000     2.1980 H     1 <1>   0.1500 
 32 H        0.7340     4.1900    -0.5950 H     1 <1>   0.1500 
 33 H        2.2190     4.2090     1.3670 H     1 <1>   0.1500 
 34 H       -3.4410    -1.2230     0.1050 H     1 <1>   0.0800 
 35 H       -3.5060    -2.1110    -1.4130 H     1 <1>   0.0800 
 36 H       -2.1080    -4.7520    -1.0920 H     1 <1>   0.0800 
 37 H       -2.0950    -4.9230     0.6510 H     1 <1>   0.0800 
 38 H       -5.5150    -2.8410    -0.2050 H     1 <1>   0.0800 
 39 H       -4.3340    -4.6560    -1.2190 H     1 <1>   0.0800 
 40 H       -3.6090    -2.9750     1.8380 H     1 <1>   0.4000 
 41 H       -5.6810    -5.6140     0.6310 H     1 <1>   0.0800 
 42 H       -4.3070    -5.5210     1.6830 H     1 <1>   0.0800 
 43 H       -5.5220    -7.1310    -1.4710 H     1 <1>   0.1500 
 44 H       -2.5720    -7.2570     1.5890 H     1 <1>   0.1500 
 45 H       -4.6790    -9.2740    -2.2530 H     1 <1>   0.1500 
 46 H       -1.8460    -9.3920     0.6830 H     1 <1>   0.1500 
@<TRIPOS>BOND
  1   1   2  2   
  2   1   3  2   
  3   1   4  1   
  4   1   5  1   
  5   4   6  ar  
  6   4   7  ar  
  7   5   8  1   
  8   5  25  1   
  9   5  26  1   
 10   6   9  ar  
 11   6  27  1   
 12   7  10  ar  
 13   7  28  1   
 14   8  11  1   
 15   8  29  1   
 16   8  30  1   
 17   9  12  ar  
 18   9  31  1   
 19  10  12  ar  
 20  10  32  1   
 21  11  13  1   
 22  11  14  1   
 23  12  33  1   
 24  13  15  1   
 25  13  34  1   
 26  13  35  1   
 27  14  16  1   
 28  14  36  1   
 29  14  37  1   
 30  15  16  1   
 31  15  17  1   
 32  15  38  1   
 33  16  18  1   
 34  16  39  1   
 35  17  40  1   
 36  18  19  1   
 37  18  41  1   
 38  18  42  1   
 39  19  20  ar  
 40  19  21  ar  
 41  20  22  ar  
 42  20  43  1   
 43  21  23  ar  
 44  21  44  1   
 45  22  24  ar  
 46  22  45  1   
 47  23  24  ar  
 48  23  46  1   
@<TRIPOS>SUBSTRUCTURE
  1 ****  11 GROUP 4 **** **** 0

# MOE 2024.06 (io_trps.svl 2023.06)
