@<TRIPOS>MOLECULE
NONAME
50 52 1 0 0 
SMALL
USER_CHARGES


@<TRIPOS>ATOM
  1 O       -0.1060    -0.8910    -1.1090 O.2   1 <1>  -0.5700 
  2 C       -0.3200    -1.7020    -0.2290 C.2   1 <1>   0.5440 
  3 N       -1.5390    -1.6650     0.3790 N.am  1 <1>  -0.7300 
  4 C        0.6910    -2.6710     0.1670 C.ar  1 <1>   0.0860 
  5 C       -2.6700    -0.7800    -0.0200 C.3   1 <1>   0.2010 
  6 C        2.0380    -2.4630    -0.1370 C.ar  1 <1>  -0.1500 
  7 C        0.3700    -3.8430     0.8590 C.ar  1 <1>  -0.1500 
  8 C       -4.0130    -1.2080     0.5870 C.2   1 <1>   0.5690 
  9 C        3.0160    -3.3680     0.2350 C.ar  1 <1>  -0.1500 
 10 C        1.3430    -4.7520     1.2350 C.ar  1 <1>  -0.1500 
 11 O       -4.0020    -2.1100     1.3990 O.2   1 <1>  -0.5700 
 12 N       -5.1800    -0.5860     0.2120 N.am  1 <1>  -0.6600 
 13 C        2.6700    -4.5150     0.9250 C.ar  1 <1>  -0.1500 
 14 C       -6.5070    -1.0370     0.7370 C.3   1 <1>   0.1400 
 15 C       -5.2920     0.5100    -0.7890 C.3   1 <1>   0.1400 
 16 C       -7.4020    -1.5590    -0.4160 C.3   1 <1>   0.0000 
 17 C       -6.1430     0.0330    -1.9710 C.3   1 <1>  -0.1600 
 18 C       -8.7850    -1.9900     0.1030 C.3   1 <1>   0.2000 
 19 C       -7.5210    -0.4740    -1.5100 C.3   1 <1>  -0.1600 
 20 C       -6.8500    -2.8870    -0.9660 C.3   1 <1>  -0.1600 
 21 O       -9.2680    -1.1020     1.0660 O.3   1 <1>  -0.5600 
 22 C       -8.5920    -3.3960     0.6830 C.3   1 <1>  -0.1600 
 23 C       -7.3380    -3.9660     0.0050 C.3   1 <1>  -0.1600 
 24 C      -10.6210    -1.2400     1.3670 C.3   1 <1>   0.0400 
 25 H       -1.7910    -2.3170     1.1290 H     1 <1>   0.3700 
 26 H       -2.4500     0.2230     0.2960 H     1 <1>   0.0800 
 27 H       -2.7510    -0.7910    -1.0920 H     1 <1>   0.0800 
 28 H        2.3170    -1.5730    -0.6750 H     1 <1>   0.1500 
 29 H       -0.6550    -4.0540     1.1040 H     1 <1>   0.1500 
 30 H        4.0470    -3.1790    -0.0120 H     1 <1>   0.1500 
 31 H        1.0680    -5.6460     1.7680 H     1 <1>   0.1500 
 32 H        3.4290    -5.2210     1.2160 H     1 <1>   0.1500 
 33 H       -6.3820    -1.8000     1.4840 H     1 <1>   0.0800 
 34 H       -6.9840    -0.1990     1.2140 H     1 <1>   0.0800 
 35 H       -5.7660     1.3570    -0.3220 H     1 <1>   0.0800 
 36 H       -4.3270     0.8260    -1.1400 H     1 <1>   0.0800 
 37 H       -6.2760     0.8480    -2.6610 H     1 <1>   0.0800 
 38 H       -5.6170    -0.7490    -2.4890 H     1 <1>   0.0800 
 39 H       -9.4770    -2.0260    -0.7220 H     1 <1>   0.0800 
 40 H       -8.0670    -0.8550    -2.3550 H     1 <1>   0.0800 
 41 H       -8.0790     0.3550    -1.1090 H     1 <1>   0.0800 
 42 H       -7.2710    -3.0800    -1.9370 H     1 <1>   0.0800 
 43 H       -5.7780    -2.8920    -1.0530 H     1 <1>   0.0800 
 44 H       -8.4310    -3.3420     1.7460 H     1 <1>   0.0800 
 45 H       -9.4500    -4.0090     0.4770 H     1 <1>   0.0800 
 46 H       -6.5800    -4.1520     0.7480 H     1 <1>   0.0800 
 47 H       -7.5480    -4.8860    -0.5120 H     1 <1>   0.0800 
 48 H      -10.8780    -0.4950     2.0990 H     1 <1>   0.0800 
 49 H      -10.8010    -2.2200     1.7730 H     1 <1>   0.0800 
 50 H      -11.2020    -1.0860     0.4740 H     1 <1>   0.0800 
@<TRIPOS>BOND
  1   1   2  2   
  2   2   3  am  
  3   2   4  1   
  4   3   5  1   
  5   3  25  1   
  6   4   6  ar  
  7   4   7  ar  
  8   5   8  1   
  9   5  26  1   
 10   5  27  1   
 11   6   9  ar  
 12   6  28  1   
 13   7  10  ar  
 14   7  29  1   
 15   8  11  2   
 16   8  12  am  
 17   9  13  ar  
 18   9  30  1   
 19  10  13  ar  
 20  10  31  1   
 21  12  14  1   
 22  12  15  1   
 23  13  32  1   
 24  14  16  1   
 25  14  33  1   
 26  14  34  1   
 27  15  17  1   
 28  15  35  1   
 29  15  36  1   
 30  16  18  1   
 31  16  19  1   
 32  16  20  1   
 33  17  19  1   
 34  17  37  1   
 35  17  38  1   
 36  18  21  1   
 37  18  22  1   
 38  18  39  1   
 39  19  40  1   
 40  19  41  1   
 41  20  23  1   
 42  20  42  1   
 43  20  43  1   
 44  21  24  1   
 45  22  23  1   
 46  22  44  1   
 47  22  45  1   
 48  23  46  1   
 49  23  47  1   
 50  24  48  1   
 51  24  49  1   
 52  24  50  1   
@<TRIPOS>SUBSTRUCTURE
  1 ****   8 GROUP 4 **** **** 0

# MOE 2024.06 (io_trps.svl 2023.06)
