@<TRIPOS>MOLECULE
NONAME
50 53 1 0 0 
SMALL
USER_CHARGES


@<TRIPOS>ATOM
  1 O        0.0010     1.1690    -0.6630 O.2   1 <1>  -0.5700 
  2 C       -0.2690     2.3470    -0.6300 C.2   1 <1>   0.5690 
  3 N       -1.1800     2.8950     0.2340 N.am  1 <1>  -0.5090 
  4 C        0.4500     3.2790    -1.5970 C.3   1 <1>   0.1810 
  5 C       -1.4570     4.3690     0.2280 C.3   1 <1>   0.3640 
  6 C       -1.7310     2.1280     1.3800 C.3   1 <1>   0.0490 
  7 O        0.7330     4.5070    -0.9790 O.3   1 <1>  -0.5600 
  8 C       -2.8440     4.6430    -0.3520 C.ar  1 <1>  -0.1440 
  9 C       -0.4120     5.2300    -0.5460 C.3   1 <1>   0.2610 
 10 C       -2.4900     0.8680     1.1020 C.3   1 <1>  -0.2000 
 11 C       -3.2080     2.0680     1.6280 C.3   1 <1>  -0.2000 
 12 C       -3.3440     3.9160    -1.4270 C.ar  1 <1>   0.1600 
 13 C       -3.6310     5.6440     0.1840 C.ar  1 <1>  -0.1500 
 14 C        0.0090     6.4270     0.3150 C.2   1 <1>   0.5690 
 15 N       -4.5220     4.1120    -1.9970 N.ar  1 <1>  -0.6200 
 16 C       -4.8640     5.8580    -0.3930 C.ar  1 <1>  -0.1500 
 17 O       -0.8420     7.1350     0.8010 O.2   1 <1>  -0.5700 
 18 N        1.3320     6.6690     0.5200 N.am  1 <1>  -0.7300 
 19 C       -5.2550     5.0760    -1.4660 C.ar  1 <1>   0.1600 
 20 C        1.9030     7.7710     1.3180 C.3   1 <1>   0.1400 
 21 C        2.7110     8.6850     0.3990 C.3   1 <1>  -0.1600 
 22 C        3.2610     9.8880     1.1750 C.3   1 <1>   0.0960 
 23 N        4.0700    10.7480     0.2910 N.pl3 1 <1>   0.0480 
 24 C        3.6660    11.8310    -0.4110 C.2   1 <1>   0.0360 
 25 C        5.3800    10.6300     0.0100 C.2   1 <1>  -0.3020 
 26 N        4.6060    12.3940    -1.0990 N.2   1 <1>  -0.5650 
 27 C        5.6880    11.6380    -0.8350 C.2   1 <1>   0.0770 
 28 H       -0.1530     3.4530    -2.4700 H     1 <1>   0.0800 
 29 H        1.3830     2.8360    -1.8940 H     1 <1>   0.0800 
 30 H       -1.4610     4.6910     1.2550 H     1 <1>   0.0800 
 31 H       -1.0670     2.1310     2.2300 H     1 <1>   0.1000 
 32 H       -0.8750     5.6300    -1.4300 H     1 <1>   0.0800 
 33 H       -2.6400     0.5760     0.0770 H     1 <1>   0.1000 
 34 H       -2.3440     0.0260     1.7540 H     1 <1>   0.1000 
 35 H       -3.5630     2.0350     2.6420 H     1 <1>   0.1000 
 36 H       -3.9090     2.5440     0.9660 H     1 <1>   0.1000 
 37 H       -2.7500     3.1240    -1.8480 H     1 <1>   0.1500 
 38 H       -3.3040     6.2450     1.0170 H     1 <1>   0.1500 
 39 H       -5.5170     6.6240    -0.0170 H     1 <1>   0.1500 
 40 H        1.9930     6.0240     0.0700 H     1 <1>   0.3700 
 41 H       -6.2200     5.2540    -1.9100 H     1 <1>   0.1500 
 42 H        1.1080     8.3280     1.7860 H     1 <1>   0.0800 
 43 H        2.5310     7.3600     2.0910 H     1 <1>   0.0800 
 44 H        2.0740     9.0390    -0.3930 H     1 <1>   0.0800 
 45 H        3.5300     8.1300    -0.0250 H     1 <1>   0.0800 
 46 H        3.8820     9.5570     1.9880 H     1 <1>   0.0800 
 47 H        2.4520    10.4720     1.5780 H     1 <1>   0.0800 
 48 H        2.6490    12.1800    -0.3870 H     1 <1>   0.1500 
 49 H        6.0090     9.8580     0.4130 H     1 <1>   0.1500 
 50 H        6.6450    11.8630    -1.2750 H     1 <1>   0.1500 
@<TRIPOS>BOND
  1   1   2  2   
  2   2   3  am  
  3   2   4  1   
  4   3   5  1   
  5   3   6  1   
  6   4   7  1   
  7   4  28  1   
  8   4  29  1   
  9   5   8  1   
 10   5   9  1   
 11   5  30  1   
 12   6  10  1   
 13   6  11  1   
 14   6  31  1   
 15   7   9  1   
 16   8  12  ar  
 17   8  13  ar  
 18   9  14  1   
 19   9  32  1   
 20  10  11  1   
 21  10  33  1   
 22  10  34  1   
 23  11  35  1   
 24  11  36  1   
 25  12  15  ar  
 26  12  37  1   
 27  13  16  ar  
 28  13  38  1   
 29  14  17  2   
 30  14  18  am  
 31  15  19  ar  
 32  16  19  ar  
 33  16  39  1   
 34  18  20  1   
 35  18  40  1   
 36  19  41  1   
 37  20  21  1   
 38  20  42  1   
 39  20  43  1   
 40  21  22  1   
 41  21  44  1   
 42  21  45  1   
 43  22  23  1   
 44  22  46  1   
 45  22  47  1   
 46  23  24  1   
 47  23  25  1   
 48  24  26  2   
 49  24  48  1   
 50  25  27  2   
 51  25  49  1   
 52  26  27  1   
 53  27  50  1   
@<TRIPOS>SUBSTRUCTURE
  1 ****  14 GROUP 4 **** **** 0

# MOE 2024.06 (io_trps.svl 2023.06)
