@<TRIPOS>MOLECULE
NONAME
54 56 1 0 0 
SMALL
USER_CHARGES


@<TRIPOS>ATOM
  1 O       -0.0100     0.7690    -1.4180 O.2   1 <1>  -0.5700 
  2 C       -0.1060     1.8740    -0.9340 C.2   1 <1>   0.5690 
  3 N       -1.1570     2.2400    -0.1330 N.am  1 <1>  -0.6600 
  4 C        0.9980     2.8790    -1.2620 C.3   1 <1>   0.1810 
  5 C       -1.2720     3.6670     0.3600 C.3   1 <1>   0.3640 
  6 C       -2.0590     1.1810     0.4240 C.3   1 <1>   0.2200 
  7 O        1.0730     3.9290    -0.3330 O.3   1 <1>  -0.5600 
  8 C       -2.6140     4.2770    -0.0480 C.ar  1 <1>  -0.1440 
  9 C       -0.1520     4.6110    -0.1570 C.3   1 <1>   0.2610 
 10 C       -3.3650     1.1020    -0.3630 C.3   1 <1>  -0.2400 
 11 C       -2.3230     1.3620     1.9200 C.3   1 <1>  -0.2400 
 12 C       -3.3900     4.9360     0.8950 C.ar  1 <1>  -0.1500 
 13 C       -3.0650     4.2090    -1.3610 C.ar  1 <1>  -0.1500 
 14 C        0.0320     5.8500     0.7420 C.2   1 <1>   0.5690 
 15 C       -4.5960     5.5110     0.5370 C.ar  1 <1>  -0.1500 
 16 C       -4.2710     4.7850    -1.7210 C.ar  1 <1>  -0.1500 
 17 O       -0.4260     5.8270     1.8650 O.2   1 <1>  -0.5700 
 18 N        0.6910     6.9720     0.2790 N.am  1 <1>  -0.6600 
 19 C       -5.0380     5.4360    -0.7720 C.ar  1 <1>  -0.1500 
 20 C        0.8550     8.1790     1.1390 C.3   1 <1>   0.1400 
 21 C        1.4010     7.0630    -1.0300 C.3   1 <1>   0.1400 
 22 C        2.3420     8.4370     1.3950 C.3   1 <1>  -0.1600 
 23 C        2.8910     7.3050    -0.7880 C.3   1 <1>  -0.1600 
 24 C        3.1100     8.5490     0.0730 C.3   1 <1>   0.2000 
 25 O        4.4760     8.6340     0.3270 O.3   1 <1>  -0.5600 
 26 C        4.9510     9.9020     0.6550 C.3   1 <1>   0.0400 
 27 H        0.8300     3.2940    -2.2390 H     1 <1>   0.0800 
 28 H        1.9460     2.3740    -1.2580 H     1 <1>   0.0800 
 29 H       -1.2070     3.6400     1.4320 H     1 <1>   0.0800 
 30 H       -1.5650     0.2290     0.3120 H     1 <1>   0.0800 
 31 H       -0.4510     4.9700    -1.1230 H     1 <1>   0.0800 
 32 H       -3.9930     1.9500    -0.1650 H     1 <1>   0.0800 
 33 H       -3.9050     0.2190    -0.0760 H     1 <1>   0.0800 
 34 H       -3.1570     1.0420    -1.4160 H     1 <1>   0.0800 
 35 H       -2.9260     2.2310     2.1070 H     1 <1>   0.0800 
 36 H       -1.3930     1.4380     2.4540 H     1 <1>   0.0800 
 37 H       -2.8530     0.5050     2.2940 H     1 <1>   0.0800 
 38 H       -3.0540     5.0110     1.9160 H     1 <1>   0.1500 
 39 H       -2.4830     3.6970    -2.1070 H     1 <1>   0.1500 
 40 H       -5.1890     6.0190     1.2770 H     1 <1>   0.1500 
 41 H       -4.6150     4.7230    -2.7390 H     1 <1>   0.1500 
 42 H       -5.9760     5.8840    -1.0500 H     1 <1>   0.1500 
 43 H        0.4150     9.0250     0.6400 H     1 <1>   0.0800 
 44 H        0.3480     8.0530     2.0810 H     1 <1>   0.0800 
 45 H        1.2850     6.1650    -1.6070 H     1 <1>   0.0800 
 46 H        0.9850     7.8790    -1.5960 H     1 <1>   0.0800 
 47 H        2.7380     7.6240     1.9770 H     1 <1>   0.0800 
 48 H        2.4400     9.3440     1.9610 H     1 <1>   0.0800 
 49 H        3.3900     7.4310    -1.7310 H     1 <1>   0.0800 
 50 H        3.3060     6.4440    -0.2940 H     1 <1>   0.0800 
 51 H        2.7990     9.4220    -0.4760 H     1 <1>   0.0800 
 52 H        6.0170     9.8320     0.7860 H     1 <1>   0.0800 
 53 H        4.4990    10.2310     1.5740 H     1 <1>   0.0800 
 54 H        4.7300    10.5850    -0.1460 H     1 <1>   0.0800 
@<TRIPOS>BOND
  1   1   2  2   
  2   2   3  am  
  3   2   4  1   
  4   3   5  1   
  5   3   6  1   
  6   4   7  1   
  7   4  27  1   
  8   4  28  1   
  9   5   8  1   
 10   5   9  1   
 11   5  29  1   
 12   6  10  1   
 13   6  11  1   
 14   6  30  1   
 15   7   9  1   
 16   8  12  ar  
 17   8  13  ar  
 18   9  14  1   
 19   9  31  1   
 20  10  32  1   
 21  10  33  1   
 22  10  34  1   
 23  11  35  1   
 24  11  36  1   
 25  11  37  1   
 26  12  15  ar  
 27  12  38  1   
 28  13  16  ar  
 29  13  39  1   
 30  14  17  2   
 31  14  18  am  
 32  15  19  ar  
 33  15  40  1   
 34  16  19  ar  
 35  16  41  1   
 36  18  20  1   
 37  18  21  1   
 38  19  42  1   
 39  20  22  1   
 40  20  43  1   
 41  20  44  1   
 42  21  23  1   
 43  21  45  1   
 44  21  46  1   
 45  22  24  1   
 46  22  47  1   
 47  22  48  1   
 48  23  24  1   
 49  23  49  1   
 50  23  50  1   
 51  24  25  1   
 52  24  51  1   
 53  25  26  1   
 54  26  52  1   
 55  26  53  1   
 56  26  54  1   
@<TRIPOS>SUBSTRUCTURE
  1 ****   9 GROUP 4 **** **** 0

# MOE 2024.06 (io_trps.svl 2023.06)
