@<TRIPOS>MOLECULE
NONAME
42 45 1 0 0 
SMALL
USER_CHARGES


@<TRIPOS>ATOM
  1 O        0.0760     0.1540    -0.1900 O.3   1 <1>  -0.5600 
  2 C        1.2660    -0.3570    -0.7280 C.3   1 <1>   0.3440 
  3 C       -0.0850     1.5290    -0.3790 C.3   1 <1>   0.2950 
  4 C        1.3400    -1.8580    -0.4660 C.ar  1 <1>  -0.1440 
  5 C        2.4800     0.3620    -0.1020 C.3   1 <1>   0.1100 
  6 C       -1.4230     1.9260     0.2530 C.3   1 <1>  -0.1950 
  7 C        1.0930     2.2990     0.2560 C.3   1 <1>   0.1100 
  8 C        1.8980    -2.6980    -1.4200 C.ar  1 <1>  -0.1500 
  9 C        0.8720    -2.4050     0.7210 C.ar  1 <1>  -0.1500 
 10 N        2.4020     1.8320    -0.2650 N.3   1 <1>  -0.8100 
 11 C       -2.7160     1.7160    -0.4700 C.3   1 <1>  -0.2000 
 12 C       -2.1940     3.1080    -0.2480 C.3   1 <1>  -0.2000 
 13 C        1.9900    -4.0600    -1.1900 C.ar  1 <1>  -0.1500 
 14 C        0.9620    -3.7670     0.9530 C.ar  1 <1>  -0.1500 
 15 C        3.5130     2.4950     0.4520 C.3   1 <1>   0.2900 
 16 C        1.5230    -4.5950    -0.0030 C.ar  1 <1>  -0.1500 
 17 C        3.5780     3.9730     0.1070 C.2   1 <1>   0.0070 
 18 N        3.8200     4.9250     0.9510 N.2   1 <1>  -0.5650 
 19 N        3.3790     4.4080    -1.1540 N.pl3 1 <1>   0.0330 
 20 C        3.7760     6.0410     0.1970 C.2   1 <1>   0.0770 
 21 C        3.5070     5.7450    -1.0930 C.2   1 <1>  -0.3020 
 22 H        1.2490    -0.1800    -1.7890 H     1 <1>   0.0800 
 23 H       -0.1160     1.7210    -1.4380 H     1 <1>   0.0800 
 24 H        3.3770    -0.0040    -0.5710 H     1 <1>   0.0800 
 25 H        2.5250     0.1070     0.9440 H     1 <1>   0.0800 
 26 H       -1.4270     1.7590     1.3160 H     1 <1>   0.1000 
 27 H        1.0530     2.1690     1.3240 H     1 <1>   0.0800 
 28 H        0.9710     3.3480     0.0480 H     1 <1>   0.0800 
 29 H        2.2650    -2.2970    -2.3490 H     1 <1>   0.1500 
 30 H        0.4290    -1.7670     1.4670 H     1 <1>   0.1500 
 31 H       -2.6870     1.2950    -1.4600 H     1 <1>   0.1000 
 32 H       -3.5660     1.3770     0.0960 H     1 <1>   0.1000 
 33 H       -2.6950     3.7390     0.4660 H     1 <1>   0.1000 
 34 H       -1.8300     3.6580    -1.0990 H     1 <1>   0.1000 
 35 H        2.4230    -4.7050    -1.9350 H     1 <1>   0.1500 
 36 H        0.5940    -4.1800     1.8750 H     1 <1>   0.1500 
 37 H        3.3950     2.3800     1.5170 H     1 <1>   0.0800 
 38 H        4.4460     2.0430     0.1660 H     1 <1>   0.0800 
 39 H        1.5920    -5.6540     0.1760 H     1 <1>   0.1500 
 40 H        3.1500     3.8070    -1.9520 H     1 <1>   0.2700 
 41 H        3.9420     7.0140     0.6310 H     1 <1>   0.1500 
 42 H        3.4010     6.3930    -1.9440 H     1 <1>   0.1500 
@<TRIPOS>BOND
  1   1   2  1   
  2   1   3  1   
  3   2   4  1   
  4   2   5  1   
  5   2  22  1   
  6   3   6  1   
  7   3   7  1   
  8   3  23  1   
  9   4   8  ar  
 10   4   9  ar  
 11   5  10  1   
 12   5  24  1   
 13   5  25  1   
 14   6  11  1   
 15   6  12  1   
 16   6  26  1   
 17   7  10  1   
 18   7  27  1   
 19   7  28  1   
 20   8  13  ar  
 21   8  29  1   
 22   9  14  ar  
 23   9  30  1   
 24  10  15  1   
 25  11  12  1   
 26  11  31  1   
 27  11  32  1   
 28  12  33  1   
 29  12  34  1   
 30  13  16  ar  
 31  13  35  1   
 32  14  16  ar  
 33  14  36  1   
 34  15  17  1   
 35  15  37  1   
 36  15  38  1   
 37  16  39  1   
 38  17  18  2   
 39  17  19  1   
 40  18  20  1   
 41  19  21  1   
 42  19  40  1   
 43  20  21  2   
 44  20  41  1   
 45  21  42  1   
@<TRIPOS>SUBSTRUCTURE
  1 ****   5 GROUP 4 **** **** 0

# MOE 2024.06 (io_trps.svl 2023.06)
