@<TRIPOS>MOLECULE
NONAME
53 56 1 0 0 
SMALL
USER_CHARGES


@<TRIPOS>ATOM
  1 O       -1.3050     0.0620     0.6000 O.2   1 <1>  -0.5700 
  2 C       -2.1840     0.6780     0.0180 C.2   1 <1>   0.5440 
  3 N       -2.9450    -0.0390    -0.8950 N.am  1 <1>  -0.6600 
  4 C       -2.3630     2.1050     0.3210 C.ar  1 <1>   0.3960 
  5 C       -4.4320    -0.0540    -0.9840 C.3   1 <1>   0.2200 
  6 C       -2.2960    -1.1350    -1.6700 C.3   1 <1>   0.0600 
  7 N       -2.7770     2.9650    -0.5910 N.ar  1 <1>  -0.6200 
  8 C       -2.0620     2.5460     1.6310 C.ar  1 <1>  -0.1500 
  9 C       -4.9610     0.9020    -2.0500 C.3   1 <1>  -0.1600 
 10 C       -5.1600     0.2980     0.3110 C.3   1 <1>  -0.1600 
 11 C       -2.8140     4.2810    -0.2880 C.ar  1 <1>   0.3100 
 12 C       -2.1560     3.8570     1.9840 C.ar  1 <1>  -0.1500 
 13 C       -6.3160     1.4230    -1.5380 C.3   1 <1>  -0.0800 
 14 C       -6.5250     0.8310    -0.1360 C.3   1 <1>  -0.0800 
 15 C       -2.5390     4.7810     1.0010 C.ar  1 <1>   0.0000 
 16 C       -3.1430     5.1970    -1.3020 C.ar  1 <1>  -0.1500 
 17 C       -6.3900     2.9530    -1.3810 C.3   1 <1>  -0.1600 
 18 C       -7.0160     1.9820     0.7420 C.3   1 <1>  -0.1600 
 19 C       -2.6350     6.1660     1.2360 C.ar  1 <1>  -0.1500 
 20 C       -3.2190     6.5430    -1.0580 C.ar  1 <1>  -0.1500 
 21 C       -6.3520     3.2080     0.1270 C.3   1 <1>   0.4230 
 22 C       -2.9680     7.0310     0.2280 C.ar  1 <1>  -0.1500 
 23 N       -6.9940     4.4830     0.5750 N.4   1 <1>  -0.9590 
 24 C       -8.4160     4.6770     0.1420 C.3   1 <1>   0.2630 
 25 C       -6.1630     5.6520     0.1600 C.3   1 <1>   0.2630 
 26 H       -4.7510    -1.0480    -1.2550 H     1 <1>   0.0800 
 27 H       -2.6480    -1.1260    -2.6860 H     1 <1>   0.0800 
 28 H       -2.5240    -2.0840    -1.2170 H     1 <1>   0.0800 
 29 H       -1.2270    -1.0040    -1.6760 H     1 <1>   0.0800 
 30 H       -1.7440     1.8100     2.3490 H     1 <1>   0.1500 
 31 H       -4.2650     1.6990    -2.2250 H     1 <1>   0.0800 
 32 H       -5.0920     0.3700    -2.9750 H     1 <1>   0.0800 
 33 H       -5.2670    -0.5720     0.9350 H     1 <1>   0.0800 
 34 H       -4.6390     1.0530     0.8600 H     1 <1>   0.0800 
 35 H       -1.9260     4.1950     2.9800 H     1 <1>   0.1500 
 36 H       -7.1010     1.0870    -2.1960 H     1 <1>   0.0800 
 37 H       -7.2370     0.0220    -0.1670 H     1 <1>   0.0800 
 38 H       -3.3180     4.8040    -2.2880 H     1 <1>   0.1500 
 39 H       -7.3160     3.2820    -1.8140 H     1 <1>   0.0800 
 40 H       -5.5780     3.4530    -1.8760 H     1 <1>   0.0800 
 41 H       -6.7400     1.8440     1.7730 H     1 <1>   0.0800 
 42 H       -8.0850     2.0320     0.6580 H     1 <1>   0.0800 
 43 H       -2.4230     6.5390     2.2250 H     1 <1>   0.1500 
 44 H       -3.4570     7.2370    -1.8480 H     1 <1>   0.1500 
 45 H       -5.3170     3.2040     0.4320 H     1 <1>   0.0800 
 46 H       -3.0230     8.0930     0.4070 H     1 <1>   0.1500 
 47 H       -6.9860     4.4510     1.6040 H     1 <1>   0.4500 
 48 H       -8.4780     4.7520    -0.9310 H     1 <1>   0.0800 
 49 H       -8.8150     5.5820     0.5690 H     1 <1>   0.0800 
 50 H       -9.0280     3.8520     0.4660 H     1 <1>   0.0800 
 51 H       -6.1040     5.7090    -0.9150 H     1 <1>   0.0800 
 52 H       -5.1640     5.5540     0.5520 H     1 <1>   0.0800 
 53 H       -6.5880     6.5690     0.5340 H     1 <1>   0.0800 
@<TRIPOS>BOND
  1   1   2  2   
  2   2   3  am  
  3   2   4  1   
  4   3   5  1   
  5   3   6  1   
  6   4   7  ar  
  7   4   8  ar  
  8   5   9  1   
  9   5  10  1   
 10   5  26  1   
 11   6  27  1   
 12   6  28  1   
 13   6  29  1   
 14   7  11  ar  
 15   8  12  ar  
 16   8  30  1   
 17   9  13  1   
 18   9  31  1   
 19   9  32  1   
 20  10  14  1   
 21  10  33  1   
 22  10  34  1   
 23  11  15  ar  
 24  11  16  ar  
 25  12  15  ar  
 26  12  35  1   
 27  13  14  1   
 28  13  17  1   
 29  13  36  1   
 30  14  18  1   
 31  14  37  1   
 32  15  19  ar  
 33  16  20  ar  
 34  16  38  1   
 35  17  21  1   
 36  17  39  1   
 37  17  40  1   
 38  18  21  1   
 39  18  41  1   
 40  18  42  1   
 41  19  22  ar  
 42  19  43  1   
 43  20  22  ar  
 44  20  44  1   
 45  21  23  1   
 46  21  45  1   
 47  22  46  1   
 48  23  24  1   
 49  23  25  1   
 50  23  47  1   
 51  24  48  1   
 52  24  49  1   
 53  24  50  1   
 54  25  51  1   
 55  25  52  1   
 56  25  53  1   
@<TRIPOS>SUBSTRUCTURE
  1 ****   7 GROUP 4 **** **** 0

# MOE 2024.06 (io_trps.svl 2023.06)
