@<TRIPOS>MOLECULE
NONAME
50 53 1 0 0 
SMALL
USER_CHARGES


@<TRIPOS>ATOM
  1 O       -0.2280     0.2780     0.5200 O.2   1 <1>  -0.5700 
  2 C       -1.2500     0.9380     0.4990 C.2   1 <1>   0.7150 
  3 N       -2.4570     0.2960     0.3580 N.am  1 <1>  -0.6600 
  4 C       -1.2020     2.3710     0.6200 C.2   1 <1>  -0.2370 
  5 C       -3.6390     0.9290    -0.2820 C.3   1 <1>   0.1400 
  6 C       -2.5450    -1.1830     0.2630 C.3   1 <1>   0.1400 
  7 N       -2.0080     3.0400     1.5080 N.pl3 1 <1>   0.0330 
  8 C       -0.4360     3.3020    -0.0250 C.2   1 <1>  -0.1810 
  9 C       -4.3470    -0.2130    -1.0090 C.3   1 <1>   0.2000 
 10 C       -3.9580    -1.4760    -0.2450 C.3   1 <1>  -0.0800 
 11 C       -1.7710     4.3840     1.4140 C.ar  1 <1>  -0.1520 
 12 C       -0.7840     4.5800     0.4560 C.ar  1 <1>   0.0000 
 13 C        0.6230     3.0590    -1.0830 C.3   1 <1>  -0.0590 
 14 O       -5.7230    -0.0520    -1.0020 O.3   1 <1>  -0.6800 
 15 C       -4.0530    -2.7500    -1.0980 C.3   1 <1>   0.0200 
 16 C       -2.3390     5.4620     2.0960 C.ar  1 <1>  -0.1500 
 17 C       -0.3510     5.8800     0.1650 C.ar  1 <1>  -0.1500 
 18 C       -3.5770    -3.9580    -0.3160 C.2   1 <1>  -0.0400 
 19 C       -1.9060     6.7330     1.8000 C.ar  1 <1>  -0.1500 
 20 C       -0.9120     6.9500     0.8360 C.ar  1 <1>   0.0820 
 21 O       -4.1970    -4.3140     0.7780 O.3   1 <1>  -0.0190 
 22 C       -2.5630    -4.8140    -0.5130 C.2   1 <1>  -0.1500 
 23 O       -0.5620     8.2500     0.6270 O.3   1 <1>  -0.3620 
 24 N       -3.6490    -5.3590     1.3260 N.2   1 <1>  -0.4100 
 25 C       -2.6620    -5.6840     0.5700 C.2   1 <1>   0.1080 
 26 C        0.4440     8.5780    -0.3040 C.3   1 <1>   0.0400 
 27 C       -1.7400    -6.8530     0.8300 C.3   1 <1>  -0.0590 
 28 H       -4.2730     1.3460     0.4810 H     1 <1>   0.0800 
 29 H       -3.3370     1.6950    -0.9760 H     1 <1>   0.0800 
 30 H       -1.8050    -1.5370    -0.4350 H     1 <1>   0.0800 
 31 H       -2.3700    -1.6380     1.2240 H     1 <1>   0.0800 
 32 H       -2.6510     2.5960     2.1700 H     1 <1>   0.2700 
 33 H       -4.0140    -0.2520    -2.0330 H     1 <1>   0.0800 
 34 H       -4.5900    -1.5790     0.6200 H     1 <1>   0.0800 
 35 H        0.3680     3.5840    -1.9850 H     1 <1>   0.0800 
 36 H        0.7070     2.0110    -1.3040 H     1 <1>   0.0800 
 37 H        1.5760     3.4100    -0.7290 H     1 <1>   0.0800 
 38 H       -6.0740    -0.1190    -0.0940 H     1 <1>   0.4000 
 39 H       -3.4550    -2.6450    -1.9860 H     1 <1>   0.0800 
 40 H       -5.0740    -2.9070    -1.3990 H     1 <1>   0.0800 
 41 H       -3.1000     5.2950     2.8370 H     1 <1>   0.1500 
 42 H        0.4120     5.9980    -0.5780 H     1 <1>   0.1500 
 43 H       -2.3200     7.5870     2.3040 H     1 <1>   0.1500 
 44 H       -1.8300    -4.8510    -1.2970 H     1 <1>   0.1500 
 45 H        0.5640     9.6460    -0.3040 H     1 <1>   0.0800 
 46 H        0.1380     8.2440    -1.2800 H     1 <1>   0.0800 
 47 H        1.3630     8.1060    -0.0050 H     1 <1>   0.0800 
 48 H       -1.7720    -7.5360     0.0020 H     1 <1>   0.0800 
 49 H       -2.0470    -7.3720     1.7210 H     1 <1>   0.0800 
 50 H       -0.7330    -6.5010     0.9620 H     1 <1>   0.0800 
@<TRIPOS>BOND
  1   1   2  2   
  2   2   3  am  
  3   2   4  1   
  4   3   5  1   
  5   3   6  1   
  6   4   7  1   
  7   4   8  2   
  8   5   9  1   
  9   5  28  1   
 10   5  29  1   
 11   6  10  1   
 12   6  30  1   
 13   6  31  1   
 14   7  11  1   
 15   7  32  1   
 16   8  12  1   
 17   8  13  1   
 18   9  10  1   
 19   9  14  1   
 20   9  33  1   
 21  10  15  1   
 22  10  34  1   
 23  11  12  ar  
 24  11  16  ar  
 25  12  17  ar  
 26  13  35  1   
 27  13  36  1   
 28  13  37  1   
 29  14  38  1   
 30  15  18  1   
 31  15  39  1   
 32  15  40  1   
 33  16  19  ar  
 34  16  41  1   
 35  17  20  ar  
 36  17  42  1   
 37  18  21  1   
 38  18  22  2   
 39  19  20  ar  
 40  19  43  1   
 41  20  23  1   
 42  21  24  1   
 43  22  25  1   
 44  22  44  1   
 45  23  26  1   
 46  24  25  2   
 47  25  27  1   
 48  26  45  1   
 49  26  46  1   
 50  26  47  1   
 51  27  48  1   
 52  27  49  1   
 53  27  50  1   
@<TRIPOS>SUBSTRUCTURE
  1 ****   3 GROUP 4 **** **** 0

# MOE 2024.06 (io_trps.svl 2023.06)
