@<TRIPOS>MOLECULE
NONAME
44 46 1 0 0 
SMALL
USER_CHARGES


@<TRIPOS>ATOM
  1 F       -1.8830     1.6750    -1.4990 F     1 <1>  -0.3400 
  2 C       -1.4450     2.9120    -1.3150 C.3   1 <1>   0.8800 
  3 F       -1.5920     3.5280    -2.4810 F     1 <1>  -0.3400 
  4 O       -0.0710     2.8470    -1.0090 O.3   1 <1>  -0.3630 
  5 C        0.6170     3.9280    -0.5760 C.ar  1 <1>   0.0830 
  6 C        0.1110     5.2250    -0.5580 C.ar  1 <1>  -0.1500 
  7 C        1.9070     3.7060    -0.1250 C.ar  1 <1>  -0.1500 
  8 C        0.8940     6.2670    -0.0960 C.ar  1 <1>  -0.1500 
  9 C        2.6820     4.7530     0.3360 C.ar  1 <1>  -0.1500 
 10 C        2.2010     6.0640     0.3560 C.ar  1 <1>   0.0860 
 11 C        3.0320     7.1610     0.8230 C.2   1 <1>   0.5440 
 12 O        3.9730     6.9720     1.5710 O.2   1 <1>  -0.5700 
 13 N        2.8530     8.4510     0.3850 N.am  1 <1>  -0.6600 
 14 C        3.0540     9.5900     1.3600 C.3   1 <1>   0.2200 
 15 C        2.9580     8.7220    -1.0770 C.3   1 <1>   0.1400 
 16 C        2.3160    10.8720     0.9410 C.3   1 <1>   0.1200 
 17 C        4.5550     9.8910     1.5960 C.3   1 <1>   0.3430 
 18 C        3.8640     9.9170    -1.4300 C.3   1 <1>  -0.0800 
 19 O        3.1160    11.6440     0.0940 O.3   1 <1>  -0.5600 
 20 N        5.4290     9.2840     0.5380 N.4   1 <1>  -0.9590 
 21 C        3.1410    11.2610    -1.2390 C.3   1 <1>   0.1200 
 22 C        5.2860     9.9100    -0.8190 C.3   1 <1>   0.3430 
 23 C        6.8480     9.2200     0.9830 C.3   1 <1>   0.2630 
 24 H       -2.0270     3.3990    -0.5530 H     1 <1>   0.0800 
 25 H       -0.8830     5.4470    -0.9030 H     1 <1>   0.1500 
 26 H        2.3000     2.7030    -0.1350 H     1 <1>   0.1500 
 27 H        0.4820     7.2610    -0.0820 H     1 <1>   0.1500 
 28 H        3.6800     4.5530     0.6880 H     1 <1>   0.1500 
 29 H        2.6300     9.2850     2.3010 H     1 <1>   0.0800 
 30 H        3.3440     7.8430    -1.5670 H     1 <1>   0.0800 
 31 H        1.9690     8.8920    -1.4690 H     1 <1>   0.0800 
 32 H        2.1320    11.4730     1.8150 H     1 <1>   0.0800 
 33 H        1.3690    10.6610     0.4740 H     1 <1>   0.0800 
 34 H        4.8220     9.4700     2.5510 H     1 <1>   0.0800 
 35 H        4.7140    10.9550     1.6520 H     1 <1>   0.0800 
 36 H        4.0110     9.8530    -2.4940 H     1 <1>   0.0800 
 37 H        5.0580     8.3130     0.4890 H     1 <1>   0.4500 
 38 H        2.1310    11.2280    -1.6120 H     1 <1>   0.0800 
 39 H        3.6650    12.0360    -1.7730 H     1 <1>   0.0800 
 40 H        5.6430    10.9270    -0.7770 H     1 <1>   0.0800 
 41 H        5.9290     9.3750    -1.4980 H     1 <1>   0.0800 
 42 H        7.2460    10.2140     1.1070 H     1 <1>   0.0800 
 43 H        7.4440     8.6940     0.2560 H     1 <1>   0.0800 
 44 H        6.9170     8.6970     1.9240 H     1 <1>   0.0800 
@<TRIPOS>BOND
  1   1   2  1   
  2   2   3  1   
  3   2   4  1   
  4   2  24  1   
  5   4   5  1   
  6   5   6  ar  
  7   5   7  ar  
  8   6   8  ar  
  9   6  25  1   
 10   7   9  ar  
 11   7  26  1   
 12   8  10  ar  
 13   8  27  1   
 14   9  10  ar  
 15   9  28  1   
 16  10  11  1   
 17  11  12  2   
 18  11  13  am  
 19  13  14  1   
 20  13  15  1   
 21  14  16  1   
 22  14  17  1   
 23  14  29  1   
 24  15  18  1   
 25  15  30  1   
 26  15  31  1   
 27  16  19  1   
 28  16  32  1   
 29  16  33  1   
 30  17  20  1   
 31  17  34  1   
 32  17  35  1   
 33  18  21  1   
 34  18  22  1   
 35  18  36  1   
 36  19  21  1   
 37  20  22  1   
 38  20  23  1   
 39  20  37  1   
 40  21  38  1   
 41  21  39  1   
 42  22  40  1   
 43  22  41  1   
 44  23  42  1   
 45  23  43  1   
 46  23  44  1   
@<TRIPOS>SUBSTRUCTURE
  1 ****  10 GROUP 4 **** **** 0

# MOE 2024.06 (io_trps.svl 2023.06)
