@<TRIPOS>MOLECULE
NONAME
55 58 1 0 0 
SMALL
USER_CHARGES


@<TRIPOS>ATOM
  1 O        1.7730    -0.1730     0.2310 O.3   1 <1>  -0.5600 
  2 C        2.6060    -1.1490    -0.3590 C.3   1 <1>   0.4240 
  3 C        0.3950    -0.2790     0.0080 C.3   1 <1>   0.1200 
  4 C        1.9590    -2.5470    -0.3600 C.ar  1 <1>  -0.1440 
  5 C        3.8830    -1.1560     0.4920 C.3   1 <1>  -0.1600 
  6 C        2.9560    -0.6670    -1.7820 C.3   1 <1>  -0.1600 
  7 C       -0.1180    -1.5660     0.6460 C.3   1 <1>  -0.0160 
  8 C        0.6730    -2.7470     0.1190 C.ar  1 <1>  -0.1440 
  9 C        2.6560    -3.6470    -0.8420 C.ar  1 <1>  -0.1500 
 10 C        4.5480     0.2220     0.5830 C.3   1 <1>   0.3430 
 11 C        3.9970     0.4580    -1.8160 C.3   1 <1>   0.3430 
 12 C        0.1100    -4.0130     0.1190 C.ar  1 <1>  -0.1500 
 13 C        2.1130    -4.9200    -0.8560 C.ar  1 <1>   0.0830 
 14 N        4.0570     1.1320    -0.4950 N.4   1 <1>  -0.9590 
 15 C        0.8110    -5.1160    -0.3630 C.ar  1 <1>   0.0830 
 16 O        2.9540    -5.8640    -1.3710 O.3   1 <1>  -0.3630 
 17 C        4.7370     2.4560    -0.5500 C.3   1 <1>   0.3430 
 18 O        0.2490    -6.3610    -0.3590 O.3   1 <1>  -0.3620 
 19 C        2.6140    -7.2260    -1.4980 C.3   1 <1>   0.0400 
 20 C        4.4760     3.3000     0.7090 C.3   1 <1>  -0.0800 
 21 C       -1.0310    -6.6180     0.1750 C.3   1 <1>   0.0400 
 22 C        2.9880     3.5720     0.8870 C.3   1 <1>   0.1200 
 23 C        4.9850     4.7210     0.4880 C.3   1 <1>  -0.1600 
 24 O        2.7320     4.5270    -0.0800 O.3   1 <1>  -0.5600 
 25 C        3.7750     5.4530    -0.1010 C.3   1 <1>   0.1200 
 26 H        0.2020    -0.2750    -1.0510 H     1 <1>   0.0800 
 27 H       -0.0830     0.5760     0.4550 H     1 <1>   0.0800 
 28 H        4.5930    -1.8450     0.0730 H     1 <1>   0.0800 
 29 H        3.6530    -1.5130     1.4800 H     1 <1>   0.0800 
 30 H        2.0650    -0.3550    -2.2930 H     1 <1>   0.0800 
 31 H        3.3540    -1.4840    -2.3540 H     1 <1>   0.0800 
 32 H       -1.1620    -1.6830     0.4130 H     1 <1>   0.0800 
 33 H       -0.0160    -1.5060     1.7150 H     1 <1>   0.0800 
 34 H        3.6550    -3.5420    -1.2240 H     1 <1>   0.1500 
 35 H        5.6180     0.1100     0.5210 H     1 <1>   0.0800 
 36 H        4.3110     0.6550     1.5420 H     1 <1>   0.0800 
 37 H        3.7320     1.1650    -2.5860 H     1 <1>   0.0800 
 38 H        4.9670     0.0480    -2.0520 H     1 <1>   0.0800 
 39 H       -0.8860    -4.1190     0.5030 H     1 <1>   0.1500 
 40 H        3.0600     1.2930    -0.2540 H     1 <1>   0.4500 
 41 H        4.3650     3.0060    -1.4000 H     1 <1>   0.0800 
 42 H        5.7980     2.3180    -0.6810 H     1 <1>   0.0800 
 43 H        3.4480    -7.7410    -1.9380 H     1 <1>   0.0800 
 44 H        1.7530    -7.3120    -2.1370 H     1 <1>   0.0800 
 45 H        2.4110    -7.6280    -0.5220 H     1 <1>   0.0800 
 46 H        4.9200     2.8540     1.5810 H     1 <1>   0.0800 
 47 H       -1.2260    -7.6710     0.0810 H     1 <1>   0.0800 
 48 H       -1.7620    -6.0610    -0.3830 H     1 <1>   0.0800 
 49 H       -1.0390    -6.3380     1.2140 H     1 <1>   0.0800 
 50 H        2.7790     4.0070     1.8510 H     1 <1>   0.0800 
 51 H        2.3490     2.7210     0.7290 H     1 <1>   0.0800 
 52 H        5.8400     4.7780    -0.1640 H     1 <1>   0.0800 
 53 H        5.2430     5.1800     1.4270 H     1 <1>   0.0800 
 54 H        3.9350     5.7620    -1.1200 H     1 <1>   0.0800 
 55 H        3.4920     6.3010     0.5010 H     1 <1>   0.0800 
@<TRIPOS>BOND
  1   1   2  1   
  2   1   3  1   
  3   2   4  1   
  4   2   5  1   
  5   2   6  1   
  6   3   7  1   
  7   3  26  1   
  8   3  27  1   
  9   4   8  ar  
 10   4   9  ar  
 11   5  10  1   
 12   5  28  1   
 13   5  29  1   
 14   6  11  1   
 15   6  30  1   
 16   6  31  1   
 17   7   8  1   
 18   7  32  1   
 19   7  33  1   
 20   8  12  ar  
 21   9  13  ar  
 22   9  34  1   
 23  10  14  1   
 24  10  35  1   
 25  10  36  1   
 26  11  14  1   
 27  11  37  1   
 28  11  38  1   
 29  12  15  ar  
 30  12  39  1   
 31  13  15  ar  
 32  13  16  1   
 33  14  17  1   
 34  14  40  1   
 35  15  18  1   
 36  16  19  1   
 37  17  20  1   
 38  17  41  1   
 39  17  42  1   
 40  18  21  1   
 41  19  43  1   
 42  19  44  1   
 43  19  45  1   
 44  20  22  1   
 45  20  23  1   
 46  20  46  1   
 47  21  47  1   
 48  21  48  1   
 49  21  49  1   
 50  22  24  1   
 51  22  50  1   
 52  22  51  1   
 53  23  25  1   
 54  23  52  1   
 55  23  53  1   
 56  24  25  1   
 57  25  54  1   
 58  25  55  1   
@<TRIPOS>SUBSTRUCTURE
  1 ****   2 GROUP 4 **** **** 0

# MOE 2024.06 (io_trps.svl 2023.06)
