@<TRIPOS>MOLECULE
NONAME
43 45 1 0 0 
SMALL
USER_CHARGES


@<TRIPOS>ATOM
  1 S        0.5550     2.3300     0.4070 S.o2  1 <1>   1.3330 
  2 O        1.0700     3.5800     0.9190 O.2   1 <1>  -0.6500 
  3 O        0.7620     1.1450     1.2030 O.2   1 <1>  -0.6500 
  4 N        1.3820     2.0530    -1.0490 N.am  1 <1>  -0.8490 
  5 C       -1.1590     2.4560    -0.0590 C.3   1 <1>  -0.1350 
  6 C        2.5620     1.1710    -0.9320 C.3   1 <1>   0.1960 
  7 C        1.5140     3.1500    -2.0230 C.3   1 <1>   0.1960 
  8 C        3.6080     1.6550     0.1040 C.3   1 <1>   0.3430 
  9 C        2.5370     4.2470    -1.6740 C.3   1 <1>  -0.1600 
 10 N        3.7380     3.1460     0.1500 N.4   1 <1>  -0.9590 
 11 C        3.9040     3.7640    -1.1920 C.3   1 <1>   0.3430 
 12 C        4.7130     3.6270     1.1680 C.3   1 <1>   0.5230 
 13 C        4.4240     5.0800     1.5030 C.2   1 <1>  -0.0400 
 14 O        4.6250     5.9910     0.5730 O.3   1 <1>  -0.2800 
 15 C        3.9630     5.6660     2.6290 C.2   1 <1>  -0.1500 
 16 C        4.2850     7.1820     1.0450 C.2   1 <1>   0.1410 
 17 C        3.8750     7.0300     2.3330 C.2   1 <1>  -0.1500 
 18 C        4.3800     8.3480     0.1950 C.2   1 <1>   0.2880 
 19 N        4.6200     8.3130    -1.0970 N.2   1 <1>  -0.7070 
 20 C        4.2220     9.6680     0.6290 C.2   1 <1>  -0.1500 
 21 N        4.6230     9.5990    -1.4910 N.pl3 1 <1>   0.3000 
 22 C        4.3820    10.4360    -0.4660 C.2   1 <1>  -0.3020 
 23 H       -1.7660     2.5960     0.8140 H     1 <1>   0.0800 
 24 H       -1.4740     1.5590    -0.5540 H     1 <1>   0.0800 
 25 H       -1.3110     3.2880    -0.7170 H     1 <1>   0.0800 
 26 H        3.0320     1.0680    -1.8950 H     1 <1>   0.0800 
 27 H        2.2350     0.1850    -0.6450 H     1 <1>   0.0800 
 28 H        0.5500     3.6110    -2.1660 H     1 <1>   0.0800 
 29 H        1.7890     2.7200    -2.9720 H     1 <1>   0.0800 
 30 H        4.5600     1.2040    -0.1220 H     1 <1>   0.0800 
 31 H        3.3010     1.2990     1.0750 H     1 <1>   0.0800 
 32 H        2.1230     4.9300    -0.9530 H     1 <1>   0.0800 
 33 H        2.6960     4.8300    -2.5630 H     1 <1>   0.0800 
 34 H        2.8200     3.5060     0.4870 H     1 <1>   0.4500 
 35 H        4.5700     4.6100    -1.1390 H     1 <1>   0.0800 
 36 H        4.3230     3.0580    -1.8890 H     1 <1>   0.0800 
 37 H        5.7210     3.5310     0.8000 H     1 <1>   0.0800 
 38 H        4.6150     3.0430     2.0680 H     1 <1>   0.0800 
 39 H        3.6950     5.2200     3.5720 H     1 <1>   0.1500 
 40 H        3.5350     7.7920     3.0110 H     1 <1>   0.1500 
 41 H        4.0170     9.9760     1.6380 H     1 <1>   0.1500 
 42 H        4.7920     9.8740    -2.4670 H     1 <1>   0.2700 
 43 H        4.3410    11.5050    -0.5740 H     1 <1>   0.1500 
@<TRIPOS>BOND
  1   1   2  2   
  2   1   3  2   
  3   1   4  am  
  4   1   5  1   
  5   4   6  1   
  6   4   7  1   
  7   5  23  1   
  8   5  24  1   
  9   5  25  1   
 10   6   8  1   
 11   6  26  1   
 12   6  27  1   
 13   7   9  1   
 14   7  28  1   
 15   7  29  1   
 16   8  10  1   
 17   8  30  1   
 18   8  31  1   
 19   9  11  1   
 20   9  32  1   
 21   9  33  1   
 22  10  11  1   
 23  10  12  1   
 24  10  34  1   
 25  11  35  1   
 26  11  36  1   
 27  12  13  1   
 28  12  37  1   
 29  12  38  1   
 30  13  14  1   
 31  13  15  2   
 32  14  16  1   
 33  15  17  1   
 34  15  39  1   
 35  16  17  2   
 36  16  18  1   
 37  17  40  1   
 38  18  19  2   
 39  18  20  1   
 40  19  21  1   
 41  20  22  2   
 42  20  41  1   
 43  21  22  1   
 44  21  42  1   
 45  22  43  1   
@<TRIPOS>SUBSTRUCTURE
  1 ****  14 GROUP 4 **** **** 0

# MOE 2024.06 (io_trps.svl 2023.06)
