@<TRIPOS>MOLECULE
NONAME
38 39 1 0 0 
SMALL
USER_CHARGES


@<TRIPOS>ATOM
  1 S       -2.3260    -1.2300     1.5740 S.3   1 <1>  -0.0800 
  2 C       -1.4720     0.2600     1.4300 C.2   1 <1>   0.4340 
  3 C       -2.0820    -1.4090    -0.1360 C.2   1 <1>   0.4420 
  4 S       -1.2470     1.2080     2.9260 S.3   1 <1>  -0.2860 
  5 N       -1.0810     0.5390     0.2540 N.2   1 <1>  -0.3380 
  6 N       -1.4330    -0.4250    -0.6530 N.2   1 <1>  -0.3380 
  7 N       -2.5970    -2.5480    -0.7130 N.am  1 <1>  -0.4940 
  8 C       -0.3110     2.6870     2.3440 C.3   1 <1>   0.0700 
  9 C       -2.6140    -2.9620    -2.0110 C.2   1 <1>   0.5690 
 10 C       -0.0560     3.5900     3.5490 C.3   1 <1>  -0.2400 
 11 O       -2.1520    -2.3400    -2.9330 O.2   1 <1>  -0.5700 
 12 C       -3.2680    -4.3190    -2.2770 C.3   1 <1>   0.1710 
 13 N       -4.1360    -4.7900    -1.1530 N.3   1 <1>  -0.8100 
 14 C       -4.3120    -6.2590    -1.2090 C.3   1 <1>   0.2900 
 15 C       -5.4390    -4.0940    -1.1770 C.3   1 <1>   0.0300 
 16 C       -5.0310    -6.7930     0.0170 C.2   1 <1>  -0.0400 
 17 O       -6.3370    -6.8360     0.0450 O.3   1 <1>  -0.0190 
 18 C       -4.5790    -7.2880     1.1800 C.2   1 <1>  -0.1500 
 19 N       -6.7830    -7.3280     1.1640 N.2   1 <1>  -0.4100 
 20 C       -5.7450    -7.6090     1.8680 C.2   1 <1>   0.1080 
 21 C       -5.7970    -8.2090     3.2560 C.3   1 <1>  -0.0590 
 22 H       -3.0930    -3.2010    -0.1000 H     1 <1>   0.3700 
 23 H       -0.9140     3.1750     1.5970 H     1 <1>   0.0800 
 24 H        0.6060     2.3340     1.9050 H     1 <1>   0.0800 
 25 H       -0.9890     3.9000     3.9840 H     1 <1>   0.0800 
 26 H        0.4900     4.4630     3.2420 H     1 <1>   0.0800 
 27 H        0.5210     3.0650     4.2900 H     1 <1>   0.0800 
 28 H       -2.4660    -5.0190    -2.4340 H     1 <1>   0.0800 
 29 H       -3.8370    -4.2610    -3.1890 H     1 <1>   0.0800 
 30 H       -3.3420    -6.7240    -1.2490 H     1 <1>   0.0800 
 31 H       -4.8540    -6.5390    -2.0960 H     1 <1>   0.0800 
 32 H       -5.3010    -3.0280    -1.2240 H     1 <1>   0.0800 
 33 H       -5.9950    -4.3140    -0.2810 H     1 <1>   0.0800 
 34 H       -6.0200    -4.4050    -2.0300 H     1 <1>   0.0800 
 35 H       -3.5720    -7.4170     1.5290 H     1 <1>   0.1500 
 36 H       -5.2650    -7.5820     3.9460 H     1 <1>   0.0800 
 37 H       -5.3530    -9.1870     3.2470 H     1 <1>   0.0800 
 38 H       -6.8190    -8.2940     3.5800 H     1 <1>   0.0800 
@<TRIPOS>BOND
  1   1   2  1   
  2   1   3  1   
  3   2   4  1   
  4   2   5  2   
  5   3   6  2   
  6   3   7  1   
  7   4   8  1   
  8   5   6  1   
  9   7   9  am  
 10   7  22  1   
 11   8  10  1   
 12   8  23  1   
 13   8  24  1   
 14   9  11  2   
 15   9  12  1   
 16  10  25  1   
 17  10  26  1   
 18  10  27  1   
 19  12  13  1   
 20  12  28  1   
 21  12  29  1   
 22  13  14  1   
 23  13  15  1   
 24  14  16  1   
 25  14  30  1   
 26  14  31  1   
 27  15  32  1   
 28  15  33  1   
 29  15  34  1   
 30  16  17  1   
 31  16  18  2   
 32  17  19  1   
 33  18  20  1   
 34  18  35  1   
 35  19  20  2   
 36  20  21  1   
 37  21  36  1   
 38  21  37  1   
 39  21  38  1   
@<TRIPOS>SUBSTRUCTURE
  1 ****   7 GROUP 4 **** **** 0

# MOE 2024.06 (io_trps.svl 2023.06)
