@<TRIPOS>MOLECULE
NONAME
59 61 1 0 0 
SMALL
USER_CHARGES


@<TRIPOS>ATOM
  1 O       -0.4560     0.5450     1.3130 O.2   1 <1>  -0.5700 
  2 C       -0.4780     1.7530     1.2990 C.2   1 <1>   0.5690 
  3 N       -1.5020     2.4830     0.7390 N.am  1 <1>  -0.6600 
  4 C        0.7210     2.4710     1.9270 C.3   1 <1>   0.1810 
  5 C       -1.4620     3.9850     0.7740 C.3   1 <1>   0.3640 
  6 C       -2.8180     1.9040     0.3380 C.3   1 <1>   0.2200 
  7 O        0.4580     3.8070     2.2730 O.3   1 <1>  -0.5600 
  8 C       -1.7780     4.5720    -0.6030 C.ar  1 <1>  -0.1440 
  9 C       -0.1000     4.5580     1.2180 C.3   1 <1>   0.2610 
 10 C       -3.5160     1.2880     1.5510 C.3   1 <1>  -0.2400 
 11 C       -2.6630     0.8970    -0.8030 C.3   1 <1>  -0.2400 
 12 C       -1.2020     4.0560    -1.7570 C.ar  1 <1>  -0.1500 
 13 C       -2.6310     5.6620    -0.7060 C.ar  1 <1>  -0.1500 
 14 C       -0.2690     6.0410     1.5980 C.2   1 <1>   0.5690 
 15 C       -1.4750     4.6180    -2.9910 C.ar  1 <1>  -0.1500 
 16 C       -2.9040     6.2260    -1.9400 C.ar  1 <1>  -0.1500 
 17 O       -1.1080     6.3080     2.4340 O.2   1 <1>  -0.5700 
 18 N        0.4650     7.0330     0.9770 N.am  1 <1>  -0.5090 
 19 C       -2.3260     5.7050    -3.0830 C.ar  1 <1>  -0.1500 
 20 C        0.3130     8.4520     1.3820 C.3   1 <1>   0.0490 
 21 C        1.1700     6.8440    -0.3190 C.3   1 <1>   0.1400 
 22 C        1.5300     9.2570     1.7220 C.3   1 <1>  -0.2000 
 23 C        0.5860     8.8370     2.8020 C.3   1 <1>  -0.2000 
 24 C        2.5870     6.2950    -0.0930 C.3   1 <1>  -0.1600 
 25 C        3.2860     5.8760    -1.3990 C.3   1 <1>  -0.0800 
 26 C        2.5950     4.6780    -2.0680 C.3   1 <1>  -0.2400 
 27 C        4.7470     5.5170    -1.1070 C.3   1 <1>  -0.2400 
 28 H        1.5480     2.4530     1.2410 H     1 <1>   0.0800 
 29 H        1.0080     1.9550     2.8250 H     1 <1>   0.0800 
 30 H       -2.2130     4.3090     1.4750 H     1 <1>   0.0800 
 31 H       -3.4510     2.6970    -0.0240 H     1 <1>   0.0800 
 32 H        0.5760     4.4710     0.3940 H     1 <1>   0.0800 
 33 H       -2.9740     0.4340     1.9140 H     1 <1>   0.0800 
 34 H       -4.5030     0.9660     1.2760 H     1 <1>   0.0800 
 35 H       -3.6020     2.0150     2.3380 H     1 <1>   0.0800 
 36 H       -2.1230     0.0250    -0.4840 H     1 <1>   0.0800 
 37 H       -2.1530     1.3480    -1.6320 H     1 <1>   0.0800 
 38 H       -3.6340     0.5810    -1.1370 H     1 <1>   0.0800 
 39 H       -0.5400     3.2090    -1.7000 H     1 <1>   0.1500 
 40 H       -3.0840     6.0840     0.1770 H     1 <1>   0.1500 
 41 H       -1.0280     4.2090    -3.8810 H     1 <1>   0.1500 
 42 H       -3.5660     7.0710    -2.0090 H     1 <1>   0.1500 
 43 H       -2.5410     6.1430    -4.0430 H     1 <1>   0.1500 
 44 H       -0.5100     8.9360     0.8830 H     1 <1>   0.1000 
 45 H        0.5890     6.1830    -0.9360 H     1 <1>   0.0800 
 46 H        1.2300     7.7850    -0.8390 H     1 <1>   0.0800 
 47 H        2.5030     8.8040     1.7180 H     1 <1>   0.1000 
 48 H        1.5560    10.2980     1.4540 H     1 <1>   0.1000 
 49 H       -0.0420     9.5800     3.2600 H     1 <1>   0.1000 
 50 H        0.8760     8.0610     3.4890 H     1 <1>   0.1000 
 51 H        3.1720     7.0640     0.3770 H     1 <1>   0.0800 
 52 H        2.5620     5.4550     0.5780 H     1 <1>   0.0800 
 53 H        3.2760     6.7090    -2.0840 H     1 <1>   0.0800 
 54 H        2.5250     3.8490    -1.3870 H     1 <1>   0.0800 
 55 H        3.1580     4.3620    -2.9290 H     1 <1>   0.0800 
 56 H        1.6090     4.9380    -2.4070 H     1 <1>   0.0800 
 57 H        4.8070     4.6860    -0.4270 H     1 <1>   0.0800 
 58 H        5.2590     6.3560    -0.6680 H     1 <1>   0.0800 
 59 H        5.2570     5.2540    -2.0160 H     1 <1>   0.0800 
@<TRIPOS>BOND
  1   1   2  2   
  2   2   3  am  
  3   2   4  1   
  4   3   5  1   
  5   3   6  1   
  6   4   7  1   
  7   4  28  1   
  8   4  29  1   
  9   5   8  1   
 10   5   9  1   
 11   5  30  1   
 12   6  10  1   
 13   6  11  1   
 14   6  31  1   
 15   7   9  1   
 16   8  12  ar  
 17   8  13  ar  
 18   9  14  1   
 19   9  32  1   
 20  10  33  1   
 21  10  34  1   
 22  10  35  1   
 23  11  36  1   
 24  11  37  1   
 25  11  38  1   
 26  12  15  ar  
 27  12  39  1   
 28  13  16  ar  
 29  13  40  1   
 30  14  17  2   
 31  14  18  am  
 32  15  19  ar  
 33  15  41  1   
 34  16  19  ar  
 35  16  42  1   
 36  18  20  1   
 37  18  21  1   
 38  19  43  1   
 39  20  22  1   
 40  20  23  1   
 41  20  44  1   
 42  21  24  1   
 43  21  45  1   
 44  21  46  1   
 45  22  23  1   
 46  22  47  1   
 47  22  48  1   
 48  23  49  1   
 49  23  50  1   
 50  24  25  1   
 51  24  51  1   
 52  24  52  1   
 53  25  26  1   
 54  25  27  1   
 55  25  53  1   
 56  26  54  1   
 57  26  55  1   
 58  26  56  1   
 59  27  57  1   
 60  27  58  1   
 61  27  59  1   
@<TRIPOS>SUBSTRUCTURE
  1 ****   9 GROUP 4 **** **** 0

# MOE 2024.06 (io_trps.svl 2023.06)
