@<TRIPOS>MOLECULE
NONAME
39 41 1 0 0 
SMALL
USER_CHARGES


@<TRIPOS>ATOM
  1 O        0.0820     0.1550     1.0230 O.2   1 <1>  -0.5700 
  2 C        1.0790    -0.4290     0.6810 C.2   1 <1>   0.5690 
  3 N        2.2490     0.1980     0.3570 N.am  1 <1>  -0.4940 
  4 C        1.0370    -1.9520     0.5970 C.3   1 <1>  -0.0190 
  5 C        2.5680     1.5560     0.3550 C.2   1 <1>   0.2040 
  6 C        2.0550    -2.6180     1.5420 C.3   1 <1>  -0.1600 
  7 C        1.2450    -2.4580    -0.8430 C.3   1 <1>  -0.1600 
  8 O        1.7400     2.4870     0.7580 O.3   1 <1>  -0.0190 
  9 C        3.7230     2.1560    -0.0190 C.2   1 <1>  -0.0540 
 10 C        2.0660    -4.1370     1.3440 C.3   1 <1>   0.1200 
 11 C        1.3110    -3.9880    -0.8750 C.3   1 <1>   0.1200 
 12 N        2.2710     3.6810     0.6770 N.2   1 <1>  -0.4100 
 13 C        4.9250     1.5520    -0.5320 C.ar  1 <1>   0.0540 
 14 C        3.4550     3.5090     0.2150 C.2   1 <1>   0.1080 
 15 O        2.3070    -4.4170     0.0000 O.3   1 <1>  -0.5600 
 16 C        6.1330     1.6590     0.1510 C.ar  1 <1>  -0.1500 
 17 C        4.9040     0.8310    -1.7220 C.ar  1 <1>  -0.1500 
 18 C        4.4210     4.6450    -0.0480 C.3   1 <1>  -0.0590 
 19 C        7.2820     1.0640    -0.3350 C.ar  1 <1>  -0.1500 
 20 C        6.0500     0.2320    -2.2130 C.ar  1 <1>  -0.1500 
 21 C        7.2420     0.3480    -1.5190 C.ar  1 <1>  -0.1500 
 22 H        3.0110    -0.4190     0.0850 H     1 <1>   0.3700 
 23 H        0.0540    -2.2600     0.9110 H     1 <1>   0.0800 
 24 H        1.8040    -2.3920     2.5640 H     1 <1>   0.0800 
 25 H        3.0480    -2.2500     1.3580 H     1 <1>   0.0800 
 26 H        2.1610    -2.0730    -1.2540 H     1 <1>   0.0800 
 27 H        0.4360    -2.1210    -1.4660 H     1 <1>   0.0800 
 28 H        1.1250    -4.5800     1.6270 H     1 <1>   0.0800 
 29 H        2.8540    -4.5900     1.9210 H     1 <1>   0.0800 
 30 H        1.5670    -4.3360    -1.8610 H     1 <1>   0.0800 
 31 H        0.3750    -4.4310    -0.5790 H     1 <1>   0.0800 
 32 H        6.1680     2.2100     1.0750 H     1 <1>   0.1500 
 33 H        3.9820     0.7450    -2.2700 H     1 <1>   0.1500 
 34 H        4.9080     4.5040    -0.9950 H     1 <1>   0.0800 
 35 H        5.1610     4.6810     0.7300 H     1 <1>   0.0800 
 36 H        3.8910     5.5800    -0.0670 H     1 <1>   0.0800 
 37 H        8.2090     1.1550     0.2050 H     1 <1>   0.1500 
 38 H        6.0190    -0.3230    -3.1350 H     1 <1>   0.1500 
 39 H        8.1350    -0.1180    -1.8990 H     1 <1>   0.1500 
@<TRIPOS>BOND
  1   1   2  2   
  2   2   3  am  
  3   2   4  1   
  4   3   5  1   
  5   3  22  1   
  6   4   6  1   
  7   4   7  1   
  8   4  23  1   
  9   5   8  1   
 10   5   9  2   
 11   6  10  1   
 12   6  24  1   
 13   6  25  1   
 14   7  11  1   
 15   7  26  1   
 16   7  27  1   
 17   8  12  1   
 18   9  13  1   
 19   9  14  1   
 20  10  15  1   
 21  10  28  1   
 22  10  29  1   
 23  11  15  1   
 24  11  30  1   
 25  11  31  1   
 26  12  14  2   
 27  13  16  ar  
 28  13  17  ar  
 29  14  18  1   
 30  16  19  ar  
 31  16  32  1   
 32  17  20  ar  
 33  17  33  1   
 34  18  34  1   
 35  18  35  1   
 36  18  36  1   
 37  19  21  ar  
 38  19  37  1   
 39  20  21  ar  
 40  20  38  1   
 41  21  39  1   
@<TRIPOS>SUBSTRUCTURE
  1 ****   3 GROUP 4 **** **** 0

# MOE 2024.06 (io_trps.svl 2023.06)
