@<TRIPOS>MOLECULE
NONAME
35 37 1 0 0 
SMALL
USER_CHARGES


@<TRIPOS>ATOM
  1 O        0.5610    -0.0510    -1.0900 O.3   1 <1>  -0.1800 
  2 N        1.4980    -0.7520    -0.3550 N.3   1 <1>  -0.6400 
  3 C       -0.6660    -0.0340    -0.4320 C.3   1 <1>   0.1200 
  4 C        0.7820    -1.4100     0.7520 C.3   1 <1>   0.1100 
  5 C        2.5260     0.1810     0.1260 C.3   1 <1>   0.1100 
  6 C       -0.6780    -1.3290     0.3540 C.3   1 <1>   0.2000 
  7 C        3.3860     0.6850    -1.0360 C.3   1 <1>   0.0200 
  8 O       -0.9530    -2.3710    -0.5160 O.3   1 <1>  -0.6800 
  9 C        4.4970     1.6130    -0.5660 C.2   1 <1>   0.0060 
 10 N        4.6660     2.0180     0.6460 N.2   1 <1>  -0.5650 
 11 N        5.4210     2.0970    -1.4350 N.pl3 1 <1>   0.0330 
 12 C        5.7670     2.8190     0.5870 C.ar  1 <1>   0.2270 
 13 C        6.2520     2.8800    -0.7050 C.ar  1 <1>  -0.1520 
 14 C        6.4090     3.5270     1.6000 C.ar  1 <1>  -0.1500 
 15 C        7.3790     3.6400    -1.0240 C.ar  1 <1>  -0.1500 
 16 C        7.5230     4.2790     1.2940 C.ar  1 <1>  -0.1500 
 17 C        8.0120     4.3390    -0.0180 C.ar  1 <1>  -0.1440 
 18 C        9.2420     5.1820    -0.3050 C.3   1 <1>  -0.0970 
 19 H       -1.4640     0.0300    -1.1490 H     1 <1>   0.0800 
 20 H       -0.6750     0.8180     0.2230 H     1 <1>   0.0800 
 21 H        0.9290    -0.8630     1.6680 H     1 <1>   0.0800 
 22 H        1.1110    -2.4250     0.8840 H     1 <1>   0.0800 
 23 H        3.1640    -0.3250     0.8310 H     1 <1>   0.0800 
 24 H        2.0640     1.0170     0.6250 H     1 <1>   0.0800 
 25 H       -1.3730    -1.3530     1.1750 H     1 <1>   0.0800 
 26 H        2.7650     1.2160    -1.7330 H     1 <1>   0.0800 
 27 H        3.8220    -0.1620    -1.5330 H     1 <1>   0.0800 
 28 H       -0.2490    -2.3600    -1.2010 H     1 <1>   0.4000 
 29 H        5.4840     1.9130    -2.4390 H     1 <1>   0.2700 
 30 H        6.0170     3.4660     2.5970 H     1 <1>   0.1500 
 31 H        7.7350     3.6690    -2.0380 H     1 <1>   0.1500 
 32 H        8.0250     4.8290     2.0710 H     1 <1>   0.1500 
 33 H        9.5050     5.1370    -1.3470 H     1 <1>   0.0800 
 34 H       10.0740     4.8240     0.2740 H     1 <1>   0.0800 
 35 H        9.0510     6.2080    -0.0440 H     1 <1>   0.0800 
@<TRIPOS>BOND
  1   1   2  1   
  2   1   3  1   
  3   2   4  1   
  4   2   5  1   
  5   3   6  1   
  6   3  19  1   
  7   3  20  1   
  8   4   6  1   
  9   4  21  1   
 10   4  22  1   
 11   5   7  1   
 12   5  23  1   
 13   5  24  1   
 14   6   8  1   
 15   6  25  1   
 16   7   9  1   
 17   7  26  1   
 18   7  27  1   
 19   8  28  1   
 20   9  10  2   
 21   9  11  1   
 22  10  12  1   
 23  11  13  1   
 24  11  29  1   
 25  12  13  ar  
 26  12  14  ar  
 27  13  15  ar  
 28  14  16  ar  
 29  14  30  1   
 30  15  17  ar  
 31  15  31  1   
 32  16  17  ar  
 33  16  32  1   
 34  17  18  1   
 35  18  33  1   
 36  18  34  1   
 37  18  35  1   
@<TRIPOS>SUBSTRUCTURE
  1 ****   9 GROUP 4 **** **** 0

# MOE 2024.06 (io_trps.svl 2023.06)
