@<TRIPOS>MOLECULE
NONAME
53 55 1 0 0 
SMALL
USER_CHARGES


@<TRIPOS>ATOM
  1 F       -1.1810    -0.0180    -0.8410 F     1 <1>  -0.3400 
  2 C       -2.0650    -0.9200    -0.4450 C.3   1 <1>   1.1640 
  3 F       -2.6920    -1.3440    -1.5390 F     1 <1>  -0.3400 
  4 F       -1.3750    -1.9650    -0.0070 F     1 <1>  -0.3400 
  5 C       -3.0770    -0.4230     0.6040 C.ar  1 <1>  -0.1440 
  6 C       -3.9440    -1.2930     1.2830 C.ar  1 <1>  -0.1440 
  7 C       -3.1390     0.9390     0.8920 C.ar  1 <1>  -0.1500 
  8 C       -4.8050    -0.7840     2.2480 C.ar  1 <1>  -0.1500 
  9 C       -3.9900    -2.8020     1.0380 C.3   1 <1>   0.4870 
 10 C       -4.0160     1.4320     1.8380 C.ar  1 <1>  -0.1500 
 11 C       -4.8450     0.5690     2.5230 C.ar  1 <1>  -0.1500 
 12 N       -4.5110    -3.1730    -0.3260 N.4   1 <1>  -0.9590 
 13 C       -5.9270    -2.8460    -0.6860 C.3   1 <1>   0.4230 
 14 C       -4.2620    -4.6290    -0.5570 C.3   1 <1>   0.2630 
 15 C       -6.1130    -1.4100    -1.1690 C.3   1 <1>  -0.1600 
 16 C       -6.9670    -3.0510     0.4180 C.3   1 <1>  -0.1600 
 17 C       -7.6050    -1.1120    -0.9720 C.3   1 <1>  -0.0800 
 18 C       -8.1430    -2.1430     0.0250 C.3   1 <1>  -0.0800 
 19 C       -7.9180     0.2660    -0.3660 C.3   1 <1>  -0.1600 
 20 C       -8.7620    -1.3270     1.1730 C.3   1 <1>  -0.1600 
 21 C       -9.1060     0.0440     0.5760 C.3   1 <1>   0.4230 
 22 N      -10.3940    -0.0070    -0.1870 N.4   1 <1>  -0.9590 
 23 C      -10.7000     1.2830    -0.8890 C.3   1 <1>   0.2630 
 24 C      -11.5660    -0.3480     0.6850 C.3   1 <1>   0.2630 
 25 H       -2.4970     1.6440     0.3860 H     1 <1>   0.1500 
 26 H       -5.4510    -1.4320     2.8140 H     1 <1>   0.1500 
 27 H       -4.6010    -3.2660     1.7940 H     1 <1>   0.0800 
 28 H       -2.9930    -3.1950     1.1590 H     1 <1>   0.0800 
 29 H       -4.0420     2.4890     2.0500 H     1 <1>   0.1500 
 30 H       -5.5120     0.9540     3.2770 H     1 <1>   0.1500 
 31 H       -3.9340    -2.6640    -1.0140 H     1 <1>   0.4500 
 32 H       -6.2210    -3.4750    -1.5120 H     1 <1>   0.0800 
 33 H       -4.8470    -5.2240     0.1260 H     1 <1>   0.0800 
 34 H       -3.2180    -4.8600    -0.4090 H     1 <1>   0.0800 
 35 H       -4.5290    -4.9000    -1.5660 H     1 <1>   0.0800 
 36 H       -5.5280    -0.7200    -0.5970 H     1 <1>   0.0800 
 37 H       -5.8400    -1.3150    -2.2060 H     1 <1>   0.0800 
 38 H       -7.2800    -4.0790     0.4650 H     1 <1>   0.0800 
 39 H       -6.5900    -2.7590     1.3750 H     1 <1>   0.0800 
 40 H       -8.1250    -1.2280    -1.9110 H     1 <1>   0.0800 
 41 H       -8.9070    -2.7290    -0.4610 H     1 <1>   0.0800 
 42 H       -8.0700     1.0190    -1.1160 H     1 <1>   0.0800 
 43 H       -7.0920     0.5910     0.2440 H     1 <1>   0.0800 
 44 H       -8.0230    -1.1560     1.9360 H     1 <1>   0.0800 
 45 H       -9.5850    -1.8340     1.6390 H     1 <1>   0.0800 
 46 H       -9.1520     0.8060     1.3380 H     1 <1>   0.0800 
 47 H      -10.2960    -0.7450    -0.8990 H     1 <1>   0.4500 
 48 H      -10.7320     2.0960    -0.1820 H     1 <1>   0.0800 
 49 H      -11.6570     1.2210    -1.3830 H     1 <1>   0.0800 
 50 H       -9.9540     1.5020    -1.6340 H     1 <1>   0.0800 
 51 H      -11.6520     0.3630     1.4910 H     1 <1>   0.0800 
 52 H      -11.4600    -1.3340     1.1030 H     1 <1>   0.0800 
 53 H      -12.4780    -0.3260     0.1090 H     1 <1>   0.0800 
@<TRIPOS>BOND
  1   1   2  1   
  2   2   3  1   
  3   2   4  1   
  4   2   5  1   
  5   5   6  ar  
  6   5   7  ar  
  7   6   8  ar  
  8   6   9  1   
  9   7  10  ar  
 10   7  25  1   
 11   8  11  ar  
 12   8  26  1   
 13   9  12  1   
 14   9  27  1   
 15   9  28  1   
 16  10  11  ar  
 17  10  29  1   
 18  11  30  1   
 19  12  13  1   
 20  12  14  1   
 21  12  31  1   
 22  13  15  1   
 23  13  16  1   
 24  13  32  1   
 25  14  33  1   
 26  14  34  1   
 27  14  35  1   
 28  15  17  1   
 29  15  36  1   
 30  15  37  1   
 31  16  18  1   
 32  16  38  1   
 33  16  39  1   
 34  17  18  1   
 35  17  19  1   
 36  17  40  1   
 37  18  20  1   
 38  18  41  1   
 39  19  21  1   
 40  19  42  1   
 41  19  43  1   
 42  20  21  1   
 43  20  44  1   
 44  20  45  1   
 45  21  22  1   
 46  21  46  1   
 47  22  23  1   
 48  22  24  1   
 49  22  47  1   
 50  23  48  1   
 51  23  49  1   
 52  23  50  1   
 53  24  51  1   
 54  24  52  1   
 55  24  53  1   
@<TRIPOS>SUBSTRUCTURE
  1 ****  15 GROUP 4 **** **** 0

# MOE 2024.06 (io_trps.svl 2023.06)
