@<TRIPOS>MOLECULE
NONAME
41 42 1 0 0 
SMALL
USER_CHARGES


@<TRIPOS>ATOM
  1 O        0.5380     0.5730     1.4230 O.2   1 <1>  -0.5700 
  2 C        0.4730     1.7000     1.0050 C.2   1 <1>   0.4230 
  3 C        1.6320     2.4540     0.5920 C.ar  1 <1>   0.0860 
  4 C       -0.9150     2.3080     0.9280 C.3   1 <1>  -0.1790 
  5 C        1.5620     3.7610     0.1030 C.ar  1 <1>   0.1600 
  6 C        2.9090     1.9010     0.6640 C.ar  1 <1>  -0.1500 
  7 N        2.5760     4.5040    -0.2940 N.ar  1 <1>  -0.6200 
  8 C        3.9770     2.6590     0.2550 C.ar  1 <1>  -0.1500 
  9 C        3.7840     3.9530    -0.2260 C.ar  1 <1>   0.4100 
 10 N        4.8590     4.7030    -0.6550 N.pl3 1 <1>  -0.8380 
 11 C        4.8520     6.1940    -0.5830 C.3   1 <1>   0.2090 
 12 C        5.8690     4.1190    -1.5790 C.3   1 <1>   0.1290 
 13 C        6.0270     6.6660     0.2720 C.3   1 <1>  -0.1600 
 14 C        5.9910     8.1810     0.4820 C.3   1 <1>   0.2000 
 15 O        6.0390     8.7930    -0.7710 O.3   1 <1>  -0.5600 
 16 C        7.1770     8.6720     1.3250 C.3   1 <1>  -0.1600 
 17 C        5.8960    10.1800    -0.7520 C.3   1 <1>   0.1200 
 18 C        7.1830    10.2020     1.4210 C.3   1 <1>  -0.1600 
 19 C        7.0670    10.8050     0.0160 C.3   1 <1>  -0.1600 
 20 H       -0.9710     3.1840     1.5490 H     1 <1>   0.0800 
 21 H       -1.6430     1.5980     1.2780 H     1 <1>   0.0800 
 22 H       -1.1520     2.5640    -0.0880 H     1 <1>   0.0800 
 23 H        0.5980     4.2310     0.0330 H     1 <1>   0.1500 
 24 H        3.0460     0.9000     1.0370 H     1 <1>   0.1500 
 25 H        4.9750     2.2700     0.3060 H     1 <1>   0.1500 
 26 H        3.9360     6.5450    -0.1400 H     1 <1>   0.0800 
 27 H        4.9170     6.6070    -1.5750 H     1 <1>   0.0800 
 28 H        5.5680     3.1360    -1.8940 H     1 <1>   0.0800 
 29 H        6.8210     4.0550    -1.0810 H     1 <1>   0.0800 
 30 H        5.9690     4.7390    -2.4530 H     1 <1>   0.0800 
 31 H        6.9540     6.3970    -0.1980 H     1 <1>   0.0800 
 32 H        5.9720     6.1810     1.2290 H     1 <1>   0.0800 
 33 H        5.0610     8.4560     0.9530 H     1 <1>   0.0800 
 34 H        8.0930     8.3340     0.8720 H     1 <1>   0.0800 
 35 H        7.1200     8.2470     2.3120 H     1 <1>   0.0800 
 36 H        4.9530    10.4230    -0.2920 H     1 <1>   0.0800 
 37 H        5.8870    10.5230    -1.7720 H     1 <1>   0.0800 
 38 H        8.0870    10.5410     1.8970 H     1 <1>   0.0800 
 39 H        6.3470    10.5250     2.0170 H     1 <1>   0.0800 
 40 H        6.9280    11.8690     0.0830 H     1 <1>   0.0800 
 41 H        7.9740    10.6240    -0.5350 H     1 <1>   0.0800 
@<TRIPOS>BOND
  1   1   2  2   
  2   2   3  1   
  3   2   4  1   
  4   3   5  ar  
  5   3   6  ar  
  6   4  20  1   
  7   4  21  1   
  8   4  22  1   
  9   5   7  ar  
 10   5  23  1   
 11   6   8  ar  
 12   6  24  1   
 13   7   9  ar  
 14   8   9  ar  
 15   8  25  1   
 16   9  10  1   
 17  10  11  1   
 18  10  12  1   
 19  11  13  1   
 20  11  26  1   
 21  11  27  1   
 22  12  28  1   
 23  12  29  1   
 24  12  30  1   
 25  13  14  1   
 26  13  31  1   
 27  13  32  1   
 28  14  15  1   
 29  14  16  1   
 30  14  33  1   
 31  15  17  1   
 32  16  18  1   
 33  16  34  1   
 34  16  35  1   
 35  17  19  1   
 36  17  36  1   
 37  17  37  1   
 38  18  19  1   
 39  18  38  1   
 40  18  39  1   
 41  19  40  1   
 42  19  41  1   
@<TRIPOS>SUBSTRUCTURE
  1 ****  10 GROUP 4 **** **** 0

# MOE 2024.06 (io_trps.svl 2023.06)
