@<TRIPOS>MOLECULE
NONAME
45 47 1 0 0 
SMALL
USER_CHARGES


@<TRIPOS>ATOM
  1 O       -1.6240     0.1670    -2.0510 O.co2 1 <1>  -0.9000 
  2 C       -2.3080     0.4630    -1.0650 C.2   1 <1>   0.9060 
  3 O       -3.0980     1.4070    -1.0430 O.co2 1 <1>  -0.9000 
  4 C       -2.2470    -0.4520     0.1660 C.3   1 <1>   0.2370 
  5 N       -2.8220    -1.8440    -0.0340 N.4   1 <1>  -0.9590 
  6 C       -3.0660    -2.6220     1.2210 C.3   1 <1>   0.4230 
  7 C       -2.0990    -2.5540    -1.1330 C.3   1 <1>   0.3430 
  8 C       -1.8490    -3.4350     1.7400 C.3   1 <1>   0.1200 
  9 C       -4.3300    -3.5020     1.0260 C.3   1 <1>   0.1100 
 10 C       -2.4790    -4.0420    -1.2290 C.3   1 <1>  -0.0800 
 11 O       -1.0960    -4.0960     0.7570 O.3   1 <1>  -0.5600 
 12 N       -4.8320    -3.5190    -0.3780 N.3   1 <1>  -0.8100 
 13 C       -1.7900    -4.8990    -0.1450 C.3   1 <1>   0.1200 
 14 C       -3.9990    -4.3060    -1.3180 C.3   1 <1>   0.1100 
 15 C       -6.2620    -3.9010    -0.4670 C.3   1 <1>   0.2900 
 16 C       -6.5210    -5.3280    -0.0090 C.2   1 <1>  -0.0400 
 17 O       -6.4080    -5.6450     1.2530 O.3   1 <1>  -0.0190 
 18 C       -6.8760    -6.4360    -0.6790 C.2   1 <1>  -0.1500 
 19 N       -6.6510    -6.9040     1.4620 N.2   1 <1>  -0.4100 
 20 C       -6.9420    -7.4080     0.3160 C.2   1 <1>   0.1080 
 21 C       -7.3060    -8.8640     0.0910 C.3   1 <1>   0.0210 
 22 C       -8.8080    -9.0310    -0.1570 C.3   1 <1>  -0.2400 
 23 H       -2.7850     0.0540     0.9460 H     1 <1>   0.0800 
 24 H       -1.2160    -0.5270     0.4550 H     1 <1>   0.0800 
 25 H       -3.7750    -1.7420    -0.4270 H     1 <1>   0.4500 
 26 H       -3.3170    -1.9250     2.0010 H     1 <1>   0.0800 
 27 H       -2.3230    -2.0650    -2.0690 H     1 <1>   0.0800 
 28 H       -1.0360    -2.4710    -0.9760 H     1 <1>   0.0800 
 29 H       -2.1690    -4.1660     2.4610 H     1 <1>   0.0800 
 30 H       -1.1750    -2.7630     2.2390 H     1 <1>   0.0800 
 31 H       -5.0970    -3.0950     1.6630 H     1 <1>   0.0800 
 32 H       -4.1490    -4.5050     1.3690 H     1 <1>   0.0800 
 33 H       -2.0710    -4.3920    -2.1600 H     1 <1>   0.0800 
 34 H       -1.0590    -5.5400    -0.6100 H     1 <1>   0.0800 
 35 H       -2.4790    -5.5260     0.3940 H     1 <1>   0.0800 
 36 H       -4.1750    -5.3590    -1.1720 H     1 <1>   0.0800 
 37 H       -4.3200    -4.0660    -2.3180 H     1 <1>   0.0800 
 38 H       -6.8520    -3.2270     0.1310 H     1 <1>   0.0800 
 39 H       -6.5880    -3.7940    -1.4870 H     1 <1>   0.0800 
 40 H       -7.0700    -6.5820    -1.7250 H     1 <1>   0.1500 
 41 H       -6.7520    -9.2420    -0.7490 H     1 <1>   0.0800 
 42 H       -7.0210    -9.4340     0.9590 H     1 <1>   0.0800 
 43 H       -9.1080    -8.4870    -1.0350 H     1 <1>   0.0800 
 44 H       -9.3630    -8.6580     0.6860 H     1 <1>   0.0800 
 45 H       -9.0470   -10.0700    -0.2950 H     1 <1>   0.0800 
@<TRIPOS>BOND
  1   1   2  ar  
  2   2   3  ar  
  3   2   4  1   
  4   4   5  1   
  5   4  23  1   
  6   4  24  1   
  7   5   6  1   
  8   5   7  1   
  9   5  25  1   
 10   6   8  1   
 11   6   9  1   
 12   6  26  1   
 13   7  10  1   
 14   7  27  1   
 15   7  28  1   
 16   8  11  1   
 17   8  29  1   
 18   8  30  1   
 19   9  12  1   
 20   9  31  1   
 21   9  32  1   
 22  10  13  1   
 23  10  14  1   
 24  10  33  1   
 25  11  13  1   
 26  12  14  1   
 27  12  15  1   
 28  13  34  1   
 29  13  35  1   
 30  14  36  1   
 31  14  37  1   
 32  15  16  1   
 33  15  38  1   
 34  15  39  1   
 35  16  17  1   
 36  16  18  2   
 37  17  19  1   
 38  18  20  1   
 39  18  40  1   
 40  19  20  2   
 41  20  21  1   
 42  21  22  1   
 43  21  41  1   
 44  21  42  1   
 45  22  43  1   
 46  22  44  1   
 47  22  45  1   
@<TRIPOS>SUBSTRUCTURE
  1 ****  12 GROUP 4 **** **** 0

# MOE 2024.06 (io_trps.svl 2023.06)
