@<TRIPOS>MOLECULE
NONAME
49 51 1 0 0 
SMALL
USER_CHARGES


@<TRIPOS>ATOM
  1 O       -0.4610     0.3290     0.7840 O.2   1 <1>  -0.5700 
  2 C       -1.5200     0.9270     0.7010 C.2   1 <1>   0.5440 
  3 N       -2.6830     0.1980     0.8900 N.am  1 <1>  -0.6600 
  4 C       -1.5050     2.3650     0.4230 C.ar  1 <1>   0.3960 
  5 C       -2.7240    -1.2890     0.7380 C.3   1 <1>   0.1400 
  6 C       -4.0530     0.7830     0.9770 C.3   1 <1>   0.1400 
  7 N       -2.3110     2.8780    -0.5270 N.ar  1 <1>  -0.6200 
  8 C       -0.6340     3.1720     1.1600 C.ar  1 <1>  -0.1500 
  9 C       -3.6530    -1.6860    -0.4270 C.3   1 <1>   0.3440 
 10 C       -4.8880     0.3330    -0.2420 C.3   1 <1>   0.2000 
 11 C       -2.2290     4.1760    -0.7050 C.ar  1 <1>   0.3920 
 12 C       -0.5730     4.5340     0.9550 C.ar  1 <1>  -0.1500 
 13 O       -4.9110    -1.0740    -0.2850 O.3   1 <1>  -0.5600 
 14 C       -3.8270    -3.2010    -0.4860 C.ar  1 <1>  -0.1430 
 15 C       -6.3490     0.8760    -0.2690 C.3   1 <1>   0.0000 
 16 O       -3.0270     4.6400    -1.6470 O.3   1 <1>  -0.5320 
 17 C       -1.4040     5.0460    -0.0130 C.ar  1 <1>  -0.1500 
 18 C       -2.9660    -3.9610    -1.2660 C.ar  1 <1>  -0.1500 
 19 C       -4.8230    -3.8430     0.2380 C.ar  1 <1>  -0.1500 
 20 C       -6.3600     2.4160    -0.2860 C.3   1 <1>  -0.2400 
 21 C       -7.1690     0.3940     0.9420 C.3   1 <1>  -0.2400 
 22 C       -7.0520     0.3930    -1.5510 C.3   1 <1>  -0.2400 
 23 C       -3.0980    -5.3380    -1.3210 C.ar  1 <1>  -0.1500 
 24 C       -4.9560    -5.2200     0.1840 C.ar  1 <1>  -0.1500 
 25 C       -4.0930    -5.9680    -0.5960 C.ar  1 <1>  -0.1500 
 26 H       -1.7410    -1.6830     0.5510 H     1 <1>   0.0800 
 27 H       -3.0870    -1.7320     1.6480 H     1 <1>   0.0800 
 28 H       -4.5210     0.4350     1.8800 H     1 <1>   0.0800 
 29 H       -4.0070     1.8530     1.0290 H     1 <1>   0.0800 
 30 H       -0.0010     2.7110     1.8990 H     1 <1>   0.1500 
 31 H       -3.2270    -1.3430    -1.3540 H     1 <1>   0.0800 
 32 H       -4.3920     0.6760    -1.1340 H     1 <1>   0.0800 
 33 H        0.0930     5.1630     1.5200 H     1 <1>   0.1500 
 34 H       -3.4850     3.8900    -2.0620 H     1 <1>   0.4500 
 35 H       -1.4230     6.0950    -0.2430 H     1 <1>   0.1500 
 36 H       -2.1870    -3.4840    -1.8340 H     1 <1>   0.1500 
 37 H       -5.5020    -3.2680     0.8440 H     1 <1>   0.1500 
 38 H       -7.3640     2.7830    -0.4090 H     1 <1>   0.0800 
 39 H       -5.7640     2.7890    -1.0990 H     1 <1>   0.0800 
 40 H       -5.9770     2.8210     0.6330 H     1 <1>   0.0800 
 41 H       -8.1880     0.7300     0.8650 H     1 <1>   0.0800 
 42 H       -6.7650     0.7710     1.8630 H     1 <1>   0.0800 
 43 H       -7.1740    -0.6810     0.9870 H     1 <1>   0.0800 
 44 H       -8.0530     0.7830    -1.6110 H     1 <1>   0.0800 
 45 H       -7.1130    -0.6820    -1.5670 H     1 <1>   0.0800 
 46 H       -6.5100     0.7110    -2.4240 H     1 <1>   0.0800 
 47 H       -2.4260    -5.9180    -1.9290 H     1 <1>   0.1500 
 48 H       -5.7330    -5.7060     0.7470 H     1 <1>   0.1500 
 49 H       -4.1960    -7.0380    -0.6390 H     1 <1>   0.1500 
@<TRIPOS>BOND
  1   1   2  2   
  2   2   3  am  
  3   2   4  1   
  4   3   5  1   
  5   3   6  1   
  6   4   7  ar  
  7   4   8  ar  
  8   5   9  1   
  9   5  26  1   
 10   5  27  1   
 11   6  10  1   
 12   6  28  1   
 13   6  29  1   
 14   7  11  ar  
 15   8  12  ar  
 16   8  30  1   
 17   9  13  1   
 18   9  14  1   
 19   9  31  1   
 20  10  13  1   
 21  10  15  1   
 22  10  32  1   
 23  11  16  1   
 24  11  17  ar  
 25  12  17  ar  
 26  12  33  1   
 27  14  18  ar  
 28  14  19  ar  
 29  15  20  1   
 30  15  21  1   
 31  15  22  1   
 32  16  34  1   
 33  17  35  1   
 34  18  23  ar  
 35  18  36  1   
 36  19  24  ar  
 37  19  37  1   
 38  20  38  1   
 39  20  39  1   
 40  20  40  1   
 41  21  41  1   
 42  21  42  1   
 43  21  43  1   
 44  22  44  1   
 45  22  45  1   
 46  22  46  1   
 47  23  25  ar  
 48  23  47  1   
 49  24  25  ar  
 50  24  48  1   
 51  25  49  1   
@<TRIPOS>SUBSTRUCTURE
  1 ****   3 GROUP 4 **** **** 0

# MOE 2024.06 (io_trps.svl 2023.06)
