@<TRIPOS>MOLECULE
NONAME
53 57 1 0 0 
SMALL
USER_CHARGES


@<TRIPOS>ATOM
  1 O        0.8880    -0.4220     1.0900 O.3   1 <1>  -0.5600 
  2 C        1.8990    -0.9930     0.2900 C.3   1 <1>   0.4240 
  3 C       -0.4360    -0.6280     0.7130 C.3   1 <1>   0.1200 
  4 C        1.5030    -2.3990    -0.2380 C.ar  1 <1>  -0.1440 
  5 C        3.1000    -1.0880     1.2490 C.3   1 <1>  -0.1600 
  6 C        2.1770     0.0140    -0.8440 C.3   1 <1>  -0.1600 
  7 C       -0.7490    -2.1070     0.8670 C.3   1 <1>  -0.0160 
  8 C        2.3740    -3.1790    -1.0120 C.ar  1 <1>   0.0820 
  9 C        0.2430    -2.9180     0.0580 C.ar  1 <1>  -0.1440 
 10 C        3.5320     0.2910     1.7440 C.3   1 <1>   0.2090 
 11 C        2.6440     1.3670    -0.3060 C.3   1 <1>   0.2090 
 12 O        3.6020    -2.6850    -1.3350 O.3   1 <1>  -0.3630 
 13 C        1.9810    -4.4440    -1.4450 C.ar  1 <1>  -0.1500 
 14 C       -0.1360    -4.1760    -0.3800 C.ar  1 <1>  -0.1500 
 15 N        3.8390     1.1450     0.5600 N.pl3 1 <1>  -0.8380 
 16 C        4.4070    -3.2820    -2.3300 C.3   1 <1>   0.0400 
 17 C        0.7330    -4.9400    -1.1290 C.ar  1 <1>  -0.1500 
 18 C        4.9860     1.8610     0.3900 C.ar  1 <1>   0.7710 
 19 N        6.1510     1.2200     0.6880 N.ar  1 <1>  -0.1790 
 20 N        4.9490     3.0880    -0.0600 N.ar  1 <1>  -0.5670 
 21 C        7.3560     1.7920     0.5770 C.ar  1 <1>   0.4610 
 22 C        6.1490     3.7070    -0.1800 C.ar  1 <1>   0.1050 
 23 N        8.4720     1.1070     0.8840 N.pl3 1 <1>  -0.9000 
 24 C        7.3530     3.1160     0.1230 C.ar  1 <1>   0.0000 
 25 N        6.4280     4.9680    -0.5940 N.pl3 1 <1>   0.3140 
 26 C        8.3000     4.1150    -0.1480 C.2   1 <1>   0.1390 
 27 N        7.7620     5.2080    -0.5710 N.2   1 <1>  -0.7070 
 28 C        5.4760     6.0030    -1.0230 C.3   1 <1>   0.0160 
 29 H       -0.5750    -0.3040    -0.3040 H     1 <1>   0.0800 
 30 H       -1.0610    -0.0400     1.3610 H     1 <1>   0.0800 
 31 H        3.9360    -1.5560     0.7720 H     1 <1>   0.0800 
 32 H        2.8230    -1.7060     2.0840 H     1 <1>   0.0800 
 33 H        1.2960     0.1420    -1.4430 H     1 <1>   0.0800 
 34 H        2.9400    -0.3570    -1.4990 H     1 <1>   0.0800 
 35 H       -1.7510    -2.2930     0.5250 H     1 <1>   0.0800 
 36 H       -0.6870    -2.3830     1.9050 H     1 <1>   0.0800 
 37 H        4.3800     0.2020     2.4000 H     1 <1>   0.0800 
 38 H        2.7310     0.7420     2.3100 H     1 <1>   0.0800 
 39 H        1.8590     1.8290     0.2720 H     1 <1>   0.0800 
 40 H        2.8800     2.0180    -1.1310 H     1 <1>   0.0800 
 41 H        2.6310    -5.0680    -2.0270 H     1 <1>   0.1500 
 42 H       -1.1090    -4.5660    -0.1380 H     1 <1>   0.1500 
 43 H        5.2560    -2.6470    -2.5030 H     1 <1>   0.0800 
 44 H        3.8320    -3.3760    -3.2350 H     1 <1>   0.0800 
 45 H        4.7370    -4.2450    -1.9830 H     1 <1>   0.0800 
 46 H        0.4370    -5.9190    -1.4660 H     1 <1>   0.1500 
 47 H        6.0370     0.2520     0.9450 H     1 <1>   0.4570 
 48 H        9.4070     1.5270     0.8030 H     1 <1>   0.4000 
 49 H        8.5270     0.1390     1.2210 H     1 <1>   0.4000 
 50 H        9.3630     3.9920    -0.0210 H     1 <1>   0.1500 
 51 H        4.4740     5.6180    -0.9850 H     1 <1>   0.0800 
 52 H        5.7130     6.3000    -2.0280 H     1 <1>   0.0800 
 53 H        5.5640     6.8510    -0.3700 H     1 <1>   0.0800 
@<TRIPOS>BOND
  1   1   2  1   
  2   1   3  1   
  3   2   4  1   
  4   2   5  1   
  5   2   6  1   
  6   3   7  1   
  7   3  29  1   
  8   3  30  1   
  9   4   8  ar  
 10   4   9  ar  
 11   5  10  1   
 12   5  31  1   
 13   5  32  1   
 14   6  11  1   
 15   6  33  1   
 16   6  34  1   
 17   7   9  1   
 18   7  35  1   
 19   7  36  1   
 20   8  12  1   
 21   8  13  ar  
 22   9  14  ar  
 23  10  15  1   
 24  10  37  1   
 25  10  38  1   
 26  11  15  1   
 27  11  39  1   
 28  11  40  1   
 29  12  16  1   
 30  13  17  ar  
 31  13  41  1   
 32  14  17  ar  
 33  14  42  1   
 34  15  18  1   
 35  16  43  1   
 36  16  44  1   
 37  16  45  1   
 38  17  46  1   
 39  18  19  ar  
 40  18  20  ar  
 41  19  21  ar  
 42  19  47  1   
 43  20  22  ar  
 44  21  23  1   
 45  21  24  ar  
 46  22  24  ar  
 47  22  25  1   
 48  23  48  1   
 49  23  49  1   
 50  24  26  1   
 51  25  27  1   
 52  25  28  1   
 53  26  27  2   
 54  26  50  1   
 55  28  51  1   
 56  28  52  1   
 57  28  53  1   
@<TRIPOS>SUBSTRUCTURE
  1 ****  15 GROUP 4 **** **** 0

# MOE 2024.06 (io_trps.svl 2023.06)
