@<TRIPOS>MOLECULE
NONAME
46 47 1 0 0 
SMALL
USER_CHARGES


@<TRIPOS>ATOM
  1 O        1.2560    -0.9160    -1.9380 O.2   1 <1>  -0.5700 
  2 C        1.5770    -1.2050    -0.8060 C.2   1 <1>   0.5690 
  3 N        1.8500    -0.2390     0.1500 N.am  1 <1>  -0.6600 
  4 C        1.6650    -2.7170    -0.5070 C.3   1 <1>   0.1710 
  5 C        1.6930     1.2240    -0.1010 C.3   1 <1>   0.2200 
  6 C        2.3250    -0.5270     1.5360 C.3   1 <1>   0.0600 
  7 N        0.4000    -3.3890    -0.0820 N.3   1 <1>  -0.8100 
  8 C        0.2410     1.5710    -0.4340 C.3   1 <1>  -0.2400 
  9 C        2.6710     1.7070    -1.1720 C.3   1 <1>  -0.2400 
 10 C       -0.6280    -3.2480    -1.1310 C.3   1 <1>   0.2900 
 11 C       -0.0940    -2.8810     1.2070 C.3   1 <1>   0.0300 
 12 C       -1.7890    -4.1800    -0.8390 C.2   1 <1>  -0.3320 
 13 N       -1.5490    -5.4630    -0.4420 N.pl3 1 <1>   0.0330 
 14 C       -3.1290    -3.9730    -0.8930 C.2   1 <1>  -0.1810 
 15 C       -2.7500    -6.0880    -0.2350 C.ar  1 <1>  -0.1520 
 16 C       -3.7640    -5.1780    -0.5120 C.ar  1 <1>   0.0000 
 17 C       -3.8820    -2.7150    -1.2780 C.3   1 <1>  -0.0590 
 18 C       -3.0430    -7.3890     0.1810 C.ar  1 <1>  -0.1500 
 19 C       -5.0990    -5.5740    -0.3750 C.ar  1 <1>  -0.1500 
 20 C       -4.3600    -7.7640     0.3120 C.ar  1 <1>  -0.1500 
 21 C       -5.3890    -6.8550     0.0330 C.ar  1 <1>  -0.1500 
 22 H        2.4290    -2.9100     0.2190 H     1 <1>   0.0800 
 23 H        2.0000    -3.1910    -1.4120 H     1 <1>   0.0800 
 24 H        1.9380     1.7520     0.8060 H     1 <1>   0.0800 
 25 H        2.4290    -1.5770     1.7260 H     1 <1>   0.0800 
 26 H        1.6230    -0.1250     2.2460 H     1 <1>   0.0800 
 27 H        3.2830    -0.0600     1.6900 H     1 <1>   0.0800 
 28 H       -0.0460     1.1660    -1.3870 H     1 <1>   0.0800 
 29 H        0.1240     2.6380    -0.4780 H     1 <1>   0.0800 
 30 H       -0.4140     1.1860     0.3260 H     1 <1>   0.0800 
 31 H        2.4230     1.3010    -2.1360 H     1 <1>   0.0800 
 32 H        3.6730     1.4210    -0.9140 H     1 <1>   0.0800 
 33 H        2.6300     2.7790    -1.2440 H     1 <1>   0.0800 
 34 H       -0.2070    -3.5160    -2.0860 H     1 <1>   0.0800 
 35 H       -0.9680    -2.2280    -1.1900 H     1 <1>   0.0800 
 36 H        0.6550    -3.0170     1.9670 H     1 <1>   0.0800 
 37 H       -0.9740    -3.4230     1.5080 H     1 <1>   0.0800 
 38 H       -0.3440    -1.8360     1.1320 H     1 <1>   0.0800 
 39 H       -0.6150    -5.8410    -0.2580 H     1 <1>   0.2700 
 40 H       -3.2020    -1.9300    -1.5510 H     1 <1>   0.0800 
 41 H       -4.4800    -2.3830    -0.4500 H     1 <1>   0.0800 
 42 H       -4.5250    -2.9210    -2.1150 H     1 <1>   0.0800 
 43 H       -2.2440    -8.0760     0.3920 H     1 <1>   0.1500 
 44 H       -5.8780    -4.8670    -0.5920 H     1 <1>   0.1500 
 45 H       -4.6130    -8.7600     0.6300 H     1 <1>   0.1500 
 46 H       -6.4110    -7.1720     0.1420 H     1 <1>   0.1500 
@<TRIPOS>BOND
  1   1   2  2   
  2   2   3  am  
  3   2   4  1   
  4   3   5  1   
  5   3   6  1   
  6   4   7  1   
  7   4  22  1   
  8   4  23  1   
  9   5   8  1   
 10   5   9  1   
 11   5  24  1   
 12   6  25  1   
 13   6  26  1   
 14   6  27  1   
 15   7  10  1   
 16   7  11  1   
 17   8  28  1   
 18   8  29  1   
 19   8  30  1   
 20   9  31  1   
 21   9  32  1   
 22   9  33  1   
 23  10  12  1   
 24  10  34  1   
 25  10  35  1   
 26  11  36  1   
 27  11  37  1   
 28  11  38  1   
 29  12  13  1   
 30  12  14  2   
 31  13  15  1   
 32  13  39  1   
 33  14  16  1   
 34  14  17  1   
 35  15  16  ar  
 36  15  18  ar  
 37  16  19  ar  
 38  17  40  1   
 39  17  41  1   
 40  17  42  1   
 41  18  20  ar  
 42  18  43  1   
 43  19  21  ar  
 44  19  44  1   
 45  20  21  ar  
 46  20  45  1   
 47  21  46  1   
@<TRIPOS>SUBSTRUCTURE
  1 ****  10 GROUP 4 **** **** 0

# MOE 2024.06 (io_trps.svl 2023.06)
