@<TRIPOS>MOLECULE
NONAME
51 52 1 0 0 
SMALL
USER_CHARGES


@<TRIPOS>ATOM
  1 S        1.5900     0.6670    -2.3240 S.o2  1 <1>   1.3330 
  2 O        1.4720     1.4810    -3.5120 O.2   1 <1>  -0.6500 
  3 O        1.7940    -0.7590    -2.4510 O.2   1 <1>  -0.6500 
  4 N        0.1770     0.9080    -1.4110 N.am  1 <1>  -0.8490 
  5 C        2.8910     1.3230    -1.2770 C.3   1 <1>  -0.0550 
  6 C       -0.8760    -0.0510    -1.7610 C.3   1 <1>   0.1160 
  7 C       -0.3480     2.2750    -1.5070 C.3   1 <1>   0.1160 
  8 C        3.1740     0.4810    -0.0130 C.3   1 <1>  -0.0800 
  9 C        4.3730     0.9350     0.8070 C.3   1 <1>   0.2200 
 10 C        2.0460     0.4540     1.0260 C.3   1 <1>   0.1200 
 11 N        4.3840     2.4100     0.9570 N.am  1 <1>  -0.7300 
 12 C        4.0370     0.3110     2.1530 C.3   1 <1>   0.1200 
 13 O        2.6570     0.4710     2.2860 O.3   1 <1>  -0.5600 
 14 C        5.1290     3.2770     0.2110 C.2   1 <1>   0.5440 
 15 O        5.8000     2.8190    -0.6920 O.2   1 <1>  -0.5700 
 16 C        5.0850     4.7040     0.4670 C.ar  1 <1>   0.0860 
 17 C        5.2590     5.6230    -0.5650 C.ar  1 <1>  -0.1500 
 18 C        4.8660     5.2200     1.7450 C.ar  1 <1>  -0.1500 
 19 C        5.2050     6.9890    -0.3590 C.ar  1 <1>   0.0820 
 20 C        4.8020     6.5820     1.9750 C.ar  1 <1>  -0.1500 
 21 O        5.3960     7.7450    -1.4760 O.3   1 <1>  -0.3620 
 22 C        4.9600     7.4890     0.9310 C.ar  1 <1>   0.0820 
 23 C        6.0030     9.0160    -1.4060 C.3   1 <1>   0.3200 
 24 O        4.8670     8.8310     1.1360 O.3   1 <1>  -0.3630 
 25 C        6.5410     9.3600    -2.7540 C.1   1 <1>  -0.2000 
 26 C        4.5270     9.3900     2.3870 C.3   1 <1>   0.0400 
 27 C        6.9710     9.6350    -3.8290 C.1   1 <1>  -0.1770 
 28 H        3.7950     1.3650    -1.8540 H     1 <1>   0.0800 
 29 H        2.6470     2.3290    -0.9990 H     1 <1>   0.0800 
 30 H       -1.7530     0.1200    -1.1610 H     1 <1>   0.0800 
 31 H       -0.5350    -1.0560    -1.5790 H     1 <1>   0.0800 
 32 H       -1.1340     0.0420    -2.8030 H     1 <1>   0.0800 
 33 H       -1.1870     2.3970    -0.8430 H     1 <1>   0.0800 
 34 H       -0.6660     2.4870    -2.5150 H     1 <1>   0.0800 
 35 H        0.4100     2.9870    -1.2290 H     1 <1>   0.0800 
 36 H        3.3550    -0.5350    -0.3200 H     1 <1>   0.0800 
 37 H        5.3110     0.5820     0.4110 H     1 <1>   0.0800 
 38 H        1.4430    -0.4340     0.9390 H     1 <1>   0.0800 
 39 H        1.4200     1.3260     0.9600 H     1 <1>   0.0800 
 40 H        3.7090     2.7570     1.6420 H     1 <1>   0.3700 
 41 H        4.5410     0.7880     2.9740 H     1 <1>   0.0800 
 42 H        4.2500    -0.7440     2.1510 H     1 <1>   0.0800 
 43 H        5.4440     5.2590    -1.5610 H     1 <1>   0.1500 
 44 H        4.7490     4.5440     2.5740 H     1 <1>   0.1500 
 45 H        4.6280     6.9150     2.9810 H     1 <1>   0.1500 
 46 H        5.2580     9.7330    -1.1110 H     1 <1>   0.0800 
 47 H        6.7980     8.9810    -0.6830 H     1 <1>   0.0800 
 48 H        4.4790    10.4580     2.2740 H     1 <1>   0.0800 
 49 H        5.2880     9.1340     3.1040 H     1 <1>   0.0800 
 50 H        3.5660     9.0120     2.6900 H     1 <1>   0.0800 
 51 H        7.3560     9.8750    -4.8040 H     1 <1>   0.1770 
@<TRIPOS>BOND
  1   1   2  2   
  2   1   3  2   
  3   1   4  am  
  4   1   5  1   
  5   4   6  1   
  6   4   7  1   
  7   5   8  1   
  8   5  28  1   
  9   5  29  1   
 10   6  30  1   
 11   6  31  1   
 12   6  32  1   
 13   7  33  1   
 14   7  34  1   
 15   7  35  1   
 16   8   9  1   
 17   8  10  1   
 18   8  36  1   
 19   9  11  1   
 20   9  12  1   
 21   9  37  1   
 22  10  13  1   
 23  10  38  1   
 24  10  39  1   
 25  11  14  am  
 26  11  40  1   
 27  12  13  1   
 28  12  41  1   
 29  12  42  1   
 30  14  15  2   
 31  14  16  1   
 32  16  17  ar  
 33  16  18  ar  
 34  17  19  ar  
 35  17  43  1   
 36  18  20  ar  
 37  18  44  1   
 38  19  21  1   
 39  19  22  ar  
 40  20  22  ar  
 41  20  45  1   
 42  21  23  1   
 43  22  24  1   
 44  23  25  1   
 45  23  46  1   
 46  23  47  1   
 47  24  26  1   
 48  25  27  3   
 49  26  48  1   
 50  26  49  1   
 51  26  50  1   
 52  27  51  1   
@<TRIPOS>SUBSTRUCTURE
  1 ****  14 GROUP 4 **** **** 0

# MOE 2024.06 (io_trps.svl 2023.06)
