@<TRIPOS>MOLECULE
NONAME
46 48 1 0 0 
SMALL
USER_CHARGES


@<TRIPOS>ATOM
  1 CL      -3.1970    -0.1760    -3.0530 Cl    1 <1>  -0.1770 
  2 C       -3.3820    -0.8820    -1.4630 C.ar  1 <1>   0.1770 
  3 C       -3.5830    -0.0850    -0.3480 C.ar  1 <1>   0.1900 
  4 C       -3.3290    -2.2550    -1.3230 C.ar  1 <1>  -0.1500 
  5 F       -3.6350     1.2170    -0.4730 F     1 <1>  -0.1900 
  6 C       -3.7320    -0.6330     0.9130 C.ar  1 <1>  -0.1500 
  7 C       -3.4770    -2.8250    -0.0650 C.ar  1 <1>   0.0820 
  8 C       -3.6780    -2.0120     1.0530 C.ar  1 <1>  -0.1500 
  9 O       -3.4140    -4.1770    -0.0100 O.3   1 <1>  -0.3630 
 10 C       -3.6240    -4.8850     1.2050 C.3   1 <1>   0.1810 
 11 C       -3.5250    -6.3950     1.0040 C.2   1 <1>   0.5690 
 12 O       -2.6120    -6.9590     1.5650 O.2   1 <1>  -0.5700 
 13 N       -4.4590    -7.0830     0.2670 N.am  1 <1>  -0.6600 
 14 C       -4.3820    -8.5750     0.0970 C.3   1 <1>   0.1400 
 15 C       -5.6140    -6.4730    -0.4410 C.3   1 <1>   0.1400 
 16 C       -5.7740    -9.2670     0.0340 C.3   1 <1>  -0.1060 
 17 C       -6.9160    -6.9690     0.2010 C.3   1 <1>  -0.1600 
 18 C       -6.2700    -9.4250    -1.4120 C.2   1 <1>   0.9060 
 19 C       -6.7750    -8.3750     0.8090 C.3   1 <1>   0.2000 
 20 C       -5.6860   -10.6700     0.6950 C.3   1 <1>  -0.0650 
 21 O       -7.4550    -9.7500    -1.5960 O.co2 1 <1>  -0.9000 
 22 O       -5.5170    -9.2130    -2.3690 O.co2 1 <1>  -0.9000 
 23 O       -8.0270    -8.9550     0.8280 O.3   1 <1>  -0.6800 
 24 C       -4.6180   -11.5860     0.0760 C.3   1 <1>  -0.1950 
 25 C       -4.1740   -12.8170     0.7980 C.3   1 <1>  -0.2000 
 26 C       -3.2290   -11.6630     0.6270 C.3   1 <1>  -0.2000 
 27 H       -3.1730    -2.8830    -2.1810 H     1 <1>   0.1500 
 28 H       -3.8840     0.0090     1.7630 H     1 <1>   0.1500 
 29 H       -3.7910    -2.4310     2.0360 H     1 <1>   0.1500 
 30 H       -2.8710    -4.5750     1.9060 H     1 <1>   0.0800 
 31 H       -4.5980    -4.6380     1.5820 H     1 <1>   0.0800 
 32 H       -3.8000    -8.8040    -0.7790 H     1 <1>   0.0800 
 33 H       -3.8440    -8.9700     0.9390 H     1 <1>   0.0800 
 34 H       -5.5800    -5.4000    -0.4280 H     1 <1>   0.0800 
 35 H       -5.5790    -6.7830    -1.4730 H     1 <1>   0.0800 
 36 H       -7.6780    -6.9690    -0.5600 H     1 <1>   0.0800 
 37 H       -7.2170    -6.2870     0.9740 H     1 <1>   0.0800 
 38 H       -6.4490    -8.2850     1.8310 H     1 <1>   0.0800 
 39 H       -5.4970   -10.5600     1.7480 H     1 <1>   0.0800 
 40 H       -6.6380   -11.1620     0.5930 H     1 <1>   0.0800 
 41 H       -8.1540    -9.3330    -0.0940 H     1 <1>   0.4000 
 42 H       -4.7300   -11.6740    -0.9940 H     1 <1>   0.1000 
 43 H       -4.5760   -13.0180     1.7760 H     1 <1>   0.1000 
 44 H       -4.0140   -13.7130     0.2240 H     1 <1>   0.1000 
 45 H       -2.4160   -11.7440    -0.0730 H     1 <1>   0.1000 
 46 H       -2.9700   -11.0800     1.4940 H     1 <1>   0.1000 
@<TRIPOS>BOND
  1   1   2  1   
  2   2   3  ar  
  3   2   4  ar  
  4   3   5  1   
  5   3   6  ar  
  6   4   7  ar  
  7   4  27  1   
  8   6   8  ar  
  9   6  28  1   
 10   7   8  ar  
 11   7   9  1   
 12   8  29  1   
 13   9  10  1   
 14  10  11  1   
 15  10  30  1   
 16  10  31  1   
 17  11  12  2   
 18  11  13  am  
 19  13  14  1   
 20  13  15  1   
 21  14  16  1   
 22  14  32  1   
 23  14  33  1   
 24  15  17  1   
 25  15  34  1   
 26  15  35  1   
 27  16  18  1   
 28  16  19  1   
 29  16  20  1   
 30  17  19  1   
 31  17  36  1   
 32  17  37  1   
 33  18  21  ar  
 34  18  22  ar  
 35  19  23  1   
 36  19  38  1   
 37  20  24  1   
 38  20  39  1   
 39  20  40  1   
 40  23  41  1   
 41  24  25  1   
 42  24  26  1   
 43  24  42  1   
 44  25  26  1   
 45  25  43  1   
 46  25  44  1   
 47  26  45  1   
 48  26  46  1   
@<TRIPOS>SUBSTRUCTURE
  1 ****  13 GROUP 4 **** **** 0

# MOE 2024.06 (io_trps.svl 2023.06)
