@<TRIPOS>MOLECULE
NONAME
46 48 1 0 0 
SMALL
USER_CHARGES


@<TRIPOS>ATOM
  1 S        0.3180     0.1990    -0.6690 S.o2  1 <1>   1.3330 
  2 O        0.6890    -1.1490    -0.3220 O.2   1 <1>  -0.6500 
  3 O        0.6630     0.7550    -1.9540 O.2   1 <1>  -0.6500 
  4 N        1.0720     1.1400     0.5560 N.am  1 <1>  -0.7570 
  5 C       -1.4420     0.3950    -0.3400 C.3   1 <1>  -0.0550 
  6 C        1.3840     2.4890     0.6160 C.ar  1 <1>   0.1990 
  7 C       -2.0030     1.8210    -0.4900 C.3   1 <1>  -0.2400 
  8 C        2.0200     2.9740     1.7530 C.ar  1 <1>  -0.1500 
  9 C        1.0930     3.3990    -0.3980 C.ar  1 <1>  -0.1500 
 10 C        2.3580     4.3080     1.8710 C.ar  1 <1>  -0.1500 
 11 C        1.4300     4.7320    -0.2770 C.ar  1 <1>  -0.1500 
 12 C        2.0810     5.2230     0.8560 C.ar  1 <1>   0.0860 
 13 C        2.4520     6.6180     0.9800 C.2   1 <1>   0.5440 
 14 O        2.3410     7.1830     2.0530 O.2   1 <1>  -0.5700 
 15 N        2.9490     7.3260    -0.0870 N.am  1 <1>  -0.6600 
 16 C        3.1380     8.8000    -0.0340 C.3   1 <1>   0.4010 
 17 C        3.8030     6.7280    -1.1350 C.3   1 <1>   0.1400 
 18 C        1.8110     9.5460    -0.2270 C.2   1 <1>   0.1080 
 19 C        4.2030     9.0940    -1.1020 C.3   1 <1>  -0.1600 
 20 C        4.8990     7.7590    -1.3560 C.3   1 <1>  -0.1600 
 21 N        1.3910    10.1030    -1.3140 N.2   1 <1>  -0.4100 
 22 C        0.8720     9.7160     0.7900 C.2   1 <1>  -0.1500 
 23 O        0.2280    10.6190    -1.0380 O.3   1 <1>  -0.0190 
 24 C       -0.1130    10.4090     0.2030 C.2   1 <1>  -0.0400 
 25 C       -1.4360    10.9260     0.7260 C.3   1 <1>  -0.0600 
 26 H        1.5010     0.5160     1.2340 H     1 <1>   0.4200 
 27 H       -1.6470     0.0520     0.6570 H     1 <1>   0.0800 
 28 H       -1.9810    -0.2470    -1.0100 H     1 <1>   0.0800 
 29 H       -1.5520     2.4810     0.2300 H     1 <1>   0.0800 
 30 H       -3.0660     1.8180    -0.3290 H     1 <1>   0.0800 
 31 H       -1.8060     2.1960    -1.4790 H     1 <1>   0.0800 
 32 H        2.2520     2.2980     2.5560 H     1 <1>   0.1500 
 33 H        0.6030     3.0740    -1.2960 H     1 <1>   0.1500 
 34 H        2.8460     4.6620     2.7640 H     1 <1>   0.1500 
 35 H        1.1830     5.4150    -1.0720 H     1 <1>   0.1500 
 36 H        3.5400     9.0570     0.9310 H     1 <1>   0.0800 
 37 H        3.2220     6.6020    -2.0330 H     1 <1>   0.0800 
 38 H        4.2100     5.7800    -0.8260 H     1 <1>   0.0800 
 39 H        4.8850     9.8570    -0.7730 H     1 <1>   0.0800 
 40 H        3.7400     9.4220    -2.0150 H     1 <1>   0.0800 
 41 H        5.3160     7.6950    -2.3460 H     1 <1>   0.0800 
 42 H        5.6800     7.6050    -0.6320 H     1 <1>   0.0800 
 43 H        0.9560     9.3520     1.7990 H     1 <1>   0.1500 
 44 H       -1.5540    10.6630     1.7610 H     1 <1>   0.0800 
 45 H       -2.2430    10.4960     0.1600 H     1 <1>   0.0800 
 46 H       -1.4720    11.9960     0.6290 H     1 <1>   0.0800 
@<TRIPOS>BOND
  1   1   2  2   
  2   1   3  2   
  3   1   4  am  
  4   1   5  1   
  5   4   6  1   
  6   4  26  1   
  7   5   7  1   
  8   5  27  1   
  9   5  28  1   
 10   6   8  ar  
 11   6   9  ar  
 12   7  29  1   
 13   7  30  1   
 14   7  31  1   
 15   8  10  ar  
 16   8  32  1   
 17   9  11  ar  
 18   9  33  1   
 19  10  12  ar  
 20  10  34  1   
 21  11  12  ar  
 22  11  35  1   
 23  12  13  1   
 24  13  14  2   
 25  13  15  am  
 26  15  16  1   
 27  15  17  1   
 28  16  18  1   
 29  16  19  1   
 30  16  36  1   
 31  17  20  1   
 32  17  37  1   
 33  17  38  1   
 34  18  21  2   
 35  18  22  1   
 36  19  20  1   
 37  19  39  1   
 38  19  40  1   
 39  20  41  1   
 40  20  42  1   
 41  21  23  1   
 42  22  24  2   
 43  22  43  1   
 44  23  24  1   
 45  24  25  1   
 46  25  44  1   
 47  25  45  1   
 48  25  46  1   
@<TRIPOS>SUBSTRUCTURE
  1 ****  11 GROUP 4 **** **** 0

# MOE 2024.06 (io_trps.svl 2023.06)
