@<TRIPOS>MOLECULE
NONAME
58 61 1 0 0 
SMALL
USER_CHARGES


@<TRIPOS>ATOM
  1 O        0.3200    -2.0890     0.1880 O.3   1 <1>  -0.5600 
  2 C        1.4900    -1.7860     0.8850 C.3   1 <1>   0.2000 
  3 C       -0.8030    -1.3350     0.5270 C.3   1 <1>   0.0400 
  4 C        2.7020    -2.3450     0.1000 C.3   1 <1>   0.0000 
  5 C        1.4900    -2.5360     2.2270 C.3   1 <1>  -0.1600 
  6 C        3.9860    -1.6170     0.5650 C.3   1 <1>   0.3430 
  7 C        2.5950    -2.2730    -1.4400 C.3   1 <1>  -0.1600 
  8 C        2.7510    -3.8070     0.5660 C.3   1 <1>  -0.1600 
  9 C        2.3580    -3.7860     2.0430 C.3   1 <1>  -0.1600 
 10 N        4.3600    -0.4010    -0.2520 N.4   1 <1>  -0.9590 
 11 C        2.5680    -0.8220    -1.9530 C.3   1 <1>  -0.1600 
 12 C        3.2140     0.1950    -1.0010 C.3   1 <1>   0.3430 
 13 C        5.4870    -0.7040    -1.1790 C.3   1 <1>   0.4860 
 14 C        6.7580    -0.9050    -0.3630 C.ar  1 <1>  -0.1440 
 15 C        7.3790    -2.1550    -0.2340 C.ar  1 <1>  -0.0230 
 16 C        7.3070     0.2130     0.2480 C.ar  1 <1>  -0.1500 
 17 N        6.8160    -3.3210    -0.8410 N.pl3 1 <1>   0.5930 
 18 C        8.5660    -2.2420     0.5040 C.ar  1 <1>  -0.1440 
 19 C        8.4610     0.1120     0.9990 C.ar  1 <1>  -0.1440 
 20 N        6.4530    -3.3820    -2.1480 N.2   1 <1>  -0.7070 
 21 C        6.4500    -4.4670    -0.2170 C.2   1 <1>  -0.3020 
 22 C        9.0830    -1.1150     1.1180 C.ar  1 <1>  -0.1500 
 23 C        9.3480    -3.5450     0.6490 C.3   1 <1>  -0.0970 
 24 C        9.0610     1.3340     1.6730 C.3   1 <1>  -0.0970 
 25 C        5.9250    -4.5540    -2.3140 C.2   1 <1>   0.1390 
 26 C        5.8890    -5.2820    -1.1330 C.2   1 <1>  -0.1500 
 27 H        1.5420    -0.7200     1.0210 H     1 <1>   0.0800 
 28 H       -1.6290    -1.6840    -0.0680 H     1 <1>   0.0800 
 29 H       -0.6170    -0.2980     0.3120 H     1 <1>   0.0800 
 30 H       -1.0340    -1.4700     1.5690 H     1 <1>   0.0800 
 31 H        1.9190    -1.9150     2.9930 H     1 <1>   0.0800 
 32 H        0.4950    -2.8090     2.5300 H     1 <1>   0.0800 
 33 H        4.8010    -2.3200     0.5360 H     1 <1>   0.0800 
 34 H        3.8600    -1.3310     1.5960 H     1 <1>   0.0800 
 35 H        3.4420    -2.7810    -1.8680 H     1 <1>   0.0800 
 36 H        1.7170    -2.7930    -1.7870 H     1 <1>   0.0800 
 37 H        2.0070    -4.3730     0.0290 H     1 <1>   0.0800 
 38 H        3.7070    -4.2730     0.4090 H     1 <1>   0.0800 
 39 H        3.2360    -3.7210     2.6630 H     1 <1>   0.0800 
 40 H        1.8160    -4.6790     2.3060 H     1 <1>   0.0800 
 41 H        4.7350     0.2970     0.4010 H     1 <1>   0.4500 
 42 H        1.5430    -0.5250    -2.0990 H     1 <1>   0.0800 
 43 H        3.0430    -0.7750    -2.9170 H     1 <1>   0.0800 
 44 H        2.4690     0.5230    -0.2950 H     1 <1>   0.0800 
 45 H        3.5350     1.0600    -1.5590 H     1 <1>   0.0800 
 46 H        5.2460    -1.5630    -1.7760 H     1 <1>   0.0800 
 47 H        5.6420     0.1240    -1.8500 H     1 <1>   0.0800 
 48 H        6.8490     1.1810     0.1400 H     1 <1>   0.1500 
 49 H        6.6160    -4.6310     0.8310 H     1 <1>   0.1500 
 50 H        9.9920    -1.1870     1.6920 H     1 <1>   0.1500 
 51 H       10.3660    -3.3490     0.9340 H     1 <1>   0.0800 
 52 H        9.3730    -4.0830    -0.2830 H     1 <1>   0.0800 
 53 H        8.9030    -4.1670     1.4040 H     1 <1>   0.0800 
 54 H        9.4840     1.0660     2.6250 H     1 <1>   0.0800 
 55 H        8.3140     2.0890     1.8380 H     1 <1>   0.0800 
 56 H        9.8390     1.7450     1.0550 H     1 <1>   0.0800 
 57 H        5.5550    -4.9150    -3.2610 H     1 <1>   0.1500 
 58 H        5.4930    -6.2770    -1.0130 H     1 <1>   0.1500 
@<TRIPOS>BOND
  1   1   2  1   
  2   1   3  1   
  3   2   4  1   
  4   2   5  1   
  5   2  27  1   
  6   3  28  1   
  7   3  29  1   
  8   3  30  1   
  9   4   6  1   
 10   4   7  1   
 11   4   8  1   
 12   5   9  1   
 13   5  31  1   
 14   5  32  1   
 15   6  10  1   
 16   6  33  1   
 17   6  34  1   
 18   7  11  1   
 19   7  35  1   
 20   7  36  1   
 21   8   9  1   
 22   8  37  1   
 23   8  38  1   
 24   9  39  1   
 25   9  40  1   
 26  10  12  1   
 27  10  13  1   
 28  10  41  1   
 29  11  12  1   
 30  11  42  1   
 31  11  43  1   
 32  12  44  1   
 33  12  45  1   
 34  13  14  1   
 35  13  46  1   
 36  13  47  1   
 37  14  15  ar  
 38  14  16  ar  
 39  15  17  1   
 40  15  18  ar  
 41  16  19  ar  
 42  16  48  1   
 43  17  20  1   
 44  17  21  1   
 45  18  22  ar  
 46  18  23  1   
 47  19  22  ar  
 48  19  24  1   
 49  20  25  2   
 50  21  26  2   
 51  21  49  1   
 52  22  50  1   
 53  23  51  1   
 54  23  52  1   
 55  23  53  1   
 56  24  54  1   
 57  24  55  1   
 58  24  56  1   
 59  25  26  1   
 60  25  57  1   
 61  26  58  1   
@<TRIPOS>SUBSTRUCTURE
  1 ****   6 GROUP 4 **** **** 0

# MOE 2024.06 (io_trps.svl 2023.06)
