@<TRIPOS>MOLECULE
NONAME
37 39 1 0 0 
SMALL
USER_CHARGES


@<TRIPOS>ATOM
  1 O        0.0100     0.1250     0.9100 O.3   1 <1>  -0.5600 
  2 C        0.6760     0.7910    -0.1220 C.3   1 <1>   0.1200 
  3 C       -1.3740     0.2840     0.7760 C.3   1 <1>   0.1200 
  4 C       -0.2460     1.9310    -0.5350 C.3   1 <1>   0.2890 
  5 C       -1.6020     1.2570    -0.3860 C.3   1 <1>  -0.0800 
  6 N       -0.1000     3.0450     0.4380 N.pl3 1 <1>  -0.8690 
  7 C       -2.8020     2.2030    -0.1950 C.3   1 <1>  -0.0170 
  8 C        0.2890     4.3180     0.1050 C.ar  1 <1>   0.4100 
  9 C       -4.1030     1.4190    -0.1180 C.ar  1 <1>  -0.1430 
 10 N        0.2060     4.6830    -1.1600 N.ar  1 <1>  -0.6200 
 11 C        0.7440     5.1850     1.0670 C.ar  1 <1>  -0.1500 
 12 C       -4.7410     0.9530    -1.2500 C.ar  1 <1>  -0.1500 
 13 C       -4.7130     1.1300     1.0860 C.ar  1 <1>  -0.1500 
 14 C        0.5930     5.9180    -1.4180 C.ar  1 <1>   0.4700 
 15 C        1.1160     6.4440     0.6700 C.ar  1 <1>   0.4100 
 16 C       -5.9200     0.2360    -1.1260 C.ar  1 <1>   0.1600 
 17 C       -5.8930     0.4040     1.1000 C.ar  1 <1>   0.1600 
 18 N        1.0460     6.8310    -0.5810 N.ar  1 <1>  -0.6200 
 19 N        1.5730     7.3820     1.5350 N.pl3 1 <1>  -0.9000 
 20 N       -6.5100    -0.0520     0.0220 N.ar  1 <1>  -0.6200 
 21 H        1.6340     1.1380     0.2240 H     1 <1>   0.0800 
 22 H        0.8070     0.0960    -0.9320 H     1 <1>   0.0800 
 23 H       -1.8230    -0.6760     0.5900 H     1 <1>   0.0800 
 24 H       -1.7430     0.6850     1.7040 H     1 <1>   0.0800 
 25 H       -0.0560     2.2530    -1.5450 H     1 <1>   0.0800 
 26 H       -1.7750     0.6680    -1.2690 H     1 <1>   0.0800 
 27 H        0.1250     2.7040     1.3760 H     1 <1>   0.4000 
 28 H       -2.8460     2.8930    -1.0200 H     1 <1>   0.0800 
 29 H       -2.6820     2.7850     0.7020 H     1 <1>   0.0800 
 30 H        0.8110     4.8890     2.0930 H     1 <1>   0.1500 
 31 H       -4.3330     1.1410    -2.2250 H     1 <1>   0.1500 
 32 H       -4.2830     1.4610     2.0140 H     1 <1>   0.1500 
 33 H        0.5310     6.2220    -2.4500 H     1 <1>   0.1500 
 34 H       -6.4020    -0.1190    -2.0210 H     1 <1>   0.1500 
 35 H       -6.3530     0.1880     2.0490 H     1 <1>   0.1500 
 36 H        1.6880     8.3060     1.1130 H     1 <1>   0.4000 
 37 H        1.1870     7.4060     2.4780 H     1 <1>   0.4000 
@<TRIPOS>BOND
  1   1   2  1   
  2   1   3  1   
  3   2   4  1   
  4   2  21  1   
  5   2  22  1   
  6   3   5  1   
  7   3  23  1   
  8   3  24  1   
  9   4   5  1   
 10   4   6  1   
 11   4  25  1   
 12   5   7  1   
 13   5  26  1   
 14   6   8  1   
 15   6  27  1   
 16   7   9  1   
 17   7  28  1   
 18   7  29  1   
 19   8  10  ar  
 20   8  11  ar  
 21   9  12  ar  
 22   9  13  ar  
 23  10  14  ar  
 24  11  15  ar  
 25  11  30  1   
 26  12  16  ar  
 27  12  31  1   
 28  13  17  ar  
 29  13  32  1   
 30  14  18  ar  
 31  14  33  1   
 32  15  18  ar  
 33  15  19  1   
 34  16  20  ar  
 35  16  34  1   
 36  17  20  ar  
 37  17  35  1   
 38  19  36  1   
 39  19  37  1   
@<TRIPOS>SUBSTRUCTURE
  1 ****   7 GROUP 4 **** **** 0

# MOE 2024.06 (io_trps.svl 2023.06)
