@<TRIPOS>MOLECULE
NONAME
52 54 1 0 0 
SMALL
USER_CHARGES


@<TRIPOS>ATOM
  1 O       -0.1260     0.9250    -3.3250 O.2   1 <1>  -0.5700 
  2 C       -0.0340     0.3080    -2.2910 C.2   1 <1>   0.5690 
  3 N        0.4950     0.8900    -1.1550 N.am  1 <1>  -0.6600 
  4 C       -0.5230    -1.1450    -2.2970 C.3   1 <1>   0.1810 
  5 C        0.6950     0.1580     0.1310 C.3   1 <1>   0.1400 
  6 C        0.9500     2.3090    -1.1640 C.3   1 <1>   0.1400 
  7 O        0.5470    -2.0430    -2.1220 O.3   1 <1>  -0.5600 
  8 C        2.0290    -0.6130     0.1380 C.3   1 <1>   0.3430 
  9 C        2.4130     2.4400    -0.7240 C.3   1 <1>  -0.1600 
 10 C        0.1980    -3.3320    -1.7180 C.3   1 <1>   0.2640 
 11 N        3.2640     0.2380     0.0580 N.4   1 <1>  -0.9590 
 12 C        3.2740     1.2240    -1.0710 C.3   1 <1>   0.3430 
 13 C        0.7380    -3.5040    -0.3080 C.ar  1 <1>  -0.1440 
 14 C        4.4490    -0.6480    -0.0150 C.3   1 <1>   0.5240 
 15 C        2.0540    -3.8980    -0.1170 C.ar  1 <1>  -0.1500 
 16 C       -0.0650    -3.2530     0.7950 C.ar  1 <1>  -0.1500 
 17 C        5.6640     0.1860     0.3120 C.2   1 <1>  -0.1810 
 18 C        2.5680    -4.0250     1.1620 C.ar  1 <1>  -0.1500 
 19 C        0.4490    -3.3770     2.0740 C.ar  1 <1>  -0.1500 
 20 C        6.6720     0.5320    -0.5800 C.2   1 <1>   0.1390 
 21 C        6.0280     0.7640     1.4800 C.2   1 <1>  -0.3020 
 22 C        1.7660    -3.7600     2.2580 C.ar  1 <1>  -0.1500 
 23 N        7.5760     1.2720    -0.0250 N.2   1 <1>  -0.7070 
 24 N        7.1890     1.4120     1.2520 N.pl3 1 <1>   0.3140 
 25 C        7.9900     2.1810     2.2130 C.3   1 <1>   0.0160 
 26 H       -0.9920    -1.3630    -3.2400 H     1 <1>   0.0800 
 27 H       -1.2400    -1.2790    -1.5080 H     1 <1>   0.0800 
 28 H       -0.1090    -0.5410     0.2730 H     1 <1>   0.0800 
 29 H        0.6610     0.8450     0.9580 H     1 <1>   0.0800 
 30 H        0.3150     2.8940    -0.5200 H     1 <1>   0.0800 
 31 H        0.8530     2.7170    -2.1570 H     1 <1>   0.0800 
 32 H        2.0240    -1.2950    -0.6920 H     1 <1>   0.0800 
 33 H        2.0660    -1.2110     1.0340 H     1 <1>   0.0800 
 34 H        2.4690     2.6600     0.3270 H     1 <1>   0.0800 
 35 H        2.8190     3.2950    -1.2360 H     1 <1>   0.0800 
 36 H        0.6660    -4.0280    -2.3920 H     1 <1>   0.0800 
 37 H       -0.8700    -3.4720    -1.7590 H     1 <1>   0.0800 
 38 H        3.3740     0.7720     0.9260 H     1 <1>   0.4500 
 39 H        4.2830     1.5680    -1.2340 H     1 <1>   0.0800 
 40 H        2.9230     0.7650    -1.9830 H     1 <1>   0.0800 
 41 H        4.5390    -1.0820    -0.9980 H     1 <1>   0.0800 
 42 H        4.3630    -1.4440     0.7070 H     1 <1>   0.0800 
 43 H        2.6810    -4.1120    -0.9670 H     1 <1>   0.1500 
 44 H       -1.0950    -2.9660     0.6660 H     1 <1>   0.1500 
 45 H        3.5860    -4.3460     1.3080 H     1 <1>   0.1500 
 46 H       -0.1790    -3.1880     2.9290 H     1 <1>   0.1500 
 47 H        6.7210     0.2370    -1.6170 H     1 <1>   0.1500 
 48 H        5.5550     0.7570     2.4450 H     1 <1>   0.1500 
 49 H        2.1600    -3.8680     3.2550 H     1 <1>   0.1500 
 50 H        7.5920     2.0570     3.2020 H     1 <1>   0.0800 
 51 H        7.9680     3.2180     1.9360 H     1 <1>   0.0800 
 52 H        9.0040     1.8260     2.1830 H     1 <1>   0.0800 
@<TRIPOS>BOND
  1   1   2  2   
  2   2   3  am  
  3   2   4  1   
  4   3   5  1   
  5   3   6  1   
  6   4   7  1   
  7   4  26  1   
  8   4  27  1   
  9   5   8  1   
 10   5  28  1   
 11   5  29  1   
 12   6   9  1   
 13   6  30  1   
 14   6  31  1   
 15   7  10  1   
 16   8  11  1   
 17   8  32  1   
 18   8  33  1   
 19   9  12  1   
 20   9  34  1   
 21   9  35  1   
 22  10  13  1   
 23  10  36  1   
 24  10  37  1   
 25  11  12  1   
 26  11  14  1   
 27  11  38  1   
 28  12  39  1   
 29  12  40  1   
 30  13  15  ar  
 31  13  16  ar  
 32  14  17  1   
 33  14  41  1   
 34  14  42  1   
 35  15  18  ar  
 36  15  43  1   
 37  16  19  ar  
 38  16  44  1   
 39  17  20  1   
 40  17  21  2   
 41  18  22  ar  
 42  18  45  1   
 43  19  22  ar  
 44  19  46  1   
 45  20  23  2   
 46  20  47  1   
 47  21  24  1   
 48  21  48  1   
 49  22  49  1   
 50  23  24  1   
 51  24  25  1   
 52  25  50  1   
 53  25  51  1   
 54  25  52  1   
@<TRIPOS>SUBSTRUCTURE
  1 ****   8 GROUP 4 **** **** 0

# MOE 2024.06 (io_trps.svl 2023.06)
