@<TRIPOS>MOLECULE
NONAME
48 51 1 0 0 
SMALL
USER_CHARGES


@<TRIPOS>ATOM
  1 O       -1.3780    -0.2710    -0.7890 O.2   1 <1>  -0.5700 
  2 C       -2.0880     0.6210    -1.2180 C.2   1 <1>   0.5440 
  3 N       -3.2990     0.2960    -1.7920 N.am  1 <1>  -0.6600 
  4 C       -1.6690     1.9980    -1.0670 C.ar  1 <1>   0.0860 
  5 C       -3.6700    -1.1220    -2.0440 C.3   1 <1>   0.3200 
  6 C       -4.4030     1.2880    -1.9650 C.3   1 <1>   0.1400 
  7 C       -1.4140     2.8130    -2.1670 C.ar  1 <1>  -0.1500 
  8 C       -1.5160     2.5640     0.1960 C.ar  1 <1>  -0.1500 
  9 C       -4.2500    -1.7110    -0.7780 C.2   1 <1>  -0.3320 
 10 C       -5.1650     1.4970    -0.6510 C.3   1 <1>   0.1200 
 11 C       -1.0490     4.1360    -2.0120 C.ar  1 <1>  -0.1500 
 12 C       -1.1530     3.8880     0.3510 C.ar  1 <1>  -0.1500 
 13 N       -3.5210    -1.8280     0.3440 N.pl3 1 <1>   0.0330 
 14 C       -5.4740    -2.2030    -0.4880 C.2   1 <1>   0.0770 
 15 O       -5.9990     2.5980    -0.7810 O.3   1 <1>  -0.6800 
 16 C       -0.9160     4.7160    -0.7480 C.ar  1 <1>   0.0540 
 17 C       -4.3510    -2.3810     1.2530 C.2   1 <1>   0.0070 
 18 N       -5.5340    -2.6220     0.7910 N.2   1 <1>  -0.5650 
 19 C       -0.5510     6.1120    -0.5910 C.2   1 <1>   0.4620 
 20 C       -3.9220    -2.6830     2.6720 C.3   1 <1>  -0.0600 
 21 N       -0.2690     6.9260    -1.5460 N.2   1 <1>  -0.4100 
 22 N       -0.4800     6.7060     0.6030 N.2   1 <1>  -0.5650 
 23 O       -0.0040     8.0790    -1.0180 O.3   1 <1>  -0.0190 
 24 C       -0.1490     7.8830     0.2660 C.2   1 <1>   0.3930 
 25 C        0.0880     9.0550     1.2060 C.3   1 <1>  -0.0150 
 26 C       -0.6020     9.1520     2.5340 C.3   1 <1>  -0.2000 
 27 C       -0.9830    10.0810     1.4210 C.3   1 <1>  -0.2000 
 28 H       -2.7960    -1.6810    -2.3360 H     1 <1>   0.0800 
 29 H       -4.3850    -1.1820    -2.8460 H     1 <1>   0.0800 
 30 H       -5.0880     0.9440    -2.7200 H     1 <1>   0.0800 
 31 H       -3.9960     2.2270    -2.2940 H     1 <1>   0.0800 
 32 H       -1.5040     2.3960    -3.1560 H     1 <1>   0.1500 
 33 H       -1.6870     1.9510     1.0640 H     1 <1>   0.1500 
 34 H       -4.4920     1.6800     0.1680 H     1 <1>   0.0800 
 35 H       -5.7780     0.6400    -0.4290 H     1 <1>   0.0800 
 36 H       -0.8620     4.7360    -2.8870 H     1 <1>   0.1500 
 37 H       -1.0480     4.2890     1.3450 H     1 <1>   0.1500 
 38 H       -2.5420    -1.5270     0.4490 H     1 <1>   0.2700 
 39 H       -6.3310    -2.2810    -1.1360 H     1 <1>   0.1500 
 40 H       -5.4890     3.4310    -0.7420 H     1 <1>   0.4000 
 41 H       -3.1020    -3.3770     2.6690 H     1 <1>   0.0800 
 42 H       -4.7420    -3.1190     3.2140 H     1 <1>   0.0800 
 43 H       -3.6230    -1.7780     3.1670 H     1 <1>   0.0800 
 44 H        1.1040     9.4030     1.1570 H     1 <1>   0.1000 
 45 H       -0.0510     9.5390     3.3730 H     1 <1>   0.1000 
 46 H       -1.2880     8.3720     2.8170 H     1 <1>   0.1000 
 47 H       -1.9380     9.9430     0.9420 H     1 <1>   0.1000 
 48 H       -0.6990    11.1170     1.4870 H     1 <1>   0.1000 
@<TRIPOS>BOND
  1   1   2  2   
  2   2   3  am  
  3   2   4  1   
  4   3   5  1   
  5   3   6  1   
  6   4   7  ar  
  7   4   8  ar  
  8   5   9  1   
  9   5  28  1   
 10   5  29  1   
 11   6  10  1   
 12   6  30  1   
 13   6  31  1   
 14   7  11  ar  
 15   7  32  1   
 16   8  12  ar  
 17   8  33  1   
 18   9  13  1   
 19   9  14  2   
 20  10  15  1   
 21  10  34  1   
 22  10  35  1   
 23  11  16  ar  
 24  11  36  1   
 25  12  16  ar  
 26  12  37  1   
 27  13  17  1   
 28  13  38  1   
 29  14  18  1   
 30  14  39  1   
 31  15  40  1   
 32  16  19  1   
 33  17  18  2   
 34  17  20  1   
 35  19  21  2   
 36  19  22  1   
 37  20  41  1   
 38  20  42  1   
 39  20  43  1   
 40  21  23  1   
 41  22  24  2   
 42  23  24  1   
 43  24  25  1   
 44  25  26  1   
 45  25  27  1   
 46  25  44  1   
 47  26  27  1   
 48  26  45  1   
 49  26  46  1   
 50  27  47  1   
 51  27  48  1   
@<TRIPOS>SUBSTRUCTURE
  1 ****   8 GROUP 4 **** **** 0

# MOE 2024.06 (io_trps.svl 2023.06)
