@<TRIPOS>MOLECULE
NONAME
53 55 1 0 0 
SMALL
USER_CHARGES


@<TRIPOS>ATOM
  1 O        4.1340     0.3810     1.1560 O.2   1 <1>  -0.5700 
  2 C        3.2190    -0.1630     0.5690 C.2   1 <1>   0.5440 
  3 N        2.9480     0.3000    -0.6960 N.am  1 <1>  -0.6600 
  4 C        2.5390    -1.3210     1.1120 C.ar  1 <1>   0.0860 
  5 C        3.3760    -0.5080    -1.8790 C.3   1 <1>   0.1400 
  6 C        2.7230     1.7530    -0.9580 C.3   1 <1>   0.1400 
  7 C        1.1520    -1.4080     1.1780 C.ar  1 <1>   0.1660 
  8 C        3.2300    -2.4340     1.5850 C.ar  1 <1>   0.1660 
  9 C        4.9160    -0.5150    -2.0330 C.3   1 <1>   0.3430 
 10 C        4.0280     2.5620    -1.0430 C.3   1 <1>  -0.1600 
 11 N        0.5300    -2.4820     1.6100 N.ar  1 <1>  -0.6200 
 12 C        0.2380    -0.2660     0.7640 C.3   1 <1>  -0.0960 
 13 N        2.6210    -3.5110     2.0240 N.ar  1 <1>  -0.6200 
 14 C        4.7480    -2.4970     1.6320 C.3   1 <1>  -0.0970 
 15 N        5.5490     0.6620    -1.3570 N.4   1 <1>  -0.9590 
 16 C        5.1230     1.9660    -1.9300 C.3   1 <1>   0.3430 
 17 C        1.3010    -3.4750     2.0100 C.ar  1 <1>   0.4700 
 18 C        7.0120     0.5450    -1.1910 C.3   1 <1>   0.4810 
 19 C        7.4210     1.5820    -0.1750 C.2   1 <1>  -0.2880 
 20 C        8.2160     2.6380    -0.4210 C.2   1 <1>  -0.1780 
 21 C        8.6210     3.6760     0.5020 C.ar  1 <1>   0.0280 
 22 C        8.0510     3.8180     1.7670 C.ar  1 <1>  -0.1500 
 23 C        9.6080     4.5870     0.1350 C.ar  1 <1>  -0.1500 
 24 C        8.4510     4.8250     2.6270 C.ar  1 <1>  -0.1500 
 25 C       10.0120     5.5960     0.9900 C.ar  1 <1>  -0.1500 
 26 C        9.4330     5.7170     2.2390 C.ar  1 <1>  -0.1500 
 27 H        3.0220    -1.5210    -1.7770 H     1 <1>   0.0800 
 28 H        2.9290    -0.1050    -2.7710 H     1 <1>   0.0800 
 29 H        2.1660     1.8630    -1.8740 H     1 <1>   0.0800 
 30 H        2.1170     2.1610    -0.1660 H     1 <1>   0.0800 
 31 H        5.1780    -0.5380    -3.0780 H     1 <1>   0.0800 
 32 H        5.2900    -1.4200    -1.5840 H     1 <1>   0.0800 
 33 H        4.4200     2.7160    -0.0530 H     1 <1>   0.0800 
 34 H        3.7850     3.5390    -1.4220 H     1 <1>   0.0800 
 35 H        0.6280     0.6750     1.1040 H     1 <1>   0.0800 
 36 H       -0.7380    -0.3940     1.2000 H     1 <1>   0.0800 
 37 H        0.1320    -0.2500    -0.3040 H     1 <1>   0.0800 
 38 H        5.1780    -2.1450     0.7150 H     1 <1>   0.0800 
 39 H        5.0770    -3.5100     1.7920 H     1 <1>   0.0800 
 40 H        5.1060    -1.8950     2.4480 H     1 <1>   0.0800 
 41 H        5.1460     0.6690    -0.3940 H     1 <1>   0.4500 
 42 H        5.9570     2.6500    -1.9520 H     1 <1>   0.0800 
 43 H        4.7630     1.8390    -2.9380 H     1 <1>   0.0800 
 44 H        0.7950    -4.3570     2.3700 H     1 <1>   0.1500 
 45 H        7.2740    -0.4360    -0.8280 H     1 <1>   0.0800 
 46 H        7.5120     0.7170    -2.1300 H     1 <1>   0.0800 
 47 H        6.9970     1.3860     0.7950 H     1 <1>   0.1500 
 48 H        8.6280     2.7750    -1.4070 H     1 <1>   0.1500 
 49 H        7.2840     3.1430     2.0950 H     1 <1>   0.1500 
 50 H       10.0740     4.5100    -0.8310 H     1 <1>   0.1500 
 51 H        7.9990     4.9170     3.5990 H     1 <1>   0.1500 
 52 H       10.7780     6.2880     0.6850 H     1 <1>   0.1500 
 53 H        9.7460     6.5020     2.9070 H     1 <1>   0.1500 
@<TRIPOS>BOND
  1   1   2  2   
  2   2   3  am  
  3   2   4  1   
  4   3   5  1   
  5   3   6  1   
  6   4   7  ar  
  7   4   8  ar  
  8   5   9  1   
  9   5  27  1   
 10   5  28  1   
 11   6  10  1   
 12   6  29  1   
 13   6  30  1   
 14   7  11  ar  
 15   7  12  1   
 16   8  13  ar  
 17   8  14  1   
 18   9  15  1   
 19   9  31  1   
 20   9  32  1   
 21  10  16  1   
 22  10  33  1   
 23  10  34  1   
 24  11  17  ar  
 25  12  35  1   
 26  12  36  1   
 27  12  37  1   
 28  13  17  ar  
 29  14  38  1   
 30  14  39  1   
 31  14  40  1   
 32  15  16  1   
 33  15  18  1   
 34  15  41  1   
 35  16  42  1   
 36  16  43  1   
 37  17  44  1   
 38  18  19  1   
 39  18  45  1   
 40  18  46  1   
 41  19  20  2   
 42  19  47  1   
 43  20  21  1   
 44  20  48  1   
 45  21  22  ar  
 46  21  23  ar  
 47  22  24  ar  
 48  22  49  1   
 49  23  25  ar  
 50  23  50  1   
 51  24  26  ar  
 52  24  51  1   
 53  25  26  ar  
 54  25  52  1   
 55  26  53  1   
@<TRIPOS>SUBSTRUCTURE
  1 ****   1 GROUP 4 **** **** 0

# MOE 2024.06 (io_trps.svl 2023.06)
