@<TRIPOS>MOLECULE
NONAME
47 49 1 0 0 
SMALL
USER_CHARGES


@<TRIPOS>ATOM
  1 O        0.3140     0.0830    -1.3770 O.2   1 <1>  -0.5700 
  2 C        0.9230    -0.5660    -0.5580 C.2   1 <1>   0.5770 
  3 N        0.8390    -1.8840    -0.1680 N.am  1 <1>  -0.5850 
  4 C        2.0640    -0.3400     0.4490 C.3   1 <1>   0.2780 
  5 C        2.3250    -1.7790    -0.0280 C.3   1 <1>   0.2250 
  6 C        0.1480    -2.8840    -1.0040 C.3   1 <1>   0.3640 
  7 N        3.4820     0.0710     0.5090 N.am  1 <1>  -0.5850 
  8 C        3.2620    -2.2600     1.0610 C.3   1 <1>  -0.1600 
  9 C       -1.2690    -3.0800    -0.4720 C.ar  1 <1>  -0.1440 
 10 C        0.9100    -4.2120    -1.0160 C.3   1 <1>  -0.2400 
 11 C        4.0040     1.1000    -0.2110 C.2   1 <1>   0.7800 
 12 C        4.2410    -1.0670     1.1110 C.3   1 <1>   0.1400 
 13 C       -1.4970    -3.5350     0.8200 C.ar  1 <1>  -0.1500 
 14 C       -2.3560    -2.7970    -1.2860 C.ar  1 <1>  -0.1500 
 15 O        3.3010     1.8850    -0.8110 O.2   1 <1>  -0.5700 
 16 O        5.3350     1.1980    -0.2290 O.3   1 <1>  -0.4300 
 17 C       -2.7880    -3.7160     1.2860 C.ar  1 <1>  -0.1500 
 18 C       -3.6480    -2.9770    -0.8230 C.ar  1 <1>  -0.1500 
 19 C        6.1090     2.1660    -0.9040 C.3   1 <1>   0.2800 
 20 C       -3.8650    -3.4390     0.4630 C.ar  1 <1>  -0.1500 
 21 C        5.8840     2.0650    -2.4170 C.3   1 <1>  -0.2400 
 22 C        5.8020     3.5650    -0.3580 C.3   1 <1>  -0.2400 
 23 C        7.5610     1.8080    -0.5850 C.3   1 <1>  -0.2400 
 24 H        1.6640    -0.3100     1.4510 H     1 <1>   0.0000 
 25 H        2.8020    -1.8210    -0.9980 H     1 <1>   0.0000 
 26 H        0.0940    -2.5100    -2.0140 H     1 <1>   0.0800 
 27 H        2.7480    -2.3750     1.9990 H     1 <1>   0.0800 
 28 H        3.7620    -3.1730     0.7930 H     1 <1>   0.0800 
 29 H        1.0650    -4.5720    -0.0150 H     1 <1>   0.0800 
 30 H        1.8560    -4.0990    -1.5120 H     1 <1>   0.0800 
 31 H        0.3370    -4.9440    -1.5550 H     1 <1>   0.0800 
 32 H        5.1210    -1.2670     0.5230 H     1 <1>   0.0800 
 33 H        4.5280    -0.8340     2.1230 H     1 <1>   0.0800 
 34 H       -0.6670    -3.7450     1.4710 H     1 <1>   0.1500 
 35 H       -2.2040    -2.4290    -2.2860 H     1 <1>   0.1500 
 36 H       -2.9540    -4.0700     2.2880 H     1 <1>   0.1500 
 37 H       -4.4840    -2.7540    -1.4630 H     1 <1>   0.1500 
 38 H       -4.8690    -3.5790     0.8230 H     1 <1>   0.1500 
 39 H        6.5740     2.7070    -2.9330 H     1 <1>   0.0800 
 40 H        4.8910     2.3770    -2.6840 H     1 <1>   0.0800 
 41 H        6.0400     1.0560    -2.7530 H     1 <1>   0.0800 
 42 H        6.4890     4.2800    -0.7730 H     1 <1>   0.0800 
 43 H        5.9000     3.5800     0.7120 H     1 <1>   0.0800 
 44 H        4.8090     3.8780    -0.6260 H     1 <1>   0.0800 
 45 H        8.2290     2.5010    -1.0630 H     1 <1>   0.0800 
 46 H        7.7890     0.8190    -0.9400 H     1 <1>   0.0800 
 47 H        7.7310     1.8500     0.4760 H     1 <1>   0.0800 
@<TRIPOS>BOND
  1   1   2  2   
  2   2   3  am  
  3   2   4  1   
  4   3   5  1   
  5   3   6  1   
  6   4   5  1   
  7   4   7  1   
  8   4  24  1   
  9   5   8  1   
 10   5  25  1   
 11   6   9  1   
 12   6  10  1   
 13   6  26  1   
 14   7  11  am  
 15   7  12  1   
 16   8  12  1   
 17   8  27  1   
 18   8  28  1   
 19   9  13  ar  
 20   9  14  ar  
 21  10  29  1   
 22  10  30  1   
 23  10  31  1   
 24  11  15  2   
 25  11  16  1   
 26  12  32  1   
 27  12  33  1   
 28  13  17  ar  
 29  13  34  1   
 30  14  18  ar  
 31  14  35  1   
 32  16  19  1   
 33  17  20  ar  
 34  17  36  1   
 35  18  20  ar  
 36  18  37  1   
 37  19  21  1   
 38  19  22  1   
 39  19  23  1   
 40  20  38  1   
 41  21  39  1   
 42  21  40  1   
 43  21  41  1   
 44  22  42  1   
 45  22  43  1   
 46  22  44  1   
 47  23  45  1   
 48  23  46  1   
 49  23  47  1   
@<TRIPOS>SUBSTRUCTURE
  1 ****   4 GROUP 4 **** **** 0

# MOE 2024.06 (io_trps.svl 2023.06)
