@<TRIPOS>MOLECULE
NONAME
47 49 1 0 0 
SMALL
USER_CHARGES


@<TRIPOS>ATOM
  1 S        0.7150     0.8930     0.0500 S.o2  1 <1>   1.3330 
  2 O       -0.4020     1.7630    -0.2410 O.2   1 <1>  -0.6500 
  3 O        0.5920    -0.5290    -0.1760 O.2   1 <1>  -0.6500 
  4 N        1.1200     1.1270     1.6830 N.am  1 <1>  -0.8490 
  5 C        2.1570     1.4740    -0.8470 C.3   1 <1>  -0.0550 
  6 C        0.9930     2.5220     2.1210 C.3   1 <1>   0.1160 
  7 C        0.3410     0.2570     2.5690 C.3   1 <1>   0.1160 
  8 C        3.4190     0.6030    -0.6650 C.3   1 <1>  -0.0800 
  9 C        4.5960     1.0030    -1.5400 C.3   1 <1>   0.2200 
 10 C        4.0240     0.6300     0.7430 C.3   1 <1>   0.1200 
 11 N        4.7310     2.4760    -1.5790 N.am  1 <1>  -0.7300 
 12 C        5.7570     0.4120    -0.7510 C.3   1 <1>   0.1200 
 13 O        5.4120     0.5600     0.5920 O.3   1 <1>  -0.5600 
 14 C        4.5700     3.2790    -2.6620 C.2   1 <1>   0.5690 
 15 O        4.3140     2.8190    -3.7480 O.2   1 <1>  -0.5700 
 16 C        4.6730     4.7860    -2.5300 C.3   1 <1>   0.1570 
 17 N        5.4710     5.1710    -1.3530 N.pl3 1 <1>   0.3140 
 18 N        4.9970     5.0140    -0.1050 N.2   1 <1>  -0.7070 
 19 C        6.7060     5.6870    -1.3700 C.2   1 <1>  -0.3020 
 20 C        5.9740     5.4450     0.6660 C.ar  1 <1>   0.2890 
 21 C        7.0820     5.8840    -0.0780 C.ar  1 <1>   0.0000 
 22 C        6.0240     5.5040     2.0780 C.ar  1 <1>  -0.1500 
 23 C        8.2310     6.3830     0.5870 C.ar  1 <1>  -0.1500 
 24 C        7.1360     5.9840     2.7040 C.ar  1 <1>  -0.1500 
 25 C        8.2510     6.4290     1.9490 C.ar  1 <1>  -0.1500 
 26 H        1.9160     1.4900    -1.8920 H     1 <1>   0.0800 
 27 H        2.3660     2.4840    -0.5550 H     1 <1>   0.0800 
 28 H        1.3330     2.6220     3.1380 H     1 <1>   0.0800 
 29 H       -0.0340     2.8450     2.0620 H     1 <1>   0.0800 
 30 H        1.5930     3.1650     1.5010 H     1 <1>   0.0800 
 31 H        0.6290     0.4130     3.5950 H     1 <1>   0.0800 
 32 H        0.5200    -0.7760     2.3240 H     1 <1>   0.0800 
 33 H       -0.7130     0.4600     2.4620 H     1 <1>   0.0800 
 34 H        3.1680    -0.4190    -0.8920 H     1 <1>   0.0800 
 35 H        4.5330     0.5990    -2.5370 H     1 <1>   0.0800 
 36 H        3.6920    -0.2020     1.3410 H     1 <1>   0.0800 
 37 H        3.8050     1.5520     1.2530 H     1 <1>   0.0800 
 38 H        4.9550     2.9150    -0.6700 H     1 <1>   0.3700 
 39 H        6.6890     0.9130    -0.9440 H     1 <1>   0.0800 
 40 H        5.8550    -0.6410    -0.9510 H     1 <1>   0.0800 
 41 H        3.6890     5.1980    -2.4270 H     1 <1>   0.0800 
 42 H        5.1300     5.1890    -3.4130 H     1 <1>   0.0800 
 43 H        7.2660     5.8890    -2.2640 H     1 <1>   0.1500 
 44 H        5.1620     5.1590     2.6180 H     1 <1>   0.1500 
 45 H        9.0620     6.7120    -0.0090 H     1 <1>   0.1500 
 46 H        7.1930     6.0360     3.7780 H     1 <1>   0.1500 
 47 H        9.1100     6.8020     2.4810 H     1 <1>   0.1500 
@<TRIPOS>BOND
  1   1   2  2   
  2   1   3  2   
  3   1   4  am  
  4   1   5  1   
  5   4   6  1   
  6   4   7  1   
  7   5   8  1   
  8   5  26  1   
  9   5  27  1   
 10   6  28  1   
 11   6  29  1   
 12   6  30  1   
 13   7  31  1   
 14   7  32  1   
 15   7  33  1   
 16   8   9  1   
 17   8  10  1   
 18   8  34  1   
 19   9  11  1   
 20   9  12  1   
 21   9  35  1   
 22  10  13  1   
 23  10  36  1   
 24  10  37  1   
 25  11  14  am  
 26  11  38  1   
 27  12  13  1   
 28  12  39  1   
 29  12  40  1   
 30  14  15  2   
 31  14  16  1   
 32  16  17  1   
 33  16  41  1   
 34  16  42  1   
 35  17  18  1   
 36  17  19  1   
 37  18  20  2   
 38  19  21  2   
 39  19  43  1   
 40  20  21  ar  
 41  20  22  ar  
 42  21  23  ar  
 43  22  24  ar  
 44  22  44  1   
 45  23  25  ar  
 46  23  45  1   
 47  24  25  ar  
 48  24  46  1   
 49  25  47  1   
@<TRIPOS>SUBSTRUCTURE
  1 ****  11 GROUP 4 **** **** 0

# MOE 2024.06 (io_trps.svl 2023.06)
