@<TRIPOS>MOLECULE
NONAME
52 54 1 0 0 
SMALL
USER_CHARGES


@<TRIPOS>ATOM
  1 F        0.5370     1.4080    -1.8430 F     1 <1>  -0.1900 
  2 C        1.5530     1.5960    -1.0440 C.ar  1 <1>   0.1900 
  3 C        1.7860     2.8630    -0.5540 C.ar  1 <1>  -0.1500 
  4 C        2.3530     0.5170    -0.7250 C.ar  1 <1>  -0.1500 
  5 C        2.8720     3.0840     0.2900 C.ar  1 <1>   0.0860 
  6 C        3.4280     0.7160     0.1260 C.ar  1 <1>  -0.1440 
  7 C        3.1520     4.4120     0.8030 C.2   1 <1>   0.5440 
  8 C        3.6720     1.9870     0.6240 C.ar  1 <1>  -0.1500 
  9 C        4.3250    -0.4490     0.5070 C.3   1 <1>  -0.0960 
 10 O        2.2600     5.0350     1.3450 O.2   1 <1>  -0.5700 
 11 N        4.3970     5.0010     0.6810 N.am  1 <1>  -0.6600 
 12 C        5.4050     4.5660    -0.3370 C.3   1 <1>   0.1400 
 13 C        4.7330     6.2120     1.4830 C.3   1 <1>   0.1400 
 14 C        5.7050     5.6650    -1.3660 C.3   1 <1>   0.1400 
 15 C        4.4720     7.4780     0.6580 C.3   1 <1>  -0.1600 
 16 N        6.4660     6.7970    -0.7490 N.am  1 <1>  -0.6600 
 17 C        5.6300     7.9290    -0.2450 C.3   1 <1>   0.1400 
 18 C        7.8390     6.7390    -0.6950 C.2   1 <1>   0.5690 
 19 O        8.4440     5.7480    -1.0440 O.2   1 <1>  -0.5700 
 20 C        8.7070     7.9180    -0.1880 C.3   1 <1>   0.4840 
 21 N       10.1240     7.5220     0.1230 N.4   1 <1>  -0.9590 
 22 C        8.8750     9.0150    -1.2340 C.3   1 <1>  -0.1600 
 23 C       11.0270     8.6760    -0.1430 C.3   1 <1>   0.3430 
 24 C       10.2890     6.9110     1.4730 C.3   1 <1>   0.2630 
 25 C       10.1710     9.7230    -0.8490 C.3   1 <1>  -0.1600 
 26 H        1.1340     3.6750    -0.8190 H     1 <1>   0.1500 
 27 H        2.1320    -0.4530    -1.1340 H     1 <1>   0.1500 
 28 H        4.5010     2.1460     1.2920 H     1 <1>   0.1500 
 29 H        4.8050    -0.2670     1.4520 H     1 <1>   0.0800 
 30 H        5.0810    -0.5890    -0.2450 H     1 <1>   0.0800 
 31 H        3.7480    -1.3530     0.5910 H     1 <1>   0.0800 
 32 H        6.3150     4.2730     0.1560 H     1 <1>   0.0800 
 33 H        5.0400     3.7110    -0.8760 H     1 <1>   0.0800 
 34 H        4.1100     6.2320     2.3620 H     1 <1>   0.0800 
 35 H        5.7560     6.1650     1.8130 H     1 <1>   0.0800 
 36 H        4.7850     6.0190    -1.7980 H     1 <1>   0.0800 
 37 H        6.2890     5.2370    -2.1630 H     1 <1>   0.0800 
 38 H        4.2530     8.2830     1.3360 H     1 <1>   0.0800 
 39 H        3.5820     7.3350     0.0690 H     1 <1>   0.0800 
 40 H        6.2390     8.6120     0.3180 H     1 <1>   0.0800 
 41 H        5.2280     8.4710    -1.0850 H     1 <1>   0.0800 
 42 H        8.2580     8.3380     0.6950 H     1 <1>   0.0800 
 43 H       10.3100     6.7800    -0.5780 H     1 <1>   0.4500 
 44 H        8.9770     8.5670    -2.2090 H     1 <1>   0.0800 
 45 H        8.0330     9.6850    -1.2500 H     1 <1>   0.0800 
 46 H       11.4220     9.0790     0.7750 H     1 <1>   0.0800 
 47 H       11.8450     8.3670    -0.7750 H     1 <1>   0.0800 
 48 H       10.0470     7.6250     2.2430 H     1 <1>   0.0800 
 49 H       11.3080     6.5850     1.6120 H     1 <1>   0.0800 
 50 H        9.6410     6.0550     1.5740 H     1 <1>   0.0800 
 51 H        9.9670    10.5270    -0.1620 H     1 <1>   0.0800 
 52 H       10.6790    10.1310    -1.7070 H     1 <1>   0.0800 
@<TRIPOS>BOND
  1   1   2  1   
  2   2   3  ar  
  3   2   4  ar  
  4   3   5  ar  
  5   3  26  1   
  6   4   6  ar  
  7   4  27  1   
  8   5   7  1   
  9   5   8  ar  
 10   6   8  ar  
 11   6   9  1   
 12   7  10  2   
 13   7  11  am  
 14   8  28  1   
 15   9  29  1   
 16   9  30  1   
 17   9  31  1   
 18  11  12  1   
 19  11  13  1   
 20  12  14  1   
 21  12  32  1   
 22  12  33  1   
 23  13  15  1   
 24  13  34  1   
 25  13  35  1   
 26  14  16  1   
 27  14  36  1   
 28  14  37  1   
 29  15  17  1   
 30  15  38  1   
 31  15  39  1   
 32  16  17  1   
 33  16  18  am  
 34  17  40  1   
 35  17  41  1   
 36  18  19  2   
 37  18  20  1   
 38  20  21  1   
 39  20  22  1   
 40  20  42  1   
 41  21  23  1   
 42  21  24  1   
 43  21  43  1   
 44  22  25  1   
 45  22  44  1   
 46  22  45  1   
 47  23  25  1   
 48  23  46  1   
 49  23  47  1   
 50  24  48  1   
 51  24  49  1   
 52  24  50  1   
 53  25  51  1   
 54  25  52  1   
@<TRIPOS>SUBSTRUCTURE
  1 ****  12 GROUP 4 **** **** 0

# MOE 2024.06 (io_trps.svl 2023.06)
