@<TRIPOS>MOLECULE
NONAME
55 56 1 0 0 
SMALL
USER_CHARGES


@<TRIPOS>ATOM
  1 O       -0.5840     0.0950     0.5790 O.2   1 <1>  -0.5700 
  2 C       -0.4390     1.2920     0.6690 C.2   1 <1>   0.5690 
  3 N       -1.4860     2.1670     0.5260 N.am  1 <1>  -0.6600 
  4 C        0.9770     1.8250     0.9210 C.3   1 <1>   0.1810 
  5 C       -1.2780     3.6440     0.6780 C.3   1 <1>   0.3640 
  6 C       -2.8990     1.7040     0.4000 C.3   1 <1>   0.0600 
  7 O        1.0100     3.1580     1.3720 O.3   1 <1>  -0.5600 
  8 C       -2.0470     4.4100    -0.4090 C.ar  1 <1>  -0.1430 
  9 C        0.2120     4.0400     0.6110 C.3   1 <1>   0.2610 
 10 C       -2.9510     5.4280    -0.1060 C.ar  1 <1>  -0.1430 
 11 C       -1.8140     4.0900    -1.7430 C.ar  1 <1>  -0.1500 
 12 C        0.3560     5.4990     1.0540 C.2   1 <1>   0.5690 
 13 C       -3.5810     6.1120    -1.1360 C.ar  1 <1>  -0.1500 
 14 C       -3.2840     5.8250     1.3270 C.3   1 <1>  -0.0960 
 15 C       -2.4480     4.7760    -2.7610 C.ar  1 <1>  -0.1500 
 16 O        0.2220     5.7830     2.2230 O.2   1 <1>  -0.5700 
 17 N        0.5770     6.4420     0.0910 N.am  1 <1>  -0.7300 
 18 C       -3.3310     5.7920    -2.4570 C.ar  1 <1>  -0.1500 
 19 C        0.6860     7.9060     0.2190 C.3   1 <1>   0.3000 
 20 C        0.9540     8.4340    -1.2140 C.3   1 <1>  -0.1600 
 21 C        1.8680     8.2660     1.1540 C.3   1 <1>  -0.1600 
 22 C       -0.6490     8.4450     0.7920 C.3   1 <1>  -0.1600 
 23 C       -0.1620     8.1750    -2.2480 C.3   1 <1>  -0.2400 
 24 C        3.2280     7.6190     0.8240 C.3   1 <1>  -0.2400 
 25 C       -0.7990     9.9770     0.8380 C.3   1 <1>  -0.2400 
 26 H        1.5470     1.7610     0.0120 H     1 <1>   0.0800 
 27 H        1.4530     1.2180     1.6690 H     1 <1>   0.0800 
 28 H       -1.6390     3.9150     1.6530 H     1 <1>   0.0800 
 29 H       -3.5040     2.1680     1.1590 H     1 <1>   0.0800 
 30 H       -2.9620     0.6360     0.5160 H     1 <1>   0.0800 
 31 H       -3.2860     1.9670    -0.5690 H     1 <1>   0.0800 
 32 H        0.5530     3.9700    -0.4050 H     1 <1>   0.0800 
 33 H       -1.1370     3.2930    -1.9980 H     1 <1>   0.1500 
 34 H       -4.2770     6.9020    -0.9160 H     1 <1>   0.1500 
 35 H       -3.9840     6.6400     1.3510 H     1 <1>   0.0800 
 36 H       -2.3990     6.1370     1.8500 H     1 <1>   0.0800 
 37 H       -3.7230     4.9940     1.8480 H     1 <1>   0.0800 
 38 H       -2.2580     4.5170    -3.7890 H     1 <1>   0.1500 
 39 H        0.5660     6.1570    -0.8860 H     1 <1>   0.3700 
 40 H       -3.8270     6.3310    -3.2450 H     1 <1>   0.1500 
 41 H        1.1340     9.4930    -1.1670 H     1 <1>   0.0800 
 42 H        1.8580     7.9900    -1.5870 H     1 <1>   0.0800 
 43 H        2.0010     9.3320     1.1530 H     1 <1>   0.0800 
 44 H        1.6050     7.9920     2.1610 H     1 <1>   0.0800 
 45 H       -1.4660     8.0430     0.2200 H     1 <1>   0.0800 
 46 H       -0.7640     8.0840     1.7980 H     1 <1>   0.0800 
 47 H       -1.0630     8.6980    -1.9820 H     1 <1>   0.0800 
 48 H       -0.3880     7.1280    -2.3310 H     1 <1>   0.0800 
 49 H        0.1520     8.5300    -3.2140 H     1 <1>   0.0800 
 50 H        3.5880     7.9340    -0.1380 H     1 <1>   0.0800 
 51 H        3.1530     6.5470     0.8390 H     1 <1>   0.0800 
 52 H        3.9520     7.9110     1.5630 H     1 <1>   0.0800 
 53 H       -0.7630    10.4020    -0.1480 H     1 <1>   0.0800 
 54 H       -0.0270    10.4210     1.4400 H     1 <1>   0.0800 
 55 H       -1.7480    10.2310     1.2750 H     1 <1>   0.0800 
@<TRIPOS>BOND
  1   1   2  2   
  2   2   3  am  
  3   2   4  1   
  4   3   5  1   
  5   3   6  1   
  6   4   7  1   
  7   4  26  1   
  8   4  27  1   
  9   5   8  1   
 10   5   9  1   
 11   5  28  1   
 12   6  29  1   
 13   6  30  1   
 14   6  31  1   
 15   7   9  1   
 16   8  10  ar  
 17   8  11  ar  
 18   9  12  1   
 19   9  32  1   
 20  10  13  ar  
 21  10  14  1   
 22  11  15  ar  
 23  11  33  1   
 24  12  16  2   
 25  12  17  am  
 26  13  18  ar  
 27  13  34  1   
 28  14  35  1   
 29  14  36  1   
 30  14  37  1   
 31  15  18  ar  
 32  15  38  1   
 33  17  19  1   
 34  17  39  1   
 35  18  40  1   
 36  19  20  1   
 37  19  21  1   
 38  19  22  1   
 39  20  23  1   
 40  20  41  1   
 41  20  42  1   
 42  21  24  1   
 43  21  43  1   
 44  21  44  1   
 45  22  25  1   
 46  22  45  1   
 47  22  46  1   
 48  23  47  1   
 49  23  48  1   
 50  23  49  1   
 51  24  50  1   
 52  24  51  1   
 53  24  52  1   
 54  25  53  1   
 55  25  54  1   
 56  25  55  1   
@<TRIPOS>SUBSTRUCTURE
  1 ****  12 GROUP 4 **** **** 0

# MOE 2024.06 (io_trps.svl 2023.06)
