@<TRIPOS>MOLECULE
NONAME
52 54 1 0 0 
SMALL
USER_CHARGES


@<TRIPOS>ATOM
  1 O       -1.8160     0.5380     2.8190 O.2   1 <1>  -0.5700 
  2 C       -2.0340     1.0940     1.7690 C.2   1 <1>   0.5690 
  3 N       -2.6180     0.4440     0.7180 N.am  1 <1>  -0.6600 
  4 C       -1.6210     2.5450     1.6310 C.3   1 <1>  -0.0990 
  5 C       -2.8330     0.9780    -0.6520 C.3   1 <1>   0.1400 
  6 C       -3.0480    -0.9680     0.7830 C.3   1 <1>   0.1400 
  7 C       -0.2120     2.6640     1.0400 C.3   1 <1>  -0.0160 
  8 C       -3.4790    -0.1650    -1.4490 C.3   1 <1>   0.2000 
  9 C       -3.0800    -1.4280    -0.6750 C.3   1 <1>  -0.0800 
 10 C        0.0850     4.1090     0.6610 C.ar  1 <1>  -0.1440 
 11 O       -4.8730    -0.0410    -1.4200 O.3   1 <1>  -0.5600 
 12 C       -3.9930    -2.6440    -0.9180 C.3   1 <1>   0.0200 
 13 C       -0.3650     4.6470    -0.5440 C.ar  1 <1>   0.0820 
 14 C        0.8130     4.8990     1.5370 C.ar  1 <1>  -0.1500 
 15 C       -5.4170     0.7980    -2.3900 C.3   1 <1>   0.0400 
 16 C       -3.4710    -3.9230    -0.2840 C.2   1 <1>  -0.0400 
 17 O       -1.0850     3.8430    -1.3750 O.3   1 <1>  -0.3630 
 18 C       -0.0700     5.9740    -0.8520 C.ar  1 <1>  -0.1500 
 19 C        1.1010     6.2150     1.2230 C.ar  1 <1>  -0.1500 
 20 O       -4.1990    -5.0050    -0.3640 O.3   1 <1>  -0.0190 
 21 C       -2.3510    -4.2360     0.3880 C.2   1 <1>  -0.1500 
 22 C       -1.5220     4.2940    -2.6380 C.3   1 <1>   0.0400 
 23 C        0.6590     6.7520     0.0280 C.ar  1 <1>  -0.1500 
 24 N       -3.6310    -6.0210     0.2190 N.2   1 <1>  -0.4100 
 25 C       -2.5150    -5.5860     0.6820 C.2   1 <1>   0.1080 
 26 C       -1.5220    -6.4340     1.4440 C.3   1 <1>  -0.0590 
 27 H       -2.3290     3.0650     1.0160 H     1 <1>   0.0800 
 28 H       -1.6390     3.0060     2.6010 H     1 <1>   0.0800 
 29 H       -3.4590     1.8510    -0.6310 H     1 <1>   0.0800 
 30 H       -1.8800     1.2260    -1.0850 H     1 <1>   0.0800 
 31 H       -2.3690    -1.5510     1.3810 H     1 <1>   0.0800 
 32 H       -4.0330    -1.0080     1.2160 H     1 <1>   0.0800 
 33 H       -0.1190     2.0420     0.1680 H     1 <1>   0.0800 
 34 H        0.5060     2.3090     1.7590 H     1 <1>   0.0800 
 35 H       -3.1460    -0.1990    -2.4720 H     1 <1>   0.0800 
 36 H       -2.0760    -1.6830    -0.9620 H     1 <1>   0.0800 
 37 H       -4.0910    -2.8080    -1.9760 H     1 <1>   0.0800 
 38 H       -4.9760    -2.4450    -0.5280 H     1 <1>   0.0800 
 39 H        1.1610     4.4920     2.4710 H     1 <1>   0.1500 
 40 H       -6.4840     0.8140    -2.2550 H     1 <1>   0.0800 
 41 H       -5.1830     0.4110    -3.3660 H     1 <1>   0.0800 
 42 H       -5.0250     1.7930    -2.2700 H     1 <1>   0.0800 
 43 H       -0.3990     6.4230    -1.7690 H     1 <1>   0.1500 
 44 H        1.6680     6.8200     1.9100 H     1 <1>   0.1500 
 45 H       -1.5060    -3.6310     0.6570 H     1 <1>   0.1500 
 46 H       -2.0390     3.4870    -3.1230 H     1 <1>   0.0800 
 47 H       -0.6650     4.5820    -3.2210 H     1 <1>   0.0800 
 48 H       -2.1900     5.1260    -2.4990 H     1 <1>   0.0800 
 49 H        0.8840     7.7760    -0.2150 H     1 <1>   0.1500 
 50 H       -1.3670    -6.0220     2.4240 H     1 <1>   0.0800 
 51 H       -0.5860    -6.4610     0.9170 H     1 <1>   0.0800 
 52 H       -1.8960    -7.4370     1.5430 H     1 <1>   0.0800 
@<TRIPOS>BOND
  1   1   2  2   
  2   2   3  am  
  3   2   4  1   
  4   3   5  1   
  5   3   6  1   
  6   4   7  1   
  7   4  27  1   
  8   4  28  1   
  9   5   8  1   
 10   5  29  1   
 11   5  30  1   
 12   6   9  1   
 13   6  31  1   
 14   6  32  1   
 15   7  10  1   
 16   7  33  1   
 17   7  34  1   
 18   8   9  1   
 19   8  11  1   
 20   8  35  1   
 21   9  12  1   
 22   9  36  1   
 23  10  13  ar  
 24  10  14  ar  
 25  11  15  1   
 26  12  16  1   
 27  12  37  1   
 28  12  38  1   
 29  13  17  1   
 30  13  18  ar  
 31  14  19  ar  
 32  14  39  1   
 33  15  40  1   
 34  15  41  1   
 35  15  42  1   
 36  16  20  1   
 37  16  21  2   
 38  17  22  1   
 39  18  23  ar  
 40  18  43  1   
 41  19  23  ar  
 42  19  44  1   
 43  20  24  1   
 44  21  25  1   
 45  21  45  1   
 46  22  46  1   
 47  22  47  1   
 48  22  48  1   
 49  23  49  1   
 50  24  25  2   
 51  25  26  1   
 52  26  50  1   
 53  26  51  1   
 54  26  52  1   
@<TRIPOS>SUBSTRUCTURE
  1 ****   3 GROUP 4 **** **** 0

# MOE 2024.06 (io_trps.svl 2023.06)
