@<TRIPOS>MOLECULE
NONAME
42 45 1 0 0 
SMALL
USER_CHARGES


@<TRIPOS>ATOM
  1 S       -2.4120     0.4530    -1.2260 S.3   1 <1>  -0.0800 
  2 C       -2.4440    -0.9440    -0.1700 C.ar  1 <1>   0.0400 
  3 C       -2.1120     1.4760     0.1730 C.2   1 <1>   0.2280 
  4 C       -2.2240    -0.5070     1.1230 C.ar  1 <1>   0.2270 
  5 C       -2.6500    -2.2660    -0.5050 C.ar  1 <1>  -0.1500 
  6 N       -2.0440     0.8620     1.2840 N.2   1 <1>  -0.5650 
  7 C       -2.2020    -1.4570     2.1330 C.ar  1 <1>  -0.1500 
  8 C       -2.6530    -3.2230     0.5100 C.ar  1 <1>   0.0860 
  9 C       -2.4120    -2.7910     1.8230 C.ar  1 <1>  -0.1500 
 10 C       -2.9070    -4.6210     0.2260 C.2   1 <1>   0.5440 
 11 O       -2.0710    -5.4460     0.5410 O.2   1 <1>  -0.5700 
 12 N       -4.0750    -5.0440    -0.3800 N.am  1 <1>  -0.6600 
 13 C       -5.2940    -4.1790    -0.4280 C.3   1 <1>   0.2200 
 14 C       -4.1940    -6.4590    -0.8470 C.3   1 <1>   0.0600 
 15 C       -6.5510    -4.8240     0.1510 C.3   1 <1>  -0.1600 
 16 C       -5.6930    -3.7830    -1.8470 C.3   1 <1>  -0.1600 
 17 C       -7.7020    -3.9990    -0.4390 C.3   1 <1>  -0.0800 
 18 C       -7.1560    -3.3410    -1.7200 C.3   1 <1>  -0.0800 
 19 C       -8.1640    -2.8540     0.4740 C.3   1 <1>  -0.1600 
 20 C       -7.3190    -1.8250    -1.5320 C.3   1 <1>  -0.1600 
 21 C       -8.3950    -1.6840    -0.4680 C.3   1 <1>   0.2000 
 22 O       -8.2450    -0.4920     0.2050 O.3   1 <1>  -0.6800 
 23 H       -2.0100     2.5310    -0.0140 H     1 <1>   0.1500 
 24 H       -2.8050    -2.5560    -1.5280 H     1 <1>   0.1500 
 25 H       -2.0210    -1.1380     3.1440 H     1 <1>   0.1500 
 26 H       -2.3900    -3.5310     2.6060 H     1 <1>   0.1500 
 27 H       -5.1250    -3.2750     0.1300 H     1 <1>   0.0800 
 28 H       -4.8520    -6.5310    -1.6930 H     1 <1>   0.0800 
 29 H       -4.5730    -7.0710    -0.0470 H     1 <1>   0.0800 
 30 H       -3.2280    -6.8360    -1.1370 H     1 <1>   0.0800 
 31 H       -6.6560    -5.8360    -0.1950 H     1 <1>   0.0800 
 32 H       -6.5440    -4.8170     1.2260 H     1 <1>   0.0800 
 33 H       -5.0650    -3.0060    -2.2420 H     1 <1>   0.0800 
 34 H       -5.6460    -4.6370    -2.4970 H     1 <1>   0.0800 
 35 H       -8.5410    -4.6330    -0.6750 H     1 <1>   0.0800 
 36 H       -7.7260    -3.6640    -2.5750 H     1 <1>   0.0800 
 37 H       -7.3900    -2.6050     1.1800 H     1 <1>   0.0800 
 38 H       -9.0640    -3.1120     1.0030 H     1 <1>   0.0800 
 39 H       -7.6140    -1.3460    -2.4490 H     1 <1>   0.0800 
 40 H       -6.4000    -1.3920    -1.1780 H     1 <1>   0.0800 
 41 H       -9.3810    -1.7220    -0.9030 H     1 <1>   0.0800 
 42 H       -7.3610    -0.4470     0.6130 H     1 <1>   0.4000 
@<TRIPOS>BOND
  1   1   2  1   
  2   1   3  1   
  3   2   4  ar  
  4   2   5  ar  
  5   3   6  2   
  6   3  23  1   
  7   4   6  1   
  8   4   7  ar  
  9   5   8  ar  
 10   5  24  1   
 11   7   9  ar  
 12   7  25  1   
 13   8   9  ar  
 14   8  10  1   
 15   9  26  1   
 16  10  11  2   
 17  10  12  am  
 18  12  13  1   
 19  12  14  1   
 20  13  15  1   
 21  13  16  1   
 22  13  27  1   
 23  14  28  1   
 24  14  29  1   
 25  14  30  1   
 26  15  17  1   
 27  15  31  1   
 28  15  32  1   
 29  16  18  1   
 30  16  33  1   
 31  16  34  1   
 32  17  18  1   
 33  17  19  1   
 34  17  35  1   
 35  18  20  1   
 36  18  36  1   
 37  19  21  1   
 38  19  37  1   
 39  19  38  1   
 40  20  21  1   
 41  20  39  1   
 42  20  40  1   
 43  21  22  1   
 44  21  41  1   
 45  22  42  1   
@<TRIPOS>SUBSTRUCTURE
  1 ****  13 GROUP 4 **** **** 0

# MOE 2024.06 (io_trps.svl 2023.06)
