@<TRIPOS>MOLECULE
NONAME
56 58 1 0 0 
SMALL
USER_CHARGES


@<TRIPOS>ATOM
  1 O        2.5680    -0.7060     2.0130 O.co2 1 <1>  -0.9000 
  2 C        2.7800    -0.4940     0.8230 C.2   1 <1>   0.9060 
  3 O        3.6880    -1.0920     0.2200 O.co2 1 <1>  -0.9000 
  4 C        2.1220     0.7310     0.1620 C.3   1 <1>  -0.1060 
  5 C        2.6390     0.9720    -1.2900 C.3   1 <1>   0.2000 
  6 C        2.5790     1.9650     0.9860 C.3   1 <1>  -0.1600 
  7 C        0.5860     0.5410     0.1970 C.3   1 <1>  -0.0160 
  8 O        2.6730    -0.2220    -1.9910 O.3   1 <1>  -0.6800 
  9 C        4.0500     1.6130    -1.3270 C.3   1 <1>   0.3430 
 10 C        4.1140     2.0040     1.1280 C.3   1 <1>   0.3430 
 11 C       -0.2060     1.7180    -0.3640 C.ar  1 <1>  -0.1440 
 12 N        4.7930     1.3600    -0.0500 N.4   1 <1>  -0.9590 
 13 C       -0.5650     2.7790     0.4550 C.ar  1 <1>  -0.1500 
 14 C       -0.5890     1.7330    -1.6970 C.ar  1 <1>  -0.1500 
 15 C        6.2610     1.5450    -0.1130 C.3   1 <1>   0.4860 
 16 C       -1.2780     3.8490    -0.0570 C.ar  1 <1>  -0.1500 
 17 C       -1.3020     2.8020    -2.2100 C.ar  1 <1>  -0.1500 
 18 C        6.6050     3.0130    -0.2220 C.ar  1 <1>  -0.1430 
 19 C       -1.6450     3.8630    -1.3910 C.ar  1 <1>  -0.1500 
 20 C        6.9040     3.7620     0.8940 C.ar  1 <1>   0.1600 
 21 C        6.6330     3.6660    -1.4330 C.ar  1 <1>   0.1600 
 22 N        7.1680     5.0410     0.8250 N.ar  1 <1>  -0.6200 
 23 N        6.8940     4.9440    -1.5310 N.ar  1 <1>  -0.6200 
 24 C        7.1390     5.5730    -0.3920 C.ar  1 <1>   0.7200 
 25 N        7.3840     6.8930    -0.5230 N.pl3 1 <1>  -0.8690 
 26 C        8.0510     7.7240     0.4960 C.3   1 <1>   0.2090 
 27 C        7.9770     9.1880     0.0640 C.3   1 <1>  -0.1600 
 28 C        8.6470    10.1110     1.0890 C.3   1 <1>  -0.2400 
 29 H        1.9820     1.6260    -1.8330 H     1 <1>   0.0800 
 30 H        2.1500     1.9280     1.9730 H     1 <1>   0.0800 
 31 H        2.2400     2.8760     0.5240 H     1 <1>   0.0800 
 32 H        0.3330    -0.3490    -0.3550 H     1 <1>   0.0800 
 33 H        0.2740     0.3650     1.2130 H     1 <1>   0.0800 
 34 H        3.0740    -0.9050    -1.3770 H     1 <1>   0.4000 
 35 H        3.9430     2.6770    -1.4610 H     1 <1>   0.0800 
 36 H        4.5870     1.2120    -2.1690 H     1 <1>   0.0800 
 37 H        4.3880     1.4650     2.0220 H     1 <1>   0.0800 
 38 H        4.4300     3.0290     1.2370 H     1 <1>   0.0800 
 39 H        4.6410     0.3260     0.1000 H     1 <1>   0.4500 
 40 H       -0.2930     2.7720     1.4950 H     1 <1>   0.1500 
 41 H       -0.3310     0.9090    -2.3400 H     1 <1>   0.1500 
 42 H        6.7100     1.1330     0.7760 H     1 <1>   0.0800 
 43 H        6.6570     1.0100    -0.9620 H     1 <1>   0.0800 
 44 H       -1.5520     4.6690     0.5840 H     1 <1>   0.1500 
 45 H       -1.5920     2.8070    -3.2460 H     1 <1>   0.1500 
 46 H       -2.2000     4.6940    -1.7890 H     1 <1>   0.1500 
 47 H        6.9220     3.3080     1.8710 H     1 <1>   0.1500 
 48 H        6.4340     3.1340    -2.3490 H     1 <1>   0.1500 
 49 H        7.5080     7.1820    -1.4920 H     1 <1>   0.4000 
 50 H        7.5600     7.5950     1.4460 H     1 <1>   0.0800 
 51 H        9.0780     7.4140     0.5940 H     1 <1>   0.0800 
 52 H        8.4660     9.3060    -0.8870 H     1 <1>   0.0800 
 53 H        6.9440     9.4710    -0.0420 H     1 <1>   0.0800 
 54 H        9.6870     9.8570     1.2030 H     1 <1>   0.0800 
 55 H        8.1620    10.0260     2.0460 H     1 <1>   0.0800 
 56 H        8.5790    11.1340     0.7630 H     1 <1>   0.0800 
@<TRIPOS>BOND
  1   1   2  ar  
  2   2   3  ar  
  3   2   4  1   
  4   4   5  1   
  5   4   6  1   
  6   4   7  1   
  7   5   8  1   
  8   5   9  1   
  9   5  29  1   
 10   6  10  1   
 11   6  30  1   
 12   6  31  1   
 13   7  11  1   
 14   7  32  1   
 15   7  33  1   
 16   8  34  1   
 17   9  12  1   
 18   9  35  1   
 19   9  36  1   
 20  10  12  1   
 21  10  37  1   
 22  10  38  1   
 23  11  13  ar  
 24  11  14  ar  
 25  12  15  1   
 26  12  39  1   
 27  13  16  ar  
 28  13  40  1   
 29  14  17  ar  
 30  14  41  1   
 31  15  18  1   
 32  15  42  1   
 33  15  43  1   
 34  16  19  ar  
 35  16  44  1   
 36  17  19  ar  
 37  17  45  1   
 38  18  20  ar  
 39  18  21  ar  
 40  19  46  1   
 41  20  22  ar  
 42  20  47  1   
 43  21  23  ar  
 44  21  48  1   
 45  22  24  ar  
 46  23  24  ar  
 47  24  25  1   
 48  25  26  1   
 49  25  49  1   
 50  26  27  1   
 51  26  50  1   
 52  26  51  1   
 53  27  28  1   
 54  27  52  1   
 55  27  53  1   
 56  28  54  1   
 57  28  55  1   
 58  28  56  1   
@<TRIPOS>SUBSTRUCTURE
  1 ****  10 GROUP 4 **** **** 0

# MOE 2024.06 (io_trps.svl 2023.06)
