@<TRIPOS>MOLECULE
NONAME
57 60 1 0 0 
SMALL
USER_CHARGES


@<TRIPOS>ATOM
  1 O        0.7050    -4.0290    -1.9280 O.3   1 <1>  -0.3630 
  2 C        0.3220    -4.6950    -0.8060 C.ar  1 <1>   0.0820 
  3 C        1.7360    -4.5060    -2.7630 C.3   1 <1>   0.0400 
  4 C       -0.6640    -4.1150    -0.0180 C.ar  1 <1>  -0.1440 
  5 C        0.8750    -5.9120    -0.4230 C.ar  1 <1>  -0.1500 
  6 C       -1.0930    -4.7650     1.1260 C.ar  1 <1>  -0.1500 
  7 C       -1.2690    -2.7720    -0.4040 C.3   1 <1>  -0.0960 
  8 C        0.4460    -6.5640     0.7210 C.ar  1 <1>  -0.1440 
  9 C       -0.5620    -5.9940     1.4930 C.ar  1 <1>  -0.1440 
 10 C        1.1270    -7.8780     1.0870 C.3   1 <1>  -0.0970 
 11 C       -1.1150    -6.6910     2.7210 C.3   1 <1>   0.4860 
 12 N       -2.1880    -7.6140     2.2650 N.4   1 <1>  -0.9590 
 13 C       -3.3620    -6.9110     1.6560 C.3   1 <1>   0.3430 
 14 C       -2.7160    -8.5710     3.2740 C.3   1 <1>   0.3430 
 15 C       -4.6160    -7.6520     2.1420 C.3   1 <1>   0.2000 
 16 C       -4.1200    -8.9510     2.7830 C.3   1 <1>  -0.0800 
 17 O       -5.2440    -6.8880     3.1190 O.3   1 <1>  -0.6800 
 18 C       -4.1330   -10.1660     1.8170 C.3   1 <1>  -0.0170 
 19 C       -2.9240   -10.2310     0.8820 C.ar  1 <1>  -0.1440 
 20 C       -2.8390    -9.5070    -0.3320 C.ar  1 <1>   0.0000 
 21 C       -1.8470   -10.9910     1.2370 C.ar  1 <1>  -0.1500 
 22 C       -1.5870    -9.4840    -0.9920 C.ar  1 <1>   0.3100 
 23 C       -3.9100    -8.8020    -0.9270 C.ar  1 <1>  -0.1500 
 24 C       -0.6810   -10.9700     0.4630 C.ar  1 <1>   0.1600 
 25 N       -0.5270   -10.2220    -0.5810 N.ar  1 <1>  -0.6200 
 26 C       -1.4260    -8.6610    -2.1170 C.ar  1 <1>  -0.1500 
 27 C       -3.7260    -8.0230    -2.0370 C.ar  1 <1>  -0.1500 
 28 C       -2.4650    -7.9340    -2.6290 C.ar  1 <1>  -0.1500 
 29 H        1.8660    -3.8030    -3.5660 H     1 <1>   0.0800 
 30 H        1.4500    -5.4640    -3.1590 H     1 <1>   0.0800 
 31 H        2.6440    -4.5780    -2.1910 H     1 <1>   0.0800 
 32 H        1.6490    -6.3640    -1.0130 H     1 <1>   0.1500 
 33 H       -1.8510    -4.2980     1.7290 H     1 <1>   0.1500 
 34 H       -2.0070    -2.4500     0.3080 H     1 <1>   0.0800 
 35 H       -1.7320    -2.8460    -1.3720 H     1 <1>   0.0800 
 36 H       -0.4950    -2.0270    -0.4530 H     1 <1>   0.0800 
 37 H        1.5250    -8.3520     0.2070 H     1 <1>   0.0800 
 38 H        0.4480    -8.5700     1.5450 H     1 <1>   0.0800 
 39 H        1.9420    -7.6880     1.7630 H     1 <1>   0.0800 
 40 H       -1.5080    -5.9660     3.4140 H     1 <1>   0.0800 
 41 H       -0.3270    -7.2420     3.2080 H     1 <1>   0.0800 
 42 H       -1.7730    -8.1650     1.4940 H     1 <1>   0.4500 
 43 H       -3.4100    -5.8800     1.9630 H     1 <1>   0.0800 
 44 H       -3.2890    -6.9490     0.5820 H     1 <1>   0.0800 
 45 H       -2.0800    -9.4360     3.3730 H     1 <1>   0.0800 
 46 H       -2.7960    -8.0800     4.2300 H     1 <1>   0.0800 
 47 H       -5.3320    -7.8030     1.3540 H     1 <1>   0.0800 
 48 H       -4.7480    -9.2090     3.6200 H     1 <1>   0.0800 
 49 H       -4.7140    -6.7790     3.9310 H     1 <1>   0.4000 
 50 H       -5.0520   -10.1990     1.2590 H     1 <1>   0.0800 
 51 H       -4.1320   -11.0610     2.4170 H     1 <1>   0.0800 
 52 H       -1.8510   -11.6150     2.1140 H     1 <1>   0.1500 
 53 H       -4.8980    -8.8840    -0.5170 H     1 <1>   0.1500 
 54 H        0.1420   -11.5970     0.7650 H     1 <1>   0.1500 
 55 H       -0.4530    -8.6250    -2.5720 H     1 <1>   0.1500 
 56 H       -4.5450    -7.4780    -2.4780 H     1 <1>   0.1500 
 57 H       -2.3280    -7.3050    -3.4930 H     1 <1>   0.1500 
@<TRIPOS>BOND
  1   1   2  1   
  2   1   3  1   
  3   2   4  ar  
  4   2   5  ar  
  5   3  29  1   
  6   3  30  1   
  7   3  31  1   
  8   4   6  ar  
  9   4   7  1   
 10   5   8  ar  
 11   5  32  1   
 12   6   9  ar  
 13   6  33  1   
 14   7  34  1   
 15   7  35  1   
 16   7  36  1   
 17   8   9  ar  
 18   8  10  1   
 19   9  11  1   
 20  10  37  1   
 21  10  38  1   
 22  10  39  1   
 23  11  12  1   
 24  11  40  1   
 25  11  41  1   
 26  12  13  1   
 27  12  14  1   
 28  12  42  1   
 29  13  15  1   
 30  13  43  1   
 31  13  44  1   
 32  14  16  1   
 33  14  45  1   
 34  14  46  1   
 35  15  16  1   
 36  15  17  1   
 37  15  47  1   
 38  16  18  1   
 39  16  48  1   
 40  17  49  1   
 41  18  19  1   
 42  18  50  1   
 43  18  51  1   
 44  19  20  ar  
 45  19  21  ar  
 46  20  22  ar  
 47  20  23  ar  
 48  21  24  ar  
 49  21  52  1   
 50  22  25  ar  
 51  22  26  ar  
 52  23  27  ar  
 53  23  53  1   
 54  24  25  ar  
 55  24  54  1   
 56  26  28  ar  
 57  26  55  1   
 58  27  28  ar  
 59  27  56  1   
 60  28  57  1   
@<TRIPOS>SUBSTRUCTURE
  1 ****  12 GROUP 4 **** **** 0

# MOE 2024.06 (io_trps.svl 2023.06)
