@<TRIPOS>MOLECULE
NONAME
61 64 1 0 0 
SMALL
USER_CHARGES


@<TRIPOS>ATOM
  1 O        1.7640     1.8380    -0.3020 O.3   1 <1>  -0.6800 
  2 C        2.0390     2.0050    -1.6470 C.3   1 <1>   0.1200 
  3 C        1.2440     3.2040    -2.1740 C.3   1 <1>  -0.1600 
  4 C        1.4260     4.4600    -1.2960 C.3   1 <1>   0.4230 
  5 N        0.1310     4.8520    -0.6150 N.4   1 <1>  -0.9590 
  6 C        2.0140     5.6230    -2.1380 C.3   1 <1>   0.2090 
  7 C        0.2920     6.1380     0.1610 C.3   1 <1>   0.3430 
  8 C       -0.3680     3.7690     0.2820 C.3   1 <1>   0.4380 
  9 N        2.1480     6.8800    -1.3370 N.pl3 1 <1>  -0.8380 
 10 C        0.8820     7.2990    -0.6680 C.3   1 <1>   0.2090 
 11 C       -1.7880     4.0950     0.7500 C.3   1 <1>  -0.1950 
 12 C        3.3550     7.2660    -0.8580 C.ar  1 <1>   0.4100 
 13 C       -2.0810     4.8940     1.9850 C.3   1 <1>  -0.2000 
 14 C       -2.3390     3.4160     1.9650 C.3   1 <1>  -0.2000 
 15 N        4.0550     6.3190    -0.2690 N.ar  1 <1>  -0.6200 
 16 C        3.8200     8.6020    -0.9790 C.ar  1 <1>  -0.1440 
 17 C        5.2320     6.6500     0.2410 C.ar  1 <1>   0.7710 
 18 C        5.0270     8.9080    -0.4230 C.ar  1 <1>   0.2180 
 19 C        2.9760     9.6290    -1.7450 C.3   1 <1>  -0.0970 
 20 N        5.7090     7.9020     0.1740 N.ar  1 <1>  -0.1790 
 21 N        5.9770     5.6980     0.8520 N.pl3 1 <1>  -0.8380 
 22 C        5.6920    10.2800    -0.4100 C.3   1 <1>  -0.0960 
 23 C        5.5290     4.2790     0.9430 C.3   1 <1>   0.2090 
 24 C        7.2960     5.8520     1.5300 C.3   1 <1>   0.2090 
 25 C        6.7250     3.5120     1.4860 C.3   1 <1>  -0.1600 
 26 C        7.5110     4.5460     2.2820 C.3   1 <1>  -0.1600 
 27 H        2.1600     1.0000     0.0240 H     1 <1>   0.4000 
 28 H        1.7620     1.1040    -2.1690 H     1 <1>   0.0800 
 29 H        3.1000     2.1650    -1.7540 H     1 <1>   0.0800 
 30 H        0.2090     2.9320    -2.2720 H     1 <1>   0.0800 
 31 H        1.5990     3.3940    -3.1720 H     1 <1>   0.0800 
 32 H        2.1550     4.2330    -0.5350 H     1 <1>   0.0800 
 33 H       -0.5760     4.9980    -1.3420 H     1 <1>   0.4500 
 34 H        1.3850     5.8130    -2.9900 H     1 <1>   0.0800 
 35 H        2.9820     5.3320    -2.5110 H     1 <1>   0.0800 
 36 H        0.9470     5.9630     0.9990 H     1 <1>   0.0800 
 37 H       -0.6620     6.4470     0.5540 H     1 <1>   0.0800 
 38 H        0.2880     3.6560     1.1300 H     1 <1>   0.0800 
 39 H       -0.3900     2.8300    -0.2450 H     1 <1>   0.0800 
 40 H        1.0730     8.1330    -0.0140 H     1 <1>   0.0800 
 41 H        0.1710     7.6180    -1.4100 H     1 <1>   0.0800 
 42 H       -2.4760     4.1670    -0.0750 H     1 <1>   0.1000 
 43 H       -2.9350     5.5510     2.0010 H     1 <1>   0.1000 
 44 H       -1.2890     5.2400     2.6290 H     1 <1>   0.1000 
 45 H       -1.7060     2.7820     2.5630 H     1 <1>   0.1000 
 46 H       -3.3620     3.0770     1.9570 H     1 <1>   0.1000 
 47 H        2.4550     9.1600    -2.5610 H     1 <1>   0.0800 
 48 H        3.5800    10.4050    -2.1770 H     1 <1>   0.0800 
 49 H        2.2510    10.0790    -1.0910 H     1 <1>   0.0800 
 50 H        6.6210     8.0420     0.5880 H     1 <1>   0.4570 
 51 H        4.9880    11.0670    -0.6060 H     1 <1>   0.0800 
 52 H        6.4650    10.3230    -1.1570 H     1 <1>   0.0800 
 53 H        6.1280    10.4800     0.5520 H     1 <1>   0.0800 
 54 H        5.2300     3.9000    -0.0200 H     1 <1>   0.0800 
 55 H        4.7010     4.2110     1.6300 H     1 <1>   0.0800 
 56 H        7.3030     6.6840     2.2140 H     1 <1>   0.0800 
 57 H        8.0710     5.9700     0.7890 H     1 <1>   0.0800 
 58 H        7.3180     3.1540     0.6620 H     1 <1>   0.0800 
 59 H        6.4230     2.6740     2.0890 H     1 <1>   0.0800 
 60 H        7.0990     4.6350     3.2720 H     1 <1>   0.0800 
 61 H        8.5540     4.2940     2.3610 H     1 <1>   0.0800 
@<TRIPOS>BOND
  1   1   2  1   
  2   1  27  1   
  3   2   3  1   
  4   2  28  1   
  5   2  29  1   
  6   3   4  1   
  7   3  30  1   
  8   3  31  1   
  9   4   5  1   
 10   4   6  1   
 11   4  32  1   
 12   5   7  1   
 13   5   8  1   
 14   5  33  1   
 15   6   9  1   
 16   6  34  1   
 17   6  35  1   
 18   7  10  1   
 19   7  36  1   
 20   7  37  1   
 21   8  11  1   
 22   8  38  1   
 23   8  39  1   
 24   9  10  1   
 25   9  12  1   
 26  10  40  1   
 27  10  41  1   
 28  11  13  1   
 29  11  14  1   
 30  11  42  1   
 31  12  15  ar  
 32  12  16  ar  
 33  13  14  1   
 34  13  43  1   
 35  13  44  1   
 36  14  45  1   
 37  14  46  1   
 38  15  17  ar  
 39  16  18  ar  
 40  16  19  1   
 41  17  20  ar  
 42  17  21  1   
 43  18  20  ar  
 44  18  22  1   
 45  19  47  1   
 46  19  48  1   
 47  19  49  1   
 48  20  50  1   
 49  21  23  1   
 50  21  24  1   
 51  22  51  1   
 52  22  52  1   
 53  22  53  1   
 54  23  25  1   
 55  23  54  1   
 56  23  55  1   
 57  24  26  1   
 58  24  56  1   
 59  24  57  1   
 60  25  26  1   
 61  25  58  1   
 62  25  59  1   
 63  26  60  1   
 64  26  61  1   
@<TRIPOS>SUBSTRUCTURE
  1 ****  15 GROUP 4 **** **** 0

# MOE 2024.06 (io_trps.svl 2023.06)
