@<TRIPOS>MOLECULE
NONAME
53 55 1 0 0 
SMALL
USER_CHARGES


@<TRIPOS>ATOM
  1 CL       1.6480     0.5300    -1.2370 Cl    1 <1>  -0.1770 
  2 C        0.7420     2.0200    -1.0970 C.ar  1 <1>   0.1770 
  3 C        1.0500     2.9730    -0.1290 C.ar  1 <1>  -0.1440 
  4 C       -0.2880     2.2130    -1.9990 C.ar  1 <1>  -0.1500 
  5 C        0.2910     4.1370    -0.0960 C.ar  1 <1>  -0.1500 
  6 C        2.1770     2.8080     0.8880 C.3   1 <1>   0.3640 
  7 C       -1.0330     3.3770    -1.9500 C.ar  1 <1>  -0.1500 
  8 C       -0.7410     4.3370    -0.9980 C.ar  1 <1>  -0.1500 
  9 N        1.9480     1.5920     1.6990 N.am  1 <1>  -0.7300 
 10 C        3.5770     2.8110     0.2160 C.3   1 <1>   0.2610 
 11 C        2.9300     0.7280     2.0370 C.2   1 <1>   0.5690 
 12 O        4.5740     2.2900     1.0810 O.3   1 <1>  -0.5600 
 13 C        3.9940     4.2160    -0.2280 C.2   1 <1>   0.5690 
 14 O        2.7040    -0.2110     2.7550 O.2   1 <1>  -0.5700 
 15 C        4.3410     0.9510     1.4830 C.3   1 <1>   0.1810 
 16 O        3.4890     5.2040     0.2590 O.2   1 <1>  -0.5700 
 17 N        5.0220     4.3540    -1.1110 N.am  1 <1>  -0.7300 
 18 C        5.5130     5.6690    -1.6310 C.3   1 <1>   0.1400 
 19 C        6.5040     6.4300    -0.6950 C.3   1 <1>   0.5030 
 20 N        6.0060     6.3890     0.7470 N.4   1 <1>  -0.9590 
 21 C        6.6730     7.8730    -1.2110 C.3   1 <1>  -0.1600 
 22 C        7.9480     5.9100    -0.8340 C.3   1 <1>  -0.1600 
 23 C        6.1540     7.6220     1.5830 C.3   1 <1>   0.2630 
 24 C        6.4720     5.2140     1.5550 C.3   1 <1>   0.2630 
 25 C        8.0850     8.3390    -0.8170 C.3   1 <1>  -0.1600 
 26 C        8.8530     7.0730    -0.4210 C.3   1 <1>  -0.1600 
 27 H       -0.5030     1.4570    -2.7330 H     1 <1>   0.1500 
 28 H        0.4960     4.9050     0.6320 H     1 <1>   0.1500 
 29 H        2.1380     3.6380     1.5730 H     1 <1>   0.0800 
 30 H       -1.8370     3.5350    -2.6490 H     1 <1>   0.1500 
 31 H       -1.3200     5.2450    -0.9590 H     1 <1>   0.1500 
 32 H        1.0020     1.4160     2.0440 H     1 <1>   0.3700 
 33 H        3.5590     2.1900    -0.6580 H     1 <1>   0.0800 
 34 H        4.4950     0.3070     0.6370 H     1 <1>   0.0800 
 35 H        5.0610     0.7040     2.2420 H     1 <1>   0.0800 
 36 H        5.4810     3.5150    -1.4840 H     1 <1>   0.3700 
 37 H        5.9680     5.5160    -2.5950 H     1 <1>   0.0800 
 38 H        4.6560     6.3020    -1.7960 H     1 <1>   0.0800 
 39 H        4.9830     6.2250     0.6300 H     1 <1>   0.4500 
 40 H        6.6430     7.8560    -2.2870 H     1 <1>   0.0800 
 41 H        5.8960     8.5430    -0.8930 H     1 <1>   0.0800 
 42 H        8.1650     5.0010    -0.3070 H     1 <1>   0.0800 
 43 H        8.1410     5.7150    -1.8760 H     1 <1>   0.0800 
 44 H        7.1950     7.8640     1.7110 H     1 <1>   0.0800 
 45 H        5.7140     7.4660     2.5540 H     1 <1>   0.0800 
 46 H        5.6560     8.4570     1.1200 H     1 <1>   0.0800 
 47 H        7.5180     5.3150     1.7940 H     1 <1>   0.0800 
 48 H        6.3290     4.2970     1.0080 H     1 <1>   0.0800 
 49 H        5.9120     5.1480     2.4740 H     1 <1>   0.0800 
 50 H        8.5620     8.8250    -1.6530 H     1 <1>   0.0800 
 51 H        8.0590     9.0360     0.0030 H     1 <1>   0.0800 
 52 H        9.0130     7.0580     0.6430 H     1 <1>   0.0800 
 53 H        9.8110     7.0210    -0.9120 H     1 <1>   0.0800 
@<TRIPOS>BOND
  1   1   2  1   
  2   2   3  ar  
  3   2   4  ar  
  4   3   5  ar  
  5   3   6  1   
  6   4   7  ar  
  7   4  27  1   
  8   5   8  ar  
  9   5  28  1   
 10   6   9  1   
 11   6  10  1   
 12   6  29  1   
 13   7   8  ar  
 14   7  30  1   
 15   8  31  1   
 16   9  11  am  
 17   9  32  1   
 18  10  12  1   
 19  10  13  1   
 20  10  33  1   
 21  11  14  2   
 22  11  15  1   
 23  12  15  1   
 24  13  16  2   
 25  13  17  am  
 26  15  34  1   
 27  15  35  1   
 28  17  18  1   
 29  17  36  1   
 30  18  19  1   
 31  18  37  1   
 32  18  38  1   
 33  19  20  1   
 34  19  21  1   
 35  19  22  1   
 36  20  23  1   
 37  20  24  1   
 38  20  39  1   
 39  21  25  1   
 40  21  40  1   
 41  21  41  1   
 42  22  26  1   
 43  22  42  1   
 44  22  43  1   
 45  23  44  1   
 46  23  45  1   
 47  23  46  1   
 48  24  47  1   
 49  24  48  1   
 50  24  49  1   
 51  25  26  1   
 52  25  50  1   
 53  25  51  1   
 54  26  52  1   
 55  26  53  1   
@<TRIPOS>SUBSTRUCTURE
  1 ****  13 GROUP 4 **** **** 0

# MOE 2024.06 (io_trps.svl 2023.06)
