@<TRIPOS>MOLECULE
NONAME
42 44 1 0 0 
SMALL
USER_CHARGES


@<TRIPOS>ATOM
  1 CL      -2.0360     0.2690     2.7680 Cl    1 <1>  -0.1230 
  2 C       -2.0120     0.6540     1.0560 C.2   1 <1>   0.1230 
  3 C       -2.7220    -0.0270     0.0810 C.2   1 <1>   0.1080 
  4 C       -1.3320     1.6320     0.4290 C.2   1 <1>  -0.3320 
  5 N       -2.5140     0.4860    -1.1040 N.2   1 <1>  -0.7070 
  6 C       -3.6310    -1.2150     0.3520 C.3   1 <1>   0.5240 
  7 N       -1.6480     1.5120    -0.8820 N.pl3 1 <1>   0.3000 
  8 C       -0.3900     2.6850     0.9900 C.3   1 <1>  -0.0600 
  9 N       -4.2380    -1.6090    -0.9570 N.4   1 <1>  -0.9590 
 10 C       -5.7080    -1.4430    -1.0870 C.3   1 <1>   0.4230 
 11 C       -3.7510    -2.9390    -1.4230 C.3   1 <1>   0.2630 
 12 C       -6.5160    -2.2740    -0.0930 C.3   1 <1>  -0.1600 
 13 C       -6.1760    -0.0100    -0.8560 C.3   1 <1>  -0.1600 
 14 C       -7.9000    -1.6080    -0.0820 C.3   1 <1>  -0.0800 
 15 C       -7.6700    -0.1410    -0.5260 C.3   1 <1>  -0.0800 
 16 C       -8.6570    -1.7990     1.2500 C.3   1 <1>   0.1400 
 17 C       -8.1650     0.9150     0.4840 C.3   1 <1>  -0.0990 
 18 N       -9.7020    -0.7660     1.3780 N.am  1 <1>  -0.7300 
 19 C       -9.5190     0.5260     1.0370 C.2   1 <1>   0.5690 
 20 O      -10.3900     1.3440     1.1710 O.2   1 <1>  -0.5700 
 21 H       -4.3900    -0.9300     1.0600 H     1 <1>   0.0800 
 22 H       -3.0530    -2.0250     0.7650 H     1 <1>   0.0800 
 23 H       -1.2890     2.1110    -1.6400 H     1 <1>   0.2700 
 24 H       -0.2990     2.5760     2.0570 H     1 <1>   0.0800 
 25 H       -0.7640     3.6720     0.7820 H     1 <1>   0.0800 
 26 H        0.5880     2.5830     0.5550 H     1 <1>   0.0800 
 27 H       -3.8060    -0.8890    -1.5760 H     1 <1>   0.4500 
 28 H       -6.0110    -1.7270    -2.0830 H     1 <1>   0.0800 
 29 H       -4.1170    -3.7210    -0.7770 H     1 <1>   0.0800 
 30 H       -2.6730    -2.9620    -1.4220 H     1 <1>   0.0800 
 31 H       -4.0940    -3.1300    -2.4270 H     1 <1>   0.0800 
 32 H       -6.5880    -3.3030    -0.4000 H     1 <1>   0.0800 
 33 H       -6.0870    -2.2190     0.8900 H     1 <1>   0.0800 
 34 H       -5.6660     0.4410    -0.0250 H     1 <1>   0.0800 
 35 H       -6.0260     0.5970    -1.7320 H     1 <1>   0.0800 
 36 H       -8.4960    -2.0790    -0.8470 H     1 <1>   0.0800 
 37 H       -8.2330     0.0040    -1.4350 H     1 <1>   0.0800 
 38 H       -7.9860    -1.7020     2.0870 H     1 <1>   0.0800 
 39 H       -9.1060    -2.7780     1.2850 H     1 <1>   0.0800 
 40 H       -8.2370     1.8780     0.0120 H     1 <1>   0.0800 
 41 H       -7.4910     0.9970     1.3160 H     1 <1>   0.0800 
 42 H      -10.6050    -1.0190     1.7880 H     1 <1>   0.3700 
@<TRIPOS>BOND
  1   1   2  1   
  2   2   3  1   
  3   2   4  2   
  4   3   5  2   
  5   3   6  1   
  6   4   7  1   
  7   4   8  1   
  8   5   7  1   
  9   6   9  1   
 10   6  21  1   
 11   6  22  1   
 12   7  23  1   
 13   8  24  1   
 14   8  25  1   
 15   8  26  1   
 16   9  10  1   
 17   9  11  1   
 18   9  27  1   
 19  10  12  1   
 20  10  13  1   
 21  10  28  1   
 22  11  29  1   
 23  11  30  1   
 24  11  31  1   
 25  12  14  1   
 26  12  32  1   
 27  12  33  1   
 28  13  15  1   
 29  13  34  1   
 30  13  35  1   
 31  14  15  1   
 32  14  16  1   
 33  14  36  1   
 34  15  17  1   
 35  15  37  1   
 36  16  18  1   
 37  16  38  1   
 38  16  39  1   
 39  17  19  1   
 40  17  40  1   
 41  17  41  1   
 42  18  19  am  
 43  18  42  1   
 44  19  20  2   
@<TRIPOS>SUBSTRUCTURE
  1 ****  13 GROUP 4 **** **** 0

# MOE 2024.06 (io_trps.svl 2023.06)
