@<TRIPOS>MOLECULE
NONAME
49 51 1 0 0 
SMALL
USER_CHARGES


@<TRIPOS>ATOM
  1 O       -0.9320     0.3900     2.4340 O.2   1 <1>  -0.5700 
  2 C       -0.7690     1.0290     1.4230 C.2   1 <1>   0.5690 
  3 N       -1.7460     1.5240     0.6310 N.am  1 <1>  -0.6600 
  4 C        0.5880     1.3680     0.8710 C.3   1 <1>  -0.0990 
  5 C       -1.2280     2.2430    -0.5430 C.3   1 <1>   0.1400 
  6 C       -3.1950     1.3680     0.8710 C.3   1 <1>   0.1400 
  7 C        0.2810     2.3470    -0.2770 C.3   1 <1>  -0.1600 
  8 C       -3.7340     0.2310     0.0030 C.3   1 <1>  -0.1600 
  9 C       -5.2130    -0.0500     0.3050 C.3   1 <1>  -0.0990 
 10 C       -5.7630    -1.1610    -0.5660 C.2   1 <1>   0.5690 
 11 O       -6.4850    -0.8820    -1.4910 O.2   1 <1>  -0.5700 
 12 N       -5.4230    -2.4390    -0.2780 N.am  1 <1>  -0.7300 
 13 C       -5.8530    -3.6210    -1.0580 C.3   1 <1>   0.2200 
 14 C       -6.8780    -4.4040    -0.2570 C.3   1 <1>  -0.0800 
 15 C       -4.7020    -4.6180    -1.1570 C.3   1 <1>   0.1200 
 16 C       -5.9870    -5.2570     0.6500 C.3   1 <1>   0.1200 
 17 C       -7.7720    -5.2630    -1.1720 C.3   1 <1>  -0.0170 
 18 O       -4.7580    -5.4020    -0.0010 O.3   1 <1>  -0.5600 
 19 C       -8.8140    -6.0300    -0.3730 C.ar  1 <1>  -0.1440 
 20 C       -9.9310    -5.4090     0.1480 C.ar  1 <1>  -0.1500 
 21 C       -8.7010    -7.3840    -0.1270 C.ar  1 <1>  -0.1500 
 22 C      -10.8510    -6.1480     0.8730 C.ar  1 <1>   0.1600 
 23 C       -9.6790    -8.0300     0.6100 C.ar  1 <1>   0.1600 
 24 N      -10.7510    -7.4440     1.1180 N.ar  1 <1>  -0.6200 
 25 H        1.2020     1.8170     1.6290 H     1 <1>   0.0800 
 26 H        1.0480     0.4690     0.5050 H     1 <1>   0.0800 
 27 H       -1.4240     1.6690    -1.4330 H     1 <1>   0.0800 
 28 H       -1.6800     3.2170    -0.6240 H     1 <1>   0.0800 
 29 H       -3.3530     1.1380     1.9120 H     1 <1>   0.0800 
 30 H       -3.7000     2.2920     0.6470 H     1 <1>   0.0800 
 31 H        0.8510     2.1210    -1.1610 H     1 <1>   0.0800 
 32 H        0.5110     3.3510     0.0330 H     1 <1>   0.0800 
 33 H       -3.6300     0.4910    -1.0360 H     1 <1>   0.0800 
 34 H       -3.1560    -0.6570     0.1940 H     1 <1>   0.0800 
 35 H       -5.7940     0.8380     0.1300 H     1 <1>   0.0800 
 36 H       -5.3330    -0.3270     1.3370 H     1 <1>   0.0800 
 37 H       -4.8000    -2.6470     0.5050 H     1 <1>   0.3700 
 38 H       -6.2120    -3.3180    -2.0270 H     1 <1>   0.0800 
 39 H       -7.5040    -3.7480     0.3210 H     1 <1>   0.0800 
 40 H       -3.7420    -4.1380    -1.2240 H     1 <1>   0.0800 
 41 H       -4.8400    -5.2730    -1.9990 H     1 <1>   0.0800 
 42 H       -6.3930    -6.2320     0.8530 H     1 <1>   0.0800 
 43 H       -5.8000    -4.7500     1.5810 H     1 <1>   0.0800 
 44 H       -7.1730    -5.9540    -1.7390 H     1 <1>   0.0800 
 45 H       -8.2810    -4.6240    -1.8740 H     1 <1>   0.0800 
 46 H      -10.0950    -4.3570    -0.0030 H     1 <1>   0.1500 
 47 H       -7.8620    -7.9430    -0.5010 H     1 <1>   0.1500 
 48 H      -11.7160    -5.6460     1.2710 H     1 <1>   0.1500 
 49 H       -9.5730    -9.0860     0.7920 H     1 <1>   0.1500 
@<TRIPOS>BOND
  1   1   2  2   
  2   2   3  am  
  3   2   4  1   
  4   3   5  1   
  5   3   6  1   
  6   4   7  1   
  7   4  25  1   
  8   4  26  1   
  9   5   7  1   
 10   5  27  1   
 11   5  28  1   
 12   6   8  1   
 13   6  29  1   
 14   6  30  1   
 15   7  31  1   
 16   7  32  1   
 17   8   9  1   
 18   8  33  1   
 19   8  34  1   
 20   9  10  1   
 21   9  35  1   
 22   9  36  1   
 23  10  11  2   
 24  10  12  am  
 25  12  13  1   
 26  12  37  1   
 27  13  14  1   
 28  13  15  1   
 29  13  38  1   
 30  14  16  1   
 31  14  17  1   
 32  14  39  1   
 33  15  18  1   
 34  15  40  1   
 35  15  41  1   
 36  16  18  1   
 37  16  42  1   
 38  16  43  1   
 39  17  19  1   
 40  17  44  1   
 41  17  45  1   
 42  19  20  ar  
 43  19  21  ar  
 44  20  22  ar  
 45  20  46  1   
 46  21  23  ar  
 47  21  47  1   
 48  22  24  ar  
 49  22  48  1   
 50  23  24  ar  
 51  23  49  1   
@<TRIPOS>SUBSTRUCTURE
  1 ****  12 GROUP 4 **** **** 0

# MOE 2024.06 (io_trps.svl 2023.06)
