@<TRIPOS>MOLECULE
NONAME
61 65 1 0 0 
SMALL
USER_CHARGES


@<TRIPOS>ATOM
  1 O        1.0820    -2.8340     1.5790 O.2   1 <1>  -0.5700 
  2 C        0.0500    -2.4730     1.0360 C.2   1 <1>   0.5440 
  3 N       -0.3520    -1.1570     1.2310 N.am  1 <1>  -0.6600 
  4 C       -0.6730    -3.4370     0.2050 C.ar  1 <1>   0.3960 
  5 C        0.2820    -0.2830     2.2580 C.3   1 <1>   0.0600 
  6 C       -1.4080    -0.4850     0.4230 C.3   1 <1>   0.0600 
  7 N       -2.0150    -3.4280     0.1520 N.ar  1 <1>  -0.6200 
  8 C        0.0770    -4.3670    -0.5220 C.ar  1 <1>   0.1600 
  9 C       -2.5250    -4.3460    -0.6500 C.ar  1 <1>   0.4100 
 10 N       -0.4150    -5.2970    -1.3310 N.ar  1 <1>  -0.6200 
 11 N       -3.9040    -4.3810    -0.7440 N.pl3 1 <1>  -0.8380 
 12 C       -1.7320    -5.2530    -1.3680 C.ar  1 <1>   0.1600 
 13 C       -4.6200    -5.0200     0.4050 C.3   1 <1>   0.2090 
 14 C       -4.5930    -3.0930    -1.0280 C.3   1 <1>   0.2090 
 15 C       -5.5640    -3.9540     0.9730 C.3   1 <1>   0.2800 
 16 C       -5.1800    -2.6380     0.3130 C.3   1 <1>  -0.0800 
 17 O       -6.8770    -4.0820     0.5490 O.3   1 <1>  -0.5600 
 18 C       -5.7460    -3.8050     2.4840 C.3   1 <1>  -0.1600 
 19 C       -6.5160    -1.8690     0.3520 C.3   1 <1>  -0.0800 
 20 C       -7.4120    -2.9100     1.0410 C.3   1 <1>   0.2000 
 21 C       -7.0700    -3.0340     2.5330 C.3   1 <1>  -0.1600 
 22 C       -7.0610    -1.4530    -1.0200 C.3   1 <1>   0.1400 
 23 N       -8.2370    -0.5720    -0.8510 N.am  1 <1>  -0.7300 
 24 C       -8.1790     0.7760    -0.6410 C.2   1 <1>   0.7160 
 25 O       -7.0840     1.2940    -0.5370 O.2   1 <1>  -0.5700 
 26 C       -9.4020     1.5390    -0.5330 C.2   1 <1>  -0.0860 
 27 C       -9.6200     2.8020    -0.0660 C.2   1 <1>  -0.0400 
 28 C      -10.6880     1.0950    -0.9170 C.2   1 <1>  -0.1500 
 29 O      -10.8890     3.1200    -0.1400 O.3   1 <1>  -0.2800 
 30 C       -8.6770     3.8450     0.5020 C.3   1 <1>  -0.0600 
 31 C      -11.5410     2.1020    -0.6510 C.2   1 <1>  -0.0400 
 32 C      -13.0360     2.2250    -0.8450 C.3   1 <1>  -0.0600 
 33 H       -0.4780     0.2310     2.8200 H     1 <1>   0.0800 
 34 H        0.9180     0.4380     1.7760 H     1 <1>   0.0800 
 35 H        0.8750    -0.8640     2.9430 H     1 <1>   0.0800 
 36 H       -1.1640     0.5540     0.2870 H     1 <1>   0.0800 
 37 H       -2.3530    -0.5630     0.9300 H     1 <1>   0.0800 
 38 H       -1.4900    -0.9420    -0.5480 H     1 <1>   0.0800 
 39 H        1.1490    -4.3330    -0.4250 H     1 <1>   0.1500 
 40 H       -2.2440    -5.9610    -1.9930 H     1 <1>   0.1500 
 41 H       -5.1770    -5.8800     0.0770 H     1 <1>   0.0800 
 42 H       -3.9110    -5.3160     1.1590 H     1 <1>   0.0800 
 43 H       -3.9140    -2.3580    -1.4270 H     1 <1>   0.0800 
 44 H       -5.3650    -3.2910    -1.7500 H     1 <1>   0.0800 
 45 H       -4.4160    -2.1380     0.8810 H     1 <1>   0.0800 
 46 H       -5.8420    -4.7720     2.9450 H     1 <1>   0.0800 
 47 H       -4.9300    -3.2670     2.9340 H     1 <1>   0.0800 
 48 H       -6.4120    -0.9900     0.9650 H     1 <1>   0.0800 
 49 H       -8.4640    -2.8330     0.8240 H     1 <1>   0.0800 
 50 H       -6.9760    -2.0720     3.0050 H     1 <1>   0.0800 
 51 H       -7.8290    -3.6070     3.0370 H     1 <1>   0.0800 
 52 H       -7.3430    -2.3190    -1.5950 H     1 <1>   0.0800 
 53 H       -6.3010    -0.9140    -1.5620 H     1 <1>   0.0800 
 54 H       -9.1530    -1.0180    -0.8750 H     1 <1>   0.3700 
 55 H      -10.9190     0.1380    -1.3450 H     1 <1>   0.1500 
 56 H       -7.6700     3.4750     0.5550 H     1 <1>   0.0800 
 57 H       -8.9960     4.1180     1.4900 H     1 <1>   0.0800 
 58 H       -8.6910     4.7190    -0.1220 H     1 <1>   0.0800 
 59 H      -13.4320     1.3210    -1.2700 H     1 <1>   0.0800 
 60 H      -13.2480     3.0470    -1.5040 H     1 <1>   0.0800 
 61 H      -13.5100     2.4060     0.1030 H     1 <1>   0.0800 
@<TRIPOS>BOND
  1   1   2  2   
  2   2   3  am  
  3   2   4  1   
  4   3   5  1   
  5   3   6  1   
  6   4   7  ar  
  7   4   8  ar  
  8   5  33  1   
  9   5  34  1   
 10   5  35  1   
 11   6  36  1   
 12   6  37  1   
 13   6  38  1   
 14   7   9  ar  
 15   8  10  ar  
 16   8  39  1   
 17   9  11  1   
 18   9  12  ar  
 19  10  12  ar  
 20  11  13  1   
 21  11  14  1   
 22  12  40  1   
 23  13  15  1   
 24  13  41  1   
 25  13  42  1   
 26  14  16  1   
 27  14  43  1   
 28  14  44  1   
 29  15  16  1   
 30  15  17  1   
 31  15  18  1   
 32  16  19  1   
 33  16  45  1   
 34  17  20  1   
 35  18  21  1   
 36  18  46  1   
 37  18  47  1   
 38  19  20  1   
 39  19  22  1   
 40  19  48  1   
 41  20  21  1   
 42  20  49  1   
 43  21  50  1   
 44  21  51  1   
 45  22  23  1   
 46  22  52  1   
 47  22  53  1   
 48  23  24  am  
 49  23  54  1   
 50  24  25  2   
 51  24  26  1   
 52  26  27  2   
 53  26  28  1   
 54  27  29  1   
 55  27  30  1   
 56  28  31  2   
 57  28  55  1   
 58  29  31  1   
 59  30  56  1   
 60  30  57  1   
 61  30  58  1   
 62  31  32  1   
 63  32  59  1   
 64  32  60  1   
 65  32  61  1   
@<TRIPOS>SUBSTRUCTURE
  1 ****  16 GROUP 4 **** **** 0

# MOE 2024.06 (io_trps.svl 2023.06)
