@<TRIPOS>MOLECULE
NONAME
55 59 1 0 0 
SMALL
USER_CHARGES


@<TRIPOS>ATOM
  1 S        1.7420     0.4880     2.5280 S.3   1 <1>  -0.0800 
  2 C        2.0600    -0.7020     1.2670 C.ar  1 <1>   0.2970 
  3 C        2.0400     1.8080     1.4030 C.2   1 <1>  -0.1400 
  4 N        1.9760    -1.9990     1.4810 N.ar  1 <1>  -0.5670 
  5 C        2.3760    -0.0890     0.0760 C.ar  1 <1>   0.0000 
  6 C        2.3710     1.3540     0.1850 C.2   1 <1>  -0.1810 
  7 C        1.9090     3.2410     1.8700 C.3   1 <1>   0.0200 
  8 C        2.2320    -2.7090     0.4020 C.ar  1 <1>   0.4770 
  9 C        2.6140    -0.9780    -0.9750 C.ar  1 <1>   0.4100 
 10 C        2.6920     2.3190    -0.9480 C.3   1 <1>   0.0210 
 11 C        1.8750     4.1640     0.6390 C.3   1 <1>  -0.1600 
 12 N        2.5400    -2.2820    -0.8150 N.ar  1 <1>  -0.6200 
 13 C        2.0930    -4.2240     0.5510 C.3   1 <1>   0.4870 
 14 N        2.9270    -0.5910    -2.2350 N.pl3 1 <1>  -0.9000 
 15 C        2.9190     3.7510    -0.4180 C.3   1 <1>  -0.1600 
 16 N        0.7710    -4.7690     0.0470 N.4   1 <1>  -0.9590 
 17 C       -0.3730    -4.1570     0.8090 C.3   1 <1>   0.4230 
 18 C        0.8350    -6.2630     0.0040 C.3   1 <1>   0.2630 
 19 C       -1.5890    -5.0770     0.9810 C.3   1 <1>  -0.1600 
 20 C       -0.9640    -3.0230    -0.0320 C.3   1 <1>  -0.1600 
 21 C       -2.3480    -5.0200    -0.3530 C.3   1 <1>  -0.0800 
 22 C       -1.9400    -3.6960    -1.0080 C.3   1 <1>  -0.0800 
 23 C       -3.8790    -5.0030    -0.2380 C.3   1 <1>  -0.1600 
 24 C       -3.2330    -2.9160    -1.2810 C.3   1 <1>  -0.1600 
 25 C       -4.3240    -3.9790    -1.2750 C.3   1 <1>   0.2000 
 26 O       -5.5280    -3.4240    -0.9090 O.3   1 <1>  -0.6800 
 27 H        1.0080     3.3640     2.4450 H     1 <1>   0.0800 
 28 H        2.7510     3.4840     2.4940 H     1 <1>   0.0800 
 29 H        3.5820     2.0020    -1.4600 H     1 <1>   0.0800 
 30 H        1.8730     2.3170    -1.6460 H     1 <1>   0.0800 
 31 H        0.8950     4.1170     0.1960 H     1 <1>   0.0800 
 32 H        2.0470     5.1800     0.9500 H     1 <1>   0.0800 
 33 H        2.2140    -4.4710     1.5920 H     1 <1>   0.0800 
 34 H        2.9010    -4.6770     0.0050 H     1 <1>   0.0800 
 35 H        3.2390    -1.2990    -2.9010 H     1 <1>   0.4000 
 36 H        3.2150     0.3640    -2.4440 H     1 <1>   0.4000 
 37 H        3.8980     3.8040     0.0280 H     1 <1>   0.0800 
 38 H        2.8960     4.4430    -1.2410 H     1 <1>   0.0800 
 39 H        0.6750    -4.4150    -0.9170 H     1 <1>   0.4500 
 40 H       -0.0340    -3.7950     1.7670 H     1 <1>   0.0800 
 41 H        0.9180    -6.6640     1.0010 H     1 <1>   0.0800 
 42 H        1.6870    -6.5870    -0.5730 H     1 <1>   0.0800 
 43 H       -0.0540    -6.6630    -0.4550 H     1 <1>   0.0800 
 44 H       -1.3650    -6.0770     1.3020 H     1 <1>   0.0800 
 45 H       -2.1990    -4.6370     1.7510 H     1 <1>   0.0800 
 46 H       -1.5040    -2.3750     0.6370 H     1 <1>   0.0800 
 47 H       -0.2380    -2.4220    -0.5470 H     1 <1>   0.0800 
 48 H       -2.0470    -5.8300    -0.9960 H     1 <1>   0.0800 
 49 H       -1.4470    -3.9080    -1.9420 H     1 <1>   0.0800 
 50 H       -4.1860    -4.6810     0.7420 H     1 <1>   0.0800 
 51 H       -4.3020    -5.9700    -0.4450 H     1 <1>   0.0800 
 52 H       -3.1940    -2.4080    -2.2290 H     1 <1>   0.0800 
 53 H       -3.4200    -2.2000    -0.5010 H     1 <1>   0.0800 
 54 H       -4.4300    -4.4330    -2.2470 H     1 <1>   0.0800 
 55 H       -5.4500    -2.9780    -0.0450 H     1 <1>   0.4000 
@<TRIPOS>BOND
  1   1   2  1   
  2   1   3  1   
  3   2   4  ar  
  4   2   5  ar  
  5   3   6  2   
  6   3   7  1   
  7   4   8  ar  
  8   5   6  1   
  9   5   9  ar  
 10   6  10  1   
 11   7  11  1   
 12   7  27  1   
 13   7  28  1   
 14   8  12  ar  
 15   8  13  1   
 16   9  12  ar  
 17   9  14  1   
 18  10  15  1   
 19  10  29  1   
 20  10  30  1   
 21  11  15  1   
 22  11  31  1   
 23  11  32  1   
 24  13  16  1   
 25  13  33  1   
 26  13  34  1   
 27  14  35  1   
 28  14  36  1   
 29  15  37  1   
 30  15  38  1   
 31  16  17  1   
 32  16  18  1   
 33  16  39  1   
 34  17  19  1   
 35  17  20  1   
 36  17  40  1   
 37  18  41  1   
 38  18  42  1   
 39  18  43  1   
 40  19  21  1   
 41  19  44  1   
 42  19  45  1   
 43  20  22  1   
 44  20  46  1   
 45  20  47  1   
 46  21  22  1   
 47  21  23  1   
 48  21  48  1   
 49  22  24  1   
 50  22  49  1   
 51  23  25  1   
 52  23  50  1   
 53  23  51  1   
 54  24  25  1   
 55  24  52  1   
 56  24  53  1   
 57  25  26  1   
 58  25  54  1   
 59  26  55  1   
@<TRIPOS>SUBSTRUCTURE
  1 ****  20 GROUP 4 **** **** 0

# MOE 2024.06 (io_trps.svl 2023.06)
