@<TRIPOS>MOLECULE
NONAME
47 49 1 0 0 
SMALL
USER_CHARGES


@<TRIPOS>ATOM
  1 O       -0.3620    -0.8930    -0.8380 O.2   1 <1>  -0.5700 
  2 C        0.4630    -1.6990    -0.4820 C.2   1 <1>   0.5690 
  3 N        0.1580    -2.8250     0.2320 N.am  1 <1>  -0.6600 
  4 C        1.9190    -1.4640    -0.8300 C.3   1 <1>  -0.0990 
  5 C        1.2240    -3.7700     0.6420 C.3   1 <1>   0.1400 
  6 C       -1.2280    -3.1410     0.6730 C.3   1 <1>   0.0600 
  7 C        2.5700    -2.7610    -1.3470 C.3   1 <1>  -0.0800 
  8 C        2.1830    -4.0220    -0.5380 C.3   1 <1>  -0.0800 
  9 C        4.1030    -2.7080    -1.3570 C.3   1 <1>  -0.1600 
 10 C        3.5060    -4.6740    -0.1080 C.3   1 <1>  -0.1600 
 11 C        4.5270    -4.1490    -1.1130 C.3   1 <1>   0.4230 
 12 N        5.9290    -4.3040    -0.6750 N.4   1 <1>  -0.9590 
 13 C        6.4170    -3.6280     0.5700 C.3   1 <1>   0.4860 
 14 C        6.4080    -5.7130    -0.7130 C.3   1 <1>   0.2630 
 15 C        6.9600    -2.2280     0.2880 C.ar  1 <1>  -0.1440 
 16 C        7.9920    -2.0700    -0.6440 C.ar  1 <1>  -0.1790 
 17 C        6.4630    -1.1280     0.9700 C.ar  1 <1>  -0.1500 
 18 C        8.4780    -3.2290    -1.3560 C.2   1 <1>   0.9790 
 19 C        8.4940    -0.7910    -0.8740 C.ar  1 <1>  -0.1500 
 20 C        6.9740     0.1350     0.7280 C.ar  1 <1>  -0.1500 
 21 O        9.1310    -4.0990    -0.7660 O.co2 1 <1>  -0.9000 
 22 O        7.9100    -3.5400    -2.4170 O.co2 1 <1>  -0.9000 
 23 C        7.9910     0.3020    -0.1950 C.ar  1 <1>  -0.1500 
 24 H        1.9910    -0.6920    -1.5760 H     1 <1>   0.0800 
 25 H        2.4110    -1.1170     0.0590 H     1 <1>   0.0800 
 26 H        1.7540    -3.3370     1.4730 H     1 <1>   0.0800 
 27 H        0.7900    -4.7010     0.9650 H     1 <1>   0.0800 
 28 H       -1.5390    -4.0810     0.2530 H     1 <1>   0.0800 
 29 H       -1.9130    -2.3770     0.3450 H     1 <1>   0.0800 
 30 H       -1.2660    -3.1980     1.7460 H     1 <1>   0.0800 
 31 H        2.2290    -2.9130    -2.3590 H     1 <1>   0.0800 
 32 H        1.6820    -4.6970    -1.2140 H     1 <1>   0.0800 
 33 H        4.4370    -2.0740    -0.5600 H     1 <1>   0.0800 
 34 H        4.4850    -2.3390    -2.2930 H     1 <1>   0.0800 
 35 H        3.4380    -5.7470    -0.1370 H     1 <1>   0.0800 
 36 H        3.7600    -4.3510     0.8840 H     1 <1>   0.0800 
 37 H        4.3940    -4.6840    -2.0400 H     1 <1>   0.0800 
 38 H        6.5100    -3.8670    -1.4370 H     1 <1>   0.4500 
 39 H        5.6350    -3.5820     1.3060 H     1 <1>   0.0800 
 40 H        7.2320    -4.2020     0.9820 H     1 <1>   0.0800 
 41 H        5.9270    -6.3020     0.0490 H     1 <1>   0.0800 
 42 H        7.4770    -5.7380    -0.5570 H     1 <1>   0.0800 
 43 H        6.2080    -6.1440    -1.6800 H     1 <1>   0.0800 
 44 H        5.6780    -1.2400     1.6970 H     1 <1>   0.1500 
 45 H        9.2850    -0.6630    -1.5940 H     1 <1>   0.1500 
 46 H        6.5860     0.9880     1.2570 H     1 <1>   0.1500 
 47 H        8.3930     1.2820    -0.3850 H     1 <1>   0.1500 
@<TRIPOS>BOND
  1   1   2  2   
  2   2   3  am  
  3   2   4  1   
  4   3   5  1   
  5   3   6  1   
  6   4   7  1   
  7   4  24  1   
  8   4  25  1   
  9   5   8  1   
 10   5  26  1   
 11   5  27  1   
 12   6  28  1   
 13   6  29  1   
 14   6  30  1   
 15   7   8  1   
 16   7   9  1   
 17   7  31  1   
 18   8  10  1   
 19   8  32  1   
 20   9  11  1   
 21   9  33  1   
 22   9  34  1   
 23  10  11  1   
 24  10  35  1   
 25  10  36  1   
 26  11  12  1   
 27  11  37  1   
 28  12  13  1   
 29  12  14  1   
 30  12  38  1   
 31  13  15  1   
 32  13  39  1   
 33  13  40  1   
 34  14  41  1   
 35  14  42  1   
 36  14  43  1   
 37  15  16  ar  
 38  15  17  ar  
 39  16  18  1   
 40  16  19  ar  
 41  17  20  ar  
 42  17  44  1   
 43  18  21  ar  
 44  18  22  ar  
 45  19  23  ar  
 46  19  45  1   
 47  20  23  ar  
 48  20  46  1   
 49  23  47  1   
@<TRIPOS>SUBSTRUCTURE
  1 ****   9 GROUP 4 **** **** 0

# MOE 2024.06 (io_trps.svl 2023.06)
