@<TRIPOS>MOLECULE
NONAME
42 43 1 0 0 
SMALL
USER_CHARGES


@<TRIPOS>ATOM
  1 CL       1.0920     0.6520    -1.1650 Cl    1 <1>  -0.1770 
  2 C        1.7180    -0.7540    -0.3380 C.ar  1 <1>   0.1770 
  3 C        1.0080    -1.9460    -0.3200 C.ar  1 <1>  -0.0090 
  4 C        2.9470    -0.6190     0.2830 C.ar  1 <1>  -0.1500 
  5 S       -0.5970    -2.0660    -1.1490 S.o2  1 <1>   1.4470 
  6 C        1.5990    -3.0260     0.3340 C.ar  1 <1>  -0.1500 
  7 C        3.5060    -1.7000     0.9390 C.ar  1 <1>  -0.1500 
  8 O       -0.3610    -2.2030    -2.5710 O.2   1 <1>  -0.6500 
  9 O       -1.4940    -1.0330    -0.6770 O.2   1 <1>  -0.6500 
 10 N       -1.2290    -3.5440    -0.6080 N.am  1 <1>  -0.8490 
 11 C        2.8290    -2.9060     0.9600 C.ar  1 <1>  -0.1500 
 12 C       -2.1570    -4.1490    -1.5960 C.3   1 <1>   0.1960 
 13 C       -1.7560    -3.5140     0.7790 C.3   1 <1>   0.1960 
 14 C       -3.0310    -5.2290    -0.9450 C.3   1 <1>   0.2000 
 15 C       -3.2830    -3.4040     0.8020 C.3   1 <1>  -0.1600 
 16 O       -3.7610    -5.9410    -1.8830 O.3   1 <1>  -0.6800 
 17 C       -3.9600    -4.6560     0.1580 C.3   1 <1>  -0.1060 
 18 C       -4.0600    -5.8250     1.1530 C.2   1 <1>   0.9060 
 19 C       -5.4030    -4.2640    -0.3010 C.3   1 <1>  -0.1600 
 20 O       -3.5750    -5.7260     2.2870 O.co2 1 <1>  -0.9000 
 21 O       -4.5740    -6.8800     0.7550 O.co2 1 <1>  -0.9000 
 22 C       -5.5260    -3.2730    -1.4760 C.3   1 <1>  -0.1600 
 23 C       -6.9960    -2.9790    -1.7870 C.3   1 <1>  -0.2400 
 24 H        3.4600     0.3260     0.2480 H     1 <1>   0.1500 
 25 H        1.0990    -3.9800     0.3560 H     1 <1>   0.1500 
 26 H        4.4620    -1.6050     1.4260 H     1 <1>   0.1500 
 27 H        3.2600    -3.7560     1.4630 H     1 <1>   0.1500 
 28 H       -2.7930    -3.3870    -2.0080 H     1 <1>   0.0800 
 29 H       -1.5830    -4.5860    -2.3960 H     1 <1>   0.0800 
 30 H       -1.4740    -4.4260     1.2800 H     1 <1>   0.0800 
 31 H       -1.3240    -2.6980     1.3330 H     1 <1>   0.0800 
 32 H       -2.3530    -5.9420    -0.5050 H     1 <1>   0.0800 
 33 H       -3.6170    -3.2940     1.8190 H     1 <1>   0.0800 
 34 H       -3.5500    -2.4970     0.2970 H     1 <1>   0.0800 
 35 H       -4.3060    -6.5780    -1.3570 H     1 <1>   0.4000 
 36 H       -5.9310    -5.1620    -0.5750 H     1 <1>   0.0800 
 37 H       -5.9220    -3.8600     0.5510 H     1 <1>   0.0800 
 38 H       -5.0310    -2.3460    -1.2550 H     1 <1>   0.0800 
 39 H       -5.0690    -3.6940    -2.3550 H     1 <1>   0.0800 
 40 H       -7.4780    -2.5390    -0.9320 H     1 <1>   0.0800 
 41 H       -7.5100    -3.8880    -2.0460 H     1 <1>   0.0800 
 42 H       -7.0670    -2.2960    -2.6140 H     1 <1>   0.0800 
@<TRIPOS>BOND
  1   1   2  1   
  2   2   3  ar  
  3   2   4  ar  
  4   3   5  1   
  5   3   6  ar  
  6   4   7  ar  
  7   4  24  1   
  8   5   8  2   
  9   5   9  2   
 10   5  10  am  
 11   6  11  ar  
 12   6  25  1   
 13   7  11  ar  
 14   7  26  1   
 15  10  12  1   
 16  10  13  1   
 17  11  27  1   
 18  12  14  1   
 19  12  28  1   
 20  12  29  1   
 21  13  15  1   
 22  13  30  1   
 23  13  31  1   
 24  14  16  1   
 25  14  17  1   
 26  14  32  1   
 27  15  17  1   
 28  15  33  1   
 29  15  34  1   
 30  16  35  1   
 31  17  18  1   
 32  17  19  1   
 33  18  20  ar  
 34  18  21  ar  
 35  19  22  1   
 36  19  36  1   
 37  19  37  1   
 38  22  23  1   
 39  22  38  1   
 40  22  39  1   
 41  23  40  1   
 42  23  41  1   
 43  23  42  1   
@<TRIPOS>SUBSTRUCTURE
  1 ****  10 GROUP 4 **** **** 0

# MOE 2024.06 (io_trps.svl 2023.06)
