@<TRIPOS>MOLECULE
NONAME
41 42 1 0 0 
SMALL
USER_CHARGES


@<TRIPOS>ATOM
  1 O       -0.7260     0.0760     0.2400 O.2   1 <1>  -0.5700 
  2 C       -1.7930     0.6600     0.1710 C.2   1 <1>   0.5440 
  3 N       -1.8470     1.9900     0.5480 N.am  1 <1>  -0.6600 
  4 C       -2.9570    -0.0620    -0.2870 C.ar  1 <1>   0.0860 
  5 C       -3.0970     2.6740     0.9810 C.3   1 <1>   0.0600 
  6 C       -0.6050     2.7850     0.7560 C.3   1 <1>   0.0600 
  7 C       -3.2100    -1.3510     0.1720 C.ar  1 <1>   0.1600 
  8 C       -3.8670     0.4660    -1.1970 C.ar  1 <1>  -0.1500 
  9 N       -4.2460    -2.1040    -0.1560 N.ar  1 <1>  -0.6200 
 10 C       -4.9460    -0.3060    -1.5540 C.ar  1 <1>  -0.1500 
 11 C       -5.1090    -1.5810    -1.0170 C.ar  1 <1>   0.4100 
 12 N       -6.2030    -2.3220    -1.3930 N.pl3 1 <1>  -0.8690 
 13 C       -6.4610    -3.7640    -1.1560 C.3   1 <1>   0.2890 
 14 C       -6.5750    -4.0860     0.3440 C.3   1 <1>  -0.0170 
 15 C       -5.4080    -4.5990    -1.8860 C.3   1 <1>  -0.2400 
 16 C       -7.1930    -5.4590     0.5770 C.ar  1 <1>  -0.1430 
 17 C       -8.5700    -5.6340     0.5270 C.ar  1 <1>   0.1600 
 18 C       -6.3950    -6.5550     0.8390 C.ar  1 <1>  -0.1500 
 19 N       -9.1970    -6.7860     0.7050 N.ar  1 <1>  -0.6200 
 20 C       -7.0310    -7.7620     1.0310 C.ar  1 <1>  -0.1500 
 21 C       -8.4120    -7.8220     0.9540 C.ar  1 <1>   0.1600 
 22 H       -3.8940     1.9660     1.1250 H     1 <1>   0.0800 
 23 H       -3.3920     3.3940     0.2380 H     1 <1>   0.0800 
 24 H       -2.9270     3.1830     1.9150 H     1 <1>   0.0800 
 25 H        0.2270     2.3250     0.2510 H     1 <1>   0.0800 
 26 H       -0.3830     2.8400     1.8080 H     1 <1>   0.0800 
 27 H       -0.7340     3.7780     0.3650 H     1 <1>   0.0800 
 28 H       -2.5000    -1.7780     0.8600 H     1 <1>   0.1500 
 29 H       -3.7170     1.4490    -1.6070 H     1 <1>   0.1500 
 30 H       -5.6740     0.0640    -2.2500 H     1 <1>   0.1500 
 31 H       -6.7440    -1.9490    -2.1720 H     1 <1>   0.4000 
 32 H       -7.4150    -3.9870    -1.6020 H     1 <1>   0.0800 
 33 H       -7.1890    -3.3400     0.8150 H     1 <1>   0.0800 
 34 H       -5.6060    -4.0530     0.8050 H     1 <1>   0.0800 
 35 H       -4.4410    -4.4660    -1.4360 H     1 <1>   0.0800 
 36 H       -5.3590    -4.3120    -2.9200 H     1 <1>   0.0800 
 37 H       -5.6650    -5.6410    -1.8360 H     1 <1>   0.0800 
 38 H       -9.1920    -4.7780     0.3290 H     1 <1>   0.1500 
 39 H       -5.3230    -6.4730     0.8910 H     1 <1>   0.1500 
 40 H       -6.4640    -8.6510     1.2390 H     1 <1>   0.1500 
 41 H       -8.8960    -8.7710     1.1050 H     1 <1>   0.1500 
@<TRIPOS>BOND
  1   1   2  2   
  2   2   3  am  
  3   2   4  1   
  4   3   5  1   
  5   3   6  1   
  6   4   7  ar  
  7   4   8  ar  
  8   5  22  1   
  9   5  23  1   
 10   5  24  1   
 11   6  25  1   
 12   6  26  1   
 13   6  27  1   
 14   7   9  ar  
 15   7  28  1   
 16   8  10  ar  
 17   8  29  1   
 18   9  11  ar  
 19  10  11  ar  
 20  10  30  1   
 21  11  12  1   
 22  12  13  1   
 23  12  31  1   
 24  13  14  1   
 25  13  15  1   
 26  13  32  1   
 27  14  16  1   
 28  14  33  1   
 29  14  34  1   
 30  15  35  1   
 31  15  36  1   
 32  15  37  1   
 33  16  17  ar  
 34  16  18  ar  
 35  17  19  ar  
 36  17  38  1   
 37  18  20  ar  
 38  18  39  1   
 39  19  21  ar  
 40  20  21  ar  
 41  20  40  1   
 42  21  41  1   
@<TRIPOS>SUBSTRUCTURE
  1 ****   9 GROUP 4 **** **** 0

# MOE 2024.06 (io_trps.svl 2023.06)
