@<TRIPOS>MOLECULE
NONAME
43 45 1 0 0 
SMALL
USER_CHARGES


@<TRIPOS>ATOM
  1 S       -0.1360    -0.2650     1.1000 S.3   1 <1>  -0.2860 
  2 C        0.5450     0.9510    -0.0330 C.2   1 <1>   0.2420 
  3 C       -1.4510    -1.1410     0.1160 C.3   1 <1>   0.1310 
  4 N        1.5020     1.7880     0.3540 N.pl3 1 <1>   0.0330 
  5 N        0.1810     1.1250    -1.2520 N.2   1 <1>  -0.3380 
  6 C       -2.7890    -1.0730     0.8390 C.2   1 <1>   0.5690 
  7 C        1.7020     2.5180    -0.7460 C.2   1 <1>   0.2700 
  8 N        0.9260     2.1450    -1.7140 N.2   1 <1>  -0.3380 
  9 O       -3.1680    -2.0890     1.3760 O.2   1 <1>  -0.5700 
 10 N       -3.5430     0.0790     0.8620 N.am  1 <1>  -0.6600 
 11 N        2.6140     3.5450    -0.8480 N.pl3 1 <1>  -0.8840 
 12 C       -3.1760     1.3650     0.2050 C.3   1 <1>   0.1400 
 13 C       -4.8320     0.1490     1.6060 C.3   1 <1>   0.1400 
 14 C       -4.2790     1.7600    -0.7780 C.3   1 <1>  -0.1600 
 15 C       -5.9550     0.5420     0.6430 C.3   1 <1>  -0.1600 
 16 C       -5.6450     1.8530    -0.0850 C.3   1 <1>   0.4180 
 17 O       -5.6010     2.8510     0.9060 O.3   1 <1>  -0.5600 
 18 C       -6.7520     2.1550    -1.0930 C.2   1 <1>  -0.2880 
 19 C       -5.7530     4.1800     0.4900 C.3   1 <1>   0.1200 
 20 C       -7.4500     3.2920    -1.1210 C.2   1 <1>  -0.2760 
 21 C       -7.1410     4.3970    -0.1280 C.3   1 <1>  -0.0220 
 22 C       -8.5790     3.5860    -2.0930 C.3   1 <1>  -0.1020 
 23 H       -1.1350    -2.1630     0.0230 H     1 <1>   0.0800 
 24 H       -1.5170    -0.7010    -0.8580 H     1 <1>   0.0800 
 25 H        1.9380     1.8800     1.2690 H     1 <1>   0.2700 
 26 H        2.5250     4.0170    -1.7540 H     1 <1>   0.4000 
 27 H        3.5880     3.2610    -0.7190 H     1 <1>   0.4000 
 28 H       -2.2460     1.2890    -0.3230 H     1 <1>   0.0800 
 29 H       -3.0680     2.1270     0.9590 H     1 <1>   0.0800 
 30 H       -4.7460     0.8830     2.3890 H     1 <1>   0.0800 
 31 H       -5.0640    -0.7980     2.0640 H     1 <1>   0.0800 
 32 H       -4.3270     1.0170    -1.5530 H     1 <1>   0.0800 
 33 H       -4.0360     2.6920    -1.2500 H     1 <1>   0.0800 
 34 H       -6.8770     0.6480     1.1830 H     1 <1>   0.0800 
 35 H       -6.0840    -0.2490    -0.0720 H     1 <1>   0.0800 
 36 H       -6.9190     1.3460    -1.7800 H     1 <1>   0.1500 
 37 H       -4.9820     4.4080    -0.2240 H     1 <1>   0.0800 
 38 H       -5.6240     4.8110     1.3510 H     1 <1>   0.0800 
 39 H       -7.1500     5.3540    -0.6180 H     1 <1>   0.0800 
 40 H       -7.8860     4.4090     0.6480 H     1 <1>   0.0800 
 41 H       -9.4900     3.7780    -1.5550 H     1 <1>   0.0800 
 42 H       -8.7400     2.7480    -2.7480 H     1 <1>   0.0800 
 43 H       -8.3400     4.4460    -2.6930 H     1 <1>   0.0800 
@<TRIPOS>BOND
  1   1   2  1   
  2   1   3  1   
  3   2   4  1   
  4   2   5  2   
  5   3   6  1   
  6   3  23  1   
  7   3  24  1   
  8   4   7  1   
  9   4  25  1   
 10   5   8  1   
 11   6   9  2   
 12   6  10  am  
 13   7   8  2   
 14   7  11  1   
 15  10  12  1   
 16  10  13  1   
 17  11  26  1   
 18  11  27  1   
 19  12  14  1   
 20  12  28  1   
 21  12  29  1   
 22  13  15  1   
 23  13  30  1   
 24  13  31  1   
 25  14  16  1   
 26  14  32  1   
 27  14  33  1   
 28  15  16  1   
 29  15  34  1   
 30  15  35  1   
 31  16  17  1   
 32  16  18  1   
 33  17  19  1   
 34  18  20  2   
 35  18  36  1   
 36  19  21  1   
 37  19  37  1   
 38  19  38  1   
 39  20  21  1   
 40  20  22  1   
 41  21  39  1   
 42  21  40  1   
 43  22  41  1   
 44  22  42  1   
 45  22  43  1   
@<TRIPOS>SUBSTRUCTURE
  1 ****  12 GROUP 4 **** **** 0

# MOE 2024.06 (io_trps.svl 2023.06)
