@<TRIPOS>MOLECULE
NONAME
41 44 1 0 0 
SMALL
USER_CHARGES


@<TRIPOS>ATOM
  1 O       -0.8030     0.5970     1.4080 O.2   1 <1>  -0.5700 
  2 C       -1.7150     1.1400     0.8050 C.2   1 <1>   0.7160 
  3 N       -2.7900     0.3410     0.4570 N.am  1 <1>  -0.6600 
  4 C       -1.6180     2.5690     0.4910 C.2   1 <1>   0.2030 
  5 C       -4.0170     0.7760    -0.2600 C.3   1 <1>   0.1400 
  6 C       -2.7870    -1.1330     0.6270 C.3   1 <1>   0.1400 
  7 N       -2.4460     3.2880    -0.2640 N.2   1 <1>  -0.7070 
  8 C       -0.5800     3.3710     0.9720 C.2   1 <1>  -0.1500 
  9 C       -4.9450    -0.4380    -0.2080 C.3   1 <1>   0.2000 
 10 C       -3.9820    -1.6310    -0.1940 C.3   1 <1>  -0.0800 
 11 N       -1.9380     4.5310    -0.2590 N.pl3 1 <1>   0.6010 
 12 C       -0.7920     4.6170     0.4900 C.2   1 <1>  -0.0260 
 13 O       -5.6480    -0.3970     0.9870 O.3   1 <1>  -0.6800 
 14 C       -4.5880    -2.9490     0.3230 C.3   1 <1>   0.0200 
 15 C       -2.4170     5.6600    -0.8920 C.2   1 <1>  -0.1810 
 16 N       -0.0750     5.7860     0.6540 N.2   1 <1>  -0.5760 
 17 C       -3.6420    -4.1320     0.1890 C.2   1 <1>  -0.0400 
 18 C       -1.7220     6.8190    -0.7410 C.2   1 <1>  -0.1360 
 19 C       -0.5390     6.8320     0.0540 C.2   1 <1>   0.3760 
 20 O       -3.9800    -5.2680     0.7380 O.3   1 <1>  -0.0190 
 21 C       -2.4510    -4.3060    -0.4070 C.2   1 <1>  -0.1500 
 22 N       -3.0810    -6.1890     0.5460 N.2   1 <1>  -0.4100 
 23 C       -2.1480    -5.6380    -0.1420 C.2   1 <1>   0.1080 
 24 C       -0.8920    -6.3500    -0.5950 C.3   1 <1>  -0.0590 
 25 H       -4.4670     1.6390     0.2000 H     1 <1>   0.0800 
 26 H       -3.7630     1.0040    -1.2800 H     1 <1>   0.0800 
 27 H       -1.8590    -1.5540     0.2800 H     1 <1>   0.0800 
 28 H       -2.9110    -1.3640     1.6710 H     1 <1>   0.0800 
 29 H        0.2280     3.0490     1.6030 H     1 <1>   0.1500 
 30 H       -5.6510    -0.4650    -1.0200 H     1 <1>   0.0800 
 31 H       -3.6460    -1.7830    -1.2040 H     1 <1>   0.0800 
 32 H       -5.0300    -0.1720     1.7110 H     1 <1>   0.4000 
 33 H       -5.4870    -3.1700    -0.2250 H     1 <1>   0.0800 
 34 H       -4.8570    -2.8480     1.3600 H     1 <1>   0.0800 
 35 H       -3.3160     5.5420    -1.4670 H     1 <1>   0.1500 
 36 H       -2.0300     7.7400    -1.2020 H     1 <1>   0.1500 
 37 H       -0.0160     7.7660     0.1510 H     1 <1>   0.0600 
 38 H       -1.8420    -3.6210    -0.9660 H     1 <1>   0.1500 
 39 H       -0.8180    -6.3130    -1.6660 H     1 <1>   0.0800 
 40 H       -0.9220    -7.3790    -0.2830 H     1 <1>   0.0800 
 41 H       -0.0300    -5.8800    -0.1610 H     1 <1>   0.0800 
@<TRIPOS>BOND
  1   1   2  2   
  2   2   3  am  
  3   2   4  1   
  4   3   5  1   
  5   3   6  1   
  6   4   7  2   
  7   4   8  1   
  8   5   9  1   
  9   5  25  1   
 10   5  26  1   
 11   6  10  1   
 12   6  27  1   
 13   6  28  1   
 14   7  11  1   
 15   8  12  2   
 16   8  29  1   
 17   9  10  1   
 18   9  13  1   
 19   9  30  1   
 20  10  14  1   
 21  10  31  1   
 22  11  12  1   
 23  11  15  1   
 24  12  16  1   
 25  13  32  1   
 26  14  17  1   
 27  14  33  1   
 28  14  34  1   
 29  15  18  2   
 30  15  35  1   
 31  16  19  2   
 32  17  20  1   
 33  17  21  2   
 34  18  19  1   
 35  18  36  1   
 36  19  37  1   
 37  20  22  1   
 38  21  23  1   
 39  21  38  1   
 40  22  23  2   
 41  23  24  1   
 42  24  39  1   
 43  24  40  1   
 44  24  41  1   
@<TRIPOS>SUBSTRUCTURE
  1 ****   3 GROUP 4 **** **** 0

# MOE 2024.06 (io_trps.svl 2023.06)
