@<TRIPOS>MOLECULE
NONAME
52 55 1 0 0 
SMALL
USER_CHARGES


@<TRIPOS>ATOM
  1 O       -0.6730     0.3670     0.8420 O.2   1 <1>  -0.5700 
  2 C       -1.7130     0.9490     0.5940 C.2   1 <1>   0.7150 
  3 N       -2.8790     0.2240     0.5250 N.am  1 <1>  -0.6600 
  4 C       -1.7120     2.3640     0.3500 C.2   1 <1>  -0.2370 
  5 C       -4.0520     0.6170    -0.2990 C.3   1 <1>   0.1400 
  6 C       -2.9600    -1.2210     0.8450 C.3   1 <1>   0.1400 
  7 N       -0.7140     3.0320    -0.2790 N.pl3 1 <1>   0.3140 
  8 C       -2.6250     3.3200     0.6660 C.2   1 <1>  -0.1500 
  9 C       -4.8870    -0.6590    -0.4840 C.3   1 <1>   0.2000 
 10 C       -3.8980    -1.7970    -0.2160 C.3   1 <1>  -0.0800 
 11 N       -0.9700     4.3380    -0.3970 N.2   1 <1>  -0.7070 
 12 C        0.5390     2.4710    -0.8110 C.3   1 <1>   0.0160 
 13 C       -2.1320     4.5280     0.1800 C.2   1 <1>   0.2350 
 14 O       -5.8980    -0.7020     0.4830 O.3   1 <1>  -0.5600 
 15 C       -4.5490    -3.1310     0.1960 C.3   1 <1>   0.0200 
 16 C       -2.7830     5.8230     0.2860 C.ar  1 <1>   0.0540 
 17 C       -7.0830    -0.0580     0.1340 C.3   1 <1>   0.0400 
 18 C       -3.5590    -4.2800     0.2830 C.2   1 <1>  -0.0400 
 19 C       -2.0660     7.0020     0.0840 C.ar  1 <1>  -0.1500 
 20 C       -4.1400     5.9490     0.5890 C.ar  1 <1>  -0.1500 
 21 O       -3.9820    -5.4400     0.7110 O.3   1 <1>  -0.0190 
 22 C       -2.2510    -4.4040     0.0000 C.2   1 <1>  -0.1500 
 23 C       -2.6650     8.2440     0.1830 C.ar  1 <1>  -0.1500 
 24 C       -4.7470     7.1880     0.6920 C.ar  1 <1>  -0.1500 
 25 N       -3.0320    -6.3300     0.7320 N.2   1 <1>  -0.4100 
 26 C       -1.9760    -5.7330     0.3090 C.2   1 <1>   0.1080 
 27 C       -4.0100     8.3400     0.4890 C.ar  1 <1>  -0.1500 
 28 C       -0.6230    -6.3920     0.1710 C.3   1 <1>  -0.0590 
 29 H       -4.6220     1.3850     0.1890 H     1 <1>   0.0800 
 30 H       -3.7050     0.9720    -1.2540 H     1 <1>   0.0800 
 31 H       -1.9930    -1.6910     0.8230 H     1 <1>   0.0800 
 32 H       -3.3880    -1.3330     1.8270 H     1 <1>   0.0800 
 33 H       -3.5450     3.1860     1.2010 H     1 <1>   0.1500 
 34 H       -5.3270    -0.7320    -1.4650 H     1 <1>   0.0800 
 35 H       -3.3260    -1.9530    -1.1130 H     1 <1>   0.0800 
 36 H        0.3150     1.6400    -1.4510 H     1 <1>   0.0800 
 37 H        1.1520     2.1450     0.0080 H     1 <1>   0.0800 
 38 H        1.0580     3.2290    -1.3690 H     1 <1>   0.0800 
 39 H       -5.3080    -3.3930    -0.5190 H     1 <1>   0.0800 
 40 H       -5.0300    -3.0210     1.1530 H     1 <1>   0.0800 
 41 H       -7.7640    -0.1440     0.9620 H     1 <1>   0.0800 
 42 H       -7.5060    -0.5380    -0.7320 H     1 <1>   0.0800 
 43 H       -6.8860     0.9810    -0.0650 H     1 <1>   0.0800 
 44 H       -1.0180     6.9370    -0.1560 H     1 <1>   0.1500 
 45 H       -4.7360     5.0700     0.7450 H     1 <1>   0.1500 
 46 H       -1.5470    -3.6860    -0.3760 H     1 <1>   0.1500 
 47 H       -2.0840     9.1360     0.0220 H     1 <1>   0.1500 
 48 H       -5.7950     7.2580     0.9280 H     1 <1>   0.1500 
 49 H       -4.4790     9.3060     0.5680 H     1 <1>   0.1500 
 50 H       -0.2950    -6.3410    -0.8510 H     1 <1>   0.0800 
 51 H       -0.6860    -7.4240     0.4650 H     1 <1>   0.0800 
 52 H        0.0910    -5.8940     0.7990 H     1 <1>   0.0800 
@<TRIPOS>BOND
  1   1   2  2   
  2   2   3  am  
  3   2   4  1   
  4   3   5  1   
  5   3   6  1   
  6   4   7  1   
  7   4   8  2   
  8   5   9  1   
  9   5  29  1   
 10   5  30  1   
 11   6  10  1   
 12   6  31  1   
 13   6  32  1   
 14   7  11  1   
 15   7  12  1   
 16   8  13  1   
 17   8  33  1   
 18   9  10  1   
 19   9  14  1   
 20   9  34  1   
 21  10  15  1   
 22  10  35  1   
 23  11  13  2   
 24  12  36  1   
 25  12  37  1   
 26  12  38  1   
 27  13  16  1   
 28  14  17  1   
 29  15  18  1   
 30  15  39  1   
 31  15  40  1   
 32  16  19  ar  
 33  16  20  ar  
 34  17  41  1   
 35  17  42  1   
 36  17  43  1   
 37  18  21  1   
 38  18  22  2   
 39  19  23  ar  
 40  19  44  1   
 41  20  24  ar  
 42  20  45  1   
 43  21  25  1   
 44  22  26  1   
 45  22  46  1   
 46  23  27  ar  
 47  23  47  1   
 48  24  27  ar  
 49  24  48  1   
 50  25  26  2   
 51  26  28  1   
 52  27  49  1   
 53  28  50  1   
 54  28  51  1   
 55  28  52  1   
@<TRIPOS>SUBSTRUCTURE
  1 ****   3 GROUP 4 **** **** 0

# MOE 2024.06 (io_trps.svl 2023.06)
