@<TRIPOS>MOLECULE
NONAME
56 60 1 0 0 
SMALL
USER_CHARGES


@<TRIPOS>ATOM
  1 O       -0.3590    -1.8570     0.6950 O.2   1 <1>  -0.5700 
  2 C        0.6700    -1.2510     0.5270 C.2   1 <1>   0.5950 
  3 C        1.9510    -1.9010     0.4390 C.2   1 <1>  -0.0860 
  4 C        0.5970     0.2540     0.3950 C.3   1 <1>  -0.1790 
  5 C        3.2010    -1.4030     0.1650 C.2   1 <1>  -0.3020 
  6 C        2.1500    -3.2780     0.6300 C.2   1 <1>  -0.1500 
  7 N        4.1240    -2.3890     0.1710 N.pl3 1 <1>   0.0480 
  8 C        3.4700    -3.5550     0.4490 C.2   1 <1>  -0.3320 
  9 C        5.5670    -2.1930    -0.0760 C.3   1 <1>   0.0160 
 10 C        4.1730    -4.8950     0.5360 C.3   1 <1>   0.5230 
 11 N        3.1550    -5.9380     0.3050 N.4   1 <1>  -0.9590 
 12 C        3.4880    -7.2860     0.8240 C.3   1 <1>   0.3430 
 13 C        2.6290    -5.9510    -1.0920 C.3   1 <1>   0.3430 
 14 C        2.2320    -8.1690     0.8430 C.3   1 <1>  -0.1600 
 15 C        1.5350    -7.0120    -1.2610 C.3   1 <1>  -0.1600 
 16 C        1.0420    -7.5730     0.0770 C.3   1 <1>   0.4600 
 17 O        0.5670    -6.5020     0.8700 O.3   1 <1>  -0.5600 
 18 C       -0.0640    -8.6020    -0.1060 C.2   1 <1>  -0.3320 
 19 C       -0.7510    -6.0430     0.6510 C.3   1 <1>   0.1200 
 20 N        0.0370    -9.8360    -0.6920 N.pl3 1 <1>   0.0330 
 21 C       -1.3360    -8.4140     0.3040 C.2   1 <1>  -0.1810 
 22 C       -1.7780    -7.1380     0.9770 C.3   1 <1>   0.0210 
 23 C       -1.1970   -10.4350    -0.6400 C.ar  1 <1>  -0.1520 
 24 C       -2.0850    -9.5640    -0.0150 C.ar  1 <1>   0.0000 
 25 C       -1.6210   -11.6860    -1.0940 C.ar  1 <1>  -0.1500 
 26 C       -3.4180    -9.9450     0.1640 C.ar  1 <1>  -0.1500 
 27 C       -2.9360   -12.0480    -0.9120 C.ar  1 <1>  -0.1500 
 28 C       -3.8350   -11.1780    -0.2830 C.ar  1 <1>  -0.1500 
 29 H        1.2660     0.7140     1.0970 H     1 <1>   0.0800 
 30 H       -0.4040     0.5910     0.5940 H     1 <1>   0.0800 
 31 H        0.8700     0.5420    -0.6030 H     1 <1>   0.0800 
 32 H        3.4600    -0.3780    -0.0350 H     1 <1>   0.1500 
 33 H        1.3340    -3.9360     0.8790 H     1 <1>   0.1500 
 34 H        5.7660    -1.1470    -0.2300 H     1 <1>   0.0800 
 35 H        5.8610    -2.7390    -0.9540 H     1 <1>   0.0800 
 36 H        6.1280    -2.5330     0.7750 H     1 <1>   0.0800 
 37 H        4.6120    -5.0060     1.5140 H     1 <1>   0.0800 
 38 H        4.9480    -4.9660    -0.2090 H     1 <1>   0.0800 
 39 H        2.3350    -5.6410     0.8680 H     1 <1>   0.4500 
 40 H        3.8810    -7.2110     1.8260 H     1 <1>   0.0800 
 41 H        4.2400    -7.7370     0.1970 H     1 <1>   0.0800 
 42 H        3.4280    -6.1390    -1.7900 H     1 <1>   0.0800 
 43 H        2.2100    -4.9820    -1.3190 H     1 <1>   0.0800 
 44 H        1.9300    -8.3550     1.8580 H     1 <1>   0.0800 
 45 H        2.4940    -9.1210     0.4220 H     1 <1>   0.0800 
 46 H        1.9300    -7.8180    -1.8510 H     1 <1>   0.0800 
 47 H        0.7120    -6.6040    -1.8190 H     1 <1>   0.0800 
 48 H       -0.8460    -5.7400    -0.3770 H     1 <1>   0.0800 
 49 H       -0.9160    -5.1840     1.2790 H     1 <1>   0.0800 
 50 H        0.8670   -10.2720    -1.1030 H     1 <1>   0.2700 
 51 H       -2.7470    -6.8440     0.6160 H     1 <1>   0.0800 
 52 H       -1.8370    -7.2870     2.0400 H     1 <1>   0.0800 
 53 H       -0.9270   -12.3510    -1.5760 H     1 <1>   0.1500 
 54 H       -4.0960    -9.2680     0.6490 H     1 <1>   0.1500 
 55 H       -3.2880   -13.0060    -1.2520 H     1 <1>   0.1500 
 56 H       -4.8570   -11.4850    -0.1530 H     1 <1>   0.1500 
@<TRIPOS>BOND
  1   1   2  2   
  2   2   3  1   
  3   2   4  1   
  4   3   5  2   
  5   3   6  1   
  6   4  29  1   
  7   4  30  1   
  8   4  31  1   
  9   5   7  1   
 10   5  32  1   
 11   6   8  2   
 12   6  33  1   
 13   7   8  1   
 14   7   9  1   
 15   8  10  1   
 16   9  34  1   
 17   9  35  1   
 18   9  36  1   
 19  10  11  1   
 20  10  37  1   
 21  10  38  1   
 22  11  12  1   
 23  11  13  1   
 24  11  39  1   
 25  12  14  1   
 26  12  40  1   
 27  12  41  1   
 28  13  15  1   
 29  13  42  1   
 30  13  43  1   
 31  14  16  1   
 32  14  44  1   
 33  14  45  1   
 34  15  16  1   
 35  15  46  1   
 36  15  47  1   
 37  16  17  1   
 38  16  18  1   
 39  17  19  1   
 40  18  20  1   
 41  18  21  2   
 42  19  22  1   
 43  19  48  1   
 44  19  49  1   
 45  20  23  1   
 46  20  50  1   
 47  21  22  1   
 48  21  24  1   
 49  22  51  1   
 50  22  52  1   
 51  23  24  ar  
 52  23  25  ar  
 53  24  26  ar  
 54  25  27  ar  
 55  25  53  1   
 56  26  28  ar  
 57  26  54  1   
 58  27  28  ar  
 59  27  55  1   
 60  28  56  1   
@<TRIPOS>SUBSTRUCTURE
  1 ****  17 GROUP 4 **** **** 0

# MOE 2024.06 (io_trps.svl 2023.06)
