@<TRIPOS>MOLECULE
NONAME
48 49 1 0 0 
SMALL
USER_CHARGES


@<TRIPOS>ATOM
  1 CL      -2.4720     0.2020    -2.8930 Cl    1 <1>  -0.1770 
  2 C       -2.4020     0.8100    -1.2580 C.ar  1 <1>   0.1770 
  3 C       -2.3090    -0.0760    -0.1860 C.ar  1 <1>   0.0860 
  4 C       -2.4380     2.1780    -1.0800 C.ar  1 <1>  -0.1500 
  5 C       -2.2850    -1.5070    -0.3610 C.2   1 <1>   0.5440 
  6 C       -2.2300     0.4850     1.0890 C.ar  1 <1>  -0.1500 
  7 C       -2.3740     2.7250     0.1970 C.ar  1 <1>   0.1170 
  8 O       -1.2440    -2.1000    -0.1430 O.2   1 <1>  -0.5700 
  9 N       -3.4150    -2.2170    -0.7070 N.am  1 <1>  -0.6600 
 10 C       -2.2610     1.8540     1.2770 C.ar  1 <1>  -0.1500 
 11 N       -2.4010     4.1030     0.4330 N.am  1 <1>  -0.5470 
 12 C       -3.4130    -3.7110    -0.8710 C.3   1 <1>   0.1400 
 13 C       -4.7680    -1.6240    -0.8610 C.3   1 <1>   0.1400 
 14 C       -2.9560     5.1100    -0.3060 C.2   1 <1>   0.5690 
 15 C       -4.6620    -4.3990    -0.2360 C.3   1 <1>  -0.1060 
 16 C       -5.6550    -2.0850     0.3030 C.3   1 <1>  -0.1600 
 17 O       -3.5800     4.9320    -1.3200 O.2   1 <1>  -0.5700 
 18 C       -2.7810     6.5200     0.1980 C.3   1 <1>  -0.1790 
 19 C       -5.7560    -4.6300    -1.2990 C.2   1 <1>   0.9060 
 20 C       -5.2260    -3.4550     0.8580 C.3   1 <1>   0.2000 
 21 C       -4.2560    -5.7910     0.3350 C.3   1 <1>  -0.1600 
 22 O       -6.9080    -4.8970    -0.9180 O.co2 1 <1>  -0.9000 
 23 O       -5.4940    -4.5590    -2.5040 O.co2 1 <1>  -0.9000 
 24 O       -6.3240    -4.0250     1.4710 O.3   1 <1>  -0.6800 
 25 C       -3.3480    -5.7790     1.5810 C.3   1 <1>  -0.1600 
 26 C       -2.9390    -7.2020     1.9700 C.3   1 <1>  -0.2400 
 27 H       -2.5110     2.8130    -1.9430 H     1 <1>   0.1500 
 28 H       -2.1430    -0.1770     1.9340 H     1 <1>   0.1500 
 29 H       -2.2020     2.2510     2.2750 H     1 <1>   0.1500 
 30 H       -1.9790     4.4020     1.3100 H     1 <1>   0.3700 
 31 H       -3.3330    -3.9440    -1.9180 H     1 <1>   0.0800 
 32 H       -2.5230    -4.1000    -0.4170 H     1 <1>   0.0800 
 33 H       -4.7370    -0.5510    -0.9000 H     1 <1>   0.0800 
 34 H       -5.1850    -1.9720    -1.7920 H     1 <1>   0.0800 
 35 H       -6.6690    -2.1300    -0.0530 H     1 <1>   0.0800 
 36 H       -5.6090    -1.3620     1.0950 H     1 <1>   0.0800 
 37 H       -1.7370     6.7460     0.3030 H     1 <1>   0.0800 
 38 H       -3.2740     6.6330     1.1450 H     1 <1>   0.0800 
 39 H       -3.2150     7.2110    -0.5020 H     1 <1>   0.0800 
 40 H       -4.4790    -3.2960     1.6160 H     1 <1>   0.0800 
 41 H       -5.1560    -6.3270     0.5880 H     1 <1>   0.0800 
 42 H       -3.7770    -6.3480    -0.4520 H     1 <1>   0.0800 
 43 H       -6.8450    -4.4470     0.7230 H     1 <1>   0.4000 
 44 H       -2.4610    -5.1970     1.4060 H     1 <1>   0.0800 
 45 H       -3.8780    -5.3370     2.4070 H     1 <1>   0.0800 
 46 H       -2.3870    -7.6640     1.1710 H     1 <1>   0.0800 
 47 H       -3.8120    -7.7960     2.1770 H     1 <1>   0.0800 
 48 H       -2.3210    -7.1800     2.8490 H     1 <1>   0.0800 
@<TRIPOS>BOND
  1   1   2  1   
  2   2   3  ar  
  3   2   4  ar  
  4   3   5  1   
  5   3   6  ar  
  6   4   7  ar  
  7   4  27  1   
  8   5   8  2   
  9   5   9  am  
 10   6  10  ar  
 11   6  28  1   
 12   7  10  ar  
 13   7  11  1   
 14   9  12  1   
 15   9  13  1   
 16  10  29  1   
 17  11  14  am  
 18  11  30  1   
 19  12  15  1   
 20  12  31  1   
 21  12  32  1   
 22  13  16  1   
 23  13  33  1   
 24  13  34  1   
 25  14  17  2   
 26  14  18  1   
 27  15  19  1   
 28  15  20  1   
 29  15  21  1   
 30  16  20  1   
 31  16  35  1   
 32  16  36  1   
 33  18  37  1   
 34  18  38  1   
 35  18  39  1   
 36  19  22  ar  
 37  19  23  ar  
 38  20  24  1   
 39  20  40  1   
 40  21  25  1   
 41  21  41  1   
 42  21  42  1   
 43  24  43  1   
 44  25  26  1   
 45  25  44  1   
 46  25  45  1   
 47  26  46  1   
 48  26  47  1   
 49  26  48  1   
@<TRIPOS>SUBSTRUCTURE
  1 ****   9 GROUP 4 **** **** 0

# MOE 2024.06 (io_trps.svl 2023.06)
