@<TRIPOS>MOLECULE
NONAME
34 34 1 0 0 
SMALL
USER_CHARGES


@<TRIPOS>ATOM
  1 O       -0.3160    -0.3640     0.9150 O.3   1 <1>  -0.5600 
  2 C       -0.2130    -1.4490     0.0430 C.3   1 <1>   0.2000 
  3 C       -1.0220     0.7300     0.4220 C.3   1 <1>   0.0400 
  4 C        1.1240    -2.1780     0.3110 C.3   1 <1>  -0.0800 
  5 C       -1.4200    -2.3680     0.2780 C.3   1 <1>  -0.1600 
  6 C        2.3610    -1.2500     0.1460 C.3   1 <1>  -0.0800 
  7 C        1.2010    -3.4620    -0.5460 C.3   1 <1>  -0.1600 
  8 C       -1.3310    -3.6400    -0.5780 C.3   1 <1>  -0.0800 
  9 C        2.5720    -0.7290    -1.2860 C.3   1 <1>  -0.2400 
 10 C        3.6530    -1.9200     0.6370 C.3   1 <1>  -0.2400 
 11 C       -0.0100    -4.3750    -0.3090 C.3   1 <1>  -0.1600 
 12 C       -2.5230    -4.5610    -0.2980 C.3   1 <1>  -0.2400 
 13 H       -0.2250    -1.0910    -0.9720 H     1 <1>   0.0800 
 14 H       -1.0360     1.4880     1.1850 H     1 <1>   0.0800 
 15 H       -2.0290     0.4340     0.1880 H     1 <1>   0.0800 
 16 H       -0.5220     1.1070    -0.4530 H     1 <1>   0.0800 
 17 H        1.0960    -2.4890     1.3410 H     1 <1>   0.0800 
 18 H       -1.4520    -2.6390     1.3190 H     1 <1>   0.0800 
 19 H       -2.3260    -1.8440     0.0340 H     1 <1>   0.0800 
 20 H        2.2040    -0.3920     0.7790 H     1 <1>   0.0800 
 21 H        1.2390    -3.2060    -1.5900 H     1 <1>   0.0800 
 22 H        2.0920    -4.0150    -0.3080 H     1 <1>   0.0800 
 23 H       -1.3590    -3.3570    -1.6180 H     1 <1>   0.0800 
 24 H        2.7810    -1.5350    -1.9660 H     1 <1>   0.0800 
 25 H        3.4050    -0.0490    -1.3070 H     1 <1>   0.0800 
 26 H        1.7060    -0.1960    -1.6310 H     1 <1>   0.0800 
 27 H        3.9460    -2.7260    -0.0120 H     1 <1>   0.0800 
 28 H        3.5180    -2.3070     1.6310 H     1 <1>   0.0800 
 29 H        4.4530    -1.2020     0.6620 H     1 <1>   0.0800 
 30 H        0.0070    -4.7250     0.7100 H     1 <1>   0.0800 
 31 H        0.0630    -5.2350    -0.9530 H     1 <1>   0.0800 
 32 H       -2.5320    -4.8670     0.7340 H     1 <1>   0.0800 
 33 H       -2.4700    -5.4400    -0.9160 H     1 <1>   0.0800 
 34 H       -3.4460    -4.0520    -0.5120 H     1 <1>   0.0800 
@<TRIPOS>BOND
  1   1   2  1   
  2   1   3  1   
  3   2   4  1   
  4   2   5  1   
  5   2  13  1   
  6   3  14  1   
  7   3  15  1   
  8   3  16  1   
  9   4   6  1   
 10   4   7  1   
 11   4  17  1   
 12   5   8  1   
 13   5  18  1   
 14   5  19  1   
 15   6   9  1   
 16   6  10  1   
 17   6  20  1   
 18   7  11  1   
 19   7  21  1   
 20   7  22  1   
 21   8  11  1   
 22   8  12  1   
 23   8  23  1   
 24   9  24  1   
 25   9  25  1   
 26   9  26  1   
 27  10  27  1   
 28  10  28  1   
 29  10  29  1   
 30  11  30  1   
 31  11  31  1   
 32  12  32  1   
 33  12  33  1   
 34  12  34  1   
@<TRIPOS>SUBSTRUCTURE
  1 ****   4 GROUP 4 **** **** 0

# MOE 2024.06 (io_trps.svl 2023.06)
