@<TRIPOS>MOLECULE
NONAME
48 50 1 0 0 
SMALL
USER_CHARGES


@<TRIPOS>ATOM
  1 N       -1.5470    -1.8000    -1.9590 N.ar  1 <1>  -0.6200 
  2 C       -0.8790    -2.7820    -1.3740 C.ar  1 <1>   0.1600 
  3 C       -1.6760    -0.6990    -1.2370 C.ar  1 <1>   0.1600 
  4 C       -0.3480    -2.7340    -0.0940 C.ar  1 <1>  -0.1440 
  5 C       -1.1780    -0.5370     0.0450 C.ar  1 <1>  -0.1500 
  6 C       -0.4960    -1.5750     0.6430 C.ar  1 <1>  -0.1500 
  7 C        0.3700    -3.9460     0.4760 C.3   1 <1>   0.2540 
  8 N       -0.4640    -5.1550     0.3090 N.3   1 <1>  -0.8100 
  9 C       -1.7130    -5.0810     1.1110 C.3   1 <1>   0.1100 
 10 C        0.2960    -6.3810     0.5840 C.3   1 <1>   0.1100 
 11 C       -2.8670    -5.9220     0.5280 C.3   1 <1>   0.3430 
 12 C       -0.1100    -7.4810    -0.4020 C.3   1 <1>  -0.1600 
 13 N       -2.5030    -7.3530     0.2480 N.4   1 <1>  -0.9590 
 14 C       -1.5540    -7.4080    -0.8990 C.3   1 <1>   0.3430 
 15 C       -3.7520    -8.1330    -0.0210 C.3   1 <1>   0.3430 
 16 C       -3.5320    -9.6500     0.0210 C.3   1 <1>   0.0200 
 17 C       -4.8560   -10.3480    -0.2240 C.2   1 <1>   0.0060 
 18 N       -5.9480    -9.6990    -0.4710 N.2   1 <1>  -0.5650 
 19 N       -5.0150   -11.6960    -0.2070 N.pl3 1 <1>   0.0480 
 20 C       -6.8710   -10.6660    -0.6240 C.2   1 <1>   0.0770 
 21 C       -6.3190   -11.8870    -0.4660 C.2   1 <1>  -0.3020 
 22 C       -4.0180   -12.7550     0.0370 C.3   1 <1>   0.0160 
 23 H       -0.7520    -3.6840    -1.9470 H     1 <1>   0.1500 
 24 H       -2.2070     0.1200    -1.6920 H     1 <1>   0.1500 
 25 H       -1.3250     0.3930     0.5640 H     1 <1>   0.1500 
 26 H       -0.1000    -1.4760     1.6390 H     1 <1>   0.1500 
 27 H        0.5990    -3.7960     1.5180 H     1 <1>   0.0800 
 28 H        1.2970    -4.0660    -0.0590 H     1 <1>   0.0800 
 29 H       -2.0680    -4.0650     1.1470 H     1 <1>   0.0800 
 30 H       -1.5210    -5.3740     2.1290 H     1 <1>   0.0800 
 31 H        0.1330    -6.7030     1.6000 H     1 <1>   0.0800 
 32 H        1.3550    -6.2060     0.4730 H     1 <1>   0.0800 
 33 H       -3.2010    -5.4520    -0.3830 H     1 <1>   0.0800 
 34 H       -3.6890    -5.8900     1.2240 H     1 <1>   0.0800 
 35 H        0.0840    -8.4440     0.0320 H     1 <1>   0.0800 
 36 H        0.5280    -7.3990    -1.2640 H     1 <1>   0.0800 
 37 H       -2.0320    -7.7250     1.0790 H     1 <1>   0.4500 
 38 H       -1.7560    -8.2670    -1.5170 H     1 <1>   0.0800 
 39 H       -1.6730    -6.5260    -1.5100 H     1 <1>   0.0800 
 40 H       -4.1570    -7.8620    -0.9830 H     1 <1>   0.0800 
 41 H       -4.4980    -7.8890     0.7190 H     1 <1>   0.0800 
 42 H       -3.1600    -9.9380     0.9860 H     1 <1>   0.0800 
 43 H       -2.8390    -9.9530    -0.7420 H     1 <1>   0.0800 
 44 H       -7.9010   -10.4320    -0.8430 H     1 <1>   0.1500 
 45 H       -6.7800   -12.8560    -0.5240 H     1 <1>   0.1500 
 46 H       -3.2350   -12.6860    -0.6970 H     1 <1>   0.0800 
 47 H       -4.4910   -13.7170    -0.0400 H     1 <1>   0.0800 
 48 H       -3.6060   -12.6400     1.0230 H     1 <1>   0.0800 
@<TRIPOS>BOND
  1   1   2  ar  
  2   1   3  ar  
  3   2   4  ar  
  4   2  23  1   
  5   3   5  ar  
  6   3  24  1   
  7   4   6  ar  
  8   4   7  1   
  9   5   6  ar  
 10   5  25  1   
 11   6  26  1   
 12   7   8  1   
 13   7  27  1   
 14   7  28  1   
 15   8   9  1   
 16   8  10  1   
 17   9  11  1   
 18   9  29  1   
 19   9  30  1   
 20  10  12  1   
 21  10  31  1   
 22  10  32  1   
 23  11  13  1   
 24  11  33  1   
 25  11  34  1   
 26  12  14  1   
 27  12  35  1   
 28  12  36  1   
 29  13  14  1   
 30  13  15  1   
 31  13  37  1   
 32  14  38  1   
 33  14  39  1   
 34  15  16  1   
 35  15  40  1   
 36  15  41  1   
 37  16  17  1   
 38  16  42  1   
 39  16  43  1   
 40  17  18  2   
 41  17  19  1   
 42  18  20  1   
 43  19  21  1   
 44  19  22  1   
 45  20  21  2   
 46  20  44  1   
 47  21  45  1   
 48  22  46  1   
 49  22  47  1   
 50  22  48  1   
@<TRIPOS>SUBSTRUCTURE
  1 ****  13 GROUP 4 **** **** 0

# MOE 2024.06 (io_trps.svl 2023.06)
