@<TRIPOS>MOLECULE
NONAME
54 57 1 0 0 
SMALL
USER_CHARGES


@<TRIPOS>ATOM
  1 F       -0.7800    -1.8870     0.5270 F     1 <1>  -0.1900 
  2 C       -2.0360    -2.2390     0.4600 C.ar  1 <1>   0.1900 
  3 C       -2.7310    -2.0100    -0.7110 C.ar  1 <1>  -0.1500 
  4 C       -2.6220    -2.8290     1.5640 C.ar  1 <1>  -0.1500 
  5 C       -4.0620    -2.3870    -0.7750 C.ar  1 <1>  -0.1500 
  6 C       -3.9540    -3.2010     1.4860 C.ar  1 <1>  -0.1500 
  7 C       -4.6770    -2.9820     0.3200 C.ar  1 <1>  -0.1440 
  8 C       -6.1360    -3.3970     0.2370 C.3   1 <1>  -0.0160 
  9 C       -6.2520    -4.8030    -0.3630 C.3   1 <1>  -0.1600 
 10 C       -7.7150    -5.2690    -0.4490 C.3   1 <1>  -0.0990 
 11 C       -7.8320    -6.6400    -1.0810 C.2   1 <1>   0.5690 
 12 O       -8.2500    -6.7390    -2.2070 O.2   1 <1>  -0.5700 
 13 N       -7.4720    -7.7230    -0.3530 N.am  1 <1>  -0.7300 
 14 C       -7.4560    -9.1190    -0.8510 C.3   1 <1>   0.2200 
 15 C       -8.6390    -9.9170    -0.3170 C.3   1 <1>  -0.0800 
 16 C       -6.3040    -9.8550    -0.1830 C.3   1 <1>   0.1200 
 17 C       -8.1590   -10.3240     1.0830 C.3   1 <1>   0.1200 
 18 C       -9.9940    -9.1780    -0.3470 C.3   1 <1>  -0.0170 
 19 O       -6.7690   -10.1640     1.0970 O.3   1 <1>  -0.5600 
 20 C      -11.2290    -9.9850     0.0730 C.ar  1 <1>  -0.1440 
 21 C      -12.4720    -9.3240     0.2320 C.ar  1 <1>   0.0000 
 22 C      -11.2120   -11.3330     0.3030 C.ar  1 <1>  -0.1500 
 23 C      -13.5870   -10.0920     0.6490 C.ar  1 <1>   0.3100 
 24 C      -12.6780    -7.9430    -0.0060 C.ar  1 <1>  -0.1500 
 25 C      -12.3760   -12.0000     0.7030 C.ar  1 <1>   0.1600 
 26 N      -13.5220   -11.4270     0.8810 N.ar  1 <1>  -0.6200 
 27 C      -14.8260    -9.4560     0.8310 C.ar  1 <1>  -0.1500 
 28 C      -13.9000    -7.3540     0.1770 C.ar  1 <1>  -0.1500 
 29 C      -14.9890    -8.1170     0.6030 C.ar  1 <1>  -0.1500 
 30 H       -2.2400    -1.5490    -1.5480 H     1 <1>   0.1500 
 31 H       -2.0480    -2.9910     2.4570 H     1 <1>   0.1500 
 32 H       -4.6180    -2.2180    -1.6820 H     1 <1>   0.1500 
 33 H       -4.4240    -3.6630     2.3370 H     1 <1>   0.1500 
 34 H       -6.5740    -3.3790     1.2200 H     1 <1>   0.0800 
 35 H       -6.6750    -2.6930    -0.3740 H     1 <1>   0.0800 
 36 H       -5.6870    -5.4930     0.2400 H     1 <1>   0.0800 
 37 H       -5.8230    -4.8030    -1.3510 H     1 <1>   0.0800 
 38 H       -8.2810    -4.5740    -1.0430 H     1 <1>   0.0800 
 39 H       -8.1530    -5.3000     0.5320 H     1 <1>   0.0800 
 40 H       -7.1440    -7.6240     0.6100 H     1 <1>   0.3700 
 41 H       -7.3890    -9.1380    -1.9270 H     1 <1>   0.0800 
 42 H       -8.7190   -10.8040    -0.9190 H     1 <1>   0.0800 
 43 H       -5.4100    -9.2610    -0.1140 H     1 <1>   0.0800 
 44 H       -6.0940   -10.7800    -0.6910 H     1 <1>   0.0800 
 45 H       -8.3910   -11.3490     1.3110 H     1 <1>   0.0800 
 46 H       -8.5680    -9.6810     1.8440 H     1 <1>   0.0800 
 47 H      -10.1570    -8.8120    -1.3460 H     1 <1>   0.0800 
 48 H       -9.9240    -8.3250     0.3040 H     1 <1>   0.0800 
 49 H      -10.3310   -11.9320     0.1900 H     1 <1>   0.1500 
 50 H      -11.8600    -7.3350    -0.3440 H     1 <1>   0.1500 
 51 H      -12.3120   -13.0610     0.8750 H     1 <1>   0.1500 
 52 H      -15.6490   -10.0650     1.1560 H     1 <1>   0.1500 
 53 H      -14.0390    -6.3030    -0.0080 H     1 <1>   0.1500 
 54 H      -15.9450    -7.6430     0.7460 H     1 <1>   0.1500 
@<TRIPOS>BOND
  1   1   2  1   
  2   2   3  ar  
  3   2   4  ar  
  4   3   5  ar  
  5   3  30  1   
  6   4   6  ar  
  7   4  31  1   
  8   5   7  ar  
  9   5  32  1   
 10   6   7  ar  
 11   6  33  1   
 12   7   8  1   
 13   8   9  1   
 14   8  34  1   
 15   8  35  1   
 16   9  10  1   
 17   9  36  1   
 18   9  37  1   
 19  10  11  1   
 20  10  38  1   
 21  10  39  1   
 22  11  12  2   
 23  11  13  am  
 24  13  14  1   
 25  13  40  1   
 26  14  15  1   
 27  14  16  1   
 28  14  41  1   
 29  15  17  1   
 30  15  18  1   
 31  15  42  1   
 32  16  19  1   
 33  16  43  1   
 34  16  44  1   
 35  17  19  1   
 36  17  45  1   
 37  17  46  1   
 38  18  20  1   
 39  18  47  1   
 40  18  48  1   
 41  20  21  ar  
 42  20  22  ar  
 43  21  23  ar  
 44  21  24  ar  
 45  22  25  ar  
 46  22  49  1   
 47  23  26  ar  
 48  23  27  ar  
 49  24  28  ar  
 50  24  50  1   
 51  25  26  ar  
 52  25  51  1   
 53  27  29  ar  
 54  27  52  1   
 55  28  29  ar  
 56  28  53  1   
 57  29  54  1   
@<TRIPOS>SUBSTRUCTURE
  1 ****  13 GROUP 4 **** **** 0

# MOE 2024.06 (io_trps.svl 2023.06)
