@<TRIPOS>MOLECULE
NONAME
45 47 1 0 0 
SMALL
USER_CHARGES


@<TRIPOS>ATOM
  1 S        1.5380     0.0760    -0.2480 S.3   1 <1>  -0.0800 
  2 C        0.5900    -0.8590     0.8870 C.2   1 <1>   0.4620 
  3 C        1.3490    -1.2010    -1.4090 C.2   1 <1>  -0.1100 
  4 N        0.1840    -1.9820     0.4370 N.2   1 <1>  -0.5650 
  5 N        0.3590    -0.3510     2.1200 N.pl3 1 <1>  -0.8840 
  6 C        0.6050    -2.2010    -0.8860 C.2   1 <1>   0.1410 
  7 C        0.2810    -3.4330    -1.6020 C.2   1 <1>   0.7160 
  8 O        1.0390    -3.8220    -2.4740 O.2   1 <1>  -0.5700 
  9 N       -0.8450    -4.1900    -1.3370 N.am  1 <1>  -0.6600 
 10 C       -0.8680    -5.6690    -1.5550 C.3   1 <1>   0.1400 
 11 C       -2.1150    -3.6150    -0.8260 C.3   1 <1>   0.1400 
 12 C       -1.1840    -6.4140    -0.2340 C.3   1 <1>   0.0000 
 13 C       -2.4800    -4.2910     0.4950 C.3   1 <1>  -0.1600 
 14 C       -2.5080    -5.8120     0.3150 C.3   1 <1>   0.2000 
 15 C       -1.4590    -7.9080    -0.5380 C.3   1 <1>   0.1200 
 16 C       -0.0160    -6.2460     0.7910 C.3   1 <1>  -0.0170 
 17 O       -2.8560    -6.3790     1.5290 O.3   1 <1>  -0.6800 
 18 O       -0.4780    -8.4560    -1.3530 O.3   1 <1>  -0.6800 
 19 C        1.2610    -7.0140     0.4640 C.ar  1 <1>  -0.1430 
 20 C        1.4750    -8.2720     1.0090 C.ar  1 <1>  -0.1500 
 21 C        2.2230    -6.4710    -0.3750 C.ar  1 <1>  -0.1500 
 22 C        2.6220    -8.9840     0.7060 C.ar  1 <1>  -0.1500 
 23 C        3.3700    -7.1820    -0.6810 C.ar  1 <1>  -0.1500 
 24 C        3.5700    -8.4400    -0.1420 C.ar  1 <1>  -0.1500 
 25 H        1.8150    -1.0910    -2.3710 H     1 <1>   0.1500 
 26 H        0.8090     0.5070     2.4410 H     1 <1>   0.4000 
 27 H       -0.0990    -0.9290     2.8250 H     1 <1>   0.4000 
 28 H       -1.6200    -5.8970    -2.2900 H     1 <1>   0.0800 
 29 H        0.0740    -6.0040    -1.9540 H     1 <1>   0.0800 
 30 H       -2.0340    -2.5510    -0.6900 H     1 <1>   0.0800 
 31 H       -2.8910    -3.7930    -1.5520 H     1 <1>   0.0800 
 32 H       -3.4520    -3.9470     0.8010 H     1 <1>   0.0800 
 33 H       -1.7650    -4.0010     1.2430 H     1 <1>   0.0800 
 34 H       -3.3040    -6.0530    -0.3710 H     1 <1>   0.0800 
 35 H       -2.3950    -8.0240    -1.0570 H     1 <1>   0.0800 
 36 H       -1.5030    -8.4810     0.3720 H     1 <1>   0.0800 
 37 H        0.2360    -5.2050     0.8960 H     1 <1>   0.0800 
 38 H       -0.3400    -6.5760     1.7610 H     1 <1>   0.0800 
 39 H       -2.2990    -6.0130     2.2430 H     1 <1>   0.4000 
 40 H        0.4090    -8.3190    -0.9430 H     1 <1>   0.4000 
 41 H        0.7470    -8.7080     1.6710 H     1 <1>   0.1500 
 42 H        2.0880    -5.4920    -0.7990 H     1 <1>   0.1500 
 43 H        2.7780    -9.9610     1.1290 H     1 <1>   0.1500 
 44 H        4.1050    -6.7520    -1.3380 H     1 <1>   0.1500 
 45 H        4.4620    -8.9920    -0.3810 H     1 <1>   0.1500 
@<TRIPOS>BOND
  1   1   2  1   
  2   1   3  1   
  3   2   4  2   
  4   2   5  1   
  5   3   6  2   
  6   3  25  1   
  7   4   6  1   
  8   5  26  1   
  9   5  27  1   
 10   6   7  1   
 11   7   8  2   
 12   7   9  am  
 13   9  10  1   
 14   9  11  1   
 15  10  12  1   
 16  10  28  1   
 17  10  29  1   
 18  11  13  1   
 19  11  30  1   
 20  11  31  1   
 21  12  14  1   
 22  12  15  1   
 23  12  16  1   
 24  13  14  1   
 25  13  32  1   
 26  13  33  1   
 27  14  17  1   
 28  14  34  1   
 29  15  18  1   
 30  15  35  1   
 31  15  36  1   
 32  16  19  1   
 33  16  37  1   
 34  16  38  1   
 35  17  39  1   
 36  18  40  1   
 37  19  20  ar  
 38  19  21  ar  
 39  20  22  ar  
 40  20  41  1   
 41  21  23  ar  
 42  21  42  1   
 43  22  24  ar  
 44  22  43  1   
 45  23  24  ar  
 46  23  44  1   
 47  24  45  1   
@<TRIPOS>SUBSTRUCTURE
  1 ****  16 GROUP 4 **** **** 0

# MOE 2024.06 (io_trps.svl 2023.06)
