@<TRIPOS>MOLECULE
NONAME
35 36 1 0 0 
SMALL
USER_CHARGES


@<TRIPOS>ATOM
  1 N        0.0300    -0.1380    -0.1340 N.ar  1 <1>  -0.6200 
  2 C       -1.1550     0.4110    -0.3740 C.ar  1 <1>   0.7200 
  3 C        0.9550     0.6800     0.3000 C.ar  1 <1>   0.1660 
  4 N       -1.5050     1.6770    -0.2160 N.ar  1 <1>  -0.6200 
  5 N       -2.1390    -0.3910    -0.8240 N.pl3 1 <1>  -0.8690 
  6 C        0.7030     2.0180     0.4970 C.ar  1 <1>  -0.1500 
  7 C        2.3200     0.0870     0.5780 C.3   1 <1>  -0.0970 
  8 C       -0.5650     2.4760     0.2200 C.ar  1 <1>   0.1670 
  9 C       -2.2310    -1.8250    -0.4210 C.3   1 <1>   0.3530 
 10 C       -0.9350     3.9310     0.4070 C.3   1 <1>  -0.0970 
 11 C       -3.6710    -2.3280    -0.2340 C.ar  1 <1>   0.4770 
 12 N       -4.6350    -1.4160    -0.1260 N.ar  1 <1>  -0.6200 
 13 N       -3.8170    -3.6470    -0.1920 N.ar  1 <1>  -0.6200 
 14 C       -5.8520    -1.8780     0.0360 C.ar  1 <1>   0.1670 
 15 C       -5.0430    -4.0870    -0.0300 C.ar  1 <1>   0.1670 
 16 C       -6.1090    -3.2270     0.0900 C.ar  1 <1>  -0.1500 
 17 C       -6.9600    -0.8550     0.1590 C.3   1 <1>  -0.0970 
 18 C       -5.2310    -5.5880     0.0190 C.3   1 <1>  -0.0970 
 19 H       -3.0550     0.0600    -0.7750 H     1 <1>   0.4000 
 20 H        1.4670     2.6820     0.8530 H     1 <1>   0.1500 
 21 H        2.2310    -0.6820     1.3230 H     1 <1>   0.0800 
 22 H        3.0040     0.8370     0.9290 H     1 <1>   0.0800 
 23 H        2.7110    -0.3480    -0.3230 H     1 <1>   0.0800 
 24 H       -1.7070    -1.9740     0.5060 H     1 <1>   0.0800 
 25 H       -1.7510    -2.4230    -1.1740 H     1 <1>   0.0800 
 26 H       -1.7370     4.0080     1.1190 H     1 <1>   0.0800 
 27 H       -1.2660     4.3390    -0.5300 H     1 <1>   0.0800 
 28 H       -0.0980     4.5030     0.7610 H     1 <1>   0.0800 
 29 H       -7.1070    -3.5960     0.2220 H     1 <1>   0.1500 
 30 H       -6.7680    -0.2190     1.0040 H     1 <1>   0.0800 
 31 H       -7.9140    -1.3310     0.2900 H     1 <1>   0.0800 
 32 H       -6.9900    -0.2500    -0.7290 H     1 <1>   0.0800 
 33 H       -4.6620    -5.9940     0.8350 H     1 <1>   0.0800 
 34 H       -4.8790    -6.0230    -0.8980 H     1 <1>   0.0800 
 35 H       -6.2660    -5.8440     0.1530 H     1 <1>   0.0800 
@<TRIPOS>BOND
  1   1   2  ar  
  2   1   3  ar  
  3   2   4  ar  
  4   2   5  1   
  5   3   6  ar  
  6   3   7  1   
  7   4   8  ar  
  8   5   9  1   
  9   5  19  1   
 10   6   8  ar  
 11   6  20  1   
 12   7  21  1   
 13   7  22  1   
 14   7  23  1   
 15   8  10  1   
 16   9  11  1   
 17   9  24  1   
 18   9  25  1   
 19  10  26  1   
 20  10  27  1   
 21  10  28  1   
 22  11  12  ar  
 23  11  13  ar  
 24  12  14  ar  
 25  13  15  ar  
 26  14  16  ar  
 27  14  17  1   
 28  15  16  ar  
 29  15  18  1   
 30  16  29  1   
 31  17  30  1   
 32  17  31  1   
 33  17  32  1   
 34  18  33  1   
 35  18  34  1   
 36  18  35  1   
@<TRIPOS>SUBSTRUCTURE
  1 ****   5 GROUP 4 **** **** 0

# MOE 2024.06 (io_trps.svl 2023.06)
