@<TRIPOS>MOLECULE
NONAME
51 54 1 0 0 
SMALL
USER_CHARGES


@<TRIPOS>ATOM
  1 O       -0.5440     0.3990     1.1820 O.2   1 <1>  -0.5700 
  2 C       -1.4930     1.0550     0.7860 C.2   1 <1>   0.7150 
  3 N       -2.6890     0.3880     0.5960 N.am  1 <1>  -0.6600 
  4 C       -1.3230     2.4750     0.5120 C.2   1 <1>   0.0550 
  5 C       -3.8750     0.9160    -0.1250 C.3   1 <1>   0.1400 
  6 C       -2.8560    -1.0650     0.8240 C.3   1 <1>   0.1400 
  7 O       -2.3860     3.2990     0.5210 O.3   1 <1>  -0.2800 
  8 C       -0.2050     3.2060     0.2370 C.2   1 <1>  -0.1810 
  9 C       -4.8020    -0.2870    -0.3600 C.3   1 <1>   0.2000 
 10 C       -3.8770    -1.5010    -0.2280 C.3   1 <1>  -0.0800 
 11 C       -1.9690     4.5340     0.2610 C.ar  1 <1>   0.1400 
 12 C       -0.6030     4.5450     0.0710 C.ar  1 <1>   0.0000 
 13 C        1.2450     2.7680     0.1080 C.3   1 <1>  -0.0590 
 14 O       -5.7700    -0.3500     0.6500 O.3   1 <1>  -0.5600 
 15 C       -4.5890    -2.8210     0.1160 C.3   1 <1>   0.0200 
 16 C       -2.7340     5.6880     0.1770 C.ar  1 <1>  -0.1500 
 17 C        0.0360     5.7540    -0.2160 C.ar  1 <1>  -0.1500 
 18 C       -6.8980     0.4420     0.4440 C.3   1 <1>   0.0400 
 19 C       -3.6660    -4.0280     0.0670 C.2   1 <1>  -0.0400 
 20 C       -2.0940     6.8780    -0.1080 C.ar  1 <1>  -0.1500 
 21 C       -0.7090     6.9140    -0.3050 C.ar  1 <1>  -0.1430 
 22 O       -4.1340    -5.1910     0.4350 O.3   1 <1>  -0.0190 
 23 C       -2.3840    -4.2020    -0.2960 C.2   1 <1>  -0.1500 
 24 C       -0.0450     8.2430    -0.6160 C.3   1 <1>  -0.0970 
 25 N       -3.2370    -6.1300     0.3410 N.2   1 <1>  -0.4100 
 26 C       -2.1720    -5.5630    -0.0960 C.2   1 <1>   0.1080 
 27 C       -0.8680    -6.2840    -0.3550 C.3   1 <1>  -0.0590 
 28 H       -4.3630     1.6790     0.4560 H     1 <1>   0.0800 
 29 H       -3.5570     1.3270    -1.0680 H     1 <1>   0.0800 
 30 H       -1.9240    -1.5920     0.7220 H     1 <1>   0.0800 
 31 H       -3.2480    -1.2160     1.8160 H     1 <1>   0.0800 
 32 H       -5.2910    -0.2550    -1.3180 H     1 <1>   0.0800 
 33 H       -3.3580    -1.6190    -1.1630 H     1 <1>   0.0800 
 34 H        1.6430     3.0970    -0.8350 H     1 <1>   0.0800 
 35 H        1.3380     1.6990     0.1600 H     1 <1>   0.0800 
 36 H        1.8260     3.2010     0.9020 H     1 <1>   0.0800 
 37 H       -5.3940    -2.9830    -0.5780 H     1 <1>   0.0800 
 38 H       -5.0170    -2.7580     1.1020 H     1 <1>   0.0800 
 39 H       -3.7950     5.6380     0.3350 H     1 <1>   0.1500 
 40 H        1.1000     5.7590    -0.3630 H     1 <1>   0.1500 
 41 H       -7.5550     0.3100     1.2860 H     1 <1>   0.0800 
 42 H       -7.3970     0.1250    -0.4550 H     1 <1>   0.0800 
 43 H       -6.6080     1.4750     0.3740 H     1 <1>   0.0800 
 44 H       -2.6640     7.7880    -0.1780 H     1 <1>   0.1500 
 45 H       -1.6590    -3.4980    -0.6590 H     1 <1>   0.1500 
 46 H       -0.4550     8.6540    -1.5210 H     1 <1>   0.0800 
 47 H        1.0160     8.1220    -0.7450 H     1 <1>   0.0800 
 48 H       -0.2150     8.9340     0.1890 H     1 <1>   0.0800 
 49 H       -0.0810    -5.8310     0.2190 H     1 <1>   0.0800 
 50 H       -0.6240    -6.2310    -1.3990 H     1 <1>   0.0800 
 51 H       -0.9580    -7.3160    -0.0690 H     1 <1>   0.0800 
@<TRIPOS>BOND
  1   1   2  2   
  2   2   3  am  
  3   2   4  1   
  4   3   5  1   
  5   3   6  1   
  6   4   7  1   
  7   4   8  2   
  8   5   9  1   
  9   5  28  1   
 10   5  29  1   
 11   6  10  1   
 12   6  30  1   
 13   6  31  1   
 14   7  11  1   
 15   8  12  1   
 16   8  13  1   
 17   9  10  1   
 18   9  14  1   
 19   9  32  1   
 20  10  15  1   
 21  10  33  1   
 22  11  12  ar  
 23  11  16  ar  
 24  12  17  ar  
 25  13  34  1   
 26  13  35  1   
 27  13  36  1   
 28  14  18  1   
 29  15  19  1   
 30  15  37  1   
 31  15  38  1   
 32  16  20  ar  
 33  16  39  1   
 34  17  21  ar  
 35  17  40  1   
 36  18  41  1   
 37  18  42  1   
 38  18  43  1   
 39  19  22  1   
 40  19  23  2   
 41  20  21  ar  
 42  20  44  1   
 43  21  24  1   
 44  22  25  1   
 45  23  26  1   
 46  23  45  1   
 47  24  46  1   
 48  24  47  1   
 49  24  48  1   
 50  25  26  2   
 51  26  27  1   
 52  27  49  1   
 53  27  50  1   
 54  27  51  1   
@<TRIPOS>SUBSTRUCTURE
  1 ****   3 GROUP 4 **** **** 0

# MOE 2024.06 (io_trps.svl 2023.06)
