@<TRIPOS>MOLECULE
NONAME
46 49 1 0 0 
SMALL
USER_CHARGES


@<TRIPOS>ATOM
  1 O       -0.3250     0.3020     1.1620 O.2   1 <1>  -0.5700 
  2 C       -1.2470     0.6090     0.4460 C.2   1 <1>   0.6300 
  3 N       -2.1570    -0.3000     0.0130 N.am  1 <1>  -0.7300 
  4 C       -1.4040     2.0480     0.0010 C.3   1 <1>   0.0000 
  5 C       -2.1020    -1.7580     0.2800 C.3   1 <1>   0.2200 
  6 C       -1.1430     2.1380    -1.4880 C.2   1 <1>   0.6300 
  7 C       -1.0810     3.1960     0.9230 C.3   1 <1>  -0.2000 
  8 C       -2.5070     2.8750     0.6070 C.3   1 <1>  -0.2000 
  9 C       -3.3420    -2.5120    -0.1960 C.3   1 <1>  -0.0800 
 10 C       -2.0290    -2.1030     1.7720 C.3   1 <1>   0.1200 
 11 O       -1.9830     1.7480    -2.2600 O.2   1 <1>  -0.5700 
 12 N        0.0180     2.6430    -1.9410 N.am  1 <1>  -0.8000 
 13 C       -3.3200    -3.7050     0.7610 C.3   1 <1>   0.1200 
 14 C       -4.6680    -1.7250    -0.0480 C.3   1 <1>  -0.0170 
 15 O       -2.8680    -3.2020     1.9760 O.3   1 <1>  -0.5600 
 16 C       -5.9490    -2.4840    -0.4260 C.ar  1 <1>  -0.1440 
 17 C       -7.2100    -2.0510     0.0570 C.ar  1 <1>   0.0000 
 18 C       -5.9430    -3.5830    -1.2400 C.ar  1 <1>  -0.1500 
 19 C       -8.3540    -2.8080    -0.3020 C.ar  1 <1>   0.3100 
 20 C       -7.4110    -0.9080     0.8680 C.ar  1 <1>  -0.1500 
 21 C       -7.1350    -4.2510    -1.5430 C.ar  1 <1>   0.1600 
 22 N       -8.2990    -3.9030    -1.1000 N.ar  1 <1>  -0.6200 
 23 C       -9.6130    -2.4150     0.1790 C.ar  1 <1>  -0.1500 
 24 C       -8.6530    -0.5500     1.3170 C.ar  1 <1>  -0.1500 
 25 C       -9.7700    -1.3130     0.9730 C.ar  1 <1>  -0.1500 
 26 H       -2.7790    -0.0060    -0.7460 H     1 <1>   0.3700 
 27 H       -1.2270    -2.1630    -0.1990 H     1 <1>   0.0800 
 28 H       -0.7000     2.9690     1.9040 H     1 <1>   0.1000 
 29 H       -0.6610     4.1000     0.5170 H     1 <1>   0.1000 
 30 H       -3.0620     3.5370    -0.0360 H     1 <1>   0.1000 
 31 H       -3.1190     2.4380     1.3780 H     1 <1>   0.1000 
 32 H       -3.2050    -2.8320    -1.2120 H     1 <1>   0.0800 
 33 H       -2.3910    -1.2950     2.3840 H     1 <1>   0.0800 
 34 H       -1.0290    -2.3700     2.0640 H     1 <1>   0.0800 
 35 H        0.1920     2.6930    -2.9450 H     1 <1>   0.3700 
 36 H        0.7770     2.9390    -1.3270 H     1 <1>   0.3700 
 37 H       -2.6170    -4.4510     0.4330 H     1 <1>   0.0800 
 38 H       -4.2860    -4.1570     0.9090 H     1 <1>   0.0800 
 39 H       -4.6360    -0.8370    -0.6530 H     1 <1>   0.0800 
 40 H       -4.7360    -1.4190     0.9810 H     1 <1>   0.0800 
 41 H       -5.0460    -3.9770    -1.6760 H     1 <1>   0.1500 
 42 H       -6.5740    -0.2960     1.1430 H     1 <1>   0.1500 
 43 H       -7.0780    -5.1130    -2.1860 H     1 <1>   0.1500 
 44 H      -10.4580    -3.0160    -0.1030 H     1 <1>   0.1500 
 45 H       -8.7870     0.3200     1.9370 H     1 <1>   0.1500 
 46 H      -10.7420    -1.0240     1.3340 H     1 <1>   0.1500 
@<TRIPOS>BOND
  1   1   2  2   
  2   2   3  am  
  3   2   4  1   
  4   3   5  1   
  5   3  26  1   
  6   4   6  1   
  7   4   7  1   
  8   4   8  1   
  9   5   9  1   
 10   5  10  1   
 11   5  27  1   
 12   6  11  2   
 13   6  12  am  
 14   7   8  1   
 15   7  28  1   
 16   7  29  1   
 17   8  30  1   
 18   8  31  1   
 19   9  13  1   
 20   9  14  1   
 21   9  32  1   
 22  10  15  1   
 23  10  33  1   
 24  10  34  1   
 25  12  35  1   
 26  12  36  1   
 27  13  15  1   
 28  13  37  1   
 29  13  38  1   
 30  14  16  1   
 31  14  39  1   
 32  14  40  1   
 33  16  17  ar  
 34  16  18  ar  
 35  17  19  ar  
 36  17  20  ar  
 37  18  21  ar  
 38  18  41  1   
 39  19  22  ar  
 40  19  23  ar  
 41  20  24  ar  
 42  20  42  1   
 43  21  22  ar  
 44  21  43  1   
 45  23  25  ar  
 46  23  44  1   
 47  24  25  ar  
 48  24  45  1   
 49  25  46  1   
@<TRIPOS>SUBSTRUCTURE
  1 ****  14 GROUP 4 **** **** 0

# MOE 2024.06 (io_trps.svl 2023.06)
