@<TRIPOS>MOLECULE
NONAME
53 55 1 0 0 
SMALL
USER_CHARGES


@<TRIPOS>ATOM
  1 S       -0.1320    -0.4190    -1.1490 S.o2  1 <1>   1.5760 
  2 O       -1.0510    -1.4940    -1.4520 O.2   1 <1>  -0.6500 
  3 O        0.3560     0.4430    -2.2050 O.2   1 <1>  -0.6500 
  4 N       -0.7290     0.5180     0.1290 N.am  1 <1>  -0.8490 
  5 N        1.2110    -1.1090    -0.3940 N.am  1 <1>  -0.8490 
  6 C       -1.9620     0.0590     0.7910 C.3   1 <1>   0.1960 
  7 C       -0.6190     1.9680    -0.0060 C.3   1 <1>   0.1960 
  8 C        2.2590    -0.1230    -0.1190 C.3   1 <1>   0.1960 
  9 C        1.7360    -2.2200    -1.1870 C.3   1 <1>   0.1960 
 10 C       -3.2670     0.6390     0.1830 C.3   1 <1>   0.0000 
 11 C       -1.8310     2.5450    -0.7400 C.3   1 <1>  -0.1600 
 12 C        3.3960    -0.7610     0.6820 C.3   1 <1>  -0.1600 
 13 C        2.8560    -2.9370    -0.4250 C.3   1 <1>  -0.1600 
 14 C       -4.4690     0.2510     1.0690 C.3   1 <1>   0.2000 
 15 C       -3.1300     2.1760    -0.0080 C.3   1 <1>  -0.1600 
 16 C       -3.6850    -0.0240    -1.1430 C.3   1 <1>  -0.1600 
 17 C        3.9910    -1.9720    -0.0540 C.3   1 <1>  -0.0800 
 18 O       -4.6180     1.0680     2.1740 O.3   1 <1>  -0.6800 
 19 C       -5.7110     0.3300     0.1810 C.3   1 <1>  -0.1600 
 20 C       -5.2000     0.1730    -1.2560 C.3   1 <1>  -0.1600 
 21 C        5.0580    -2.6850     0.7880 C.3   1 <1>   0.1200 
 22 O        6.0970    -1.7960     1.0480 O.3   1 <1>  -0.5600 
 23 C        7.1100    -2.3280     1.8380 C.3   1 <1>   0.0400 
 24 H       -1.9960    -1.0180     0.8000 H     1 <1>   0.0800 
 25 H       -1.9110     0.3750     1.8190 H     1 <1>   0.0800 
 26 H       -0.5680     2.3990     0.9790 H     1 <1>   0.0800 
 27 H        0.2890     2.2320    -0.5220 H     1 <1>   0.0800 
 28 H        2.6430     0.2780    -1.0430 H     1 <1>   0.0800 
 29 H        1.8530     0.6890     0.4590 H     1 <1>   0.0800 
 30 H        0.9500    -2.9300    -1.3840 H     1 <1>   0.0800 
 31 H        2.1040    -1.8530    -2.1320 H     1 <1>   0.0800 
 32 H       -1.7360     3.6150    -0.7790 H     1 <1>   0.0800 
 33 H       -1.8410     2.1870    -1.7540 H     1 <1>   0.0800 
 34 H        4.1640    -0.0260     0.8490 H     1 <1>   0.0800 
 35 H        3.0160    -1.0620     1.6420 H     1 <1>   0.0800 
 36 H        2.4350    -3.3730     0.4640 H     1 <1>   0.0800 
 37 H        3.2400    -3.7350    -1.0360 H     1 <1>   0.0800 
 38 H       -4.3490    -0.7600     1.4210 H     1 <1>   0.0800 
 39 H       -3.9710     2.5760    -0.5460 H     1 <1>   0.0800 
 40 H       -3.0980     2.6580     0.9520 H     1 <1>   0.0800 
 41 H       -3.1630     0.3590    -2.0020 H     1 <1>   0.0800 
 42 H       -3.4980    -1.0830    -1.0850 H     1 <1>   0.0800 
 43 H        4.4570    -1.6330    -0.9640 H     1 <1>   0.0800 
 44 H       -4.8120     1.9780     1.8810 H     1 <1>   0.4000 
 45 H       -6.3950    -0.4610     0.4330 H     1 <1>   0.0800 
 46 H       -6.2060     1.2800     0.2860 H     1 <1>   0.0800 
 47 H       -5.6600    -0.6660    -1.7510 H     1 <1>   0.0800 
 48 H       -5.4140     1.0650    -1.8200 H     1 <1>   0.0800 
 49 H        5.4570    -3.5290     0.2520 H     1 <1>   0.0800 
 50 H        4.6400    -3.0130     1.7250 H     1 <1>   0.0800 
 51 H        7.8590    -1.5680     1.9770 H     1 <1>   0.0800 
 52 H        7.5420    -3.1770     1.3390 H     1 <1>   0.0800 
 53 H        6.7020    -2.6130     2.7920 H     1 <1>   0.0800 
@<TRIPOS>BOND
  1   1   2  2   
  2   1   3  2   
  3   1   4  am  
  4   1   5  am  
  5   4   6  1   
  6   4   7  1   
  7   5   8  1   
  8   5   9  1   
  9   6  10  1   
 10   6  24  1   
 11   6  25  1   
 12   7  11  1   
 13   7  26  1   
 14   7  27  1   
 15   8  12  1   
 16   8  28  1   
 17   8  29  1   
 18   9  13  1   
 19   9  30  1   
 20   9  31  1   
 21  10  14  1   
 22  10  15  1   
 23  10  16  1   
 24  11  15  1   
 25  11  32  1   
 26  11  33  1   
 27  12  17  1   
 28  12  34  1   
 29  12  35  1   
 30  13  17  1   
 31  13  36  1   
 32  13  37  1   
 33  14  18  1   
 34  14  19  1   
 35  14  38  1   
 36  15  39  1   
 37  15  40  1   
 38  16  20  1   
 39  16  41  1   
 40  16  42  1   
 41  17  21  1   
 42  17  43  1   
 43  18  44  1   
 44  19  20  1   
 45  19  45  1   
 46  19  46  1   
 47  20  47  1   
 48  20  48  1   
 49  21  22  1   
 50  21  49  1   
 51  21  50  1   
 52  22  23  1   
 53  23  51  1   
 54  23  52  1   
 55  23  53  1   
@<TRIPOS>SUBSTRUCTURE
  1 ****   4 GROUP 4 **** **** 0

# MOE 2024.06 (io_trps.svl 2023.06)
