@<TRIPOS>MOLECULE
NONAME
46 47 1 0 0 
SMALL
USER_CHARGES


@<TRIPOS>ATOM
  1 O       -0.3670     0.7030    -0.2730 O.2   1 <1>  -0.5700 
  2 C       -0.1890     1.8930    -0.2430 C.2   1 <1>   0.5690 
  3 N       -1.0710     2.7050     0.3820 N.am  1 <1>  -0.7300 
  4 C        1.0320     2.5050    -0.9430 C.3   1 <1>   0.1810 
  5 C       -0.9020     4.1710     0.4800 C.3   1 <1>   0.3640 
  6 O        1.3030     3.8320    -0.5330 O.3   1 <1>  -0.5600 
  7 C       -2.2460     4.8510     0.2570 C.ar  1 <1>  -0.1440 
  8 C        0.1630     4.6760    -0.5210 C.3   1 <1>   0.2610 
  9 C       -3.0180     4.5640    -0.8620 C.ar  1 <1>  -0.1500 
 10 C       -2.7110     5.7810     1.1770 C.ar  1 <1>  -0.1500 
 11 C        0.5240     6.1380    -0.2220 C.2   1 <1>   0.5690 
 12 C       -4.2310     5.2010    -1.0590 C.ar  1 <1>  -0.1500 
 13 C       -3.9250     6.4170     0.9800 C.ar  1 <1>  -0.1500 
 14 O        0.1390     6.9670    -1.0170 O.2   1 <1>  -0.5700 
 15 N        1.2490     6.5450     0.8840 N.am  1 <1>  -0.6600 
 16 C       -4.6840     6.1280    -0.1390 C.ar  1 <1>  -0.1500 
 17 C        1.4560     8.0030     1.1380 C.3   1 <1>   0.1400 
 18 C        1.9080     5.6400     1.8770 C.3   1 <1>   0.0600 
 19 C        2.3500     8.6290     0.0460 C.3   1 <1>   0.3430 
 20 N        1.8640     9.9710    -0.4270 N.4   1 <1>  -0.9590 
 21 C        0.5890     9.8320    -1.2080 C.3   1 <1>   0.2630 
 22 C        2.9040    10.6230    -1.2790 C.3   1 <1>   0.2630 
 23 H       -1.9030     2.2980     0.8120 H     1 <1>   0.3700 
 24 H        0.8700     2.5050    -2.0050 H     1 <1>   0.0800 
 25 H        1.9010     1.9100    -0.7260 H     1 <1>   0.0800 
 26 H       -0.5710     4.3930     1.4780 H     1 <1>   0.0800 
 27 H       -0.2570     4.6500    -1.5110 H     1 <1>   0.0800 
 28 H       -2.6840     3.8410    -1.5860 H     1 <1>   0.1500 
 29 H       -2.1360     6.0200     2.0540 H     1 <1>   0.1500 
 30 H       -4.8230     4.9740    -1.9290 H     1 <1>   0.1500 
 31 H       -4.2810     7.1350     1.6980 H     1 <1>   0.1500 
 32 H       -5.6280     6.6220    -0.2930 H     1 <1>   0.1500 
 33 H        0.4910     8.4770     1.1530 H     1 <1>   0.0800 
 34 H        1.9130     8.1480     2.1020 H     1 <1>   0.0800 
 35 H        1.5930     5.8970     2.8730 H     1 <1>   0.0800 
 36 H        2.9780     5.7460     1.8110 H     1 <1>   0.0800 
 37 H        1.6660     4.6080     1.7070 H     1 <1>   0.0800 
 38 H        2.3830     7.9560    -0.7950 H     1 <1>   0.0800 
 39 H        3.3500     8.7210     0.4360 H     1 <1>   0.0800 
 40 H        1.6850    10.5720     0.3910 H     1 <1>   0.4500 
 41 H        0.7410     9.1870    -2.0590 H     1 <1>   0.0800 
 42 H        0.2510    10.7940    -1.5570 H     1 <1>   0.0800 
 43 H       -0.1850     9.3960    -0.5980 H     1 <1>   0.0800 
 44 H        3.1090    10.0180    -2.1470 H     1 <1>   0.0800 
 45 H        3.8190    10.7520    -0.7240 H     1 <1>   0.0800 
 46 H        2.5640    11.5920    -1.6080 H     1 <1>   0.0800 
@<TRIPOS>BOND
  1   1   2  2   
  2   2   3  am  
  3   2   4  1   
  4   3   5  1   
  5   3  23  1   
  6   4   6  1   
  7   4  24  1   
  8   4  25  1   
  9   5   7  1   
 10   5   8  1   
 11   5  26  1   
 12   6   8  1   
 13   7   9  ar  
 14   7  10  ar  
 15   8  11  1   
 16   8  27  1   
 17   9  12  ar  
 18   9  28  1   
 19  10  13  ar  
 20  10  29  1   
 21  11  14  2   
 22  11  15  am  
 23  12  16  ar  
 24  12  30  1   
 25  13  16  ar  
 26  13  31  1   
 27  15  17  1   
 28  15  18  1   
 29  16  32  1   
 30  17  19  1   
 31  17  33  1   
 32  17  34  1   
 33  18  35  1   
 34  18  36  1   
 35  18  37  1   
 36  19  20  1   
 37  19  38  1   
 38  19  39  1   
 39  20  21  1   
 40  20  22  1   
 41  20  40  1   
 42  21  41  1   
 43  21  42  1   
 44  21  43  1   
 45  22  44  1   
 46  22  45  1   
 47  22  46  1   
@<TRIPOS>SUBSTRUCTURE
  1 ****  11 GROUP 4 **** **** 0

# MOE 2024.06 (io_trps.svl 2023.06)
