@<TRIPOS>MOLECULE
NONAME
51 52 1 0 0 
SMALL
USER_CHARGES


@<TRIPOS>ATOM
  1 O        0.5480    -0.1930     0.7180 O.2   1 <1>  -0.5700 
  2 C        1.5270     0.3770     0.2690 C.2   1 <1>   0.5440 
  3 N        1.7740     1.6220     0.7710 N.am  1 <1>  -0.5470 
  4 C        2.3420    -0.2420    -0.7500 C.ar  1 <1>   0.0860 
  5 C        2.8650     2.5000     0.6330 C.ar  1 <1>   0.1170 
  6 C        2.7210    -1.5940    -0.6470 C.ar  1 <1>   0.4100 
  7 C        2.7620     0.4620    -1.8720 C.ar  1 <1>  -0.1500 
  8 C        2.6350     3.8790     0.5910 C.ar  1 <1>   0.0830 
  9 C        4.1700     2.0300     0.5570 C.ar  1 <1>  -0.1500 
 10 N        3.4610    -2.2280    -1.5510 N.ar  1 <1>  -0.6200 
 11 N        2.3330    -2.3530     0.4300 N.pl3 1 <1>  -0.8690 
 12 C        3.5280    -0.1970    -2.8060 C.ar  1 <1>  -0.1500 
 13 O        1.3360     4.2920     0.6960 O.3   1 <1>  -0.3620 
 14 C        3.7000     4.7620     0.4470 C.ar  1 <1>  -0.1500 
 15 C        5.2260     2.9110     0.4130 C.ar  1 <1>  -0.1500 
 16 C        3.8450    -1.5270    -2.5980 C.ar  1 <1>   0.1600 
 17 C        1.8370    -3.7530     0.2370 C.3   1 <1>   0.3500 
 18 C        0.9880     5.6590     0.6450 C.3   1 <1>   0.0400 
 19 C        5.0010     4.2750     0.3540 C.ar  1 <1>   0.0830 
 20 C        0.4600    -3.8160    -0.4760 C.2   1 <1>   0.5690 
 21 C        1.8100    -4.4010     1.6320 C.3   1 <1>  -0.1600 
 22 O        6.0990     5.0650     0.2090 O.3   1 <1>  -0.3630 
 23 O        0.1640    -4.8080    -1.1040 O.2   1 <1>  -0.5700 
 24 N       -0.4060    -2.7610    -0.3800 N.am  1 <1>  -0.7300 
 25 C        1.5230    -5.9110     1.6050 C.3   1 <1>  -0.2400 
 26 C        5.9950     6.4710     0.1920 C.3   1 <1>   0.0400 
 27 C       -1.7440    -2.6790    -1.0100 C.3   1 <1>   0.0600 
 28 H        0.9720     2.0290     1.2570 H     1 <1>   0.3700 
 29 H        2.4940     1.4960    -2.0060 H     1 <1>   0.1500 
 30 H        4.3710     0.9760     0.6170 H     1 <1>   0.1500 
 31 H        1.7500    -1.8500     1.1090 H     1 <1>   0.4000 
 32 H        3.8770     0.3100    -3.6880 H     1 <1>   0.1500 
 33 H        3.5250     5.8160     0.4080 H     1 <1>   0.1500 
 34 H        6.2350     2.5440     0.3500 H     1 <1>   0.1500 
 35 H        4.4440    -2.0370    -3.3330 H     1 <1>   0.1500 
 36 H        2.5430    -4.2900    -0.3730 H     1 <1>   0.0800 
 37 H       -0.0800     5.7340     0.7400 H     1 <1>   0.0800 
 38 H        1.2980     6.0630    -0.3020 H     1 <1>   0.0800 
 39 H        1.4640     6.1730     1.4610 H     1 <1>   0.0800 
 40 H        1.0640    -3.9140     2.2340 H     1 <1>   0.0800 
 41 H        2.7710    -4.2510     2.0940 H     1 <1>   0.0800 
 42 H       -0.0860    -1.8990     0.0870 H     1 <1>   0.3700 
 43 H        0.5380    -6.1060     1.2180 H     1 <1>   0.0800 
 44 H        1.5820    -6.3150     2.6000 H     1 <1>   0.0800 
 45 H        2.2420    -6.4190     0.9860 H     1 <1>   0.0800 
 46 H        6.9850     6.8770     0.0880 H     1 <1>   0.0800 
 47 H        5.5610     6.8010     1.1190 H     1 <1>   0.0800 
 48 H        5.3900     6.7670    -0.6470 H     1 <1>   0.0800 
 49 H       -1.9880    -3.6090    -1.4960 H     1 <1>   0.0800 
 50 H       -1.7510    -1.8900    -1.7420 H     1 <1>   0.0800 
 51 H       -2.4860    -2.4730    -0.2580 H     1 <1>   0.0800 
@<TRIPOS>BOND
  1   1   2  2   
  2   2   3  am  
  3   2   4  1   
  4   3   5  1   
  5   3  28  1   
  6   4   6  ar  
  7   4   7  ar  
  8   5   8  ar  
  9   5   9  ar  
 10   6  10  ar  
 11   6  11  1   
 12   7  12  ar  
 13   7  29  1   
 14   8  13  1   
 15   8  14  ar  
 16   9  15  ar  
 17   9  30  1   
 18  10  16  ar  
 19  11  17  1   
 20  11  31  1   
 21  12  16  ar  
 22  12  32  1   
 23  13  18  1   
 24  14  19  ar  
 25  14  33  1   
 26  15  19  ar  
 27  15  34  1   
 28  16  35  1   
 29  17  20  1   
 30  17  21  1   
 31  17  36  1   
 32  18  37  1   
 33  18  38  1   
 34  18  39  1   
 35  19  22  1   
 36  20  23  2   
 37  20  24  am  
 38  21  25  1   
 39  21  40  1   
 40  21  41  1   
 41  22  26  1   
 42  24  27  1   
 43  24  42  1   
 44  25  43  1   
 45  25  44  1   
 46  25  45  1   
 47  26  46  1   
 48  26  47  1   
 49  26  48  1   
 50  27  49  1   
 51  27  50  1   
 52  27  51  1   
@<TRIPOS>SUBSTRUCTURE
  1 ****   4 GROUP 4 **** **** 0

# MOE 2024.06 (io_trps.svl 2023.06)
