@<TRIPOS>MOLECULE
NONAME
37 38 1 0 0 
SMALL
USER_CHARGES


@<TRIPOS>ATOM
  1 F       -0.5980    -0.5950     0.6270 F     1 <1>  -0.1900 
  2 C       -1.6610    -1.3520     0.5810 C.ar  1 <1>   0.1900 
  3 C       -1.5650    -2.6000    -0.0030 C.ar  1 <1>  -0.1500 
  4 C       -2.8420    -0.8760     1.1170 C.ar  1 <1>  -0.1500 
  5 C       -2.6960    -3.3980    -0.0500 C.ar  1 <1>  -0.1500 
  6 C       -3.9650    -1.6840     1.0640 C.ar  1 <1>  -0.1500 
  7 C       -3.8960    -2.9430     0.4810 C.ar  1 <1>  -0.1430 
  8 C       -5.1400    -3.8150     0.4220 C.3   1 <1>  -0.0160 
  9 C       -5.9750    -3.4600    -0.8070 C.3   1 <1>   0.2090 
 10 N       -7.1990    -4.2960    -0.8420 N.pl3 1 <1>  -0.8530 
 11 C       -8.3920    -3.8640    -0.3240 C.2   1 <1>   0.5620 
 12 O       -9.4730    -4.5330    -0.5770 O.3   1 <1>  -0.2800 
 13 N       -8.6210    -2.8390     0.4220 N.2   1 <1>  -0.3380 
 14 C      -10.3930    -3.8710     0.0600 C.2   1 <1>   0.2980 
 15 N       -9.9310    -2.8510     0.6710 N.2   1 <1>  -0.3380 
 16 C      -11.8430    -4.3450     0.0240 C.3   1 <1>   0.5230 
 17 N      -12.7890    -3.3370     0.6330 N.4   1 <1>  -0.9590 
 18 C      -14.1200    -3.9340     0.9590 C.3   1 <1>   0.2630 
 19 C      -12.9300    -2.1210    -0.2320 C.3   1 <1>   0.2630 
 20 H       -0.6270    -2.9350    -0.4080 H     1 <1>   0.1500 
 21 H       -2.8770     0.1000     1.5650 H     1 <1>   0.1500 
 22 H       -2.6350    -4.3740    -0.5020 H     1 <1>   0.1500 
 23 H       -4.8940    -1.3280     1.4780 H     1 <1>   0.1500 
 24 H       -5.7280    -3.6600     1.3100 H     1 <1>   0.0800 
 25 H       -4.8600    -4.8520     0.3810 H     1 <1>   0.0800 
 26 H       -5.3980    -3.6250    -1.7010 H     1 <1>   0.0800 
 27 H       -6.2440    -2.4170    -0.7700 H     1 <1>   0.0800 
 28 H       -7.2300    -5.0380    -1.5450 H     1 <1>   0.4000 
 29 H      -11.9010    -5.2720     0.5690 H     1 <1>   0.0800 
 30 H      -12.1230    -4.5390    -0.9970 H     1 <1>   0.0800 
 31 H      -12.3310    -3.0260     1.5090 H     1 <1>   0.4500 
 32 H      -14.6120    -4.2710     0.0610 H     1 <1>   0.0800 
 33 H      -14.7480    -3.2030     1.4410 H     1 <1>   0.0800 
 34 H      -14.0030    -4.7740     1.6260 H     1 <1>   0.0800 
 35 H      -13.3670    -2.3810    -1.1830 H     1 <1>   0.0800 
 36 H      -11.9660    -1.6690    -0.4060 H     1 <1>   0.0800 
 37 H      -13.5620    -1.3920     0.2490 H     1 <1>   0.0800 
@<TRIPOS>BOND
  1   1   2  1   
  2   2   3  ar  
  3   2   4  ar  
  4   3   5  ar  
  5   3  20  1   
  6   4   6  ar  
  7   4  21  1   
  8   5   7  ar  
  9   5  22  1   
 10   6   7  ar  
 11   6  23  1   
 12   7   8  1   
 13   8   9  1   
 14   8  24  1   
 15   8  25  1   
 16   9  10  1   
 17   9  26  1   
 18   9  27  1   
 19  10  11  1   
 20  10  28  1   
 21  11  12  1   
 22  11  13  2   
 23  12  14  1   
 24  13  15  1   
 25  14  15  2   
 26  14  16  1   
 27  16  17  1   
 28  16  29  1   
 29  16  30  1   
 30  17  18  1   
 31  17  19  1   
 32  17  31  1   
 33  18  32  1   
 34  18  33  1   
 35  18  34  1   
 36  19  35  1   
 37  19  36  1   
 38  19  37  1   
@<TRIPOS>SUBSTRUCTURE
  1 ****   9 GROUP 4 **** **** 0

# MOE 2024.06 (io_trps.svl 2023.06)
