@<TRIPOS>MOLECULE
NONAME
54 57 1 0 0 
SMALL
USER_CHARGES


@<TRIPOS>ATOM
  1 O        1.7020     0.8920     2.3400 O.2   1 <1>  -0.5700 
  2 C        1.9360     0.9680     1.1470 C.2   1 <1>   0.5440 
  3 N        1.4360     2.0450     0.4480 N.am  1 <1>  -0.6600 
  4 C        2.7360    -0.0300     0.4880 C.ar  1 <1>   0.0860 
  5 C        0.5580     3.0640     1.0590 C.3   1 <1>   0.1400 
  6 C        1.5840     2.2660    -1.0080 C.3   1 <1>   0.1400 
  7 C        2.2600    -1.3260     0.1860 C.ar  1 <1>   0.4100 
  8 C        4.0410     0.2870     0.1350 C.ar  1 <1>  -0.1500 
  9 C       -0.1220     3.7400    -0.1250 C.3   1 <1>  -0.1600 
 10 C        0.8680     3.5850    -1.2780 C.3   1 <1>  -0.1600 
 11 N        3.0100    -2.2420    -0.4310 N.ar  1 <1>  -0.6200 
 12 N        0.9830    -1.7760     0.4990 N.pl3 1 <1>  -0.8380 
 13 C        4.8010    -0.6670    -0.4980 C.ar  1 <1>  -0.1500 
 14 C        4.2400    -1.9030    -0.7550 C.ar  1 <1>   0.1600 
 15 C        0.8300    -3.1070     1.1680 C.3   1 <1>   0.2090 
 16 C       -0.2340    -0.9330     0.3550 C.3   1 <1>   0.2090 
 17 C        0.4780    -4.2160     0.1640 C.3   1 <1>   0.1400 
 18 C       -1.4770    -1.7110    -0.0930 C.3   1 <1>  -0.1600 
 19 N       -0.9200    -4.1020    -0.3680 N.am  1 <1>  -0.6600 
 20 C       -1.1930    -2.8330    -1.0990 C.3   1 <1>   0.1400 
 21 C       -1.8320    -5.1150    -0.1840 C.2   1 <1>   0.5770 
 22 O       -1.5390    -6.1220     0.4210 O.2   1 <1>  -0.5700 
 23 C       -3.2510    -5.0020    -0.7480 C.3   1 <1>   0.0530 
 24 C       -4.1710    -3.9960    -0.0040 C.3   1 <1>   0.0000 
 25 C       -4.2670    -6.1040    -0.3250 C.3   1 <1>   0.0000 
 26 C       -5.3360    -4.9830    -0.2710 C.3   1 <1>   0.0000 
 27 H        1.1660     3.7670     1.6030 H     1 <1>   0.0800 
 28 H       -0.1550     2.6120     1.7280 H     1 <1>   0.0800 
 29 H        1.1080     1.4610    -1.5430 H     1 <1>   0.0800 
 30 H        2.6220     2.3230    -1.2870 H     1 <1>   0.0800 
 31 H        4.4410     1.2610     0.3600 H     1 <1>   0.1500 
 32 H       -0.3540     4.7700     0.0830 H     1 <1>   0.0800 
 33 H       -1.0330     3.2150    -0.3510 H     1 <1>   0.0800 
 34 H        0.3840     3.5890    -2.2380 H     1 <1>   0.0800 
 35 H        1.5880     4.3840    -1.2470 H     1 <1>   0.0800 
 36 H        5.8160    -0.4620    -0.7890 H     1 <1>   0.1500 
 37 H        4.8370    -2.6490    -1.2500 H     1 <1>   0.1500 
 38 H        0.0800    -3.0560     1.9370 H     1 <1>   0.0800 
 39 H        1.7610    -3.3630     1.6430 H     1 <1>   0.0800 
 40 H       -0.0340    -0.1740    -0.3800 H     1 <1>   0.0800 
 41 H       -0.4390    -0.4410     1.2920 H     1 <1>   0.0800 
 42 H        0.6090    -5.1620     0.6560 H     1 <1>   0.0800 
 43 H        1.1750    -4.1850    -0.6550 H     1 <1>   0.0800 
 44 H       -2.1490    -1.0060    -0.5460 H     1 <1>   0.0800 
 45 H       -1.9810    -2.1100     0.7690 H     1 <1>   0.0800 
 46 H       -0.3460    -2.5780    -1.7160 H     1 <1>   0.0800 
 47 H       -2.0390    -2.9540    -1.7500 H     1 <1>   0.0800 
 48 H       -3.2670    -4.8530    -1.8150 H     1 <1>   0.0000 
 49 H       -4.2830    -3.0500    -0.5050 H     1 <1>   0.0000 
 50 H       -3.9380    -3.9050     1.0430 H     1 <1>   0.0000 
 51 H       -4.0800    -6.5250     0.6480 H     1 <1>   0.0000 
 52 H       -4.4510    -6.8420    -1.0860 H     1 <1>   0.0000 
 53 H       -5.8140    -4.8160    -1.2210 H     1 <1>   0.0000 
 54 H       -6.0250    -5.0760     0.5500 H     1 <1>   0.0000 
@<TRIPOS>BOND
  1   1   2  2   
  2   2   3  am  
  3   2   4  1   
  4   3   5  1   
  5   3   6  1   
  6   4   7  ar  
  7   4   8  ar  
  8   5   9  1   
  9   5  27  1   
 10   5  28  1   
 11   6  10  1   
 12   6  29  1   
 13   6  30  1   
 14   7  11  ar  
 15   7  12  1   
 16   8  13  ar  
 17   8  31  1   
 18   9  10  1   
 19   9  32  1   
 20   9  33  1   
 21  10  34  1   
 22  10  35  1   
 23  11  14  ar  
 24  12  15  1   
 25  12  16  1   
 26  13  14  ar  
 27  13  36  1   
 28  14  37  1   
 29  15  17  1   
 30  15  38  1   
 31  15  39  1   
 32  16  18  1   
 33  16  40  1   
 34  16  41  1   
 35  17  19  1   
 36  17  42  1   
 37  17  43  1   
 38  18  20  1   
 39  18  44  1   
 40  18  45  1   
 41  19  20  1   
 42  19  21  am  
 43  20  46  1   
 44  20  47  1   
 45  21  22  2   
 46  21  23  1   
 47  23  24  1   
 48  23  25  1   
 49  23  48  1   
 50  24  26  1   
 51  24  49  1   
 52  24  50  1   
 53  25  26  1   
 54  25  51  1   
 55  25  52  1   
 56  26  53  1   
 57  26  54  1   
@<TRIPOS>SUBSTRUCTURE
  1 ****  16 GROUP 4 **** **** 0

# MOE 2024.06 (io_trps.svl 2023.06)
