@<TRIPOS>MOLECULE
NONAME
42 45 1 0 0 
SMALL
USER_CHARGES


@<TRIPOS>ATOM
  1 O       -2.1890    -0.6710    -2.8540 O.2   1 <1>  -0.5700 
  2 C       -2.3520    -1.0080    -1.7140 C.2   1 <1>   0.5690 
  3 N       -2.2770    -0.1050    -0.7210 N.am  1 <1>  -0.7300 
  4 C       -2.6850    -2.4410    -1.4010 C.3   1 <1>  -0.0190 
  5 C       -2.4680    -0.3860     0.7200 C.3   1 <1>   0.2200 
  6 C       -1.6120    -3.0910    -0.4970 C.3   1 <1>   0.1200 
  7 C       -4.1380    -2.5040    -0.9080 C.3   1 <1>   0.3430 
  8 C       -1.4210    -1.4180     1.2120 C.3   1 <1>   0.1200 
  9 C       -3.9390    -0.8090     1.0010 C.3   1 <1>   0.3430 
 10 O       -1.7420    -2.7400     0.8560 O.3   1 <1>  -0.5600 
 11 N       -4.3010    -2.2040     0.5560 N.4   1 <1>  -0.9590 
 12 C       -5.6090    -2.6590     1.0960 C.3   1 <1>   0.4860 
 13 C       -5.7310    -4.1560     0.8710 C.ar  1 <1>  -0.1440 
 14 C       -6.6810    -4.6670     0.0250 C.ar  1 <1>  -0.1500 
 15 C       -4.8480    -5.0300     1.5240 C.ar  1 <1>  -0.1500 
 16 C       -6.7800    -6.0520    -0.2160 C.ar  1 <1>   0.0000 
 17 C       -4.9280    -6.3780     1.3010 C.ar  1 <1>  -0.1500 
 18 C       -5.8790    -6.9270     0.4290 C.ar  1 <1>   0.3100 
 19 C       -7.7380    -6.6140    -1.0780 C.ar  1 <1>  -0.1500 
 20 N       -5.8940    -8.2690     0.2380 N.ar  1 <1>  -0.6200 
 21 C       -7.7370    -7.9650    -1.2480 C.ar  1 <1>  -0.1500 
 22 C       -6.7930    -8.7470    -0.5670 C.ar  1 <1>   0.1600 
 23 H       -1.9910     0.8420    -0.9960 H     1 <1>   0.3700 
 24 H       -2.6520    -2.9600    -2.3420 H     1 <1>   0.0800 
 25 H       -2.2860     0.5370     1.2440 H     1 <1>   0.0800 
 26 H       -0.6200    -2.8310    -0.8300 H     1 <1>   0.0800 
 27 H       -1.7070    -4.1630    -0.5490 H     1 <1>   0.0800 
 28 H       -4.4930    -3.5040    -1.0990 H     1 <1>   0.0800 
 29 H       -4.7420    -1.8290    -1.4930 H     1 <1>   0.0800 
 30 H       -1.3780    -1.3920     2.2870 H     1 <1>   0.0800 
 31 H       -0.4390    -1.1800     0.8380 H     1 <1>   0.0800 
 32 H       -4.5970    -0.0950     0.5330 H     1 <1>   0.0800 
 33 H       -4.0950    -0.7420     2.0650 H     1 <1>   0.0800 
 34 H       -3.5730    -2.8050     0.9930 H     1 <1>   0.4500 
 35 H       -5.6690    -2.4550     2.1530 H     1 <1>   0.0800 
 36 H       -6.4160    -2.1440     0.6010 H     1 <1>   0.0800 
 37 H       -7.3810    -4.0260    -0.4840 H     1 <1>   0.1500 
 38 H       -4.1040    -4.6510     2.2060 H     1 <1>   0.1500 
 39 H       -4.2600    -7.0640     1.7910 H     1 <1>   0.1500 
 40 H       -8.4470    -5.9820    -1.5840 H     1 <1>   0.1500 
 41 H       -8.4450    -8.4520    -1.8940 H     1 <1>   0.1500 
 42 H       -6.8170    -9.8130    -0.7230 H     1 <1>   0.1500 
@<TRIPOS>BOND
  1   1   2  2   
  2   2   3  am  
  3   2   4  1   
  4   3   5  1   
  5   3  23  1   
  6   4   6  1   
  7   4   7  1   
  8   4  24  1   
  9   5   8  1   
 10   5   9  1   
 11   5  25  1   
 12   6  10  1   
 13   6  26  1   
 14   6  27  1   
 15   7  11  1   
 16   7  28  1   
 17   7  29  1   
 18   8  10  1   
 19   8  30  1   
 20   8  31  1   
 21   9  11  1   
 22   9  32  1   
 23   9  33  1   
 24  11  12  1   
 25  11  34  1   
 26  12  13  1   
 27  12  35  1   
 28  12  36  1   
 29  13  14  ar  
 30  13  15  ar  
 31  14  16  ar  
 32  14  37  1   
 33  15  17  ar  
 34  15  38  1   
 35  16  18  ar  
 36  16  19  ar  
 37  17  18  ar  
 38  17  39  1   
 39  18  20  ar  
 40  19  21  ar  
 41  19  40  1   
 42  20  22  ar  
 43  21  22  ar  
 44  21  41  1   
 45  22  42  1   
@<TRIPOS>SUBSTRUCTURE
  1 ****  13 GROUP 4 **** **** 0

# MOE 2024.06 (io_trps.svl 2023.06)
