@<TRIPOS>MOLECULE
NONAME
39 41 1 0 0 
SMALL
USER_CHARGES


@<TRIPOS>ATOM
  1 O       -0.4890     0.2250    -0.5160 O.2   1 <1>  -0.5700 
  2 C       -1.4280     0.8170    -0.0220 C.2   1 <1>   0.7150 
  3 N       -2.5550     0.1150     0.3350 N.am  1 <1>  -0.6600 
  4 C       -1.3530     2.2390     0.1760 C.2   1 <1>  -0.2370 
  5 C       -3.9270     0.6770     0.2200 C.3   1 <1>   0.1400 
  6 C       -2.6050    -1.3690     0.2340 C.3   1 <1>   0.1400 
  7 N       -1.9090     2.8820     1.2450 N.pl3 1 <1>   0.0330 
  8 C       -0.7320     3.1900    -0.5910 C.2   1 <1>  -0.1500 
  9 C       -4.7930    -0.4880    -0.2500 C.3   1 <1>   0.2000 
 10 C       -4.0900    -1.7360     0.2720 C.3   1 <1>  -0.0800 
 11 C       -1.6530     4.2050     1.1330 C.2   1 <1>  -0.3020 
 12 C       -0.9220     4.4420     0.0020 C.2   1 <1>   0.0190 
 13 O       -6.0770    -0.4050     0.2620 O.3   1 <1>  -0.6800 
 14 C       -4.4280    -3.0050    -0.5240 C.3   1 <1>   0.0210 
 15 C       -0.4320     5.6930    -0.5050 C.1   1 <1>   0.5380 
 16 C       -3.6350    -4.1910    -0.0120 C.2   1 <1>   0.1080 
 17 N       -0.0490     6.6890    -0.9100 N.1   1 <1>  -0.5570 
 18 N       -3.7260    -4.6240     1.2070 N.2   1 <1>  -0.7070 
 19 C       -2.7290    -4.9290    -0.7660 C.2   1 <1>  -0.1500 
 20 N       -2.8740    -5.6650     1.2620 N.pl3 1 <1>   0.3000 
 21 C       -2.2560    -5.8680     0.0790 C.2   1 <1>  -0.3320 
 22 C       -1.2360    -6.9630    -0.1740 C.3   1 <1>  -0.0600 
 23 H       -4.2510     1.0190     1.1870 H     1 <1>   0.0800 
 24 H       -3.9560     1.4830    -0.4930 H     1 <1>   0.0800 
 25 H       -2.1600    -1.6800    -0.6970 H     1 <1>   0.0800 
 26 H       -2.0690    -1.8270     1.0490 H     1 <1>   0.0800 
 27 H       -2.4140     2.4130     2.0070 H     1 <1>   0.2700 
 28 H       -0.1830     3.0120    -1.5010 H     1 <1>   0.1500 
 29 H       -4.8520    -0.4860    -1.3250 H     1 <1>   0.0800 
 30 H       -4.3480    -1.8920     1.3060 H     1 <1>   0.0800 
 31 H       -1.9910     4.9260     1.8580 H     1 <1>   0.1500 
 32 H       -6.0940    -0.6970     1.1940 H     1 <1>   0.4000 
 33 H       -4.2170    -2.8560    -1.5670 H     1 <1>   0.0800 
 34 H       -5.4760    -3.2240    -0.4220 H     1 <1>   0.0800 
 35 H       -2.4780    -4.7650    -1.7990 H     1 <1>   0.1500 
 36 H       -2.7370    -6.2150     2.1190 H     1 <1>   0.2700 
 37 H       -0.8900    -6.9180    -1.1910 H     1 <1>   0.0800 
 38 H       -1.6770    -7.9290    -0.0040 H     1 <1>   0.0800 
 39 H       -0.3910    -6.8420     0.4800 H     1 <1>   0.0800 
@<TRIPOS>BOND
  1   1   2  2   
  2   2   3  am  
  3   2   4  1   
  4   3   5  1   
  5   3   6  1   
  6   4   7  1   
  7   4   8  2   
  8   5   9  1   
  9   5  23  1   
 10   5  24  1   
 11   6  10  1   
 12   6  25  1   
 13   6  26  1   
 14   7  11  1   
 15   7  27  1   
 16   8  12  1   
 17   8  28  1   
 18   9  10  1   
 19   9  13  1   
 20   9  29  1   
 21  10  14  1   
 22  10  30  1   
 23  11  12  2   
 24  11  31  1   
 25  12  15  1   
 26  13  32  1   
 27  14  16  1   
 28  14  33  1   
 29  14  34  1   
 30  15  17  3   
 31  16  18  2   
 32  16  19  1   
 33  18  20  1   
 34  19  21  2   
 35  19  35  1   
 36  20  21  1   
 37  20  36  1   
 38  21  22  1   
 39  22  37  1   
 40  22  38  1   
 41  22  39  1   
@<TRIPOS>SUBSTRUCTURE
  1 ****   3 GROUP 4 **** **** 0

# MOE 2024.06 (io_trps.svl 2023.06)
