@<TRIPOS>MOLECULE
NONAME
41 44 1 0 0 
SMALL
USER_CHARGES


@<TRIPOS>ATOM
  1 S       -0.4880     0.8130     1.9510 S.3   1 <1>  -0.0800 
  2 C       -0.3280     2.1400     0.8190 C.2   1 <1>  -0.1400 
  3 C        1.1690     1.0470     2.4880 C.2   1 <1>  -0.1100 
  4 C        0.8930     2.6870     0.8590 C.2   1 <1>  -0.1810 
  5 C       -1.4550     2.5870    -0.0720 C.3   1 <1>   0.0200 
  6 C        1.7540     2.0630     1.8230 C.2   1 <1>  -0.1500 
  7 C        1.2640     3.8550    -0.0590 C.3   1 <1>   0.4610 
  8 C       -1.1080     4.0000    -0.5680 C.3   1 <1>   0.1200 
  9 O        0.2300     4.0740    -1.0030 O.3   1 <1>  -0.5600 
 10 C        1.4890     5.1430     0.7460 C.3   1 <1>  -0.1600 
 11 C        2.5170     3.5150    -0.8750 C.3   1 <1>  -0.1600 
 12 C        1.9300     6.3020    -0.1500 C.3   1 <1>   0.1400 
 13 C        2.9510     4.6870    -1.7560 C.3   1 <1>   0.1400 
 14 N        3.1470     5.8970    -0.9070 N.am  1 <1>  -0.6600 
 15 C        4.3940     6.4620    -0.7300 C.2   1 <1>   0.5440 
 16 O        5.3810     5.8330    -1.0590 O.2   1 <1>  -0.5700 
 17 C        4.5600     7.7810    -0.1610 C.ar  1 <1>   0.0860 
 18 C        3.8640     8.8720    -0.6800 C.ar  1 <1>   0.1600 
 19 C        5.4150     8.0200     0.9050 C.ar  1 <1>  -0.1500 
 20 N        3.9210    10.1190    -0.2330 N.ar  1 <1>  -0.6200 
 21 C        5.5000     9.3080     1.3860 C.ar  1 <1>   0.0820 
 22 C        4.7410    10.3100     0.7900 C.ar  1 <1>   0.1600 
 23 O        6.3220     9.5620     2.4220 O.3   1 <1>  -0.5330 
 24 H        1.5340     0.3890     3.2560 H     1 <1>   0.1500 
 25 H       -2.3810     2.6080     0.4730 H     1 <1>   0.0800 
 26 H       -1.5550     1.9120    -0.9030 H     1 <1>   0.0800 
 27 H        2.7640     2.4010     1.9730 H     1 <1>   0.1500 
 28 H       -1.2520     4.7180     0.2190 H     1 <1>   0.0800 
 29 H       -1.7380     4.2670    -1.3980 H     1 <1>   0.0800 
 30 H        2.2560     4.9690     1.4780 H     1 <1>   0.0800 
 31 H        0.5970     5.4050     1.2810 H     1 <1>   0.0800 
 32 H        2.3190     2.6520    -1.4830 H     1 <1>   0.0800 
 33 H        3.3290     3.2700    -0.2160 H     1 <1>   0.0800 
 34 H        2.1230     7.1660     0.4620 H     1 <1>   0.0800 
 35 H        1.1460     6.5480    -0.8470 H     1 <1>   0.0800 
 36 H        2.1930     4.8930    -2.4930 H     1 <1>   0.0800 
 37 H        3.8590     4.4330    -2.2770 H     1 <1>   0.0800 
 38 H        3.2180     8.6920    -1.5230 H     1 <1>   0.1500 
 39 H        5.9940     7.2250     1.3390 H     1 <1>   0.1500 
 40 H        4.8110    11.3130     1.1720 H     1 <1>   0.1500 
 41 H        6.3670    10.5000     2.6850 H     1 <1>   0.4500 
@<TRIPOS>BOND
  1   1   2  1   
  2   1   3  1   
  3   2   4  2   
  4   2   5  1   
  5   3   6  2   
  6   3  24  1   
  7   4   6  1   
  8   4   7  1   
  9   5   8  1   
 10   5  25  1   
 11   5  26  1   
 12   6  27  1   
 13   7   9  1   
 14   7  10  1   
 15   7  11  1   
 16   8   9  1   
 17   8  28  1   
 18   8  29  1   
 19  10  12  1   
 20  10  30  1   
 21  10  31  1   
 22  11  13  1   
 23  11  32  1   
 24  11  33  1   
 25  12  14  1   
 26  12  34  1   
 27  12  35  1   
 28  13  14  1   
 29  13  36  1   
 30  13  37  1   
 31  14  15  am  
 32  15  16  2   
 33  15  17  1   
 34  17  18  ar  
 35  17  19  ar  
 36  18  20  ar  
 37  18  38  1   
 38  19  21  ar  
 39  19  39  1   
 40  20  22  ar  
 41  21  22  ar  
 42  21  23  1   
 43  22  40  1   
 44  23  41  1   
@<TRIPOS>SUBSTRUCTURE
  1 ****  12 GROUP 4 **** **** 0

# MOE 2024.06 (io_trps.svl 2023.06)
