@<TRIPOS>MOLECULE
NONAME
49 51 1 0 0 
SMALL
USER_CHARGES


@<TRIPOS>ATOM
  1 O        1.7420    -0.6660    -2.5300 O.2   1 <1>  -0.5700 
  2 C        2.1370    -0.7370    -1.3840 C.2   1 <1>   0.5440 
  3 N        2.7370     0.3730    -0.8240 N.am  1 <1>  -0.6600 
  4 C        2.0980    -1.9950    -0.6730 C.ar  1 <1>   0.0860 
  5 C        2.8730     0.5250     0.6700 C.3   1 <1>   0.2200 
  6 C        3.4540     1.3310    -1.7210 C.3   1 <1>   0.1400 
  7 C        1.0860    -2.3180     0.2370 C.ar  1 <1>   0.0830 
  8 C        3.1270    -2.9160    -0.8710 C.ar  1 <1>  -0.1500 
  9 C        2.7230     1.9830     1.1330 C.3   1 <1>   0.1200 
 10 C        4.2030    -0.0830     1.1730 C.3   1 <1>   0.3430 
 11 C        4.7100     1.9770    -1.1000 C.3   1 <1>  -0.0800 
 12 O        0.0940    -1.4160     0.4280 O.3   1 <1>  -0.3630 
 13 C        1.1280    -3.5260     0.9280 C.ar  1 <1>  -0.1500 
 14 C        3.1750    -4.1100    -0.1780 C.ar  1 <1>  -0.1440 
 15 O        3.9530     2.6450     1.1080 O.3   1 <1>  -0.5600 
 16 N        5.1830    -0.2580     0.0610 N.4   1 <1>  -0.9590 
 17 C        4.3580     3.1190    -0.1330 C.3   1 <1>   0.1200 
 18 C        5.7550     1.0020    -0.5140 C.3   1 <1>   0.3430 
 19 C       -1.1600    -1.7920     0.9560 C.3   1 <1>   0.0400 
 20 C        2.1690    -4.4120     0.7240 C.ar  1 <1>  -0.1500 
 21 C        4.3190    -5.0820    -0.4090 C.3   1 <1>  -0.0970 
 22 C        6.2860    -1.2500     0.3780 C.3   1 <1>   0.2370 
 23 C        7.0560    -1.7250    -0.8550 C.2   1 <1>   0.9060 
 24 O        7.9520    -0.9990    -1.2940 O.co2 1 <1>  -0.9000 
 25 O        6.6540    -2.7420    -1.4240 O.co2 1 <1>  -0.9000 
 26 H        2.0670    -0.0090     1.1390 H     1 <1>   0.0800 
 27 H        3.7520     0.8070    -2.6150 H     1 <1>   0.0800 
 28 H        2.7610     2.0970    -2.0260 H     1 <1>   0.0800 
 29 H        3.9030    -2.6920    -1.5860 H     1 <1>   0.1500 
 30 H        2.3950     1.9920     2.1580 H     1 <1>   0.0800 
 31 H        1.9970     2.5160     0.5430 H     1 <1>   0.0800 
 32 H        3.9850    -1.0470     1.6010 H     1 <1>   0.0800 
 33 H        4.6220     0.5350     1.9490 H     1 <1>   0.0800 
 34 H        5.2070     2.4670    -1.9170 H     1 <1>   0.0800 
 35 H        0.3630    -3.7910     1.6330 H     1 <1>   0.1500 
 36 H        4.6480    -0.6760    -0.7170 H     1 <1>   0.4500 
 37 H        3.5850     3.7530    -0.5340 H     1 <1>   0.0800 
 38 H        5.2300     3.7270     0.0390 H     1 <1>   0.0800 
 39 H        6.3360     1.5100     0.2370 H     1 <1>   0.0800 
 40 H        6.4320     0.7310    -1.3090 H     1 <1>   0.0800 
 41 H       -1.8330    -0.9600     0.8460 H     1 <1>   0.0800 
 42 H       -1.0470    -2.0340     1.9970 H     1 <1>   0.0800 
 43 H       -1.5340    -2.6360     0.4020 H     1 <1>   0.0800 
 44 H        2.1970    -5.3430     1.2650 H     1 <1>   0.1500 
 45 H        3.9370    -6.0700    -0.5890 H     1 <1>   0.0800 
 46 H        4.9640    -5.1060     0.4500 H     1 <1>   0.0800 
 47 H        4.9090    -4.7880    -1.2610 H     1 <1>   0.0800 
 48 H        6.9940    -0.8120     1.0570 H     1 <1>   0.0800 
 49 H        5.8650    -2.1270     0.8340 H     1 <1>   0.0800 
@<TRIPOS>BOND
  1   1   2  2   
  2   2   3  am  
  3   2   4  1   
  4   3   5  1   
  5   3   6  1   
  6   4   7  ar  
  7   4   8  ar  
  8   5   9  1   
  9   5  10  1   
 10   5  26  1   
 11   6  11  1   
 12   6  27  1   
 13   6  28  1   
 14   7  12  1   
 15   7  13  ar  
 16   8  14  ar  
 17   8  29  1   
 18   9  15  1   
 19   9  30  1   
 20   9  31  1   
 21  10  16  1   
 22  10  32  1   
 23  10  33  1   
 24  11  17  1   
 25  11  18  1   
 26  11  34  1   
 27  12  19  1   
 28  13  20  ar  
 29  13  35  1   
 30  14  20  ar  
 31  14  21  1   
 32  15  17  1   
 33  16  18  1   
 34  16  22  1   
 35  16  36  1   
 36  17  37  1   
 37  17  38  1   
 38  18  39  1   
 39  18  40  1   
 40  19  41  1   
 41  19  42  1   
 42  19  43  1   
 43  20  44  1   
 44  21  45  1   
 45  21  46  1   
 46  21  47  1   
 47  22  23  1   
 48  22  48  1   
 49  22  49  1   
 50  23  24  ar  
 51  23  25  ar  
@<TRIPOS>SUBSTRUCTURE
  1 ****   3 GROUP 4 **** **** 0

# MOE 2024.06 (io_trps.svl 2023.06)
