@<TRIPOS>MOLECULE
NONAME
51 54 1 0 0 
SMALL
USER_CHARGES


@<TRIPOS>ATOM
  1 F       -1.2010    -0.7160    -0.8510 F     1 <1>  -0.3400 
  2 C       -0.7750    -1.9070    -0.4550 C.3   1 <1>   0.8800 
  3 F        0.4980    -1.9780    -0.8220 F     1 <1>  -0.3400 
  4 O       -1.5040    -2.8860    -1.1580 O.3   1 <1>  -0.3630 
  5 C       -1.5060    -4.1790    -0.7610 C.ar  1 <1>   0.0820 
  6 C       -0.6440    -4.7040     0.1980 C.ar  1 <1>  -0.1500 
  7 C       -2.4350    -5.0150    -1.3610 C.ar  1 <1>  -0.1500 
  8 C       -0.7350    -6.0390     0.5510 C.ar  1 <1>  -0.1500 
  9 C       -2.5150    -6.3470    -1.0040 C.ar  1 <1>  -0.1500 
 10 C       -1.6760    -6.8900    -0.0290 C.ar  1 <1>   0.0860 
 11 C       -1.7500    -8.2830     0.3640 C.2   1 <1>   0.5440 
 12 O       -0.7570    -8.9810     0.2770 O.2   1 <1>  -0.5700 
 13 N       -2.9050    -8.8480     0.8580 N.am  1 <1>  -0.6600 
 14 C       -4.1670    -8.1520     1.1850 C.3   1 <1>   0.1400 
 15 C       -3.0620   -10.2930     1.1030 C.3   1 <1>   0.1400 
 16 C       -5.2600    -9.2140     1.0080 C.3   1 <1>  -0.0800 
 17 C       -4.5400   -10.5740     0.8180 C.3   1 <1>  -0.0800 
 18 C       -6.2990    -8.8510    -0.0810 C.3   1 <1>   0.4240 
 19 C       -4.7230   -11.1920    -0.5810 C.3   1 <1>  -0.1600 
 20 O       -5.6300    -8.4460    -1.2250 O.3   1 <1>  -0.6800 
 21 C       -7.2230    -7.7130     0.4030 C.ar  1 <1>  -0.1430 
 22 C       -7.0790   -10.1140    -0.4820 C.3   1 <1>  -0.1600 
 23 C       -6.1970   -11.2630    -1.0230 C.3   1 <1>  -0.1600 
 24 C       -8.1420    -7.9480     1.4220 C.ar  1 <1>  -0.1500 
 25 C       -7.1670    -6.4300    -0.1370 C.ar  1 <1>  -0.1500 
 26 C       -8.9760    -6.9430     1.8820 C.ar  1 <1>  -0.1500 
 27 C       -7.9980    -5.4230     0.3210 C.ar  1 <1>  -0.1500 
 28 C       -8.9040    -5.6770     1.3320 C.ar  1 <1>  -0.1500 
 29 H       -0.8660    -1.9940     0.6130 H     1 <1>   0.0800 
 30 H        0.1110    -4.1040     0.6720 H     1 <1>   0.1500 
 31 H       -3.0940    -4.6160    -2.1120 H     1 <1>   0.1500 
 32 H       -0.0630    -6.4470     1.2860 H     1 <1>   0.1500 
 33 H       -3.2370    -6.9850    -1.4840 H     1 <1>   0.1500 
 34 H       -4.1310    -7.8280     2.2110 H     1 <1>   0.0800 
 35 H       -4.3300    -7.2930     0.5610 H     1 <1>   0.0800 
 36 H       -2.4060   -10.8700     0.4720 H     1 <1>   0.0800 
 37 H       -2.8300   -10.4970     2.1340 H     1 <1>   0.0800 
 38 H       -5.7880    -9.2700     1.9420 H     1 <1>   0.0800 
 39 H       -4.9070   -11.2820     1.5410 H     1 <1>   0.0800 
 40 H       -4.1610   -10.6140    -1.2960 H     1 <1>   0.0800 
 41 H       -4.3020   -12.1830    -0.5950 H     1 <1>   0.0800 
 42 H       -5.0850    -9.1980    -1.5170 H     1 <1>   0.4000 
 43 H       -7.5960   -10.4810     0.3840 H     1 <1>   0.0800 
 44 H       -7.8330    -9.8530    -1.2050 H     1 <1>   0.0800 
 45 H       -6.6200   -12.1980    -0.6960 H     1 <1>   0.0800 
 46 H       -6.2320   -11.2620    -2.0990 H     1 <1>   0.0800 
 47 H       -8.2210    -8.9180     1.8760 H     1 <1>   0.1500 
 48 H       -6.4730    -6.1960    -0.9260 H     1 <1>   0.1500 
 49 H       -9.6810    -7.1460     2.6700 H     1 <1>   0.1500 
 50 H       -7.9370    -4.4400    -0.1130 H     1 <1>   0.1500 
 51 H       -9.5520    -4.8950     1.6880 H     1 <1>   0.1500 
@<TRIPOS>BOND
  1   1   2  1   
  2   2   3  1   
  3   2   4  1   
  4   2  29  1   
  5   4   5  1   
  6   5   6  ar  
  7   5   7  ar  
  8   6   8  ar  
  9   6  30  1   
 10   7   9  ar  
 11   7  31  1   
 12   8  10  ar  
 13   8  32  1   
 14   9  10  ar  
 15   9  33  1   
 16  10  11  1   
 17  11  12  2   
 18  11  13  am  
 19  13  14  1   
 20  13  15  1   
 21  14  16  1   
 22  14  34  1   
 23  14  35  1   
 24  15  17  1   
 25  15  36  1   
 26  15  37  1   
 27  16  17  1   
 28  16  18  1   
 29  16  38  1   
 30  17  19  1   
 31  17  39  1   
 32  18  20  1   
 33  18  21  1   
 34  18  22  1   
 35  19  23  1   
 36  19  40  1   
 37  19  41  1   
 38  20  42  1   
 39  21  24  ar  
 40  21  25  ar  
 41  22  23  1   
 42  22  43  1   
 43  22  44  1   
 44  23  45  1   
 45  23  46  1   
 46  24  26  ar  
 47  24  47  1   
 48  25  27  ar  
 49  25  48  1   
 50  26  28  ar  
 51  26  49  1   
 52  27  28  ar  
 53  27  50  1   
 54  28  51  1   
@<TRIPOS>SUBSTRUCTURE
  1 ****  14 GROUP 4 **** **** 0

# MOE 2024.06 (io_trps.svl 2023.06)
