@<TRIPOS>MOLECULE
NONAME
47 49 1 0 0 
SMALL
USER_CHARGES


@<TRIPOS>ATOM
  1 O        0.1090     0.0610     0.1050 O.2   1 <1>  -0.5700 
  2 C       -1.0190     0.4840     0.0320 C.2   1 <1>   0.5690 
  3 N       -2.0930    -0.3150     0.2350 N.am  1 <1>  -0.7300 
  4 C       -1.2370     1.9610    -0.2910 C.3   1 <1>  -0.0190 
  5 C       -2.0280    -1.7670     0.4630 C.3   1 <1>   0.2840 
  6 C       -1.9760     2.6970     0.8430 C.3   1 <1>  -0.1600 
  7 C       -1.9500     2.1590    -1.6520 C.3   1 <1>  -0.1600 
  8 C       -3.2630    -2.3890    -0.1610 C.ar  1 <1>  -0.1440 
  9 C       -2.0450     4.2190     0.5960 C.3   1 <1>   0.2000 
 10 C       -2.6600     3.5220    -1.7850 C.3   1 <1>  -0.1600 
 11 C       -4.3180    -2.8040     0.6230 C.ar  1 <1>  -0.1500 
 12 C       -3.3280    -2.5330    -1.5550 C.ar  1 <1>  -0.1500 
 13 O       -3.2450     4.6950     1.1530 O.3   1 <1>  -0.5600 
 14 C       -1.9980     4.5900    -0.9110 C.3   1 <1>   0.2000 
 15 C       -5.4480    -3.3670     0.0240 C.ar  1 <1>   0.0000 
 16 C       -4.4340    -3.0870    -2.1580 C.ar  1 <1>  -0.1500 
 17 C       -3.2080     4.9270     2.5270 C.3   1 <1>   0.0400 
 18 O       -2.6700     5.7790    -1.1070 O.3   1 <1>  -0.6800 
 19 C       -5.4990    -3.5050    -1.3580 C.ar  1 <1>  -0.1520 
 20 C       -6.6660    -3.8780     0.5200 C.2   1 <1>  -0.1500 
 21 N       -6.7000    -4.0780    -1.6890 N.pl3 1 <1>   0.0330 
 22 C       -7.4020    -4.2990    -0.5360 C.2   1 <1>  -0.3320 
 23 C       -8.7830    -4.9260    -0.5350 C.3   1 <1>  -0.0600 
 24 H       -3.0400     0.0480     0.1220 H     1 <1>   0.3700 
 25 H       -0.2580     2.4020    -0.3700 H     1 <1>   0.0800 
 26 H       -1.1370    -2.1750     0.0160 H     1 <1>   0.0800 
 27 H       -2.0010    -1.9600     1.5210 H     1 <1>   0.0800 
 28 H       -1.4710     2.5140     1.7750 H     1 <1>   0.0800 
 29 H       -2.9750     2.3030     0.9150 H     1 <1>   0.0800 
 30 H       -1.2150     2.0620    -2.4320 H     1 <1>   0.0800 
 31 H       -2.6810     1.3850    -1.8100 H     1 <1>   0.0800 
 32 H       -1.2170     4.7110     1.0780 H     1 <1>   0.0800 
 33 H       -3.6850     3.4140    -1.4720 H     1 <1>   0.0800 
 34 H       -2.6530     3.8340    -2.8150 H     1 <1>   0.0800 
 35 H       -4.3000    -2.7070     1.6930 H     1 <1>   0.1500 
 36 H       -2.4970    -2.2030    -2.1550 H     1 <1>   0.1500 
 37 H       -0.9790     4.7300    -1.2300 H     1 <1>   0.0800 
 38 H       -4.4860    -3.2000    -3.2260 H     1 <1>   0.1500 
 39 H       -4.1750     5.2900     2.8310 H     1 <1>   0.0800 
 40 H       -2.4600     5.6700     2.7430 H     1 <1>   0.0800 
 41 H       -2.9910     4.0080     3.0430 H     1 <1>   0.0800 
 42 H       -3.3680     5.8080    -0.4130 H     1 <1>   0.4000 
 43 H       -6.9220    -3.9070     1.5640 H     1 <1>   0.1500 
 44 H       -7.0060    -4.2990    -2.6410 H     1 <1>   0.2700 
 45 H       -9.1510    -5.0080     0.4720 H     1 <1>   0.0800 
 46 H       -8.7450    -5.9100    -0.9680 H     1 <1>   0.0800 
 47 H       -9.4660    -4.3180    -1.1010 H     1 <1>   0.0800 
@<TRIPOS>BOND
  1   1   2  2   
  2   2   3  am  
  3   2   4  1   
  4   3   5  1   
  5   3  24  1   
  6   4   6  1   
  7   4   7  1   
  8   4  25  1   
  9   5   8  1   
 10   5  26  1   
 11   5  27  1   
 12   6   9  1   
 13   6  28  1   
 14   6  29  1   
 15   7  10  1   
 16   7  30  1   
 17   7  31  1   
 18   8  11  ar  
 19   8  12  ar  
 20   9  13  1   
 21   9  14  1   
 22   9  32  1   
 23  10  14  1   
 24  10  33  1   
 25  10  34  1   
 26  11  15  ar  
 27  11  35  1   
 28  12  16  ar  
 29  12  36  1   
 30  13  17  1   
 31  14  18  1   
 32  14  37  1   
 33  15  19  ar  
 34  15  20  1   
 35  16  19  ar  
 36  16  38  1   
 37  17  39  1   
 38  17  40  1   
 39  17  41  1   
 40  18  42  1   
 41  19  21  1   
 42  20  22  2   
 43  20  43  1   
 44  21  22  1   
 45  21  44  1   
 46  22  23  1   
 47  23  45  1   
 48  23  46  1   
 49  23  47  1   
@<TRIPOS>SUBSTRUCTURE
  1 ****   3 GROUP 4 **** **** 0

# MOE 2024.06 (io_trps.svl 2023.06)
