@<TRIPOS>MOLECULE
NONAME
54 56 1 0 0 
SMALL
USER_CHARGES


@<TRIPOS>ATOM
  1 S        0.6700    -0.3700     0.2980 S.o2  1 <1>   1.3330 
  2 O        0.0980     0.4110     1.3720 O.2   1 <1>  -0.6500 
  3 O        1.3870    -1.5870     0.6020 O.2   1 <1>  -0.6500 
  4 N       -0.5640    -0.7510    -0.8030 N.am  1 <1>  -0.8490 
  5 C        1.7220     0.7180    -0.6630 C.3   1 <1>  -0.0550 
  6 C       -0.2370    -1.8820    -1.6780 C.3   1 <1>   0.1160 
  7 C       -1.8500    -0.9880    -0.1400 C.3   1 <1>   0.1160 
  8 C        2.8880     1.3130     0.1500 C.3   1 <1>  -0.0800 
  9 C        3.6250     2.3770    -0.6480 C.3   1 <1>   0.2200 
 10 C        3.9840     0.2760     0.4490 C.3   1 <1>   0.1200 
 11 N        4.1960     3.3630     0.2900 N.am  1 <1>  -0.7300 
 12 C        4.7530     1.5720    -1.2750 C.3   1 <1>   0.1200 
 13 O        5.1030     0.6350    -0.3070 O.3   1 <1>  -0.5600 
 14 C        3.9450     4.6970     0.2740 C.2   1 <1>   0.5690 
 15 O        3.1710     5.1830    -0.5170 O.2   1 <1>  -0.5700 
 16 C        4.6660     5.6050     1.2800 C.3   1 <1>   0.1710 
 17 N        6.0230     6.0710     0.8790 N.3   1 <1>  -0.8100 
 18 C        5.9520     6.8470    -0.3760 C.3   1 <1>   0.2530 
 19 C        6.9890     4.9580     0.7790 C.3   1 <1>   0.1100 
 20 C        7.1160     7.8180    -0.5040 C.ar  1 <1>  -0.1430 
 21 C        8.4480     5.4250     0.6820 C.3   1 <1>   0.1200 
 22 C        8.4230     7.3630    -0.6280 C.ar  1 <1>   0.0820 
 23 C        6.8780     9.1850    -0.5370 C.ar  1 <1>  -0.1500 
 24 O        8.7130     6.0490    -0.5570 O.3   1 <1>  -0.3630 
 25 C        9.4670     8.2540    -0.8190 C.ar  1 <1>  -0.1500 
 26 C        7.9220    10.0780    -0.7120 C.ar  1 <1>  -0.1500 
 27 C        9.2170     9.6140    -0.8590 C.ar  1 <1>  -0.1500 
 28 H        2.1060     0.1890    -1.5130 H     1 <1>   0.0800 
 29 H        1.1150     1.5250    -1.0260 H     1 <1>   0.0800 
 30 H       -1.0110    -2.0170    -2.4130 H     1 <1>   0.0800 
 31 H       -0.1400    -2.7880    -1.1010 H     1 <1>   0.0800 
 32 H        0.6910    -1.7000    -2.1910 H     1 <1>   0.0800 
 33 H       -2.6110    -1.2110    -0.8690 H     1 <1>   0.0800 
 34 H       -2.1540    -0.1080     0.4020 H     1 <1>   0.0800 
 35 H       -1.7690    -1.8090     0.5520 H     1 <1>   0.0800 
 36 H        2.4900     1.7250     1.0630 H     1 <1>   0.0800 
 37 H        3.0110     2.8660    -1.3870 H     1 <1>   0.0800 
 38 H        3.7020    -0.7250     0.1720 H     1 <1>   0.0800 
 39 H        4.2660     0.2910     1.4870 H     1 <1>   0.0800 
 40 H        4.8960     2.9720     0.9250 H     1 <1>   0.3700 
 41 H        5.6070     2.1760    -1.5250 H     1 <1>   0.0800 
 42 H        4.4110     1.0390    -2.1450 H     1 <1>   0.0800 
 43 H        4.7380     5.0880     2.2190 H     1 <1>   0.0800 
 44 H        4.0440     6.4670     1.4480 H     1 <1>   0.0800 
 45 H        5.9420     6.1840    -1.2240 H     1 <1>   0.0800 
 46 H        5.0350     7.4110    -0.3970 H     1 <1>   0.0800 
 47 H        6.9070     4.3550     1.6670 H     1 <1>   0.0800 
 48 H        6.7630     4.3340    -0.0690 H     1 <1>   0.0800 
 49 H        9.1030     4.5760     0.7510 H     1 <1>   0.0800 
 50 H        8.6830     6.1100     1.4790 H     1 <1>   0.0800 
 51 H        5.8750     9.5600    -0.4320 H     1 <1>   0.1500 
 52 H       10.4670     7.8770    -0.9290 H     1 <1>   0.1500 
 53 H        7.7240    11.1360    -0.7360 H     1 <1>   0.1500 
 54 H       10.0270    10.3070    -1.0020 H     1 <1>   0.1500 
@<TRIPOS>BOND
  1   1   2  2   
  2   1   3  2   
  3   1   4  am  
  4   1   5  1   
  5   4   6  1   
  6   4   7  1   
  7   5   8  1   
  8   5  28  1   
  9   5  29  1   
 10   6  30  1   
 11   6  31  1   
 12   6  32  1   
 13   7  33  1   
 14   7  34  1   
 15   7  35  1   
 16   8   9  1   
 17   8  10  1   
 18   8  36  1   
 19   9  11  1   
 20   9  12  1   
 21   9  37  1   
 22  10  13  1   
 23  10  38  1   
 24  10  39  1   
 25  11  14  am  
 26  11  40  1   
 27  12  13  1   
 28  12  41  1   
 29  12  42  1   
 30  14  15  2   
 31  14  16  1   
 32  16  17  1   
 33  16  43  1   
 34  16  44  1   
 35  17  18  1   
 36  17  19  1   
 37  18  20  1   
 38  18  45  1   
 39  18  46  1   
 40  19  21  1   
 41  19  47  1   
 42  19  48  1   
 43  20  22  ar  
 44  20  23  ar  
 45  21  24  1   
 46  21  49  1   
 47  21  50  1   
 48  22  24  1   
 49  22  25  ar  
 50  23  26  ar  
 51  23  51  1   
 52  25  27  ar  
 53  25  52  1   
 54  26  27  ar  
 55  26  53  1   
 56  27  54  1   
@<TRIPOS>SUBSTRUCTURE
  1 ****  11 GROUP 4 **** **** 0

# MOE 2024.06 (io_trps.svl 2023.06)
