@<TRIPOS>MOLECULE
NONAME
49 52 1 0 0 
SMALL
USER_CHARGES


@<TRIPOS>ATOM
  1 CL      -1.4320     2.0430     2.4000 Cl    1 <1>  -0.1770 
  2 C       -1.8590     2.0180     0.6940 C.ar  1 <1>   0.1770 
  3 C       -1.6510     3.1890    -0.0750 C.ar  1 <1>   0.4100 
  4 C       -2.3760     0.9060     0.1030 C.ar  1 <1>   0.2170 
  5 N       -1.9450     3.2300    -1.3630 N.ar  1 <1>  -0.6200 
  6 N       -1.1400     4.3020     0.4990 N.pl3 1 <1>  -0.8690 
  7 N       -2.6650     1.0020    -1.2220 N.ar  1 <1>  -0.1790 
  8 C       -2.6540    -0.4200     0.8000 C.3   1 <1>  -0.0970 
  9 C       -2.4460     2.1410    -1.9090 C.ar  1 <1>   0.7710 
 10 C       -0.8030     5.5970    -0.1390 C.3   1 <1>   0.2890 
 11 N       -2.7380     2.2080    -3.2040 N.pl3 1 <1>  -0.9000 
 12 C        0.7380     5.8490    -0.1000 C.3   1 <1>   0.0000 
 13 C       -1.6610     6.6480     0.5680 C.3   1 <1>  -0.2400 
 14 C        1.0910     7.2210    -0.7350 C.3   1 <1>  -0.1600 
 15 C        1.3220     5.8260     1.3410 C.3   1 <1>  -0.1600 
 16 C        1.4600     4.7490    -0.9260 C.3   1 <1>  -0.1600 
 17 C        2.6120     7.4300    -0.7480 C.3   1 <1>   0.2800 
 18 C        2.8480     6.0500     1.3270 C.3   1 <1>  -0.0800 
 19 C        2.9840     4.9650    -0.9500 C.3   1 <1>  -0.0800 
 20 O        2.8900     8.6490    -1.3170 O.3   1 <1>  -0.6800 
 21 C        3.1570     7.4160     0.6860 C.3   1 <1>  -0.1600 
 22 C        3.2880     6.3360    -1.5810 C.3   1 <1>  -0.1600 
 23 C        3.5160     4.9390     0.4950 C.3   1 <1>  -0.1600 
 24 H       -0.9040     4.2880     1.4960 H     1 <1>   0.4000 
 25 H       -3.0540     0.2210    -1.7420 H     1 <1>   0.4570 
 26 H       -2.3910    -0.3810     1.8420 H     1 <1>   0.0800 
 27 H       -2.0790    -1.2100     0.3470 H     1 <1>   0.0800 
 28 H       -3.6990    -0.6680     0.7350 H     1 <1>   0.0800 
 29 H       -1.1050     5.5760    -1.1720 H     1 <1>   0.0800 
 30 H       -3.1320     1.4930    -3.8180 H     1 <1>   0.4000 
 31 H       -2.5540     3.0980    -3.6800 H     1 <1>   0.4000 
 32 H       -1.3940     6.7420     1.6040 H     1 <1>   0.0800 
 33 H       -2.6970     6.3700     0.5010 H     1 <1>   0.0800 
 34 H       -1.5550     7.6060     0.0940 H     1 <1>   0.0800 
 35 H        0.6420     8.0170    -0.1720 H     1 <1>   0.0800 
 36 H        0.7180     7.2610    -1.7440 H     1 <1>   0.0800 
 37 H        1.1190     4.8790     1.8090 H     1 <1>   0.0800 
 38 H        0.8660     6.5920     1.9420 H     1 <1>   0.0800 
 39 H        1.0850     4.7470    -1.9350 H     1 <1>   0.0800 
 40 H        1.2580     3.7800    -0.5070 H     1 <1>   0.0800 
 41 H        3.2290     6.0260     2.3340 H     1 <1>   0.0800 
 42 H        3.4560     4.1880    -1.5270 H     1 <1>   0.0800 
 43 H        2.5260     9.3590    -0.7590 H     1 <1>   0.4000 
 44 H        2.7010     8.1970     1.2680 H     1 <1>   0.0800 
 45 H        4.2210     7.5750     0.6730 H     1 <1>   0.0800 
 46 H        4.3510     6.4980    -1.6030 H     1 <1>   0.0800 
 47 H        2.9190     6.3640    -2.5910 H     1 <1>   0.0800 
 48 H        3.3170     3.9790     0.9400 H     1 <1>   0.0800 
 49 H        4.5840     5.0790     0.4910 H     1 <1>   0.0800 
@<TRIPOS>BOND
  1   1   2  1   
  2   2   3  ar  
  3   2   4  ar  
  4   3   5  ar  
  5   3   6  1   
  6   4   7  ar  
  7   4   8  1   
  8   5   9  ar  
  9   6  10  1   
 10   6  24  1   
 11   7   9  ar  
 12   7  25  1   
 13   8  26  1   
 14   8  27  1   
 15   8  28  1   
 16   9  11  1   
 17  10  12  1   
 18  10  13  1   
 19  10  29  1   
 20  11  30  1   
 21  11  31  1   
 22  12  14  1   
 23  12  15  1   
 24  12  16  1   
 25  13  32  1   
 26  13  33  1   
 27  13  34  1   
 28  14  17  1   
 29  14  35  1   
 30  14  36  1   
 31  15  18  1   
 32  15  37  1   
 33  15  38  1   
 34  16  19  1   
 35  16  39  1   
 36  16  40  1   
 37  17  20  1   
 38  17  21  1   
 39  17  22  1   
 40  18  21  1   
 41  18  23  1   
 42  18  41  1   
 43  19  22  1   
 44  19  23  1   
 45  19  42  1   
 46  20  43  1   
 47  21  44  1   
 48  21  45  1   
 49  22  46  1   
 50  22  47  1   
 51  23  48  1   
 52  23  49  1   
@<TRIPOS>SUBSTRUCTURE
  1 ****   6 GROUP 4 **** **** 0

# MOE 2024.06 (io_trps.svl 2023.06)
