@<TRIPOS>MOLECULE
NONAME
46 47 1 0 0 
SMALL
USER_CHARGES


@<TRIPOS>ATOM
  1 S       -0.0800    -0.1010    -0.1920 S.o2  1 <1>   1.0900 
  2 O       -0.1600     0.9430    -1.1850 O.2   1 <1>  -0.6500 
  3 O        0.4770    -1.3870    -0.5380 O.2   1 <1>  -0.6500 
  4 C       -1.7190    -0.3620     0.4620 C.3   1 <1>  -0.0550 
  5 C        0.8270     0.5340     1.2040 C.3   1 <1>  -0.1350 
  6 C       -2.6310    -0.9650    -0.6020 C.3   1 <1>   0.1100 
  7 N       -3.9740    -1.2030    -0.0400 N.3   1 <1>  -0.8100 
  8 C       -4.6370    -2.3260    -0.7380 C.3   1 <1>   0.1100 
  9 C       -4.7760     0.0300    -0.0810 C.3   1 <1>   0.1100 
 10 C       -5.7300    -2.9750     0.1240 C.3   1 <1>   0.1400 
 11 C       -6.1050    -0.1040     0.6660 C.3   1 <1>  -0.1600 
 12 N       -7.0810    -2.3390    -0.0080 N.am  1 <1>  -0.6600 
 13 C       -7.1720    -0.8570    -0.1340 C.3   1 <1>   0.1400 
 14 C       -8.2250    -3.0940    -0.1730 C.2   1 <1>   0.5440 
 15 O       -9.1920    -2.5860    -0.7080 O.2   1 <1>  -0.5700 
 16 C       -8.3120    -4.4730     0.2700 C.ar  1 <1>   0.0860 
 17 C       -8.8450    -5.4710    -0.5260 C.ar  1 <1>  -0.1500 
 18 C       -7.8840    -4.8910     1.5230 C.ar  1 <1>  -0.1500 
 19 C       -8.9060    -6.7770    -0.0750 C.ar  1 <1>   0.3930 
 20 C       -7.9850    -6.2190     1.8880 C.ar  1 <1>   0.1600 
 21 O       -9.4350    -7.6910    -0.9150 O.3   1 <1>  -0.3630 
 22 N       -8.4780    -7.1740     1.1190 N.ar  1 <1>  -0.6200 
 23 C       -9.5630    -9.0460    -0.5300 C.3   1 <1>   0.0400 
 24 H       -2.1230     0.5730     0.7950 H     1 <1>   0.0800 
 25 H       -1.6770    -1.0380     1.2930 H     1 <1>   0.0800 
 26 H        1.8430     0.7320     0.9190 H     1 <1>   0.0800 
 27 H        0.8340    -0.1780     2.0060 H     1 <1>   0.0800 
 28 H        0.3900     1.4500     1.5540 H     1 <1>   0.0800 
 29 H       -2.1880    -1.8960    -0.9170 H     1 <1>   0.0800 
 30 H       -2.6880    -0.3200    -1.4650 H     1 <1>   0.0800 
 31 H       -3.9060    -3.0940    -0.9230 H     1 <1>   0.0800 
 32 H       -5.0330    -2.0180    -1.6910 H     1 <1>   0.0800 
 33 H       -4.9560     0.3200    -1.1030 H     1 <1>   0.0800 
 34 H       -4.2220     0.8240     0.3880 H     1 <1>   0.0800 
 35 H       -5.4210    -2.9580     1.1550 H     1 <1>   0.0800 
 36 H       -5.8020    -4.0040    -0.1800 H     1 <1>   0.0800 
 37 H       -6.4770     0.8930     0.8190 H     1 <1>   0.0800 
 38 H       -5.9630    -0.5400     1.6380 H     1 <1>   0.0800 
 39 H       -7.1180    -0.5880    -1.1750 H     1 <1>   0.0800 
 40 H       -8.1390    -0.5470     0.2260 H     1 <1>   0.0800 
 41 H       -9.2200    -5.2330    -1.5050 H     1 <1>   0.1500 
 42 H       -7.4770    -4.1740     2.2120 H     1 <1>   0.1500 
 43 H       -7.6430    -6.5150     2.8660 H     1 <1>   0.1500 
 44 H      -10.0110    -9.5880    -1.3430 H     1 <1>   0.0800 
 45 H      -10.1900    -9.1010     0.3420 H     1 <1>   0.0800 
 46 H       -8.5860    -9.4410    -0.3150 H     1 <1>   0.0800 
@<TRIPOS>BOND
  1   1   2  2   
  2   1   3  2   
  3   1   4  1   
  4   1   5  1   
  5   4   6  1   
  6   4  24  1   
  7   4  25  1   
  8   5  26  1   
  9   5  27  1   
 10   5  28  1   
 11   6   7  1   
 12   6  29  1   
 13   6  30  1   
 14   7   8  1   
 15   7   9  1   
 16   8  10  1   
 17   8  31  1   
 18   8  32  1   
 19   9  11  1   
 20   9  33  1   
 21   9  34  1   
 22  10  12  1   
 23  10  35  1   
 24  10  36  1   
 25  11  13  1   
 26  11  37  1   
 27  11  38  1   
 28  12  13  1   
 29  12  14  am  
 30  13  39  1   
 31  13  40  1   
 32  14  15  2   
 33  14  16  1   
 34  16  17  ar  
 35  16  18  ar  
 36  17  19  ar  
 37  17  41  1   
 38  18  20  ar  
 39  18  42  1   
 40  19  21  1   
 41  19  22  ar  
 42  20  22  ar  
 43  20  43  1   
 44  21  23  1   
 45  23  44  1   
 46  23  45  1   
 47  23  46  1   
@<TRIPOS>SUBSTRUCTURE
  1 ****  10 GROUP 4 **** **** 0

# MOE 2024.06 (io_trps.svl 2023.06)
