@<TRIPOS>MOLECULE
NONAME
51 54 1 0 0 
SMALL
USER_CHARGES


@<TRIPOS>ATOM
  1 O       -1.6470    -0.3530     1.4590 O.2   1 <1>  -0.5700 
  2 C       -1.7570     0.4210     0.5380 C.2   1 <1>   0.5690 
  3 N       -2.3870     0.0680    -0.6190 N.am  1 <1>  -0.7300 
  4 C       -1.2030     1.8550     0.6710 C.3   1 <1>   0.0610 
  5 C       -2.9820    -1.2540    -0.9590 C.3   1 <1>   0.2200 
  6 C       -0.5880     2.3860    -0.6370 C.3   1 <1>  -0.1600 
  7 C       -0.0100     1.9450     1.6380 C.3   1 <1>  -0.1600 
  8 C       -2.3300     2.7980     1.1420 C.3   1 <1>  -0.2400 
  9 C       -4.0330    -1.7090     0.0600 C.3   1 <1>  -0.0800 
 10 C       -1.9470    -2.3840    -0.9630 C.3   1 <1>   0.1200 
 11 C        0.4180     3.4680    -0.2330 C.3   1 <1>  -0.1600 
 12 C        0.7910     3.1830     1.2260 C.3   1 <1>  -0.1600 
 13 C       -3.4160    -2.9920     0.6240 C.3   1 <1>   0.1200 
 14 C       -5.3920    -1.9800    -0.6160 C.3   1 <1>  -0.0170 
 15 O       -2.5910    -3.4710    -0.3840 O.3   1 <1>  -0.5600 
 16 C       -6.5440    -2.3940     0.3100 C.ar  1 <1>  -0.1440 
 17 C       -7.7640    -2.8560    -0.2440 C.ar  1 <1>   0.0000 
 18 C       -6.4700    -2.3340     1.6740 C.ar  1 <1>  -0.1500 
 19 C       -8.7980    -3.2380     0.6470 C.ar  1 <1>   0.3100 
 20 C       -8.0230    -2.9590    -1.6320 C.ar  1 <1>  -0.1500 
 21 C       -7.5550    -2.7310     2.4650 C.ar  1 <1>   0.1600 
 22 N       -8.6780    -3.1700     1.9960 N.ar  1 <1>  -0.6200 
 23 C      -10.0130    -3.7080     0.1220 C.ar  1 <1>  -0.1500 
 24 C       -9.2190    -3.4200    -2.1110 C.ar  1 <1>  -0.1500 
 25 C      -10.2280    -3.8020    -1.2250 C.ar  1 <1>  -0.1500 
 26 H       -2.4570     0.7730    -1.3520 H     1 <1>   0.3700 
 27 H       -3.4160    -1.1900    -1.9410 H     1 <1>   0.0800 
 28 H       -0.0480     1.5880    -1.1200 H     1 <1>   0.0800 
 29 H       -1.3270     2.7670    -1.3190 H     1 <1>   0.0800 
 30 H       -0.3210     1.9840     2.6670 H     1 <1>   0.0800 
 31 H        0.6130     1.0760     1.5080 H     1 <1>   0.0800 
 32 H       -1.9790     3.8080     1.2570 H     1 <1>   0.0800 
 33 H       -2.7130     2.4630     2.0910 H     1 <1>   0.0800 
 34 H       -3.1400     2.7970     0.4350 H     1 <1>   0.0800 
 35 H       -4.1570    -0.9780     0.8370 H     1 <1>   0.0800 
 36 H       -1.0920    -2.1460    -0.3550 H     1 <1>   0.0800 
 37 H       -1.6400    -2.6540    -1.9570 H     1 <1>   0.0800 
 38 H        1.2850     3.4450    -0.8700 H     1 <1>   0.0800 
 39 H       -0.0380     4.4410    -0.3050 H     1 <1>   0.0800 
 40 H        0.5130     4.0220     1.8420 H     1 <1>   0.0800 
 41 H        1.8480     3.0090     1.3360 H     1 <1>   0.0800 
 42 H       -4.1430    -3.7460     0.8740 H     1 <1>   0.0800 
 43 H       -2.8000    -2.7760     1.4820 H     1 <1>   0.0800 
 44 H       -5.2420    -2.7590    -1.3440 H     1 <1>   0.0800 
 45 H       -5.6970    -1.0920    -1.1400 H     1 <1>   0.0800 
 46 H       -5.5980    -1.9880     2.1950 H     1 <1>   0.1500 
 47 H       -7.2660    -2.6690    -2.3350 H     1 <1>   0.1500 
 48 H       -7.4450    -2.6670     3.5340 H     1 <1>   0.1500 
 49 H      -10.7750    -3.9950     0.8240 H     1 <1>   0.1500 
 50 H       -9.3990    -3.4930    -3.1700 H     1 <1>   0.1500 
 51 H      -11.1650    -4.1640    -1.6130 H     1 <1>   0.1500 
@<TRIPOS>BOND
  1   1   2  2   
  2   2   3  am  
  3   2   4  1   
  4   3   5  1   
  5   3  26  1   
  6   4   6  1   
  7   4   7  1   
  8   4   8  1   
  9   5   9  1   
 10   5  10  1   
 11   5  27  1   
 12   6  11  1   
 13   6  28  1   
 14   6  29  1   
 15   7  12  1   
 16   7  30  1   
 17   7  31  1   
 18   8  32  1   
 19   8  33  1   
 20   8  34  1   
 21   9  13  1   
 22   9  14  1   
 23   9  35  1   
 24  10  15  1   
 25  10  36  1   
 26  10  37  1   
 27  11  12  1   
 28  11  38  1   
 29  11  39  1   
 30  12  40  1   
 31  12  41  1   
 32  13  15  1   
 33  13  42  1   
 34  13  43  1   
 35  14  16  1   
 36  14  44  1   
 37  14  45  1   
 38  16  17  ar  
 39  16  18  ar  
 40  17  19  ar  
 41  17  20  ar  
 42  18  21  ar  
 43  18  46  1   
 44  19  22  ar  
 45  19  23  ar  
 46  20  24  ar  
 47  20  47  1   
 48  21  22  ar  
 49  21  48  1   
 50  23  25  ar  
 51  23  49  1   
 52  24  25  ar  
 53  24  50  1   
 54  25  51  1   
@<TRIPOS>SUBSTRUCTURE
  1 ****   9 GROUP 4 **** **** 0

# MOE 2024.06 (io_trps.svl 2023.06)
