@<TRIPOS>MOLECULE
NONAME
19 19 1 0 0 
SMALL
USER_CHARGES


@<TRIPOS>ATOM
  1 F       -0.4680     0.1740    -1.1860 F     1 <1>  -0.3400 
  2 C       -1.4490    -0.1640    -0.3580 C.3   1 <1>   0.5200 
  3 C       -1.2430    -1.6170     0.0460 C.2   1 <1>  -0.0400 
  4 C       -2.7480     0.0350    -1.1370 C.3   1 <1>  -0.2400 
  5 C       -1.3390     0.7830     0.8370 C.3   1 <1>  -0.2400 
  6 O       -2.0880    -2.1810     0.8630 O.3   1 <1>  -0.0190 
  7 C       -0.3170    -2.5330    -0.2690 C.2   1 <1>  -0.1500 
  8 N       -1.7830    -3.4170     1.1130 N.2   1 <1>  -0.4100 
  9 C       -0.6930    -3.6860     0.4370 C.2   1 <1>   0.0560 
 10 C        0.0680    -4.9380     0.3670 C.2   1 <1>   1.0330 
 11 O        1.0940    -4.9970    -0.3430 O.co2 1 <1>  -0.9000 
 12 O       -0.2630    -5.9650     0.9920 O.co2 1 <1>  -0.9000 
 13 H       -2.7660    -0.6230    -1.9860 H     1 <1>   0.0800 
 14 H       -2.8380     1.0540    -1.4650 H     1 <1>   0.0800 
 15 H       -3.5870    -0.2020    -0.5090 H     1 <1>   0.0800 
 16 H       -0.3960     0.6340     1.3320 H     1 <1>   0.0800 
 17 H       -2.1250     0.5730     1.5380 H     1 <1>   0.0800 
 18 H       -1.4230     1.8050     0.5170 H     1 <1>   0.0800 
 19 H        0.5440    -2.4650    -0.9090 H     1 <1>   0.1500 
@<TRIPOS>BOND
  1   1   2  1   
  2   2   3  1   
  3   2   4  1   
  4   2   5  1   
  5   3   6  1   
  6   3   7  2   
  7   4  13  1   
  8   4  14  1   
  9   4  15  1   
 10   5  16  1   
 11   5  17  1   
 12   5  18  1   
 13   6   8  1   
 14   7   9  1   
 15   7  19  1   
 16   8   9  2   
 17   9  10  1   
 18  10  11  ar  
 19  10  12  ar  
@<TRIPOS>SUBSTRUCTURE
  1 ****   7 GROUP 4 **** **** 0

# MOE 2024.06 (io_trps.svl 2023.06)
