@<TRIPOS>MOLECULE
NONAME
43 45 1 0 0 
SMALL
USER_CHARGES


@<TRIPOS>ATOM
  1 F        0.5630    -1.4650    -1.1690 F     1 <1>  -0.3400 
  2 C        1.3730    -0.7140    -0.4440 C.3   1 <1>   0.6800 
  3 F        0.7850    -0.6170     0.7400 F     1 <1>  -0.3400 
  4 C        1.4700     0.6730    -1.0570 C.3   1 <1>  -0.1600 
  5 C        2.7100    -1.4150    -0.2730 C.3   1 <1>  -0.1600 
  6 C        2.3990     1.5250    -0.2060 C.3   1 <1>   0.3430 
  7 C        3.6230    -0.5370     0.5680 C.3   1 <1>   0.3430 
  8 N        3.7050     0.8270    -0.0300 N.4   1 <1>  -0.9590 
  9 C        4.7660     1.6340     0.7060 C.3   1 <1>   0.4600 
 10 C        4.6860     3.0930     0.2550 C.ar  1 <1>  -0.1430 
 11 C        6.1610     1.0120     0.4650 C.2   1 <1>   0.9060 
 12 C        4.1920     4.0560     1.0970 C.ar  1 <1>  -0.1500 
 13 C        5.1000     3.4600    -1.0360 C.ar  1 <1>  -0.1500 
 14 O        6.3200     0.4500    -0.6330 O.co2 1 <1>  -0.9000 
 15 O        6.9730     0.9380     1.3890 O.co2 1 <1>  -0.9000 
 16 C        4.0690     5.4000     0.6940 C.ar  1 <1>   0.0000 
 17 C        4.9930     4.7570    -1.4530 C.ar  1 <1>  -0.1500 
 18 C        4.4720     5.7570    -0.6100 C.ar  1 <1>   0.0000 
 19 C        3.5580     6.4030     1.5420 C.ar  1 <1>  -0.1500 
 20 C        4.3420     7.0990    -1.0150 C.ar  1 <1>  -0.1500 
 21 C        3.4410     7.7000     1.1240 C.ar  1 <1>  -0.1500 
 22 C        3.8390     8.0580    -0.1780 C.ar  1 <1>   0.0830 
 23 O        3.7530     9.3230    -0.6580 O.3   1 <1>  -0.3630 
 24 C        3.2820    10.3890     0.1360 C.3   1 <1>   0.0400 
 25 H        0.4950     1.1220    -1.1010 H     1 <1>   0.0800 
 26 H        1.8640     0.6050    -2.0540 H     1 <1>   0.0800 
 27 H        3.1650    -1.5800    -1.2320 H     1 <1>   0.0800 
 28 H        2.5670    -2.3650     0.2080 H     1 <1>   0.0800 
 29 H        1.9510     1.6980     0.7600 H     1 <1>   0.0800 
 30 H        2.5470     2.4800    -0.6850 H     1 <1>   0.0800 
 31 H        4.6070    -0.9810     0.6100 H     1 <1>   0.0800 
 32 H        3.2380    -0.4700     1.5740 H     1 <1>   0.0800 
 33 H        4.1970     0.7030    -0.9380 H     1 <1>   0.4500 
 34 H        4.5840     1.5900     1.7640 H     1 <1>   0.0800 
 35 H        3.8840     3.8070     2.0970 H     1 <1>   0.1500 
 36 H        5.5150     2.7150    -1.6980 H     1 <1>   0.1500 
 37 H        5.3150     5.0380    -2.4400 H     1 <1>   0.1500 
 38 H        3.2580     6.1290     2.5380 H     1 <1>   0.1500 
 39 H        4.6490     7.3740    -2.0060 H     1 <1>   0.1500 
 40 H        3.0480     8.4390     1.7950 H     1 <1>   0.1500 
 41 H        3.3190    11.2860    -0.4550 H     1 <1>   0.0800 
 42 H        3.9190    10.4920     0.9970 H     1 <1>   0.0800 
 43 H        2.2660    10.1860     0.4280 H     1 <1>   0.0800 
@<TRIPOS>BOND
  1   1   2  1   
  2   2   3  1   
  3   2   4  1   
  4   2   5  1   
  5   4   6  1   
  6   4  25  1   
  7   4  26  1   
  8   5   7  1   
  9   5  27  1   
 10   5  28  1   
 11   6   8  1   
 12   6  29  1   
 13   6  30  1   
 14   7   8  1   
 15   7  31  1   
 16   7  32  1   
 17   8   9  1   
 18   8  33  1   
 19   9  10  1   
 20   9  11  1   
 21   9  34  1   
 22  10  12  ar  
 23  10  13  ar  
 24  11  14  ar  
 25  11  15  ar  
 26  12  16  ar  
 27  12  35  1   
 28  13  17  ar  
 29  13  36  1   
 30  16  18  ar  
 31  16  19  ar  
 32  17  18  ar  
 33  17  37  1   
 34  18  20  ar  
 35  19  21  ar  
 36  19  38  1   
 37  20  22  ar  
 38  20  39  1   
 39  21  22  ar  
 40  21  40  1   
 41  22  23  1   
 42  23  24  1   
 43  24  41  1   
 44  24  42  1   
 45  24  43  1   
@<TRIPOS>SUBSTRUCTURE
  1 ****  10 GROUP 4 **** **** 0

# MOE 2024.06 (io_trps.svl 2023.06)
