@<TRIPOS>MOLECULE
NONAME
45 46 1 0 0 
SMALL
USER_CHARGES


@<TRIPOS>ATOM
  1 S        1.2900    -1.2810     2.2760 S.o2  1 <1>   1.4470 
  2 O        2.4320    -2.1590     2.1540 O.2   1 <1>  -0.6500 
  3 O        0.9150    -0.7550     3.5650 O.2   1 <1>  -0.6500 
  4 N       -0.0550    -2.1500     1.7790 N.am  1 <1>  -0.9140 
  5 C        1.3680     0.0510     1.0480 C.ar  1 <1>  -0.0090 
  6 C        0.2250    -3.2400     0.8510 C.3   1 <1>   0.2760 
  7 C        0.2780     0.8860     0.8400 C.ar  1 <1>  -0.1500 
  8 C        2.5090     0.2670     0.2780 C.ar  1 <1>  -0.1500 
  9 C       -1.0630    -3.6600     0.1590 C.3   1 <1>  -0.0800 
 10 C        0.5390    -4.5160     1.6290 C.3   1 <1>   0.1200 
 11 C        0.3470     1.8850    -0.1100 C.ar  1 <1>   0.1900 
 12 C        2.5680     1.2760    -0.6730 C.ar  1 <1>  -0.1500 
 13 C       -1.6960    -4.6380     1.1590 C.3   1 <1>   0.1200 
 14 C       -1.9870    -2.4990    -0.2650 C.3   1 <1>  -0.0550 
 15 O       -0.7000    -4.9570     2.0880 O.3   1 <1>  -0.5600 
 16 F       -0.7030     2.6430    -0.2790 F     1 <1>  -0.1900 
 17 C        1.4780     2.1040    -0.8820 C.ar  1 <1>  -0.1430 
 18 S       -3.3940    -3.0420    -1.2290 S.o2  1 <1>   1.3330 
 19 C        1.5270     3.2150    -1.9210 C.3   1 <1>  -0.0970 
 20 O       -4.3020    -3.7720    -0.3750 O.2   1 <1>  -0.6500 
 21 O       -2.8790    -3.6660    -2.4270 O.2   1 <1>  -0.6500 
 22 N       -4.1430    -1.5830    -1.6670 N.am  1 <1>  -0.8490 
 23 C       -4.9070    -1.7050    -2.9120 C.3   1 <1>   0.1160 
 24 C       -4.9950    -1.0250    -0.6120 C.3   1 <1>   0.1160 
 25 H       -0.3920    -2.6020     2.6330 H     1 <1>   0.4200 
 26 H        0.9960    -2.9730     0.1460 H     1 <1>   0.0800 
 27 H       -0.6220     0.7600     1.4160 H     1 <1>   0.1500 
 28 H        3.3700    -0.3660     0.4240 H     1 <1>   0.1500 
 29 H       -0.7990    -4.2220    -0.7210 H     1 <1>   0.0800 
 30 H        1.2020    -4.3640     2.4620 H     1 <1>   0.0800 
 31 H        0.9420    -5.2730     0.9780 H     1 <1>   0.0800 
 32 H        3.4690     1.4110    -1.2470 H     1 <1>   0.1500 
 33 H       -2.0290    -5.5430     0.6790 H     1 <1>   0.0800 
 34 H       -2.5150    -4.1930     1.6990 H     1 <1>   0.0800 
 35 H       -1.4180    -1.8050    -0.8520 H     1 <1>   0.0800 
 36 H       -2.3370    -1.9800     0.6060 H     1 <1>   0.0800 
 37 H        2.4710     3.2220    -2.4360 H     1 <1>   0.0800 
 38 H        1.3910     4.1690    -1.4430 H     1 <1>   0.0800 
 39 H        0.7430     3.0770    -2.6440 H     1 <1>   0.0800 
 40 H       -5.3510    -0.7600    -3.1730 H     1 <1>   0.0800 
 41 H       -5.6830    -2.4450    -2.8050 H     1 <1>   0.0800 
 42 H       -4.2560    -2.0030    -3.7180 H     1 <1>   0.0800 
 43 H       -5.3740    -0.0640    -0.9140 H     1 <1>   0.0800 
 44 H       -4.4300    -0.8960     0.2940 H     1 <1>   0.0800 
 45 H       -5.8250    -1.6820    -0.4110 H     1 <1>   0.0800 
@<TRIPOS>BOND
  1   1   2  2   
  2   1   3  2   
  3   1   4  am  
  4   1   5  1   
  5   4   6  1   
  6   4  25  1   
  7   5   7  ar  
  8   5   8  ar  
  9   6   9  1   
 10   6  10  1   
 11   6  26  1   
 12   7  11  ar  
 13   7  27  1   
 14   8  12  ar  
 15   8  28  1   
 16   9  13  1   
 17   9  14  1   
 18   9  29  1   
 19  10  15  1   
 20  10  30  1   
 21  10  31  1   
 22  11  16  1   
 23  11  17  ar  
 24  12  17  ar  
 25  12  32  1   
 26  13  15  1   
 27  13  33  1   
 28  13  34  1   
 29  14  18  1   
 30  14  35  1   
 31  14  36  1   
 32  17  19  1   
 33  18  20  2   
 34  18  21  2   
 35  18  22  am  
 36  19  37  1   
 37  19  38  1   
 38  19  39  1   
 39  22  23  1   
 40  22  24  1   
 41  23  40  1   
 42  23  41  1   
 43  23  42  1   
 44  24  43  1   
 45  24  44  1   
 46  24  45  1   
@<TRIPOS>SUBSTRUCTURE
  1 ****  14 GROUP 4 **** **** 0

# MOE 2024.06 (io_trps.svl 2023.06)
