@<TRIPOS>MOLECULE
NONAME
53 56 1 0 0 
SMALL
USER_CHARGES


@<TRIPOS>ATOM
  1 O        0.5100     0.5820     2.7990 O.2   1 <1>  -0.5700 
  2 C        1.2040     0.5040     1.8000 C.2   1 <1>   0.5440 
  3 N        1.2770     1.5930     0.9640 N.am  1 <1>  -0.6600 
  4 C        1.9480    -0.7010     1.5390 C.ar  1 <1>   0.0860 
  5 C        0.5640     2.8610     1.2190 C.3   1 <1>   0.1400 
  6 C        2.0180     1.6360    -0.3140 C.3   1 <1>   0.1400 
  7 C        1.5520    -1.6280     0.5540 C.ar  1 <1>   0.4100 
  8 C        3.1020    -0.9660     2.2610 C.ar  1 <1>  -0.1500 
  9 C        1.0980     3.8210     0.1610 C.3   1 <1>  -0.1600 
 10 C        1.5470     2.9200    -0.9880 C.3   1 <1>  -0.1600 
 11 N        2.2610    -2.7160     0.2470 N.ar  1 <1>  -0.6200 
 12 N        0.3820    -1.4710    -0.1700 N.pl3 1 <1>  -0.8380 
 13 C        3.8150    -2.1020     1.9550 C.ar  1 <1>  -0.1500 
 14 C        3.3570    -2.9290     0.9460 C.ar  1 <1>   0.1600 
 15 C       -0.9220    -1.4820     0.5560 C.3   1 <1>   0.3900 
 16 C        0.3250    -1.8760    -1.6040 C.3   1 <1>   0.1290 
 17 C       -1.5790    -2.8480     0.4580 C.2   1 <1>  -0.1810 
 18 C       -2.9250    -3.1050     0.2310 C.2   1 <1>   0.1390 
 19 C       -1.0220    -4.0710     0.5730 C.2   1 <1>  -0.3020 
 20 N       -3.1840    -4.3740     0.1990 N.2   1 <1>  -0.7070 
 21 N       -1.9930    -5.0000     0.4070 N.pl3 1 <1>   0.5930 
 22 C       -1.8340    -6.4180     0.4310 C.ar  1 <1>  -0.0230 
 23 C       -0.6300    -7.0130     0.0590 C.ar  1 <1>  -0.1500 
 24 C       -2.8820    -7.2430     0.8310 C.ar  1 <1>  -0.1500 
 25 C       -0.4700    -8.3880     0.0900 C.ar  1 <1>  -0.1440 
 26 C       -2.7290    -8.6160     0.8650 C.ar  1 <1>  -0.1500 
 27 C       -1.5240    -9.1880     0.4970 C.ar  1 <1>  -0.1500 
 28 C        0.8500    -9.0190    -0.3150 C.3   1 <1>  -0.0970 
 29 H        0.7580     3.2150     2.2170 H     1 <1>   0.0800 
 30 H       -0.4920     2.6990     1.0910 H     1 <1>   0.0800 
 31 H        1.8000     0.7730    -0.9200 H     1 <1>   0.0800 
 32 H        3.0730     1.6820    -0.1090 H     1 <1>   0.0800 
 33 H        3.4220    -0.2920     3.0360 H     1 <1>   0.1500 
 34 H        1.9440     4.3480     0.5650 H     1 <1>   0.0800 
 35 H        0.3520     4.5350    -0.1430 H     1 <1>   0.0800 
 36 H        0.7070     2.6910    -1.6210 H     1 <1>   0.0800 
 37 H        2.3230     3.3680    -1.5830 H     1 <1>   0.0800 
 38 H        4.7170    -2.3470     2.4880 H     1 <1>   0.1500 
 39 H        3.9250    -3.8120     0.7060 H     1 <1>   0.1500 
 40 H       -1.5640    -0.7280     0.1360 H     1 <1>   0.0800 
 41 H       -0.7760    -1.2530     1.5970 H     1 <1>   0.0800 
 42 H        1.2740    -1.6840    -2.0750 H     1 <1>   0.0800 
 43 H       -0.4380    -1.3180    -2.1160 H     1 <1>   0.0800 
 44 H        0.1120    -2.9280    -1.6820 H     1 <1>   0.0800 
 45 H       -3.6770    -2.3450     0.0950 H     1 <1>   0.1500 
 46 H        0.0060    -4.3220     0.7580 H     1 <1>   0.1500 
 47 H        0.1910    -6.3940    -0.2610 H     1 <1>   0.1500 
 48 H       -3.8240    -6.8030     1.1150 H     1 <1>   0.1500 
 49 H       -3.5480    -9.2410     1.1770 H     1 <1>   0.1500 
 50 H       -1.4120   -10.2570     0.5280 H     1 <1>   0.1500 
 51 H        1.4130    -8.3530    -0.9440 H     1 <1>   0.0800 
 52 H        0.6750    -9.9300    -0.8590 H     1 <1>   0.0800 
 53 H        1.4300    -9.2430     0.5620 H     1 <1>   0.0800 
@<TRIPOS>BOND
  1   1   2  2   
  2   2   3  am  
  3   2   4  1   
  4   3   5  1   
  5   3   6  1   
  6   4   7  ar  
  7   4   8  ar  
  8   5   9  1   
  9   5  29  1   
 10   5  30  1   
 11   6  10  1   
 12   6  31  1   
 13   6  32  1   
 14   7  11  ar  
 15   7  12  1   
 16   8  13  ar  
 17   8  33  1   
 18   9  10  1   
 19   9  34  1   
 20   9  35  1   
 21  10  36  1   
 22  10  37  1   
 23  11  14  ar  
 24  12  15  1   
 25  12  16  1   
 26  13  14  ar  
 27  13  38  1   
 28  14  39  1   
 29  15  17  1   
 30  15  40  1   
 31  15  41  1   
 32  16  42  1   
 33  16  43  1   
 34  16  44  1   
 35  17  18  1   
 36  17  19  2   
 37  18  20  2   
 38  18  45  1   
 39  19  21  1   
 40  19  46  1   
 41  20  21  1   
 42  21  22  1   
 43  22  23  ar  
 44  22  24  ar  
 45  23  25  ar  
 46  23  47  1   
 47  24  26  ar  
 48  24  48  1   
 49  25  27  ar  
 50  25  28  1   
 51  26  27  ar  
 52  26  49  1   
 53  27  50  1   
 54  28  51  1   
 55  28  52  1   
 56  28  53  1   
@<TRIPOS>SUBSTRUCTURE
  1 ****  12 GROUP 4 **** **** 0

# MOE 2024.06 (io_trps.svl 2023.06)
