@<TRIPOS>MOLECULE
NONAME
45 47 1 0 0 
SMALL
USER_CHARGES


@<TRIPOS>ATOM
  1 O       -2.9190     1.5680    -1.8020 O.2   1 <1>  -0.5700 
  2 C       -2.4780     1.4050    -0.6920 C.2   1 <1>   0.5690 
  3 N       -2.4090     0.1790    -0.1210 N.am  1 <1>  -0.7300 
  4 C       -1.9870     2.6030     0.0950 C.3   1 <1>  -0.0990 
  5 C       -2.7830    -1.0870    -0.7860 C.3   1 <1>   0.2200 
  6 C       -0.4850     2.8660    -0.1130 C.3   1 <1>  -0.0800 
  7 C       -3.9860    -1.6860    -0.0790 C.3   1 <1>  -0.0800 
  8 C       -1.7100    -2.1360    -0.5160 C.3   1 <1>   0.1200 
  9 C        0.4260     1.7550     0.4070 C.3   1 <1>  -0.1600 
 10 C        0.0080     4.1050     0.6300 C.3   1 <1>  -0.1600 
 11 C       -3.3370    -2.4380     1.0890 C.3   1 <1>   0.1200 
 12 C       -4.7780    -2.6240    -1.0100 C.3   1 <1>  -0.0160 
 13 O       -2.0030    -2.6730     0.7390 O.3   1 <1>  -0.5600 
 14 C        1.7900     2.4200     0.5950 C.3   1 <1>  -0.1600 
 15 C        1.5230     3.9220     0.7420 C.3   1 <1>  -0.1600 
 16 C       -5.9960    -3.2080    -0.3100 C.ar  1 <1>  -0.1440 
 17 C       -6.0360    -4.5180     0.1230 C.ar  1 <1>  -0.1500 
 18 C       -7.1270    -2.4530    -0.0740 C.ar  1 <1>  -0.1500 
 19 C       -7.1710    -4.9940     0.7580 C.ar  1 <1>   0.1600 
 20 C       -8.2110    -3.0270     0.5710 C.ar  1 <1>   0.1600 
 21 N       -8.2590    -4.2790     0.9940 N.ar  1 <1>  -0.6200 
 22 H       -1.9950     0.0640     0.8060 H     1 <1>   0.3700 
 23 H       -2.5420     3.4640    -0.2300 H     1 <1>   0.0800 
 24 H       -2.1980     2.4540     1.1380 H     1 <1>   0.0800 
 25 H       -2.9420    -0.9280    -1.8390 H     1 <1>   0.0800 
 26 H       -0.2940     3.0020    -1.1660 H     1 <1>   0.0800 
 27 H       -4.6480    -0.9170     0.2780 H     1 <1>   0.0800 
 28 H       -0.7170    -1.7230    -0.5130 H     1 <1>   0.0800 
 29 H       -1.7700    -2.9340    -1.2350 H     1 <1>   0.0800 
 30 H        0.0720     1.4070     1.3620 H     1 <1>   0.0800 
 31 H        0.4790     0.9240    -0.2760 H     1 <1>   0.0800 
 32 H       -0.2490     5.0130     0.1120 H     1 <1>   0.0800 
 33 H       -0.4160     4.1320     1.6200 H     1 <1>   0.0800 
 34 H       -3.8120    -3.3780     1.3050 H     1 <1>   0.0800 
 35 H       -3.3350    -1.8300     1.9770 H     1 <1>   0.0800 
 36 H       -4.1470    -3.4220    -1.3610 H     1 <1>   0.0800 
 37 H       -5.1100    -2.0720    -1.8720 H     1 <1>   0.0800 
 38 H        2.2960     2.0230     1.4590 H     1 <1>   0.0800 
 39 H        2.4020     2.2480    -0.2740 H     1 <1>   0.0800 
 40 H        2.0140     4.4540    -0.0550 H     1 <1>   0.0800 
 41 H        1.8860     4.2970     1.6840 H     1 <1>   0.0800 
 42 H       -5.1980    -5.1740    -0.0250 H     1 <1>   0.1500 
 43 H       -7.1760    -1.4260    -0.3850 H     1 <1>   0.1500 
 44 H       -7.1850    -6.0180     1.0900 H     1 <1>   0.1500 
 45 H       -9.0840    -2.4220     0.7460 H     1 <1>   0.1500 
@<TRIPOS>BOND
  1   1   2  2   
  2   2   3  am  
  3   2   4  1   
  4   3   5  1   
  5   3  22  1   
  6   4   6  1   
  7   4  23  1   
  8   4  24  1   
  9   5   7  1   
 10   5   8  1   
 11   5  25  1   
 12   6   9  1   
 13   6  10  1   
 14   6  26  1   
 15   7  11  1   
 16   7  12  1   
 17   7  27  1   
 18   8  13  1   
 19   8  28  1   
 20   8  29  1   
 21   9  14  1   
 22   9  30  1   
 23   9  31  1   
 24  10  15  1   
 25  10  32  1   
 26  10  33  1   
 27  11  13  1   
 28  11  34  1   
 29  11  35  1   
 30  12  16  1   
 31  12  36  1   
 32  12  37  1   
 33  14  15  1   
 34  14  38  1   
 35  14  39  1   
 36  15  40  1   
 37  15  41  1   
 38  16  17  ar  
 39  16  18  ar  
 40  17  19  ar  
 41  17  42  1   
 42  18  20  ar  
 43  18  43  1   
 44  19  21  ar  
 45  19  44  1   
 46  20  21  ar  
 47  20  45  1   
@<TRIPOS>SUBSTRUCTURE
  1 ****   5 GROUP 4 **** **** 0

# MOE 2024.06 (io_trps.svl 2023.06)
