@<TRIPOS>MOLECULE
NONAME
50 53 1 0 0 
SMALL
USER_CHARGES


@<TRIPOS>ATOM
  1 O       -1.1950    -1.4290     1.9750 O.2   1 <1>  -0.5700 
  2 C       -2.2090    -1.7810     1.4120 C.2   1 <1>   0.6900 
  3 N       -3.3000    -0.9620     1.2380 N.am  1 <1>  -0.4770 
  4 N       -2.2730    -3.0380     0.9350 N.am  1 <1>  -0.4900 
  5 C       -4.4380    -1.4080     0.5520 C.ar  1 <1>   0.4270 
  6 C       -3.2520     0.4380     1.7720 C.3   1 <1>   0.0600 
  7 C       -3.3480    -3.5580     0.2980 C.2   1 <1>   0.5440 
  8 N       -5.4130    -0.5140     0.4080 N.ar  1 <1>  -0.6200 
  9 C       -4.5040    -2.7260     0.0560 C.ar  1 <1>   0.0860 
 10 O       -3.2560    -4.7220    -0.0180 O.2   1 <1>  -0.5700 
 11 C       -6.4850    -0.8910    -0.2460 C.ar  1 <1>   0.1660 
 12 C       -5.6620    -3.1220    -0.6350 C.ar  1 <1>   0.0860 
 13 C       -6.6440    -2.1530    -0.7710 C.ar  1 <1>  -0.1500 
 14 C       -7.5710     0.1520    -0.4060 C.3   1 <1>  -0.0960 
 15 C       -5.9420    -4.4170    -1.2260 C.2   1 <1>   0.5440 
 16 O       -6.4090    -4.4730    -2.3460 O.2   1 <1>  -0.5700 
 17 N       -5.7840    -5.5830    -0.5410 N.am  1 <1>  -0.7300 
 18 C       -5.9760    -6.9350    -1.1190 C.3   1 <1>   0.2200 
 19 C       -7.2020    -7.6190    -0.5360 C.3   1 <1>  -0.0800 
 20 C       -4.8710    -7.8540    -0.6120 C.3   1 <1>   0.1200 
 21 C       -6.6710    -8.2110     0.7720 C.3   1 <1>   0.1200 
 22 C       -8.4490    -6.7310    -0.3710 C.3   1 <1>  -0.0170 
 23 O       -5.2780    -8.2700     0.6570 O.3   1 <1>  -0.5600 
 24 C       -9.6310    -7.5420     0.1360 C.ar  1 <1>  -0.1440 
 25 C       -9.9810    -7.5710     1.4710 C.ar  1 <1>  -0.1500 
 26 C      -10.4130    -8.2950    -0.7150 C.ar  1 <1>  -0.1500 
 27 C      -11.0630    -8.3340     1.8780 C.ar  1 <1>   0.1600 
 28 C      -11.4750    -9.0230    -0.2060 C.ar  1 <1>   0.1600 
 29 N      -11.8180    -9.0620     1.0720 N.ar  1 <1>  -0.6200 
 30 H       -1.4640    -3.6330     1.0860 H     1 <1>   0.3700 
 31 H       -4.0820     0.5980     2.4390 H     1 <1>   0.0800 
 32 H       -3.3200     1.1360     0.9570 H     1 <1>   0.0800 
 33 H       -2.3410     0.6260     2.3120 H     1 <1>   0.0800 
 34 H       -7.5480    -2.3970    -1.3030 H     1 <1>   0.1500 
 35 H       -8.4070    -0.2350    -0.9590 H     1 <1>   0.0800 
 36 H       -7.1770     1.0050    -0.9280 H     1 <1>   0.0800 
 37 H       -7.9130     0.4690     0.5630 H     1 <1>   0.0800 
 38 H       -5.1010    -5.5930     0.2270 H     1 <1>   0.3700 
 39 H       -5.9980    -6.8920    -2.1960 H     1 <1>   0.0800 
 40 H       -7.4580    -8.4420    -1.1810 H     1 <1>   0.0800 
 41 H       -3.9160    -7.3620    -0.5460 H     1 <1>   0.0800 
 42 H       -4.7910    -8.7280    -1.2330 H     1 <1>   0.0800 
 43 H       -7.0530    -9.2020     0.9500 H     1 <1>   0.0800 
 44 H       -6.8970    -7.5770     1.6110 H     1 <1>   0.0800 
 45 H       -8.6980    -6.2890    -1.3210 H     1 <1>   0.0800 
 46 H       -8.2480    -5.9270     0.3150 H     1 <1>   0.0800 
 47 H       -9.4250    -7.0090     2.1980 H     1 <1>   0.1500 
 48 H      -10.2070    -8.3220    -1.7700 H     1 <1>   0.1500 
 49 H      -11.3220    -8.3450     2.9230 H     1 <1>   0.1500 
 50 H      -12.0740    -9.6040    -0.8850 H     1 <1>   0.1500 
@<TRIPOS>BOND
  1   1   2  2   
  2   2   3  am  
  3   2   4  am  
  4   3   5  1   
  5   3   6  1   
  6   4   7  am  
  7   4  30  1   
  8   5   8  ar  
  9   5   9  ar  
 10   6  31  1   
 11   6  32  1   
 12   6  33  1   
 13   7   9  1   
 14   7  10  2   
 15   8  11  ar  
 16   9  12  ar  
 17  11  13  ar  
 18  11  14  1   
 19  12  13  ar  
 20  12  15  1   
 21  13  34  1   
 22  14  35  1   
 23  14  36  1   
 24  14  37  1   
 25  15  16  2   
 26  15  17  am  
 27  17  18  1   
 28  17  38  1   
 29  18  19  1   
 30  18  20  1   
 31  18  39  1   
 32  19  21  1   
 33  19  22  1   
 34  19  40  1   
 35  20  23  1   
 36  20  41  1   
 37  20  42  1   
 38  21  23  1   
 39  21  43  1   
 40  21  44  1   
 41  22  24  1   
 42  22  45  1   
 43  22  46  1   
 44  24  25  ar  
 45  24  26  ar  
 46  25  27  ar  
 47  25  47  1   
 48  26  28  ar  
 49  26  48  1   
 50  27  29  ar  
 51  27  49  1   
 52  28  29  ar  
 53  28  50  1   
@<TRIPOS>SUBSTRUCTURE
  1 ****  17 GROUP 4 **** **** 0

# MOE 2024.06 (io_trps.svl 2023.06)
