@<TRIPOS>MOLECULE
NONAME
50 52 1 0 0 
SMALL
USER_CHARGES


@<TRIPOS>ATOM
  1 S        0.0600    -0.6940     1.5860 S.o2  1 <1>   1.4470 
  2 O        0.9020    -1.6940     2.2110 O.2   1 <1>  -0.6500 
  3 O       -0.9440    -0.0760     2.4300 O.2   1 <1>  -0.6500 
  4 N       -0.7780    -1.5110     0.3540 N.am  1 <1>  -0.8490 
  5 C        1.1060     0.4850     0.6780 C.ar  1 <1>  -0.0090 
  6 C       -1.7330    -0.6790    -0.3730 C.3   1 <1>   0.1960 
  7 C       -1.5070    -2.6830     0.8400 C.3   1 <1>   0.1960 
  8 C        0.7530     1.8240     0.5020 C.ar  1 <1>   0.0820 
  9 C        2.2890     0.0430     0.0980 C.ar  1 <1>  -0.1500 
 10 C       -3.1020    -0.9430     0.2560 C.3   1 <1>  -0.0800 
 11 C       -3.0080    -2.4200     0.6590 C.3   1 <1>  -0.0800 
 12 O       -0.4080     2.2660     1.0410 O.3   1 <1>  -0.3630 
 13 C        1.5840     2.6740    -0.2230 C.ar  1 <1>  -0.1500 
 14 C        3.1390     0.8700    -0.6390 C.ar  1 <1>  -0.1790 
 15 C       -4.3430    -0.5570    -0.6010 C.3   1 <1>   0.2800 
 16 C       -3.6380    -3.3370    -0.4020 C.3   1 <1>  -0.1600 
 17 C       -0.7340     3.6350     1.1240 C.3   1 <1>   0.0400 
 18 C        2.7530     2.2010    -0.7800 C.ar  1 <1>  -0.1500 
 19 C        4.3710     0.3750    -1.2390 C.2   1 <1>   0.9790 
 20 O       -4.0430    -0.6460    -1.9480 O.3   1 <1>  -0.6800 
 21 C       -5.4910    -1.5480    -0.3340 C.3   1 <1>  -0.1600 
 22 C       -4.8270     0.8870    -0.3420 C.3   1 <1>  -0.1600 
 23 C       -5.1270    -3.0190    -0.6270 C.3   1 <1>  -0.1600 
 24 O        5.0890     1.1290    -1.9210 O.co2 1 <1>  -0.9000 
 25 O        4.7270    -0.8060    -1.0810 O.co2 1 <1>  -0.9000 
 26 C       -3.7950     1.9960    -0.6120 C.3   1 <1>  -0.2400 
 27 H       -1.4680     0.3620    -0.3510 H     1 <1>   0.0800 
 28 H       -1.7250    -1.0040    -1.3990 H     1 <1>   0.0800 
 29 H       -1.1990    -3.5450     0.2740 H     1 <1>   0.0800 
 30 H       -1.2910    -2.8720     1.8790 H     1 <1>   0.0800 
 31 H        2.5750    -0.9910     0.2130 H     1 <1>   0.1500 
 32 H       -3.1520    -0.3800     1.1700 H     1 <1>   0.0800 
 33 H       -3.5120    -2.5800     1.5970 H     1 <1>   0.0800 
 34 H        1.3390     3.7070    -0.3740 H     1 <1>   0.1500 
 35 H       -3.1110    -3.1980    -1.3320 H     1 <1>   0.0800 
 36 H       -3.5270    -4.3690    -0.1180 H     1 <1>   0.0800 
 37 H       -1.6450     3.7260     1.6890 H     1 <1>   0.0800 
 38 H       -0.8800     4.0210     0.1310 H     1 <1>   0.0800 
 39 H        0.0620     4.1540     1.6280 H     1 <1>   0.0800 
 40 H        3.3920     2.8620    -1.3430 H     1 <1>   0.1500 
 41 H       -4.8460    -0.4650    -2.4680 H     1 <1>   0.4000 
 42 H       -5.7520    -1.4710     0.7080 H     1 <1>   0.0800 
 43 H       -6.3670    -1.2730    -0.8940 H     1 <1>   0.0800 
 44 H       -5.6990     1.0760    -0.9430 H     1 <1>   0.0800 
 45 H       -5.1370     0.9660     0.6860 H     1 <1>   0.0800 
 46 H       -5.7290    -3.6540     0.0000 H     1 <1>   0.0800 
 47 H       -5.3710    -3.2510    -1.6490 H     1 <1>   0.0800 
 48 H       -3.3880     1.9090    -1.6050 H     1 <1>   0.0800 
 49 H       -2.9930     1.9450     0.1000 H     1 <1>   0.0800 
 50 H       -4.2620     2.9600    -0.5180 H     1 <1>   0.0800 
@<TRIPOS>BOND
  1   1   2  2   
  2   1   3  2   
  3   1   4  am  
  4   1   5  1   
  5   4   6  1   
  6   4   7  1   
  7   5   8  ar  
  8   5   9  ar  
  9   6  10  1   
 10   6  27  1   
 11   6  28  1   
 12   7  11  1   
 13   7  29  1   
 14   7  30  1   
 15   8  12  1   
 16   8  13  ar  
 17   9  14  ar  
 18   9  31  1   
 19  10  11  1   
 20  10  15  1   
 21  10  32  1   
 22  11  16  1   
 23  11  33  1   
 24  12  17  1   
 25  13  18  ar  
 26  13  34  1   
 27  14  18  ar  
 28  14  19  1   
 29  15  20  1   
 30  15  21  1   
 31  15  22  1   
 32  16  23  1   
 33  16  35  1   
 34  16  36  1   
 35  17  37  1   
 36  17  38  1   
 37  17  39  1   
 38  18  40  1   
 39  19  24  ar  
 40  19  25  ar  
 41  20  41  1   
 42  21  23  1   
 43  21  42  1   
 44  21  43  1   
 45  22  26  1   
 46  22  44  1   
 47  22  45  1   
 48  23  46  1   
 49  23  47  1   
 50  26  48  1   
 51  26  49  1   
 52  26  50  1   
@<TRIPOS>SUBSTRUCTURE
  1 ****   6 GROUP 4 **** **** 0

# MOE 2024.06 (io_trps.svl 2023.06)
