@<TRIPOS>MOLECULE
NONAME
58 62 1 0 0 
SMALL
USER_CHARGES


@<TRIPOS>ATOM
  1 O       -1.3700     0.1010     0.9850 O.2   1 <1>  -0.5700 
  2 C       -2.0380     0.6970     0.1600 C.2   1 <1>   0.7160 
  3 N       -3.0750     0.0040    -0.4100 N.am  1 <1>  -0.5100 
  4 C       -1.7550     2.0580    -0.1740 C.2   1 <1>  -0.0860 
  5 C       -4.3610    -0.1330     0.3590 C.3   1 <1>   0.2250 
  6 C       -3.0480    -1.4980    -0.5470 C.3   1 <1>   0.2250 
  7 C       -2.6900     3.0600    -0.4580 C.2   1 <1>   0.3720 
  8 C       -0.5640     2.7130    -0.2550 C.2   1 <1>   0.0870 
  9 C       -3.9410    -1.5820     0.7170 C.3   1 <1>   0.4720 
 10 N       -2.1130     4.1860    -0.6840 N.2   1 <1>  -0.4100 
 11 N       -4.0790     2.8970    -0.4850 N.pl3 1 <1>  -0.8210 
 12 O       -0.8350     3.9580    -0.5550 O.3   1 <1>  -0.0190 
 13 C        0.8090     2.3030    -0.0890 C.ar  1 <1>   0.0530 
 14 N       -5.0380    -2.6090     0.6680 N.4   1 <1>  -0.9280 
 15 C       -4.6510     2.8630    -1.8710 C.3   1 <1>   0.2090 
 16 C       -4.8340     3.8420     0.4070 C.3   1 <1>   0.2090 
 17 C        1.7550     3.1840     0.4340 C.ar  1 <1>  -0.1500 
 18 C        1.2500     1.0290    -0.4510 C.ar  1 <1>  -0.1500 
 19 C       -6.0230    -2.3830     1.7680 C.3   1 <1>   0.3430 
 20 C       -4.4690    -3.9880     0.7240 C.3   1 <1>   0.3430 
 21 C       -4.9960     4.2630    -2.4120 C.3   1 <1>   0.1200 
 22 C       -5.1920     5.1740    -0.2810 C.3   1 <1>   0.1200 
 23 C        3.0770     2.8130     0.5960 C.ar  1 <1>  -0.1500 
 24 C        2.5700     0.6510    -0.2910 C.ar  1 <1>  -0.1500 
 25 C       -7.1820    -3.3730     1.6320 C.3   1 <1>  -0.1600 
 26 C       -5.5920    -5.0150     0.5640 C.3   1 <1>  -0.1600 
 27 O       -5.8160     4.9460    -1.5110 O.3   1 <1>  -0.5600 
 28 C        3.4880     1.5430     0.2340 C.ar  1 <1>  -0.1500 
 29 C       -6.6890    -4.8260     1.6200 C.3   1 <1>  -0.1600 
 30 H       -5.2110    -0.0670    -0.2980 H     1 <1>   0.0000 
 31 H       -4.4010     0.5270     1.2070 H     1 <1>   0.0000 
 32 H       -2.0630    -1.9090    -0.4150 H     1 <1>   0.0000 
 33 H       -3.5380    -1.8090    -1.4530 H     1 <1>   0.0000 
 34 H       -3.3720    -1.6390     1.6280 H     1 <1>   0.0000 
 35 H       -5.5390    -2.5130    -0.2240 H     1 <1>   0.4500 
 36 H       -5.5450     2.2660    -1.8660 H     1 <1>   0.0800 
 37 H       -3.9490     2.3940    -2.5400 H     1 <1>   0.0800 
 38 H       -4.2500     4.0500     1.2870 H     1 <1>   0.0800 
 39 H       -5.7440     3.3660     0.7260 H     1 <1>   0.0800 
 40 H        1.4490     4.1750     0.7210 H     1 <1>   0.1500 
 41 H        0.5560     0.3230    -0.8650 H     1 <1>   0.1500 
 42 H       -6.4070    -1.3760     1.7260 H     1 <1>   0.0800 
 43 H       -5.5420    -2.5240     2.7230 H     1 <1>   0.0800 
 44 H       -3.9760    -4.1410     1.6710 H     1 <1>   0.0800 
 45 H       -3.7440    -4.1260    -0.0620 H     1 <1>   0.0800 
 46 H       -5.5260     4.1820    -3.3430 H     1 <1>   0.0800 
 47 H       -4.1010     4.8390    -2.5740 H     1 <1>   0.0800 
 48 H       -4.3080     5.7660    -0.4460 H     1 <1>   0.0800 
 49 H       -5.8710     5.7370     0.3330 H     1 <1>   0.0800 
 50 H        3.7870     3.5110     1.0040 H     1 <1>   0.1500 
 51 H        2.8860    -0.3380    -0.5740 H     1 <1>   0.1500 
 52 H       -7.7300    -3.1630     0.7290 H     1 <1>   0.0800 
 53 H       -7.8600    -3.2360     2.4570 H     1 <1>   0.0800 
 54 H       -5.1790    -6.0050     0.6560 H     1 <1>   0.0800 
 55 H       -6.0140    -4.9360    -0.4230 H     1 <1>   0.0800 
 56 H        4.5160     1.2500     0.3600 H     1 <1>   0.1500 
 57 H       -7.5130    -5.4910     1.4160 H     1 <1>   0.0800 
 58 H       -6.2990    -5.0800     2.5920 H     1 <1>   0.0800 
@<TRIPOS>BOND
  1   1   2  2   
  2   2   3  am  
  3   2   4  1   
  4   3   5  1   
  5   3   6  1   
  6   4   7  1   
  7   4   8  2   
  8   5   9  1   
  9   5  30  1   
 10   5  31  1   
 11   6   9  1   
 12   6  32  1   
 13   6  33  1   
 14   7  10  2   
 15   7  11  1   
 16   8  12  1   
 17   8  13  1   
 18   9  14  1   
 19   9  34  1   
 20  10  12  1   
 21  11  15  1   
 22  11  16  1   
 23  13  17  ar  
 24  13  18  ar  
 25  14  19  1   
 26  14  20  1   
 27  14  35  1   
 28  15  21  1   
 29  15  36  1   
 30  15  37  1   
 31  16  22  1   
 32  16  38  1   
 33  16  39  1   
 34  17  23  ar  
 35  17  40  1   
 36  18  24  ar  
 37  18  41  1   
 38  19  25  1   
 39  19  42  1   
 40  19  43  1   
 41  20  26  1   
 42  20  44  1   
 43  20  45  1   
 44  21  27  1   
 45  21  46  1   
 46  21  47  1   
 47  22  27  1   
 48  22  48  1   
 49  22  49  1   
 50  23  28  ar  
 51  23  50  1   
 52  24  28  ar  
 53  24  51  1   
 54  25  29  1   
 55  25  52  1   
 56  25  53  1   
 57  26  29  1   
 58  26  54  1   
 59  26  55  1   
 60  28  56  1   
 61  29  57  1   
 62  29  58  1   
@<TRIPOS>SUBSTRUCTURE
  1 ****   2 GROUP 4 **** **** 0

# MOE 2024.06 (io_trps.svl 2023.06)
