@<TRIPOS>MOLECULE
NONAME
50 51 1 0 0 
SMALL
USER_CHARGES


@<TRIPOS>ATOM
  1 O       -0.0140     1.0490    -0.0310 O.2   1 <1>  -0.5700 
  2 C       -0.2530     2.2240    -0.1860 C.2   1 <1>   0.5690 
  3 N       -1.4000     2.8350     0.2550 N.am  1 <1>  -0.6600 
  4 C        0.7850     3.0630    -0.9240 C.3   1 <1>   0.1810 
  5 C       -1.6320     4.2980    -0.0040 C.3   1 <1>   0.3640 
  6 C       -2.4560     2.1730     1.0700 C.3   1 <1>   0.2200 
  7 O        0.8170     4.3820    -0.4450 O.3   1 <1>  -0.5600 
  8 C       -2.8320     4.4570    -0.9430 C.ar  1 <1>  -0.1440 
  9 C       -0.4150     5.0760    -0.5810 C.3   1 <1>   0.2610 
 10 C       -1.8880     1.7520     2.4240 C.3   1 <1>  -0.2400 
 11 C       -3.0840     0.9950     0.3230 C.3   1 <1>  -0.2400 
 12 C       -3.8130     5.3960    -0.6560 C.ar  1 <1>  -0.1500 
 13 C       -2.9580     3.6850    -2.0910 C.ar  1 <1>  -0.1500 
 14 C       -0.3220     6.4540     0.0860 C.2   1 <1>   0.5690 
 15 C       -4.9010     5.5570    -1.4960 C.ar  1 <1>  -0.1500 
 16 C       -4.0460     3.8440    -2.9320 C.ar  1 <1>  -0.1500 
 17 O       -1.2980     7.1660     0.1350 O.2   1 <1>  -0.5700 
 18 N        0.8650     6.8460     0.6220 N.am  1 <1>  -0.7300 
 19 C       -5.0190     4.7810    -2.6350 C.ar  1 <1>  -0.1500 
 20 C        1.1540     8.1490     1.2500 C.3   1 <1>   0.1400 
 21 C        2.3810     8.7600     0.5790 C.3   1 <1>  -0.1600 
 22 C        2.6880    10.1360     1.1610 C.3   1 <1>   0.1200 
 23 O        3.8330    10.6090     0.5360 O.3   1 <1>  -0.5600 
 24 C        4.2240    11.8760     0.9540 C.3   1 <1>   0.0400 
 25 H        0.5680     3.0780    -1.9760 H     1 <1>   0.0800 
 26 H        1.7600     2.6360    -0.7720 H     1 <1>   0.0800 
 27 H       -1.8850     4.7470     0.9410 H     1 <1>   0.0800 
 28 H       -3.2440     2.8840     1.2560 H     1 <1>   0.0800 
 29 H       -0.5690     5.2410    -1.6320 H     1 <1>   0.0800 
 30 H       -1.1420     0.9870     2.3060 H     1 <1>   0.0800 
 31 H       -2.6740     1.3610     3.0430 H     1 <1>   0.0800 
 32 H       -1.4510     2.5990     2.9230 H     1 <1>   0.0800 
 33 H       -2.3730     0.2030     0.1750 H     1 <1>   0.0800 
 34 H       -3.4620     1.3170    -0.6290 H     1 <1>   0.0800 
 35 H       -3.9050     0.6020     0.8940 H     1 <1>   0.0800 
 36 H       -3.7340     6.0170     0.2210 H     1 <1>   0.1500 
 37 H       -2.2150     2.9470    -2.3360 H     1 <1>   0.1500 
 38 H       -5.6540     6.2900    -1.2640 H     1 <1>   0.1500 
 39 H       -4.1360     3.2390    -3.8170 H     1 <1>   0.1500 
 40 H        1.6450     6.1830     0.5500 H     1 <1>   0.3700 
 41 H       -5.8650     4.9070    -3.2870 H     1 <1>   0.1500 
 42 H        0.3060     8.8050     1.1360 H     1 <1>   0.0800 
 43 H        1.3360     8.0030     2.3010 H     1 <1>   0.0800 
 44 H        2.1950     8.8650    -0.4760 H     1 <1>   0.0800 
 45 H        3.2310     8.1190     0.7300 H     1 <1>   0.0800 
 46 H        2.8760    10.0720     2.2200 H     1 <1>   0.0800 
 47 H        1.8790    10.8210     0.9680 H     1 <1>   0.0800 
 48 H        5.1140    12.1450     0.4130 H     1 <1>   0.0800 
 49 H        4.4330    11.8540     2.0090 H     1 <1>   0.0800 
 50 H        3.4400    12.5800     0.7350 H     1 <1>   0.0800 
@<TRIPOS>BOND
  1   1   2  2   
  2   2   3  am  
  3   2   4  1   
  4   3   5  1   
  5   3   6  1   
  6   4   7  1   
  7   4  25  1   
  8   4  26  1   
  9   5   8  1   
 10   5   9  1   
 11   5  27  1   
 12   6  10  1   
 13   6  11  1   
 14   6  28  1   
 15   7   9  1   
 16   8  12  ar  
 17   8  13  ar  
 18   9  14  1   
 19   9  29  1   
 20  10  30  1   
 21  10  31  1   
 22  10  32  1   
 23  11  33  1   
 24  11  34  1   
 25  11  35  1   
 26  12  15  ar  
 27  12  36  1   
 28  13  16  ar  
 29  13  37  1   
 30  14  17  2   
 31  14  18  am  
 32  15  19  ar  
 33  15  38  1   
 34  16  19  ar  
 35  16  39  1   
 36  18  20  1   
 37  18  40  1   
 38  19  41  1   
 39  20  21  1   
 40  20  42  1   
 41  20  43  1   
 42  21  22  1   
 43  21  44  1   
 44  21  45  1   
 45  22  23  1   
 46  22  46  1   
 47  22  47  1   
 48  23  24  1   
 49  24  48  1   
 50  24  49  1   
 51  24  50  1   
@<TRIPOS>SUBSTRUCTURE
  1 ****   9 GROUP 4 **** **** 0

# MOE 2024.06 (io_trps.svl 2023.06)
