@<TRIPOS>MOLECULE
NONAME
42 44 1 0 0 
SMALL
USER_CHARGES


@<TRIPOS>ATOM
  1 S        0.5370    -0.0940    -0.1030 S.3   1 <1>  -0.0800 
  2 C       -0.8010     0.9800    -0.4630 C.2   1 <1>  -0.0450 
  3 C       -0.5870    -1.2780     0.5120 C.2   1 <1>   0.1980 
  4 C       -1.9340     0.3360    -0.1020 C.2   1 <1>   0.0460 
  5 C       -0.5440     2.2620    -1.0650 C.2   1 <1>   0.7150 
  6 N       -1.8020    -0.9160     0.4560 N.2   1 <1>  -0.5650 
  7 C       -0.0290    -2.5810     1.0350 C.3   1 <1>  -0.0600 
  8 C       -3.3510     0.8520    -0.2530 C.3   1 <1>  -0.0590 
  9 O       -1.1630     2.5930    -2.0560 O.2   1 <1>  -0.5700 
 10 N        0.4000     3.1430    -0.5670 N.am  1 <1>  -0.6600 
 11 C        0.8800     3.0710     0.8650 C.3   1 <1>   0.2200 
 12 C        0.7810     4.3280    -1.4040 C.3   1 <1>   0.1400 
 13 C        0.6410     4.3780     1.6400 C.3   1 <1>   0.1200 
 14 C        2.3720     2.6580     0.9330 C.3   1 <1>   0.3430 
 15 C        2.0130     5.1160    -0.9190 C.3   1 <1>  -0.0800 
 16 O        1.7100     5.2580     1.4670 O.3   1 <1>  -0.5600 
 17 N        3.0840     2.8520    -0.3790 N.4   1 <1>  -0.9590 
 18 C        1.6940     6.0000     0.2950 C.3   1 <1>   0.1200 
 19 C        3.3050     4.2950    -0.7200 C.3   1 <1>   0.3430 
 20 C        4.3600     2.0800    -0.4260 C.3   1 <1>   0.2630 
 21 H       -0.8340    -3.2100     1.3690 H     1 <1>   0.0800 
 22 H        0.6320    -2.3950     1.8610 H     1 <1>   0.0800 
 23 H        0.5070    -3.0890     0.2550 H     1 <1>   0.0800 
 24 H       -3.3640     1.8330    -0.6910 H     1 <1>   0.0800 
 25 H       -3.8270     0.8920     0.7100 H     1 <1>   0.0800 
 26 H       -3.9080     0.1860    -0.8860 H     1 <1>   0.0800 
 27 H        0.3080     2.3250     1.3880 H     1 <1>   0.0800 
 28 H        0.9650     3.9860    -2.4090 H     1 <1>   0.0800 
 29 H       -0.0670     4.9930    -1.4560 H     1 <1>   0.0800 
 30 H        0.5960     4.1600     2.6930 H     1 <1>   0.0800 
 31 H       -0.2850     4.8510     1.3560 H     1 <1>   0.0800 
 32 H        2.4120     1.6170     1.2050 H     1 <1>   0.0800 
 33 H        2.8670     3.2130     1.7130 H     1 <1>   0.0800 
 34 H        2.2300     5.8170    -1.7060 H     1 <1>   0.0800 
 35 H        2.4260     2.4860    -1.0870 H     1 <1>   0.4500 
 36 H        0.7390     6.4900     0.1980 H     1 <1>   0.0800 
 37 H        2.4490     6.7620     0.4010 H     1 <1>   0.0800 
 38 H        3.9000     4.7610     0.0490 H     1 <1>   0.0800 
 39 H        3.8690     4.3430    -1.6370 H     1 <1>   0.0800 
 40 H        5.0460     2.4460     0.3210 H     1 <1>   0.0800 
 41 H        4.8200     2.1770    -1.3960 H     1 <1>   0.0800 
 42 H        4.1710     1.0350    -0.2400 H     1 <1>   0.0800 
@<TRIPOS>BOND
  1   1   2  1   
  2   1   3  1   
  3   2   4  2   
  4   2   5  1   
  5   3   6  2   
  6   3   7  1   
  7   4   6  1   
  8   4   8  1   
  9   5   9  2   
 10   5  10  am  
 11   7  21  1   
 12   7  22  1   
 13   7  23  1   
 14   8  24  1   
 15   8  25  1   
 16   8  26  1   
 17  10  11  1   
 18  10  12  1   
 19  11  13  1   
 20  11  14  1   
 21  11  27  1   
 22  12  15  1   
 23  12  28  1   
 24  12  29  1   
 25  13  16  1   
 26  13  30  1   
 27  13  31  1   
 28  14  17  1   
 29  14  32  1   
 30  14  33  1   
 31  15  18  1   
 32  15  19  1   
 33  15  34  1   
 34  16  18  1   
 35  17  19  1   
 36  17  20  1   
 37  17  35  1   
 38  18  36  1   
 39  18  37  1   
 40  19  38  1   
 41  19  39  1   
 42  20  40  1   
 43  20  41  1   
 44  20  42  1   
@<TRIPOS>SUBSTRUCTURE
  1 ****  10 GROUP 4 **** **** 0

# MOE 2024.06 (io_trps.svl 2023.06)
