@<TRIPOS>MOLECULE
NONAME
41 43 1 0 0 
SMALL
USER_CHARGES


@<TRIPOS>ATOM
  1 F        1.6820    -2.1050     3.8520 F     1 <1>  -0.3400 
  2 C        2.0870    -1.6020     2.6920 C.3   1 <1>   1.1640 
  3 F        1.7570    -0.3170     2.7050 F     1 <1>  -0.3400 
  4 F        3.4140    -1.6450     2.7120 F     1 <1>  -0.3400 
  5 C        1.4940    -2.3320     1.4840 C.ar  1 <1>  -0.1440 
  6 C        0.2830    -2.9900     1.5410 C.ar  1 <1>  -0.1500 
  7 C        2.1370    -2.3680     0.2550 C.ar  1 <1>  -0.1500 
  8 C       -0.2230    -3.6350     0.4200 C.ar  1 <1>   0.4100 
  9 C        1.5580    -3.0390    -0.8100 C.ar  1 <1>   0.1660 
 10 N        0.4000    -3.6670    -0.7500 N.ar  1 <1>  -0.6200 
 11 N       -1.4310    -4.2910     0.5100 N.pl3 1 <1>  -0.8380 
 12 C        2.2580    -3.0840    -2.1520 C.3   1 <1>  -0.0970 
 13 C       -2.4700    -3.8910    -0.4820 C.3   1 <1>   0.2090 
 14 C       -1.3390    -5.7780     0.5360 C.3   1 <1>   0.2090 
 15 C       -2.8290    -5.1670    -1.2390 C.3   1 <1>   0.2000 
 16 C       -2.5350    -6.2970    -0.2630 C.3   1 <1>  -0.0800 
 17 O       -4.1670    -5.2000    -1.6130 O.3   1 <1>  -0.6800 
 18 C       -2.2810    -7.6390    -0.9700 C.3   1 <1>  -0.0170 
 19 C       -2.1060    -8.7780     0.0230 C.ar  1 <1>   0.1670 
 20 N       -0.9270    -8.8750     0.6160 N.ar  1 <1>  -0.6200 
 21 C       -3.1640    -9.6530     0.2680 C.ar  1 <1>   0.1600 
 22 C       -0.8760    -9.8950     1.4570 C.ar  1 <1>   0.1600 
 23 N       -3.1160   -10.6710     1.1110 N.ar  1 <1>  -0.6200 
 24 C       -1.9340   -10.7630     1.6970 C.ar  1 <1>   0.1600 
 25 H       -0.3020    -3.0240     2.4420 H     1 <1>   0.1500 
 26 H        3.0850    -1.8770     0.1240 H     1 <1>   0.1500 
 27 H        3.1910    -2.5530    -2.1250 H     1 <1>   0.0800 
 28 H        1.6260    -2.6400    -2.9000 H     1 <1>   0.0800 
 29 H        2.4460    -4.1070    -2.4220 H     1 <1>   0.0800 
 30 H       -3.3240    -3.5100     0.0510 H     1 <1>   0.0800 
 31 H       -2.1020    -3.1390    -1.1590 H     1 <1>   0.0800 
 32 H       -0.4150    -6.0940     0.0770 H     1 <1>   0.0800 
 33 H       -1.3630    -6.1400     1.5490 H     1 <1>   0.0800 
 34 H       -2.2190    -5.2430    -2.1240 H     1 <1>   0.0800 
 35 H       -3.3560    -6.3980     0.4240 H     1 <1>   0.0800 
 36 H       -4.7400    -5.0950    -0.8300 H     1 <1>   0.4000 
 37 H       -1.4000    -7.5700    -1.5850 H     1 <1>   0.0800 
 38 H       -3.1100    -7.8550    -1.6200 H     1 <1>   0.0800 
 39 H       -4.0910    -9.5050    -0.2560 H     1 <1>   0.1500 
 40 H        0.0490   -10.0520     1.9830 H     1 <1>   0.1500 
 41 H       -1.7960   -11.5640     2.4010 H     1 <1>   0.1500 
@<TRIPOS>BOND
  1   1   2  1   
  2   2   3  1   
  3   2   4  1   
  4   2   5  1   
  5   5   6  ar  
  6   5   7  ar  
  7   6   8  ar  
  8   6  25  1   
  9   7   9  ar  
 10   7  26  1   
 11   8  10  ar  
 12   8  11  1   
 13   9  10  ar  
 14   9  12  1   
 15  11  13  1   
 16  11  14  1   
 17  12  27  1   
 18  12  28  1   
 19  12  29  1   
 20  13  15  1   
 21  13  30  1   
 22  13  31  1   
 23  14  16  1   
 24  14  32  1   
 25  14  33  1   
 26  15  16  1   
 27  15  17  1   
 28  15  34  1   
 29  16  18  1   
 30  16  35  1   
 31  17  36  1   
 32  18  19  1   
 33  18  37  1   
 34  18  38  1   
 35  19  20  ar  
 36  19  21  ar  
 37  20  22  ar  
 38  21  23  ar  
 39  21  39  1   
 40  22  24  ar  
 41  22  40  1   
 42  23  24  ar  
 43  24  41  1   
@<TRIPOS>SUBSTRUCTURE
  1 ****  14 GROUP 4 **** **** 0

# MOE 2024.06 (io_trps.svl 2023.06)
