@<TRIPOS>MOLECULE
NONAME
51 54 1 0 0 
SMALL
USER_CHARGES


@<TRIPOS>ATOM
  1 O        0.8320    -0.1420     1.7240 O.3   1 <1>  -0.5600 
  2 C        0.6360    -1.4710     1.3170 C.3   1 <1>   0.1200 
  3 C        1.5680     0.6170     0.8130 C.3   1 <1>   0.1200 
  4 C        1.9850    -2.1880     1.0880 C.3   1 <1>   0.3340 
  5 C        2.9660    -0.0040     0.6260 C.3   1 <1>   0.1900 
  6 N        2.8530    -1.4090     0.1660 N.3   1 <1>  -0.8100 
  7 C        1.7420    -3.5890     0.5310 C.ar  1 <1>  -0.1440 
  8 C        3.7910     0.8240    -0.3820 C.3   1 <1>   0.3430 
  9 C        4.1850    -2.0270    -0.0050 C.3   1 <1>   0.1100 
 10 C        1.2860    -3.7680    -0.7680 C.ar  1 <1>  -0.1500 
 11 C        1.9830    -4.7040     1.3210 C.ar  1 <1>  -0.1500 
 12 N        5.1460     0.2130    -0.6400 N.4   1 <1>  -0.9590 
 13 C        5.0390    -1.2370    -1.0160 C.3   1 <1>   0.3430 
 14 C        1.0760    -5.0400    -1.2700 C.ar  1 <1>  -0.1500 
 15 C        1.7750    -5.9770     0.8200 C.ar  1 <1>  -0.1500 
 16 C        5.9450     0.9910    -1.6210 C.3   1 <1>   0.4860 
 17 C        1.3220    -6.1460    -0.4760 C.ar  1 <1>  -0.1500 
 18 C        6.1400     2.3980    -1.0980 C.ar  1 <1>  -0.1440 
 19 C        6.8190     2.6040     0.0990 C.ar  1 <1>   0.3930 
 20 C        5.6500     3.4870    -1.7910 C.ar  1 <1>  -0.1500 
 21 O        7.2830     1.5130     0.7540 O.3   1 <1>  -0.3630 
 22 N        7.0210     3.7950     0.6440 N.ar  1 <1>  -0.6200 
 23 C        5.8660     4.7300    -1.2330 C.ar  1 <1>  -0.1500 
 24 C        8.0780     1.6550     1.9220 C.3   1 <1>   0.0400 
 25 C        6.5460     4.8270    -0.0330 C.ar  1 <1>   0.1600 
 26 H        0.0790    -1.9740     2.0870 H     1 <1>   0.0800 
 27 H        0.0490    -1.4720     0.4150 H     1 <1>   0.0800 
 28 H        1.0290     0.6530    -0.1180 H     1 <1>   0.0800 
 29 H        1.6440     1.6130     1.2130 H     1 <1>   0.0800 
 30 H        2.4730    -2.2730     2.0440 H     1 <1>   0.0800 
 31 H        3.4640     0.0260     1.5800 H     1 <1>   0.0800 
 32 H        3.9080     1.8250     0.0010 H     1 <1>   0.0800 
 33 H        3.2390     0.8820    -1.3040 H     1 <1>   0.0800 
 34 H        4.6950    -2.0800     0.9420 H     1 <1>   0.0800 
 35 H        4.0750    -3.0330    -0.3750 H     1 <1>   0.0800 
 36 H        1.0950    -2.9140    -1.3940 H     1 <1>   0.1500 
 37 H        2.3330    -4.5930     2.3330 H     1 <1>   0.1500 
 38 H        5.6790     0.2770     0.2430 H     1 <1>   0.4500 
 39 H        4.5770    -1.3280    -1.9860 H     1 <1>   0.0800 
 40 H        6.0200    -1.6780    -1.0710 H     1 <1>   0.0800 
 41 H        0.7200    -5.1710    -2.2780 H     1 <1>   0.1500 
 42 H        1.9630    -6.8370     1.4380 H     1 <1>   0.1500 
 43 H        6.9110     0.5310    -1.7560 H     1 <1>   0.0800 
 44 H        5.4410     1.0180    -2.5730 H     1 <1>   0.0800 
 45 H        1.1590    -7.1360    -0.8660 H     1 <1>   0.1500 
 46 H        5.1230     3.3940    -2.7270 H     1 <1>   0.1500 
 47 H        5.5130     5.6210    -1.7240 H     1 <1>   0.1500 
 48 H        8.3700     0.6780     2.2620 H     1 <1>   0.0800 
 49 H        7.5010     2.1540     2.6810 H     1 <1>   0.0800 
 50 H        8.9520     2.2350     1.6800 H     1 <1>   0.0800 
 51 H        6.7090     5.8050     0.3920 H     1 <1>   0.1500 
@<TRIPOS>BOND
  1   1   2  1   
  2   1   3  1   
  3   2   4  1   
  4   2  26  1   
  5   2  27  1   
  6   3   5  1   
  7   3  28  1   
  8   3  29  1   
  9   4   6  1   
 10   4   7  1   
 11   4  30  1   
 12   5   6  1   
 13   5   8  1   
 14   5  31  1   
 15   6   9  1   
 16   7  10  ar  
 17   7  11  ar  
 18   8  12  1   
 19   8  32  1   
 20   8  33  1   
 21   9  13  1   
 22   9  34  1   
 23   9  35  1   
 24  10  14  ar  
 25  10  36  1   
 26  11  15  ar  
 27  11  37  1   
 28  12  13  1   
 29  12  16  1   
 30  12  38  1   
 31  13  39  1   
 32  13  40  1   
 33  14  17  ar  
 34  14  41  1   
 35  15  17  ar  
 36  15  42  1   
 37  16  18  1   
 38  16  43  1   
 39  16  44  1   
 40  17  45  1   
 41  18  19  ar  
 42  18  20  ar  
 43  19  21  1   
 44  19  22  ar  
 45  20  23  ar  
 46  20  46  1   
 47  21  24  1   
 48  22  25  ar  
 49  23  25  ar  
 50  23  47  1   
 51  24  48  1   
 52  24  49  1   
 53  24  50  1   
 54  25  51  1   
@<TRIPOS>SUBSTRUCTURE
  1 ****   5 GROUP 4 **** **** 0

# MOE 2024.06 (io_trps.svl 2023.06)
