@<TRIPOS>MOLECULE
NONAME
47 50 1 0 0 
SMALL
USER_CHARGES


@<TRIPOS>ATOM
  1 O        0.4540    -0.7240     1.5510 O.2   1 <1>  -0.5700 
  2 C        0.7550    -1.5800     0.7320 C.2   1 <1>   0.6160 
  3 N        1.8780    -1.4700    -0.0700 N.am  1 <1>  -0.4200 
  4 C       -0.0240    -2.7390     0.5470 C.2   1 <1>  -0.1240 
  5 C        2.1550    -2.4770    -0.9830 C.2   1 <1>   0.4490 
  6 C        2.7620    -0.2730     0.0670 C.3   1 <1>   0.0600 
  7 C        0.3280    -3.6530    -0.3600 C.2   1 <1>   0.0330 
  8 C       -1.2810    -3.1150     1.2770 C.3   1 <1>   0.2780 
  9 N        1.4330    -3.5350    -1.1470 N.2   1 <1>  -0.6210 
 10 C        3.3860    -2.3470    -1.8600 C.3   1 <1>  -0.1790 
 11 C       -0.6410    -4.8080    -0.3930 C.3   1 <1>   0.2780 
 12 N       -1.6460    -4.4190     0.6460 N.am  1 <1>  -0.6600 
 13 C       -2.6300    -5.2230     1.1480 C.2   1 <1>   0.5690 
 14 O       -3.2520    -4.8790     2.1290 O.2   1 <1>  -0.5700 
 15 C       -2.9560    -6.5630     0.4650 C.3   1 <1>   0.2610 
 16 O       -1.9170    -7.5040     0.6940 O.3   1 <1>  -0.5600 
 17 C       -4.3370    -7.1150     0.9100 C.3   1 <1>   0.3640 
 18 C       -2.0710    -8.7370     0.0230 C.3   1 <1>   0.1810 
 19 N       -4.4830    -8.5580     0.5980 N.am  1 <1>  -0.7300 
 20 C       -5.4690    -6.3550     0.2210 C.ar  1 <1>  -0.1440 
 21 C       -3.4640    -9.3490     0.2000 C.2   1 <1>   0.5690 
 22 C       -5.8220    -6.6190    -1.0970 C.ar  1 <1>  -0.1500 
 23 C       -6.1600    -5.3720     0.9160 C.ar  1 <1>  -0.1500 
 24 O       -3.6490   -10.5140    -0.0450 O.2   1 <1>  -0.5700 
 25 C       -6.8450    -5.9130    -1.7060 C.ar  1 <1>  -0.1500 
 26 C       -7.1840    -4.6660     0.3080 C.ar  1 <1>  -0.1500 
 27 C       -7.5270    -4.9360    -1.0040 C.ar  1 <1>  -0.1500 
 28 H        3.7550    -0.5850     0.3380 H     1 <1>   0.0800 
 29 H        2.4020     0.3970     0.8280 H     1 <1>   0.0800 
 30 H        2.7950     0.2620    -0.8650 H     1 <1>   0.0800 
 31 H       -2.0590    -2.3880     1.1170 H     1 <1>   0.0800 
 32 H       -1.0990    -3.2400     2.3310 H     1 <1>   0.0800 
 33 H        3.3190    -1.4630    -2.4660 H     1 <1>   0.0800 
 34 H        3.4640    -3.1970    -2.5140 H     1 <1>   0.0800 
 35 H        4.2710    -2.3080    -1.2530 H     1 <1>   0.0800 
 36 H       -0.1450    -5.7250    -0.1260 H     1 <1>   0.0800 
 37 H       -1.1010    -4.8890    -1.3620 H     1 <1>   0.0800 
 38 H       -2.9930    -6.3830    -0.5930 H     1 <1>   0.0800 
 39 H       -4.4330    -7.0050     1.9760 H     1 <1>   0.0800 
 40 H       -1.8800    -8.5810    -1.0220 H     1 <1>   0.0800 
 41 H       -1.3340    -9.4150     0.4130 H     1 <1>   0.0800 
 42 H       -5.4140    -8.9630     0.7050 H     1 <1>   0.3700 
 43 H       -5.3070    -7.3780    -1.6600 H     1 <1>   0.1500 
 44 H       -5.9020    -5.1440     1.9380 H     1 <1>   0.1500 
 45 H       -7.1130    -6.1260    -2.7270 H     1 <1>   0.1500 
 46 H       -7.7110    -3.9060     0.8580 H     1 <1>   0.1500 
 47 H       -8.3240    -4.3880    -1.4760 H     1 <1>   0.1500 
@<TRIPOS>BOND
  1   1   2  2   
  2   2   3  am  
  3   2   4  1   
  4   3   5  1   
  5   3   6  1   
  6   4   7  2   
  7   4   8  1   
  8   5   9  2   
  9   5  10  1   
 10   6  28  1   
 11   6  29  1   
 12   6  30  1   
 13   7   9  1   
 14   7  11  1   
 15   8  12  1   
 16   8  31  1   
 17   8  32  1   
 18  10  33  1   
 19  10  34  1   
 20  10  35  1   
 21  11  12  1   
 22  11  36  1   
 23  11  37  1   
 24  12  13  am  
 25  13  14  2   
 26  13  15  1   
 27  15  16  1   
 28  15  17  1   
 29  15  38  1   
 30  16  18  1   
 31  17  19  1   
 32  17  20  1   
 33  17  39  1   
 34  18  21  1   
 35  18  40  1   
 36  18  41  1   
 37  19  21  am  
 38  19  42  1   
 39  20  22  ar  
 40  20  23  ar  
 41  21  24  2   
 42  22  25  ar  
 43  22  43  1   
 44  23  26  ar  
 45  23  44  1   
 46  25  27  ar  
 47  25  45  1   
 48  26  27  ar  
 49  26  46  1   
 50  27  47  1   
@<TRIPOS>SUBSTRUCTURE
  1 ****  12 GROUP 4 **** **** 0

# MOE 2024.06 (io_trps.svl 2023.06)
