@<TRIPOS>MOLECULE
NONAME
43 45 1 0 0 
SMALL
USER_CHARGES


@<TRIPOS>ATOM
  1 F        2.5520     5.6750     1.3320 F     1 <1>  -0.1900 
  2 C        3.5990     4.8950     1.4100 C.ar  1 <1>   0.1900 
  3 C        4.1290     4.3750     0.2540 C.ar  1 <1>  -0.1500 
  4 C        4.1230     4.6310     2.6790 C.ar  1 <1>  -0.1500 
  5 C        5.2440     3.5490     0.3740 C.ar  1 <1>   0.2270 
  6 C        5.2230     3.8090     2.7950 C.ar  1 <1>  -0.1500 
  7 N        5.9750     2.9330    -0.5980 N.2   1 <1>  -0.5650 
  8 C        5.7730     3.2740     1.6250 C.ar  1 <1>  -0.1520 
  9 C        6.8960     2.3030     0.0490 C.2   1 <1>   0.0060 
 10 N        6.8370     2.4650     1.3940 N.pl3 1 <1>   0.0330 
 11 C        7.9910     1.4690    -0.5870 C.3   1 <1>   0.3000 
 12 O        9.2340     1.9020    -0.1110 O.3   1 <1>  -0.5600 
 13 C        9.9140     2.8540    -0.9050 C.3   1 <1>   0.1810 
 14 C        9.5820     4.3180    -0.5880 C.2   1 <1>   0.5690 
 15 O       10.4580     5.0300    -0.1610 O.2   1 <1>  -0.5700 
 16 N        8.3370     4.8100    -0.8210 N.am  1 <1>  -0.7300 
 17 C        7.9380     6.2180    -0.6380 C.3   1 <1>   0.2200 
 18 C        7.5020     6.4590     0.8180 C.3   1 <1>   0.1400 
 19 C        6.8130     6.5270    -1.6250 C.3   1 <1>  -0.1600 
 20 N        6.6520     7.6750     1.0050 N.am  1 <1>  -0.6600 
 21 C        6.3750     7.9890    -1.4680 C.3   1 <1>  -0.0990 
 22 C        6.0880     8.3810    -0.0290 C.2   1 <1>   0.5690 
 23 C        6.3630     8.0090     2.4260 C.3   1 <1>   0.0600 
 24 O        5.3650     9.3310     0.1520 O.2   1 <1>  -0.5700 
 25 H        3.7130     4.5880    -0.7110 H     1 <1>   0.1500 
 26 H        3.6550     5.0720     3.5400 H     1 <1>   0.1500 
 27 H        5.6530     3.5820     3.7560 H     1 <1>   0.1500 
 28 H        7.5070     2.1000     2.0770 H     1 <1>   0.2700 
 29 H        7.9550     1.5300    -1.6610 H     1 <1>   0.0800 
 30 H        7.8730     0.4400    -0.2970 H     1 <1>   0.0800 
 31 H        9.7350     2.6560    -1.9460 H     1 <1>   0.0800 
 32 H       10.9640     2.7120    -0.7220 H     1 <1>   0.0800 
 33 H        7.5510     4.1600    -0.9770 H     1 <1>   0.3700 
 34 H        8.7840     6.8520    -0.8510 H     1 <1>   0.0800 
 35 H        8.3850     6.5470     1.4260 H     1 <1>   0.0800 
 36 H        6.9400     5.6110     1.1590 H     1 <1>   0.0800 
 37 H        5.9720     5.8860    -1.4250 H     1 <1>   0.0800 
 38 H        7.1490     6.3580    -2.6320 H     1 <1>   0.0800 
 39 H        5.4920     8.1640    -2.0550 H     1 <1>   0.0800 
 40 H        7.1470     8.6400    -1.8340 H     1 <1>   0.0800 
 41 H        7.2830     8.2020     2.9480 H     1 <1>   0.0800 
 42 H        5.8520     7.1860     2.8940 H     1 <1>   0.0800 
 43 H        5.7390     8.8830     2.4950 H     1 <1>   0.0800 
@<TRIPOS>BOND
  1   1   2  1   
  2   2   3  ar  
  3   2   4  ar  
  4   3   5  ar  
  5   3  25  1   
  6   4   6  ar  
  7   4  26  1   
  8   5   7  1   
  9   5   8  ar  
 10   6   8  ar  
 11   6  27  1   
 12   7   9  2   
 13   8  10  1   
 14   9  10  1   
 15   9  11  1   
 16  10  28  1   
 17  11  12  1   
 18  11  29  1   
 19  11  30  1   
 20  12  13  1   
 21  13  14  1   
 22  13  31  1   
 23  13  32  1   
 24  14  15  2   
 25  14  16  am  
 26  16  17  1   
 27  16  33  1   
 28  17  18  1   
 29  17  19  1   
 30  17  34  1   
 31  18  20  1   
 32  18  35  1   
 33  18  36  1   
 34  19  21  1   
 35  19  37  1   
 36  19  38  1   
 37  20  22  am  
 38  20  23  1   
 39  21  22  1   
 40  21  39  1   
 41  21  40  1   
 42  22  24  2   
 43  23  41  1   
 44  23  42  1   
 45  23  43  1   
@<TRIPOS>SUBSTRUCTURE
  1 ****  18 GROUP 4 **** **** 0

# MOE 2024.06 (io_trps.svl 2023.06)
