@<TRIPOS>MOLECULE
NONAME
45 46 1 0 0 
SMALL
USER_CHARGES


@<TRIPOS>ATOM
  1 S        1.3940     0.5540     0.5020 S.3   1 <1>  -0.3320 
  2 C        1.1320    -1.2090     0.5480 C.ar  1 <1>   0.7220 
  3 C        1.4410     0.9530    -1.3150 C.3   1 <1>   0.1310 
  4 N        1.0540    -1.8100    -0.6290 N.ar  1 <1>  -0.6200 
  5 N        1.0430    -1.7230     1.7620 N.ar  1 <1>  -0.6200 
  6 C        1.5710     2.4480    -1.5580 C.2   1 <1>   0.5690 
  7 C        0.8590    -3.1060    -0.5700 C.ar  1 <1>   0.1660 
  8 C        0.8480    -3.0220     1.7850 C.ar  1 <1>   0.1600 
  9 O        1.3060     2.8770    -2.6550 O.2   1 <1>  -0.5700 
 10 N        1.9780     3.2670    -0.5560 N.am  1 <1>  -0.7300 
 11 C        0.7470    -3.7670     0.6330 C.ar  1 <1>  -0.1500 
 12 C        0.7600    -3.8470    -1.8870 C.3   1 <1>  -0.0970 
 13 C        2.1310     4.7230    -0.6690 C.3   1 <1>   0.3640 
 14 C        3.4070     5.1350     0.0550 C.ar  1 <1>  -0.1430 
 15 C        0.8620     5.3960    -0.1220 C.3   1 <1>  -0.1600 
 16 C        3.5040     5.0990     1.4400 C.ar  1 <1>   0.1600 
 17 C        4.5040     5.5600    -0.6690 C.ar  1 <1>  -0.1500 
 18 C        0.9100     6.9380    -0.1050 C.3   1 <1>  -0.0800 
 19 N        4.5720     5.4510     2.1390 N.ar  1 <1>  -0.6200 
 20 C        5.6250     5.9290     0.0410 C.ar  1 <1>  -0.1500 
 21 C       -0.3780     7.4860     0.5200 C.3   1 <1>  -0.2400 
 22 C        1.0840     7.5230    -1.5130 C.3   1 <1>  -0.2400 
 23 C        5.6060     5.8580     1.4230 C.ar  1 <1>   0.1600 
 24 H        0.5270     0.5880    -1.7450 H     1 <1>   0.0800 
 25 H        2.2790     0.4300    -1.7370 H     1 <1>   0.0800 
 26 H        0.7660    -3.5020     2.7460 H     1 <1>   0.1500 
 27 H        2.1900     2.8620     0.3580 H     1 <1>   0.3700 
 28 H        0.5870    -4.8280     0.6790 H     1 <1>   0.1500 
 29 H       -0.0580    -3.4530    -2.4620 H     1 <1>   0.0800 
 30 H        0.6010    -4.8970    -1.7300 H     1 <1>   0.0800 
 31 H        1.6700    -3.7130    -2.4440 H     1 <1>   0.0800 
 32 H        2.2260     4.9750    -1.7120 H     1 <1>   0.0800 
 33 H        0.6800     5.0440     0.8770 H     1 <1>   0.0800 
 34 H        0.0320     5.0830    -0.7310 H     1 <1>   0.0800 
 35 H        2.6570     4.7630     2.0130 H     1 <1>   0.1500 
 36 H        4.4890     5.6020    -1.7450 H     1 <1>   0.1500 
 37 H        1.7370     7.2630     0.5060 H     1 <1>   0.0800 
 38 H        6.5080     6.2690    -0.4690 H     1 <1>   0.1500 
 39 H       -1.2360     7.1970    -0.0620 H     1 <1>   0.0800 
 40 H       -0.3420     8.5600     0.5670 H     1 <1>   0.0800 
 41 H       -0.4990     7.1110     1.5210 H     1 <1>   0.0800 
 42 H        0.3050     7.1750    -2.1690 H     1 <1>   0.0800 
 43 H        2.0360     7.2480    -1.9290 H     1 <1>   0.0800 
 44 H        1.0430     8.5970    -1.4750 H     1 <1>   0.0800 
 45 H        6.4880     6.1510     1.9670 H     1 <1>   0.1500 
@<TRIPOS>BOND
  1   1   2  1   
  2   1   3  1   
  3   2   4  ar  
  4   2   5  ar  
  5   3   6  1   
  6   3  24  1   
  7   3  25  1   
  8   4   7  ar  
  9   5   8  ar  
 10   6   9  2   
 11   6  10  am  
 12   7  11  ar  
 13   7  12  1   
 14   8  11  ar  
 15   8  26  1   
 16  10  13  1   
 17  10  27  1   
 18  11  28  1   
 19  12  29  1   
 20  12  30  1   
 21  12  31  1   
 22  13  14  1   
 23  13  15  1   
 24  13  32  1   
 25  14  16  ar  
 26  14  17  ar  
 27  15  18  1   
 28  15  33  1   
 29  15  34  1   
 30  16  19  ar  
 31  16  35  1   
 32  17  20  ar  
 33  17  36  1   
 34  18  21  1   
 35  18  22  1   
 36  18  37  1   
 37  19  23  ar  
 38  20  23  ar  
 39  20  38  1   
 40  21  39  1   
 41  21  40  1   
 42  21  41  1   
 43  22  42  1   
 44  22  43  1   
 45  22  44  1   
 46  23  45  1   
@<TRIPOS>SUBSTRUCTURE
  1 ****  10 GROUP 4 **** **** 0

# MOE 2024.06 (io_trps.svl 2023.06)
