@<TRIPOS>MOLECULE
NONAME
50 52 1 0 0 
SMALL
USER_CHARGES


@<TRIPOS>ATOM
  1 O        2.6410     0.0210    -1.8050 O.2   1 <1>  -0.5700 
  2 C        2.7790    -0.3150    -0.6410 C.2   1 <1>   0.7160 
  3 N        2.6850     0.6510     0.3440 N.am  1 <1>  -0.6600 
  4 C        2.9960    -1.7120    -0.3470 C.2   1 <1>  -0.0860 
  5 C        2.9100     0.3630     1.8010 C.3   1 <1>   0.1400 
  6 C        2.3540     2.0610    -0.0090 C.3   1 <1>   0.1400 
  7 C        2.1910    -2.7920    -0.5600 C.2   1 <1>  -0.3320 
  8 C        4.1410    -2.2770     0.2220 C.2   1 <1>   0.1390 
  9 C        3.7790     1.4120     2.5200 C.3   1 <1>   0.1400 
 10 C        3.6270     2.8550    -0.3290 C.3   1 <1>  -0.1600 
 11 N        2.8500    -3.8810    -0.1270 N.pl3 1 <1>   0.3140 
 12 C        0.8020    -2.8130    -1.1820 C.3   1 <1>  -0.0600 
 13 N        4.0570    -3.5620     0.3610 N.2   1 <1>  -0.7070 
 14 N        4.8570     1.9540     1.6440 N.am  1 <1>  -0.6600 
 15 C        4.5010     3.1820     0.8880 C.3   1 <1>   0.1400 
 16 C        2.3940    -5.2760    -0.1570 C.3   1 <1>   0.0160 
 17 C        5.9850     1.2110     1.3640 C.2   1 <1>   0.7160 
 18 O        6.1270     0.1330     1.9150 O.2   1 <1>  -0.5700 
 19 C        6.9780     1.6900     0.4280 C.2   1 <1>  -0.0860 
 20 C        7.1660     1.3770    -0.8970 C.2   1 <1>  -0.3320 
 21 C        7.9760     2.6360     0.7300 C.2   1 <1>  -0.1500 
 22 N        8.2100     2.0800    -1.4000 N.pl3 1 <1>   0.0480 
 23 C        6.3530     0.3920    -1.7240 C.3   1 <1>  -0.0600 
 24 C        8.6990     2.8510    -0.3960 C.2   1 <1>  -0.3020 
 25 C        8.7390     2.0250    -2.7730 C.3   1 <1>   0.0160 
 26 H        3.3910    -0.5870     1.9260 H     1 <1>   0.0800 
 27 H        1.9570     0.2980     2.2950 H     1 <1>   0.0800 
 28 H        1.8120     2.5260     0.7960 H     1 <1>   0.0800 
 29 H        1.7120     2.0680    -0.8740 H     1 <1>   0.0800 
 30 H        5.0090    -1.7090     0.5190 H     1 <1>   0.1500 
 31 H        4.2210     0.9610     3.3920 H     1 <1>   0.0800 
 32 H        3.1550     2.2180     2.8620 H     1 <1>   0.0800 
 33 H        3.3370     3.7840    -0.7830 H     1 <1>   0.0800 
 34 H        4.2080     2.3200    -1.0580 H     1 <1>   0.0800 
 35 H        0.5000    -1.8180    -1.4580 H     1 <1>   0.0800 
 36 H        0.0860    -3.2060    -0.4840 H     1 <1>   0.0800 
 37 H        0.8030    -3.4220    -2.0680 H     1 <1>   0.0800 
 38 H        3.9760     3.8580     1.5410 H     1 <1>   0.0800 
 39 H        5.3930     3.6860     0.5580 H     1 <1>   0.0800 
 40 H        1.4800    -5.3600     0.3980 H     1 <1>   0.0800 
 41 H        3.1460    -5.9010     0.2870 H     1 <1>   0.0800 
 42 H        2.2370    -5.5720    -1.1770 H     1 <1>   0.0800 
 43 H        8.1100     3.0850     1.6990 H     1 <1>   0.1500 
 44 H        5.5750    -0.0440    -1.1280 H     1 <1>   0.0800 
 45 H        6.9830    -0.4010    -2.0850 H     1 <1>   0.0800 
 46 H        5.8960     0.8890    -2.5610 H     1 <1>   0.0800 
 47 H        9.5390     3.5090    -0.5320 H     1 <1>   0.1500 
 48 H        7.9630     2.3020    -3.4620 H     1 <1>   0.0800 
 49 H        9.0700     1.0250    -2.9820 H     1 <1>   0.0800 
 50 H        9.5660     2.7040    -2.8680 H     1 <1>   0.0800 
@<TRIPOS>BOND
  1   1   2  2   
  2   2   3  am  
  3   2   4  1   
  4   3   5  1   
  5   3   6  1   
  6   4   7  2   
  7   4   8  1   
  8   5   9  1   
  9   5  26  1   
 10   5  27  1   
 11   6  10  1   
 12   6  28  1   
 13   6  29  1   
 14   7  11  1   
 15   7  12  1   
 16   8  13  2   
 17   8  30  1   
 18   9  14  1   
 19   9  31  1   
 20   9  32  1   
 21  10  15  1   
 22  10  33  1   
 23  10  34  1   
 24  11  13  1   
 25  11  16  1   
 26  12  35  1   
 27  12  36  1   
 28  12  37  1   
 29  14  15  1   
 30  14  17  am  
 31  15  38  1   
 32  15  39  1   
 33  16  40  1   
 34  16  41  1   
 35  16  42  1   
 36  17  18  2   
 37  17  19  1   
 38  19  20  2   
 39  19  21  1   
 40  20  22  1   
 41  20  23  1   
 42  21  24  2   
 43  21  43  1   
 44  22  24  1   
 45  22  25  1   
 46  23  44  1   
 47  23  45  1   
 48  23  46  1   
 49  24  47  1   
 50  25  48  1   
 51  25  49  1   
 52  25  50  1   
@<TRIPOS>SUBSTRUCTURE
  1 ****   2 GROUP 4 **** **** 0

# MOE 2024.06 (io_trps.svl 2023.06)
