@<TRIPOS>MOLECULE
NONAME
51 54 1 0 0 
SMALL
USER_CHARGES


@<TRIPOS>ATOM
  1 O        0.0930     0.3720     0.9740 O.3   1 <1>  -0.5600 
  2 C        0.7970     0.8400    -0.1380 C.3   1 <1>   0.1200 
  3 C       -1.2860     0.4930     0.7630 C.3   1 <1>   0.1200 
  4 C       -0.1150     1.8670    -0.7990 C.3   1 <1>   0.2890 
  5 C       -1.4710     1.2170    -0.5750 C.3   1 <1>  -0.0800 
  6 N       -0.0140     3.1490    -0.0540 N.pl3 1 <1>  -0.8690 
  7 C       -2.6830     2.1650    -0.6200 C.3   1 <1>  -0.0170 
  8 C        0.4250     4.3270    -0.6040 C.ar  1 <1>   0.4100 
  9 C       -3.9820     1.3940    -0.4400 C.ar  1 <1>  -0.1430 
 10 N        0.4160     4.4420    -1.9170 N.ar  1 <1>  -0.6200 
 11 C        0.8570     5.3540     0.1980 C.ar  1 <1>  -0.1500 
 12 C       -4.5710     0.7060    -1.4810 C.ar  1 <1>  -0.1500 
 13 C       -4.6380     1.3400     0.7730 C.ar  1 <1>  -0.1500 
 14 C        0.8560     5.5950    -2.3820 C.ar  1 <1>   0.4700 
 15 C        1.2900     6.5150    -0.3970 C.ar  1 <1>   0.4100 
 16 C       -5.7500     0.0120    -1.2640 C.ar  1 <1>   0.1600 
 17 C       -5.8140     0.6150     0.8850 C.ar  1 <1>   0.1600 
 18 N        1.2970     6.6400    -1.7120 N.ar  1 <1>  -0.6200 
 19 N        1.7290     7.5880     0.3570 N.pl3 1 <1>  -0.8380 
 20 N       -6.3850    -0.0520    -0.1050 N.ar  1 <1>  -0.6200 
 21 C        2.7890     8.4950    -0.1640 C.3   1 <1>   0.2090 
 22 C        0.8460     8.1700     1.4020 C.3   1 <1>   0.2090 
 23 C        2.1590     9.7840    -0.6930 C.3   1 <1>  -0.1600 
 24 C        0.2030     9.4520     0.8730 C.3   1 <1>  -0.1600 
 25 C        1.2750    10.4210     0.3780 C.3   1 <1>   0.2000 
 26 O        0.6500    11.5200    -0.1690 O.3   1 <1>  -0.6800 
 27 H        1.7360     1.2610     0.1740 H     1 <1>   0.0800 
 28 H        0.9670     0.0060    -0.7950 H     1 <1>   0.0800 
 29 H       -1.7290    -0.4880     0.7540 H     1 <1>   0.0800 
 30 H       -1.6880     1.0670     1.5800 H     1 <1>   0.0800 
 31 H        0.1140     1.9910    -1.8440 H     1 <1>   0.0800 
 32 H       -1.6040     0.4640    -1.3310 H     1 <1>   0.0800 
 33 H        0.1670     2.9950     0.9410 H     1 <1>   0.4000 
 34 H       -2.6980     2.6790    -1.5650 H     1 <1>   0.0800 
 35 H       -2.6030     2.9140     0.1480 H     1 <1>   0.0800 
 36 H        0.8670     5.2540     1.2620 H     1 <1>   0.1500 
 37 H       -4.1250     0.7040    -2.4590 H     1 <1>   0.1500 
 38 H       -4.2480     1.8530     1.6330 H     1 <1>   0.1500 
 39 H        0.8550     5.6970    -3.4540 H     1 <1>   0.1500 
 40 H       -6.1940    -0.5180    -2.0890 H     1 <1>   0.1500 
 41 H       -6.3110     0.5840     1.8390 H     1 <1>   0.1500 
 42 H        3.4770     8.7220     0.6320 H     1 <1>   0.0800 
 43 H        3.3420     8.0080    -0.9500 H     1 <1>   0.0800 
 44 H        0.0760     7.4690     1.6750 H     1 <1>   0.0800 
 45 H        1.4340     8.3840     2.2790 H     1 <1>   0.0800 
 46 H        1.5760     9.5410    -1.5640 H     1 <1>   0.0800 
 47 H        2.9380    10.4670    -0.9770 H     1 <1>   0.0800 
 48 H       -0.3660     9.9130     1.6590 H     1 <1>   0.0800 
 49 H       -0.4620     9.1900     0.0690 H     1 <1>   0.0800 
 50 H        1.8770    10.7640     1.2030 H     1 <1>   0.0800 
 51 H        0.1220    11.2410    -0.9410 H     1 <1>   0.4000 
@<TRIPOS>BOND
  1   1   2  1   
  2   1   3  1   
  3   2   4  1   
  4   2  27  1   
  5   2  28  1   
  6   3   5  1   
  7   3  29  1   
  8   3  30  1   
  9   4   5  1   
 10   4   6  1   
 11   4  31  1   
 12   5   7  1   
 13   5  32  1   
 14   6   8  1   
 15   6  33  1   
 16   7   9  1   
 17   7  34  1   
 18   7  35  1   
 19   8  10  ar  
 20   8  11  ar  
 21   9  12  ar  
 22   9  13  ar  
 23  10  14  ar  
 24  11  15  ar  
 25  11  36  1   
 26  12  16  ar  
 27  12  37  1   
 28  13  17  ar  
 29  13  38  1   
 30  14  18  ar  
 31  14  39  1   
 32  15  18  ar  
 33  15  19  1   
 34  16  20  ar  
 35  16  40  1   
 36  17  20  ar  
 37  17  41  1   
 38  19  21  1   
 39  19  22  1   
 40  21  23  1   
 41  21  42  1   
 42  21  43  1   
 43  22  24  1   
 44  22  44  1   
 45  22  45  1   
 46  23  25  1   
 47  23  46  1   
 48  23  47  1   
 49  24  25  1   
 50  24  48  1   
 51  24  49  1   
 52  25  26  1   
 53  25  50  1   
 54  26  51  1   
@<TRIPOS>SUBSTRUCTURE
  1 ****   8 GROUP 4 **** **** 0

# MOE 2024.06 (io_trps.svl 2023.06)
