@<TRIPOS>MOLECULE
NONAME
53 56 1 0 0 
SMALL
USER_CHARGES


@<TRIPOS>ATOM
  1 O        1.4980     3.1270     1.5510 O.co2 1 <1>  -0.9000 
  2 C        1.3190     3.3000     0.3400 C.2   1 <1>   0.9060 
  3 O        2.2570     3.6320    -0.3940 O.co2 1 <1>  -0.9000 
  4 C       -0.1220     3.4120    -0.1760 C.3   1 <1>   0.0380 
  5 C       -0.9320     2.1020    -0.2060 C.ar  1 <1>  -0.1440 
  6 C       -0.7270     4.4340     0.7730 C.3   1 <1>   0.3430 
  7 C       -0.1970     4.1720    -1.5080 C.3   1 <1>  -0.1600 
  8 C       -0.3230     0.8780     0.0440 C.ar  1 <1>  -0.1500 
  9 C       -2.2950     2.1150    -0.4850 C.ar  1 <1>  -0.1500 
 10 N       -0.2500     5.7760     0.2950 N.4   1 <1>  -0.9590 
 11 C        0.1930     5.5940    -1.1260 C.3   1 <1>   0.3430 
 12 C       -1.0530    -0.2980     0.0170 C.ar  1 <1>  -0.1500 
 13 C       -3.0270     0.9410    -0.5120 C.ar  1 <1>  -0.1500 
 14 C        0.9040     6.2210     1.1400 C.3   1 <1>   0.4860 
 15 C       -2.4070    -0.2680    -0.2610 C.ar  1 <1>  -0.1500 
 16 C        1.3840     7.5770     0.6500 C.ar  1 <1>  -0.1430 
 17 C        2.5940     7.6640    -0.0200 C.ar  1 <1>  -0.1500 
 18 C        0.6340     8.7250     0.8570 C.ar  1 <1>  -0.1500 
 19 C        3.0540     8.8820    -0.4930 C.ar  1 <1>  -0.1430 
 20 C        1.0840     9.9450     0.3860 C.ar  1 <1>  -0.1500 
 21 C        2.2950    10.0310    -0.2940 C.ar  1 <1>   0.0830 
 22 C        4.3940     8.9530    -1.2220 C.3   1 <1>   0.2390 
 23 O        2.7920    11.1990    -0.7750 O.3   1 <1>  -0.3630 
 24 N        5.5010     9.2760    -0.2980 N.pl3 1 <1>   0.3140 
 25 C        2.1420    12.4330    -0.5580 C.3   1 <1>   0.0400 
 26 N        6.7090     8.7340    -0.4130 N.2   1 <1>  -0.7070 
 27 C        5.5180    10.1230     0.7360 C.2   1 <1>   0.0360 
 28 C        7.3570     9.2860     0.5590 C.2   1 <1>   0.3660 
 29 N        6.6690    10.1590     1.3050 N.2   1 <1>  -0.5650 
 30 H       -0.4350     4.2370     1.7930 H     1 <1>   0.0800 
 31 H       -1.7990     4.3850     0.7050 H     1 <1>   0.0800 
 32 H       -1.1900     4.1710    -1.9170 H     1 <1>   0.0800 
 33 H        0.4770     3.7640    -2.2410 H     1 <1>   0.0800 
 34 H        0.7300     0.8170     0.2680 H     1 <1>   0.1500 
 35 H       -2.8100     3.0360    -0.6880 H     1 <1>   0.1500 
 36 H       -0.9900     6.4780     0.3540 H     1 <1>   0.4500 
 37 H       -0.2570     6.3210    -1.7820 H     1 <1>   0.0800 
 38 H        1.2680     5.6790    -1.1880 H     1 <1>   0.0800 
 39 H       -0.5620    -1.2340     0.2150 H     1 <1>   0.1500 
 40 H       -4.0810     0.9650    -0.7300 H     1 <1>   0.1500 
 41 H        1.7160     5.5130     1.0780 H     1 <1>   0.0800 
 42 H        0.6060     6.2900     2.1730 H     1 <1>   0.0800 
 43 H       -2.9730    -1.1830    -0.2810 H     1 <1>   0.1500 
 44 H        3.1850     6.7700    -0.1700 H     1 <1>   0.1500 
 45 H       -0.3020     8.6810     1.3880 H     1 <1>   0.1500 
 46 H        0.4810    10.8170     0.5600 H     1 <1>   0.1500 
 47 H        4.3700     9.7000    -1.9930 H     1 <1>   0.0800 
 48 H        4.6110     8.0080    -1.6830 H     1 <1>   0.0800 
 49 H        2.7390    13.2080    -1.0050 H     1 <1>   0.0800 
 50 H        2.0570    12.6040     0.5000 H     1 <1>   0.0800 
 51 H        1.1730    12.4060    -1.0250 H     1 <1>   0.0800 
 52 H        4.6590    10.6960     1.0360 H     1 <1>   0.1500 
 53 H        8.3910     9.0730     0.7770 H     1 <1>   0.1500 
@<TRIPOS>BOND
  1   1   2  ar  
  2   2   3  ar  
  3   2   4  1   
  4   4   5  1   
  5   4   6  1   
  6   4   7  1   
  7   5   8  ar  
  8   5   9  ar  
  9   6  10  1   
 10   6  30  1   
 11   6  31  1   
 12   7  11  1   
 13   7  32  1   
 14   7  33  1   
 15   8  12  ar  
 16   8  34  1   
 17   9  13  ar  
 18   9  35  1   
 19  10  11  1   
 20  10  14  1   
 21  10  36  1   
 22  11  37  1   
 23  11  38  1   
 24  12  15  ar  
 25  12  39  1   
 26  13  15  ar  
 27  13  40  1   
 28  14  16  1   
 29  14  41  1   
 30  14  42  1   
 31  15  43  1   
 32  16  17  ar  
 33  16  18  ar  
 34  17  19  ar  
 35  17  44  1   
 36  18  20  ar  
 37  18  45  1   
 38  19  21  ar  
 39  19  22  1   
 40  20  21  ar  
 41  20  46  1   
 42  21  23  1   
 43  22  24  1   
 44  22  47  1   
 45  22  48  1   
 46  23  25  1   
 47  24  26  1   
 48  24  27  1   
 49  25  49  1   
 50  25  50  1   
 51  25  51  1   
 52  26  28  2   
 53  27  29  2   
 54  27  52  1   
 55  28  29  1   
 56  28  53  1   
@<TRIPOS>SUBSTRUCTURE
  1 ****  14 GROUP 4 **** **** 0

# MOE 2024.06 (io_trps.svl 2023.06)
