@<TRIPOS>MOLECULE
NONAME
41 43 1 0 0 
SMALL
USER_CHARGES


@<TRIPOS>ATOM
  1 CL      -0.0110     0.8220     1.1200 Cl    1 <1>  -0.1770 
  2 C       -1.6560     1.0570     0.5920 C.ar  1 <1>   0.1770 
  3 C       -2.2340     2.3060     0.7030 C.ar  1 <1>  -0.1500 
  4 C       -2.3620    -0.0080     0.0660 C.ar  1 <1>  -0.1500 
  5 C       -3.5400     2.4860     0.2820 C.ar  1 <1>  -0.1500 
  6 C       -3.6660     0.1850    -0.3540 C.ar  1 <1>  -0.1500 
  7 C       -4.2860     1.4320    -0.2520 C.ar  1 <1>   0.0530 
  8 C       -5.6410     1.6510    -0.6950 C.2   1 <1>   0.0870 
  9 O       -5.9320     2.7570    -1.3330 O.3   1 <1>  -0.0190 
 10 C       -6.7910     0.9250    -0.6170 C.2   1 <1>  -0.0860 
 11 N       -7.1830     2.8260    -1.6970 N.2   1 <1>  -0.4100 
 12 C       -7.7200     1.7440    -1.2740 C.2   1 <1>   0.3720 
 13 C       -7.0650    -0.3520    -0.0250 C.2   1 <1>   0.7160 
 14 N       -9.0690     1.5010    -1.4920 N.pl3 1 <1>  -0.8520 
 15 O       -6.2760    -0.8800     0.7350 O.2   1 <1>  -0.5700 
 16 N       -8.2340    -0.9900    -0.3100 N.am  1 <1>  -0.5790 
 17 C       -9.9400     1.7950    -0.3200 C.3   1 <1>   0.2090 
 18 C       -8.7350    -2.2330     0.2900 C.3   1 <1>   0.0490 
 19 C      -11.3320     1.2020    -0.5420 C.3   1 <1>   0.1200 
 20 C       -9.9280    -2.8740    -0.3390 C.3   1 <1>  -0.2000 
 21 C      -10.0540    -2.1930     0.9900 C.3   1 <1>  -0.2000 
 22 O      -12.0640     1.3450     0.6340 O.3   1 <1>  -0.5600 
 23 C      -13.3450     0.8070     0.5720 C.3   1 <1>   0.0400 
 24 H       -1.6670     3.1220     1.1140 H     1 <1>   0.1500 
 25 H       -1.8940    -0.9730    -0.0110 H     1 <1>   0.1500 
 26 H       -3.9930     3.4590     0.3680 H     1 <1>   0.1500 
 27 H       -4.2110    -0.6460    -0.7650 H     1 <1>   0.1500 
 28 H       -9.3520     2.1250    -2.2590 H     1 <1>   0.4000 
 29 H       -8.8850    -0.4700    -0.9090 H     1 <1>   0.3700 
 30 H      -10.0180     2.8610    -0.1870 H     1 <1>   0.0800 
 31 H       -9.5120     1.3650     0.5700 H     1 <1>   0.0800 
 32 H       -7.9550    -2.8550     0.7010 H     1 <1>   0.1000 
 33 H      -11.2580     0.1540    -0.7730 H     1 <1>   0.0800 
 34 H      -11.8430     1.7250    -1.3320 H     1 <1>   0.0800 
 35 H       -9.9800    -3.9480    -0.3660 H     1 <1>   0.1000 
 36 H      -10.3700    -2.4160    -1.2060 H     1 <1>   0.1000 
 37 H      -10.5680    -1.2520     1.0660 H     1 <1>   0.1000 
 38 H      -10.1870    -2.8050     1.8640 H     1 <1>   0.1000 
 39 H      -13.8240     0.9720     1.5210 H     1 <1>   0.0800 
 40 H      -13.2800    -0.2500     0.3780 H     1 <1>   0.0800 
 41 H      -13.9030     1.3020    -0.2050 H     1 <1>   0.0800 
@<TRIPOS>BOND
  1   1   2  1   
  2   2   3  ar  
  3   2   4  ar  
  4   3   5  ar  
  5   3  24  1   
  6   4   6  ar  
  7   4  25  1   
  8   5   7  ar  
  9   5  26  1   
 10   6   7  ar  
 11   6  27  1   
 12   7   8  1   
 13   8   9  1   
 14   8  10  2   
 15   9  11  1   
 16  10  12  1   
 17  10  13  1   
 18  11  12  2   
 19  12  14  1   
 20  13  15  2   
 21  13  16  am  
 22  14  17  1   
 23  14  28  1   
 24  16  18  1   
 25  16  29  1   
 26  17  19  1   
 27  17  30  1   
 28  17  31  1   
 29  18  20  1   
 30  18  21  1   
 31  18  32  1   
 32  19  22  1   
 33  19  33  1   
 34  19  34  1   
 35  20  21  1   
 36  20  35  1   
 37  20  36  1   
 38  21  37  1   
 39  21  38  1   
 40  22  23  1   
 41  23  39  1   
 42  23  40  1   
 43  23  41  1   
@<TRIPOS>SUBSTRUCTURE
  1 ****  10 GROUP 4 **** **** 0

# MOE 2024.06 (io_trps.svl 2023.06)
