@<TRIPOS>MOLECULE
NONAME
49 52 1 0 0 
SMALL
USER_CHARGES


@<TRIPOS>ATOM
  1 S       -3.3400    -2.3100     2.8940 S.3   1 <1>  -0.0800 
  2 C       -3.9700    -3.3130     1.6010 C.2   1 <1>  -0.1100 
  3 C       -2.2370    -1.5070     1.7920 C.2   1 <1>  -0.1100 
  4 C       -3.3650    -3.0230     0.4320 C.2   1 <1>  -0.1810 
  5 C       -2.3710    -1.9930     0.5450 C.2   1 <1>  -0.1500 
  6 C       -3.6680    -3.6770    -0.9000 C.3   1 <1>   0.5240 
  7 N       -5.0600    -3.3340    -1.2830 N.4   1 <1>  -0.9590 
  8 C       -5.5770    -4.1210    -2.4520 C.3   1 <1>   0.3430 
  9 C       -5.3130    -1.8730    -1.3970 C.3   1 <1>   0.3430 
 10 C       -7.1030    -3.9460    -2.6390 C.3   1 <1>   0.1400 
 11 C       -6.5530    -1.5210    -0.5730 C.3   1 <1>  -0.1600 
 12 N       -7.7570    -3.6100    -1.3390 N.am  1 <1>  -0.6600 
 13 C       -7.8750    -2.1530    -1.0430 C.3   1 <1>   0.1400 
 14 C       -7.7410    -4.5340    -0.3360 C.2   1 <1>   0.6300 
 15 O       -7.0870    -4.3300     0.6590 O.2   1 <1>  -0.5700 
 16 C       -8.4170    -5.8770    -0.5570 C.3   1 <1>  -0.1000 
 17 C       -8.3830    -6.9600     0.4820 C.3   1 <1>  -0.0680 
 18 C       -7.6020    -7.1160    -0.7880 C.3   1 <1>  -0.2000 
 19 C       -9.6240    -7.8000     0.7210 C.ar  1 <1>  -0.0320 
 20 C      -10.8100    -7.1930     1.1020 C.ar  1 <1>  -0.1500 
 21 C       -9.5830    -9.1770     0.5660 C.ar  1 <1>  -0.1500 
 22 C      -11.9480    -7.9520     1.3170 C.ar  1 <1>  -0.1500 
 23 C      -10.7190    -9.9390     0.7810 C.ar  1 <1>  -0.1500 
 24 C      -11.9020    -9.3260     1.1550 C.ar  1 <1>  -0.1500 
 25 H       -4.7420    -4.0150     1.8710 H     1 <1>   0.1500 
 26 H       -1.5950    -0.7490     2.2060 H     1 <1>   0.1500 
 27 H       -1.7950    -1.6580    -0.3010 H     1 <1>   0.1500 
 28 H       -3.5660    -4.7450    -0.7980 H     1 <1>   0.0800 
 29 H       -2.9750    -3.3320    -1.6500 H     1 <1>   0.0800 
 30 H       -5.6480    -3.6210    -0.4710 H     1 <1>   0.4500 
 31 H       -5.0670    -3.8350    -3.3570 H     1 <1>   0.0800 
 32 H       -5.3820    -5.1670    -2.2830 H     1 <1>   0.0800 
 33 H       -4.4730    -1.3200    -1.0060 H     1 <1>   0.0800 
 34 H       -5.4530    -1.5900    -2.4280 H     1 <1>   0.0800 
 35 H       -7.5240    -4.8530    -3.0400 H     1 <1>   0.0800 
 36 H       -7.2930    -3.1630    -3.3530 H     1 <1>   0.0800 
 37 H       -6.3790    -1.7810     0.4570 H     1 <1>   0.0800 
 38 H       -6.6760    -0.4520    -0.5920 H     1 <1>   0.0800 
 39 H       -8.2310    -1.6440    -1.9220 H     1 <1>   0.0800 
 40 H       -8.6190    -2.0150    -0.2740 H     1 <1>   0.0800 
 41 H       -9.3360    -5.7740    -1.1060 H     1 <1>   0.1000 
 42 H       -7.8340    -6.7730     1.3890 H     1 <1>   0.1000 
 43 H       -7.9450    -7.8320    -1.5150 H     1 <1>   0.1000 
 44 H       -6.5300    -7.0880    -0.7060 H     1 <1>   0.1000 
 45 H      -10.8500    -6.1260     1.2330 H     1 <1>   0.1500 
 46 H       -8.6660    -9.6580     0.2800 H     1 <1>   0.1500 
 47 H      -12.8660    -7.4760     1.6120 H     1 <1>   0.1500 
 48 H      -10.6820   -11.0070     0.6580 H     1 <1>   0.1500 
 49 H      -12.7850    -9.9170     1.3220 H     1 <1>   0.1500 
@<TRIPOS>BOND
  1   1   2  1   
  2   1   3  1   
  3   2   4  2   
  4   2  25  1   
  5   3   5  2   
  6   3  26  1   
  7   4   5  1   
  8   4   6  1   
  9   5  27  1   
 10   6   7  1   
 11   6  28  1   
 12   6  29  1   
 13   7   8  1   
 14   7   9  1   
 15   7  30  1   
 16   8  10  1   
 17   8  31  1   
 18   8  32  1   
 19   9  11  1   
 20   9  33  1   
 21   9  34  1   
 22  10  12  1   
 23  10  35  1   
 24  10  36  1   
 25  11  13  1   
 26  11  37  1   
 27  11  38  1   
 28  12  13  1   
 29  12  14  am  
 30  13  39  1   
 31  13  40  1   
 32  14  15  2   
 33  14  16  1   
 34  16  17  1   
 35  16  18  1   
 36  16  41  1   
 37  17  18  1   
 38  17  19  1   
 39  17  42  1   
 40  18  43  1   
 41  18  44  1   
 42  19  20  ar  
 43  19  21  ar  
 44  20  22  ar  
 45  20  45  1   
 46  21  23  ar  
 47  21  46  1   
 48  22  24  ar  
 49  22  47  1   
 50  23  24  ar  
 51  23  48  1   
 52  24  49  1   
@<TRIPOS>SUBSTRUCTURE
  1 ****  15 GROUP 4 **** **** 0

# MOE 2024.06 (io_trps.svl 2023.06)
