@<TRIPOS>MOLECULE
NONAME
52 54 1 0 0 
SMALL
USER_CHARGES


@<TRIPOS>ATOM
  1 O       -1.1780    -1.5490     0.1780 O.2   1 <1>  -0.5700 
  2 C       -0.2380    -2.2890     0.0150 C.2   1 <1>   0.5690 
  3 N       -0.2420    -3.3280    -0.8750 N.am  1 <1>  -0.6600 
  4 C        1.0170    -2.0730     0.8350 C.3   1 <1>  -0.0990 
  5 C        0.9430    -4.2130    -1.0010 C.3   1 <1>   0.1400 
  6 C       -1.4260    -3.6650    -1.7100 C.3   1 <1>   0.0600 
  7 C        2.2640    -2.1710    -0.0610 C.3   1 <1>  -0.0800 
  8 C        2.2360    -3.3730    -1.0340 C.3   1 <1>  -0.0800 
  9 C        3.5720    -2.2790     0.7360 C.3   1 <1>  -0.1600 
 10 C        3.4900    -4.1990    -0.7190 C.3   1 <1>  -0.1600 
 11 C        4.4590    -3.1910    -0.1030 C.3   1 <1>   0.2200 
 12 N        5.5690    -3.7950     0.6960 N.am  1 <1>  -0.6600 
 13 C        6.8780    -3.3810     0.6070 C.2   1 <1>   0.5690 
 14 C        5.2240    -4.9110     1.6340 C.3   1 <1>   0.0600 
 15 O        7.7630    -3.9680     1.1850 O.2   1 <1>  -0.5700 
 16 C        7.2560    -2.1610    -0.2330 C.3   1 <1>  -0.0990 
 17 C        8.6920    -1.6470    -0.0120 C.3   1 <1>  -0.1600 
 18 C        8.9930    -0.4140    -0.8720 C.3   1 <1>  -0.0170 
 19 C       10.4100     0.0780    -0.6320 C.ar  1 <1>  -0.1440 
 20 C       10.6660     1.0320     0.3420 C.ar  1 <1>  -0.1500 
 21 C       11.4620    -0.4220    -1.3830 C.ar  1 <1>  -0.1500 
 22 C       11.9560     1.4830     0.5590 C.ar  1 <1>  -0.1500 
 23 C       12.7540     0.0280    -1.1680 C.ar  1 <1>  -0.1500 
 24 C       13.0010     0.9820    -0.1970 C.ar  1 <1>  -0.1500 
 25 H        0.9760    -1.1090     1.3090 H     1 <1>   0.0800 
 26 H        1.0400    -2.8250     1.6010 H     1 <1>   0.0800 
 27 H        0.9520    -4.8800    -0.1560 H     1 <1>   0.0800 
 28 H        0.8720    -4.8050    -1.8980 H     1 <1>   0.0800 
 29 H       -1.7610    -4.6610    -1.4810 H     1 <1>   0.0800 
 30 H       -1.1660    -3.6040    -2.7520 H     1 <1>   0.0800 
 31 H       -2.2320    -2.9770    -1.5160 H     1 <1>   0.0800 
 32 H        2.3040    -1.2760    -0.6610 H     1 <1>   0.0800 
 33 H        2.3400    -2.9820    -2.0330 H     1 <1>   0.0800 
 34 H        3.3840    -2.7280     1.6940 H     1 <1>   0.0800 
 35 H        4.0250    -1.3140     0.8810 H     1 <1>   0.0800 
 36 H        3.9020    -4.6490    -1.6050 H     1 <1>   0.0800 
 37 H        3.2340    -4.9660    -0.0130 H     1 <1>   0.0800 
 38 H        4.8590    -2.6100    -0.9160 H     1 <1>   0.0800 
 39 H        4.2710    -4.7370     2.1000 H     1 <1>   0.0800 
 40 H        5.9640    -4.9960     2.4110 H     1 <1>   0.0800 
 41 H        5.1920    -5.8400     1.0910 H     1 <1>   0.0800 
 42 H        7.1360    -2.4230    -1.2680 H     1 <1>   0.0800 
 43 H        6.5730    -1.3660     0.0020 H     1 <1>   0.0800 
 44 H        8.8270    -1.4000     1.0270 H     1 <1>   0.0800 
 45 H        9.3940    -2.4280    -0.2540 H     1 <1>   0.0800 
 46 H        8.2980     0.3730    -0.6380 H     1 <1>   0.0800 
 47 H        8.8730    -0.6570    -1.9130 H     1 <1>   0.0800 
 48 H        9.8600     1.4250     0.9370 H     1 <1>   0.1500 
 49 H       11.2800    -1.1660    -2.1380 H     1 <1>   0.1500 
 50 H       12.1460     2.2230     1.3160 H     1 <1>   0.1500 
 51 H       13.5640    -0.3650    -1.7550 H     1 <1>   0.1500 
 52 H       14.0050     1.3330    -0.0290 H     1 <1>   0.1500 
@<TRIPOS>BOND
  1   1   2  2   
  2   2   3  am  
  3   2   4  1   
  4   3   5  1   
  5   3   6  1   
  6   4   7  1   
  7   4  25  1   
  8   4  26  1   
  9   5   8  1   
 10   5  27  1   
 11   5  28  1   
 12   6  29  1   
 13   6  30  1   
 14   6  31  1   
 15   7   8  1   
 16   7   9  1   
 17   7  32  1   
 18   8  10  1   
 19   8  33  1   
 20   9  11  1   
 21   9  34  1   
 22   9  35  1   
 23  10  11  1   
 24  10  36  1   
 25  10  37  1   
 26  11  12  1   
 27  11  38  1   
 28  12  13  am  
 29  12  14  1   
 30  13  15  2   
 31  13  16  1   
 32  14  39  1   
 33  14  40  1   
 34  14  41  1   
 35  16  17  1   
 36  16  42  1   
 37  16  43  1   
 38  17  18  1   
 39  17  44  1   
 40  17  45  1   
 41  18  19  1   
 42  18  46  1   
 43  18  47  1   
 44  19  20  ar  
 45  19  21  ar  
 46  20  22  ar  
 47  20  48  1   
 48  21  23  ar  
 49  21  49  1   
 50  22  24  ar  
 51  22  50  1   
 52  23  24  ar  
 53  23  51  1   
 54  24  52  1   
@<TRIPOS>SUBSTRUCTURE
  1 ****  16 GROUP 4 **** **** 0

# MOE 2024.06 (io_trps.svl 2023.06)
