@<TRIPOS>MOLECULE
Untitled Document
36 38 1 0 0 
SMALL
USER_CHARGES


@<TRIPOS>ATOM
  1 O       -0.1850    -0.2050     0.2490 O.3   1 <1>  -0.2800 
  2 C       -1.2680    -0.9570     0.4180 C.ar  1 <1>   0.1400 
  3 C       -0.5900     1.0520     0.1300 C.2   1 <1>  -0.0400 
  4 C       -2.4060    -0.1790     0.4020 C.ar  1 <1>   0.0000 
  5 C       -1.2960    -2.3480     0.5990 C.ar  1 <1>  -0.1500 
  6 C       -1.9330     1.1370     0.2170 C.2   1 <1>  -0.1500 
  7 C        0.4600     2.1300    -0.0630 C.3   1 <1>   0.0200 
  8 C       -3.6490    -0.8300     0.5660 C.ar  1 <1>  -0.1520 
  9 C       -2.5080    -2.9680     0.7680 C.ar  1 <1>  -0.1500 
 10 C        1.1920     1.9560    -1.3970 C.3   1 <1>  -0.2400 
 11 N       -4.9450    -0.4110     0.5900 N.pl3 1 <1>   0.3140 
 12 C       -3.6900    -2.1960     0.7510 C.ar  1 <1>   0.0000 
 13 N       -5.8030    -1.4350     0.7840 N.2   1 <1>  -0.7070 
 14 C       -5.4730     0.9420     0.3790 C.3   1 <1>   0.0960 
 15 C       -5.0560    -2.4860     0.8840 C.2   1 <1>   0.1390 
 16 C       -6.6560     0.8620    -0.6030 C.3   1 <1>   0.4230 
 17 N       -7.4730     2.0950    -0.5820 N.4   1 <1>  -0.8530 
 18 C       -6.1950     0.6480    -2.0440 C.3   1 <1>  -0.2400 
 19 H       -0.3670    -2.8880     0.6020 H     1 <1>   0.1500 
 20 H       -2.5310     2.0240     0.1640 H     1 <1>   0.1500 
 21 H       -0.0100     3.0970    -0.0360 H     1 <1>   0.0800 
 22 H        1.1660     2.0780     0.7470 H     1 <1>   0.0800 
 23 H       -2.5780    -4.0310     0.9130 H     1 <1>   0.1500 
 24 H        0.4940     2.0020    -2.2130 H     1 <1>   0.0800 
 25 H        1.6890     1.0020    -1.4230 H     1 <1>   0.0800 
 26 H        1.9260     2.7310    -1.5210 H     1 <1>   0.0800 
 27 H       -5.7960     1.3080     1.3350 H     1 <1>   0.0800 
 28 H       -4.6960     1.5700    -0.0100 H     1 <1>   0.0800 
 29 H       -5.4340    -3.4810     1.0510 H     1 <1>   0.1500 
 30 H       -7.2840     0.0330    -0.3090 H     1 <1>   0.0800 
 31 H       -6.9330     2.9160    -0.8730 H     1 <1>   0.4500 
 32 H       -7.8690     2.2620     0.3500 H     1 <1>   0.4500 
 33 H       -8.2600     1.9920    -1.2340 H     1 <1>   0.4500 
 34 H       -5.5520     1.4440    -2.3770 H     1 <1>   0.0800 
 35 H       -7.0370     0.5630    -2.7080 H     1 <1>   0.0800 
 36 H       -5.6420    -0.2740    -2.1130 H     1 <1>   0.0800 
@<TRIPOS>BOND
  1   1   2  1   
  2   1   3  1   
  3   2   4  ar  
  4   2   5  ar  
  5   3   6  2   
  6   3   7  1   
  7   4   6  1   
  8   4   8  ar  
  9   5   9  ar  
 10   5  19  1   
 11   6  20  1   
 12   7  10  1   
 13   7  21  1   
 14   7  22  1   
 15   8  11  1   
 16   8  12  ar  
 17   9  12  ar  
 18   9  23  1   
 19  10  24  1   
 20  10  25  1   
 21  10  26  1   
 22  11  13  1   
 23  11  14  1   
 24  12  15  1   
 25  13  15  2   
 26  14  16  1   
 27  14  27  1   
 28  14  28  1   
 29  15  29  1   
 30  16  17  1   
 31  16  18  1   
 32  16  30  1   
 33  17  31  1   
 34  17  32  1   
 35  17  33  1   
 36  18  34  1   
 37  18  35  1   
 38  18  36  1   
@<TRIPOS>SUBSTRUCTURE
  1 ****   4 GROUP 4 **** **** 0

# MOE 2024.06 (io_trps.svl 2023.06)
