@<TRIPOS>MOLECULE
NONAME
32 32 1 0 0 
SMALL
USER_CHARGES


@<TRIPOS>ATOM
  1 O       -0.4490     0.6970    -0.4310 O.2   1 <1>  -0.5700 
  2 C        0.0810     1.5760     0.2220 C.2   1 <1>   0.7200 
  3 O       -0.6130     2.6990     0.4470 O.3   1 <1>  -0.4300 
  4 C        1.4200     1.4650     0.7860 C.2   1 <1>   0.5090 
  5 C       -1.9140     2.8920    -0.0600 C.3   1 <1>   0.1200 
  6 O        1.9080     2.2260     1.5910 O.2   1 <1>  -0.5700 
  7 C        2.3050     0.3170     0.3530 C.3   1 <1>  -0.0380 
  8 C       -2.3920     4.2720     0.3810 C.3   1 <1>  -0.2400 
  9 C        3.2940     0.8620    -0.6460 C.2   1 <1>   0.4480 
 10 O        3.0110     0.8820    -1.8050 O.2   1 <1>  -0.5700 
 11 C        4.6300     1.3850    -0.1090 C.3   1 <1>  -0.0190 
 12 C        5.2880     2.4060    -1.0550 C.3   1 <1>  -0.1600 
 13 C        5.6220     0.2400     0.1570 C.3   1 <1>  -0.1600 
 14 C        6.6660     2.8250    -0.5350 C.3   1 <1>   0.1200 
 15 C        6.9810     0.7910     0.6050 C.3   1 <1>   0.1200 
 16 O        7.4540     1.6890    -0.3490 O.3   1 <1>  -0.5600 
 17 H       -2.5540     2.1190     0.3310 H     1 <1>   0.0800 
 18 H       -1.8780     2.8220    -1.1350 H     1 <1>   0.0800 
 19 H        1.7320    -0.4660    -0.1070 H     1 <1>   0.0800 
 20 H        2.8130    -0.0920     1.2050 H     1 <1>   0.0800 
 21 H       -2.4120     4.3320     1.4550 H     1 <1>   0.0800 
 22 H       -3.3850     4.4480     0.0100 H     1 <1>   0.0800 
 23 H       -1.7400     5.0330    -0.0100 H     1 <1>   0.0800 
 24 H        4.4410     1.8900     0.8220 H     1 <1>   0.0800 
 25 H        4.6600     3.2740    -1.1510 H     1 <1>   0.0800 
 26 H        5.4090     1.9790    -2.0360 H     1 <1>   0.0800 
 27 H        5.7650    -0.3360    -0.7420 H     1 <1>   0.0800 
 28 H        5.2420    -0.4180     0.9170 H     1 <1>   0.0800 
 29 H        6.5910     3.3500     0.4030 H     1 <1>   0.0800 
 30 H        7.1640     3.4560    -1.2510 H     1 <1>   0.0800 
 31 H        7.7020    -0.0040     0.6900 H     1 <1>   0.0800 
 32 H        6.9080     1.3010     1.5510 H     1 <1>   0.0800 
@<TRIPOS>BOND
  1   1   2  2   
  2   2   3  1   
  3   2   4  1   
  4   3   5  1   
  5   4   6  2   
  6   4   7  1   
  7   5   8  1   
  8   5  17  1   
  9   5  18  1   
 10   7   9  1   
 11   7  19  1   
 12   7  20  1   
 13   8  21  1   
 14   8  22  1   
 15   8  23  1   
 16   9  10  2   
 17   9  11  1   
 18  11  12  1   
 19  11  13  1   
 20  11  24  1   
 21  12  14  1   
 22  12  25  1   
 23  12  26  1   
 24  13  15  1   
 25  13  27  1   
 26  13  28  1   
 27  14  16  1   
 28  14  29  1   
 29  14  30  1   
 30  15  16  1   
 31  15  31  1   
 32  15  32  1   
@<TRIPOS>SUBSTRUCTURE
  1 ****   9 GROUP 4 **** **** 0

# MOE 2024.06 (io_trps.svl 2023.06)
