@<TRIPOS>MOLECULE
NONAME
30 31 1 0 0 
SMALL
USER_CHARGES


@<TRIPOS>ATOM
  1 CL       0.5230    -0.8430     2.5320 Cl    1 <1>  -0.1770 
  2 C        0.9260    -1.5740     0.9890 C.ar  1 <1>   0.1770 
  3 C        0.6330    -2.9070     0.7310 C.ar  1 <1>   0.4100 
  4 C        1.5410    -0.8450     0.0100 C.ar  1 <1>   0.1600 
  5 N        0.9330    -3.4470    -0.4370 N.ar  1 <1>  -0.6200 
  6 N        0.0070    -3.7120     1.6520 N.pl3 1 <1>  -0.8690 
  7 N        1.8560    -1.3790    -1.1590 N.ar  1 <1>  -0.6200 
  8 C        1.5350    -2.6530    -1.3080 C.ar  1 <1>   0.4770 
  9 C        0.1910    -5.1790     1.7320 C.3   1 <1>   0.4690 
 10 C        1.8940    -3.2690    -2.6390 C.3   1 <1>  -0.0960 
 11 C       -0.9120    -5.8860     0.9510 C.2   1 <1>   0.0070 
 12 C        0.1970    -5.5520     3.2110 C.3   1 <1>  -0.2400 
 13 N       -1.5420    -6.9670     1.2720 N.2   1 <1>  -0.3380 
 14 N       -1.3320    -5.4170    -0.2190 N.pl3 1 <1>   0.0330 
 15 N       -2.4090    -7.2210     0.2860 N.2   1 <1>  -0.3380 
 16 C       -2.2680    -6.2870    -0.5900 C.2   1 <1>   0.0060 
 17 C       -3.0570    -6.1770    -1.8770 C.3   1 <1>  -0.0600 
 18 H        1.7820     0.1900     0.1800 H     1 <1>   0.1500 
 19 H       -0.2520    -3.2930     2.5490 H     1 <1>   0.4000 
 20 H        1.1410    -5.4450     1.2980 H     1 <1>   0.0800 
 21 H        1.8670    -4.3410    -2.5800 H     1 <1>   0.0800 
 22 H        2.8840    -2.9630    -2.9240 H     1 <1>   0.0800 
 23 H        1.1970    -2.9380    -3.3860 H     1 <1>   0.0800 
 24 H       -0.7540    -5.3240     3.6570 H     1 <1>   0.0800 
 25 H        0.9820    -5.0300     3.7280 H     1 <1>   0.0800 
 26 H        0.3690    -6.6090     3.3110 H     1 <1>   0.0800 
 27 H       -0.9720    -4.5700    -0.6720 H     1 <1>   0.2700 
 28 H       -3.6060    -5.2530    -1.8950 H     1 <1>   0.0800 
 29 H       -3.7520    -6.9940    -1.9480 H     1 <1>   0.0800 
 30 H       -2.3920    -6.2150    -2.7210 H     1 <1>   0.0800 
@<TRIPOS>BOND
  1   1   2  1   
  2   2   3  ar  
  3   2   4  ar  
  4   3   5  ar  
  5   3   6  1   
  6   4   7  ar  
  7   4  18  1   
  8   5   8  ar  
  9   6   9  1   
 10   6  19  1   
 11   7   8  ar  
 12   8  10  1   
 13   9  11  1   
 14   9  12  1   
 15   9  20  1   
 16  10  21  1   
 17  10  22  1   
 18  10  23  1   
 19  11  13  2   
 20  11  14  1   
 21  12  24  1   
 22  12  25  1   
 23  12  26  1   
 24  13  15  1   
 25  14  16  1   
 26  14  27  1   
 27  15  16  2   
 28  16  17  1   
 29  17  28  1   
 30  17  29  1   
 31  17  30  1   
@<TRIPOS>SUBSTRUCTURE
  1 ****   5 GROUP 4 **** **** 0

# MOE 2024.06 (io_trps.svl 2023.06)
