@<TRIPOS>MOLECULE
NONAME
55 58 1 0 0 
SMALL
USER_CHARGES


@<TRIPOS>ATOM
  1 O       -1.1960     0.7940    -1.7810 O.2   1 <1>  -0.5700 
  2 C       -1.6150     0.8220    -0.6370 C.2   1 <1>   0.7160 
  3 N       -2.2140    -0.3070    -0.1190 N.am  1 <1>  -0.6600 
  4 C       -1.4950     2.0240     0.1210 C.2   1 <1>  -0.0860 
  5 C       -2.9560    -0.3270     1.1780 C.3   1 <1>   0.1400 
  6 C       -2.5010    -1.5160    -0.9480 C.3   1 <1>   0.1400 
  7 C       -2.5460     2.8990     0.4100 C.2   1 <1>   0.3720 
  8 C       -0.4310     2.5730     0.7630 C.2   1 <1>   0.0870 
  9 C       -4.4570    -0.5770     0.9250 C.3   1 <1>   0.2000 
 10 C       -4.0240    -1.7210    -1.0850 C.3   1 <1>   0.2000 
 11 N       -2.1470     3.8590     1.1700 N.2   1 <1>  -0.4100 
 12 N       -3.8680     2.7350    -0.0340 N.pl3 1 <1>  -0.8210 
 13 O       -0.8720     3.6490     1.3650 O.3   1 <1>  -0.0190 
 14 C        0.9490     2.1800     0.8950 C.ar  1 <1>   0.0530 
 15 O       -4.6280    -1.7450     0.1760 O.3   1 <1>  -0.5600 
 16 C       -5.2350    -0.7590     2.2240 C.3   1 <1>  -0.2400 
 17 C       -4.3650    -3.0430    -1.7660 C.3   1 <1>  -0.2400 
 18 C       -4.9010     3.6560     0.5100 C.3   1 <1>   0.2090 
 19 C       -4.0530     2.6180    -1.5060 C.3   1 <1>   0.2090 
 20 C        1.6630     2.4690     2.0590 C.ar  1 <1>  -0.1500 
 21 C        1.6290     1.5020    -0.1180 C.ar  1 <1>  -0.1500 
 22 C       -5.9910     3.6880    -0.5490 C.3   1 <1>  -0.1600 
 23 C       -5.2310     3.5190    -1.8570 C.3   1 <1>  -0.1600 
 24 C        2.9830     2.0910     2.2090 C.ar  1 <1>  -0.1500 
 25 C        2.9500     1.1180     0.0250 C.ar  1 <1>  -0.1500 
 26 C        3.6390     1.4100     1.1980 C.ar  1 <1>   0.0830 
 27 O        4.9300     1.0700     1.4210 O.3   1 <1>  -0.3630 
 28 C        5.6910     0.3840     0.4520 C.3   1 <1>   0.0400 
 29 H       -2.5650    -1.1160     1.7950 H     1 <1>   0.0800 
 30 H       -2.8370     0.5960     1.7150 H     1 <1>   0.0800 
 31 H       -2.0650    -1.4230    -1.9270 H     1 <1>   0.0800 
 32 H       -2.0650    -2.3780    -0.4750 H     1 <1>   0.0800 
 33 H       -4.8760     0.2470     0.3710 H     1 <1>   0.0800 
 34 H       -4.4510    -0.9080    -1.6470 H     1 <1>   0.0800 
 35 H       -4.8490    -1.5970     2.7770 H     1 <1>   0.0800 
 36 H       -6.2740    -0.9260     2.0050 H     1 <1>   0.0800 
 37 H       -5.1520     0.1250     2.8290 H     1 <1>   0.0800 
 38 H       -3.9760    -3.8680    -1.1970 H     1 <1>   0.0800 
 39 H       -3.9410    -3.0710    -2.7530 H     1 <1>   0.0800 
 40 H       -5.4320    -3.1430    -1.8500 H     1 <1>   0.0800 
 41 H       -5.2730     3.2970     1.4540 H     1 <1>   0.0800 
 42 H       -4.4910     4.6450     0.6370 H     1 <1>   0.0800 
 43 H       -3.1670     2.9180    -2.0420 H     1 <1>   0.0800 
 44 H       -4.2830     1.5950    -1.7480 H     1 <1>   0.0800 
 45 H        1.1740     2.9970     2.8600 H     1 <1>   0.1500 
 46 H        1.1240     1.2760    -1.0390 H     1 <1>   0.1500 
 47 H       -6.6530     2.8530    -0.3950 H     1 <1>   0.0800 
 48 H       -6.5560     4.6020    -0.5140 H     1 <1>   0.0800 
 49 H       -4.8530     4.4720    -2.1860 H     1 <1>   0.0800 
 50 H       -5.8400     3.0960    -2.6360 H     1 <1>   0.0800 
 51 H        3.5180     2.3200     3.1130 H     1 <1>   0.1500 
 52 H        3.4240     0.5960    -0.7840 H     1 <1>   0.1500 
 53 H        6.6770     0.2280     0.8510 H     1 <1>   0.0800 
 54 H        5.7480     0.9870    -0.4380 H     1 <1>   0.0800 
 55 H        5.2250    -0.5630     0.2480 H     1 <1>   0.0800 
@<TRIPOS>BOND
  1   1   2  2   
  2   2   3  am  
  3   2   4  1   
  4   3   5  1   
  5   3   6  1   
  6   4   7  1   
  7   4   8  2   
  8   5   9  1   
  9   5  29  1   
 10   5  30  1   
 11   6  10  1   
 12   6  31  1   
 13   6  32  1   
 14   7  11  2   
 15   7  12  1   
 16   8  13  1   
 17   8  14  1   
 18   9  15  1   
 19   9  16  1   
 20   9  33  1   
 21  10  15  1   
 22  10  17  1   
 23  10  34  1   
 24  11  13  1   
 25  12  18  1   
 26  12  19  1   
 27  14  20  ar  
 28  14  21  ar  
 29  16  35  1   
 30  16  36  1   
 31  16  37  1   
 32  17  38  1   
 33  17  39  1   
 34  17  40  1   
 35  18  22  1   
 36  18  41  1   
 37  18  42  1   
 38  19  23  1   
 39  19  43  1   
 40  19  44  1   
 41  20  24  ar  
 42  20  45  1   
 43  21  25  ar  
 44  21  46  1   
 45  22  23  1   
 46  22  47  1   
 47  22  48  1   
 48  23  49  1   
 49  23  50  1   
 50  24  26  ar  
 51  24  51  1   
 52  25  26  ar  
 53  25  52  1   
 54  26  27  1   
 55  27  28  1   
 56  28  53  1   
 57  28  54  1   
 58  28  55  1   
@<TRIPOS>SUBSTRUCTURE
  1 ****   4 GROUP 4 **** **** 0

# MOE 2024.06 (io_trps.svl 2023.06)
