@<TRIPOS>MOLECULE
NONAME
42 43 1 0 0 
SMALL
USER_CHARGES


@<TRIPOS>ATOM
  1 F        0.8810     1.0110     0.9450 F     1 <1>  -0.1900 
  2 C        1.0060     2.3060     0.8630 C.ar  1 <1>   0.1900 
  3 C        1.4910     3.0030     1.9520 C.ar  1 <1>  -0.1500 
  4 C        0.6510     2.9400    -0.3110 C.ar  1 <1>  -0.1500 
  5 C        1.6170     4.3780     1.8540 C.ar  1 <1>  -0.1500 
  6 C        0.7850     4.3160    -0.3910 C.ar  1 <1>  -0.1500 
  7 C        1.2640     5.0680     0.6890 C.ar  1 <1>   0.0860 
  8 C        1.3960     6.5140     0.6190 C.2   1 <1>   0.5440 
  9 O        2.2270     7.0950     1.2910 O.2   1 <1>  -0.5700 
 10 N        0.5860     7.2580    -0.1950 N.am  1 <1>  -0.7300 
 11 C        0.6120     8.7380    -0.2780 C.3   1 <1>   0.1400 
 12 C        1.6510     9.1780    -1.3050 C.3   1 <1>  -0.0990 
 13 C        1.8480    10.6770    -1.2200 C.2   1 <1>   0.5690 
 14 O        1.1490    11.3590    -1.9310 O.2   1 <1>  -0.5700 
 15 N        2.7660    11.2250    -0.3630 N.am  1 <1>  -0.6600 
 16 C        3.0200    12.6940    -0.3680 C.3   1 <1>   0.3210 
 17 C        3.5940    10.4500     0.6120 C.3   1 <1>   0.0600 
 18 C        4.5020    12.9680    -0.5590 C.2   1 <1>  -0.1810 
 19 C        5.4250    13.4780     0.2880 C.2   1 <1>  -0.3320 
 20 C        5.2000    12.7110    -1.7340 C.2   1 <1>   0.1390 
 21 N        6.5920    13.5050    -0.3920 N.pl3 1 <1>   0.3000 
 22 C        5.2910    13.9500     1.7260 C.3   1 <1>  -0.0600 
 23 N        6.4550    13.0310    -1.6430 N.2   1 <1>  -0.7070 
 24 H        1.7630     2.4790     2.8510 H     1 <1>   0.1500 
 25 H        0.2830     2.3620    -1.1400 H     1 <1>   0.1500 
 26 H        1.9970     4.9370     2.6940 H     1 <1>   0.1500 
 27 H        0.5220     4.8100    -1.3090 H     1 <1>   0.1500 
 28 H       -0.1640     6.7990    -0.7120 H     1 <1>   0.3700 
 29 H        0.8610     9.1410     0.6900 H     1 <1>   0.0800 
 30 H       -0.3610     9.1080    -0.5530 H     1 <1>   0.0800 
 31 H        1.3080     8.9300    -2.2920 H     1 <1>   0.0800 
 32 H        2.5860     8.6770    -1.1400 H     1 <1>   0.0800 
 33 H        2.6830    13.1100     0.5640 H     1 <1>   0.0800 
 34 H        2.4730    13.1760    -1.1600 H     1 <1>   0.0800 
 35 H        3.1230     9.5210     0.8800 H     1 <1>   0.0800 
 36 H        3.7360    11.0230     1.5110 H     1 <1>   0.0800 
 37 H        4.5580    10.2410     0.1800 H     1 <1>   0.0800 
 38 H        4.7560    12.2920    -2.6220 H     1 <1>   0.1500 
 39 H        7.4950    13.8380    -0.0330 H     1 <1>   0.2700 
 40 H        4.2810    13.8300     2.0740 H     1 <1>   0.0800 
 41 H        5.5540    14.9910     1.8000 H     1 <1>   0.0800 
 42 H        5.9400    13.3790     2.3650 H     1 <1>   0.0800 
@<TRIPOS>BOND
  1   1   2  1   
  2   2   3  ar  
  3   2   4  ar  
  4   3   5  ar  
  5   3  24  1   
  6   4   6  ar  
  7   4  25  1   
  8   5   7  ar  
  9   5  26  1   
 10   6   7  ar  
 11   6  27  1   
 12   7   8  1   
 13   8   9  2   
 14   8  10  am  
 15  10  11  1   
 16  10  28  1   
 17  11  12  1   
 18  11  29  1   
 19  11  30  1   
 20  12  13  1   
 21  12  31  1   
 22  12  32  1   
 23  13  14  2   
 24  13  15  am  
 25  15  16  1   
 26  15  17  1   
 27  16  18  1   
 28  16  33  1   
 29  16  34  1   
 30  17  35  1   
 31  17  36  1   
 32  17  37  1   
 33  18  19  2   
 34  18  20  1   
 35  19  21  1   
 36  19  22  1   
 37  20  23  2   
 38  20  38  1   
 39  21  23  1   
 40  21  39  1   
 41  22  40  1   
 42  22  41  1   
 43  22  42  1   
@<TRIPOS>SUBSTRUCTURE
  1 ****  12 GROUP 4 **** **** 0

# MOE 2024.06 (io_trps.svl 2023.06)
