@<TRIPOS>MOLECULE
NONAME
47 50 1 0 0 
SMALL
USER_CHARGES


@<TRIPOS>ATOM
  1 O       -0.7210     0.1880    -1.5100 O.2   1 <1>  -0.5700 
  2 C       -1.5470     0.7980    -0.8580 C.2   1 <1>   0.5440 
  3 N       -2.6210     0.1170    -0.3360 N.am  1 <1>  -0.6600 
  4 C       -1.3950     2.2170    -0.6370 C.ar  1 <1>   0.0860 
  5 C       -3.5490     0.6560     0.6890 C.3   1 <1>   0.1400 
  6 C       -2.8170    -1.3430    -0.5000 C.3   1 <1>   0.1400 
  7 C       -0.3320     2.7500     0.1350 C.ar  1 <1>   0.0000 
  8 C       -2.2920     3.1130    -1.1510 C.ar  1 <1>  -0.1500 
  9 C       -4.3180    -0.5590     1.2150 C.3   1 <1>   0.2000 
 10 C       -3.5180    -1.7880     0.7840 C.3   1 <1>  -0.0800 
 11 C       -0.2970     4.1480     0.3380 C.ar  1 <1>   0.3100 
 12 C        0.6850     1.9630     0.7170 C.ar  1 <1>  -0.1500 
 13 C       -2.1660     4.4790    -0.8980 C.ar  1 <1>   0.3920 
 14 O       -4.4260    -0.5320     2.5970 O.3   1 <1>  -0.6800 
 15 C       -4.4000    -3.0390     0.6230 C.3   1 <1>  -0.0160 
 16 N       -1.2150     4.9990    -0.1750 N.ar  1 <1>  -0.6200 
 17 C        0.7380     4.6910     1.1170 C.ar  1 <1>  -0.1500 
 18 C        1.6820     2.5230     1.4700 C.ar  1 <1>  -0.1500 
 19 O       -3.1070     5.2730    -1.4420 O.3   1 <1>  -0.3630 
 20 C       -3.5870    -4.2540     0.2060 C.ar  1 <1>   0.1670 
 21 C        1.7090     3.9040     1.6750 C.ar  1 <1>  -0.1500 
 22 C       -3.0690     6.6750    -1.2640 C.3   1 <1>   0.0400 
 23 N       -3.3210    -4.3700    -1.0850 N.ar  1 <1>  -0.6200 
 24 C       -3.1600    -5.1700     1.1660 C.ar  1 <1>   0.1600 
 25 C       -2.6040    -5.4500    -1.3490 C.ar  1 <1>   0.1600 
 26 N       -2.4440    -6.2510     0.9040 N.ar  1 <1>  -0.6200 
 27 C       -2.1800    -6.3590    -0.3870 C.ar  1 <1>   0.1600 
 28 H       -2.9860     1.1310     1.4740 H     1 <1>   0.0800 
 29 H       -4.2260     1.3620     0.2400 H     1 <1>   0.0800 
 30 H       -3.4410    -1.5190    -1.3610 H     1 <1>   0.0800 
 31 H       -1.8790    -1.8570    -0.6350 H     1 <1>   0.0800 
 32 H       -3.1130     2.7850    -1.7600 H     1 <1>   0.1500 
 33 H       -5.3100    -0.5690     0.7980 H     1 <1>   0.0800 
 34 H       -2.7470    -1.9870     1.5080 H     1 <1>   0.0800 
 35 H        0.6810     0.8970     0.5590 H     1 <1>   0.1500 
 36 H       -3.5400    -0.5120     3.0070 H     1 <1>   0.4000 
 37 H       -5.1610    -2.8590    -0.1160 H     1 <1>   0.0800 
 38 H       -4.8970    -3.2420     1.5550 H     1 <1>   0.0800 
 39 H        0.7440     5.7560     1.2610 H     1 <1>   0.1500 
 40 H        2.4520     1.9110     1.9070 H     1 <1>   0.1500 
 41 H        2.4970     4.3340     2.2690 H     1 <1>   0.1500 
 42 H       -3.9050     7.1060    -1.7850 H     1 <1>   0.0800 
 43 H       -2.1470     7.0520    -1.6690 H     1 <1>   0.0800 
 44 H       -3.1340     6.8940    -0.2130 H     1 <1>   0.0800 
 45 H       -3.4210    -5.0020     2.1950 H     1 <1>   0.1500 
 46 H       -2.3380    -5.6240    -2.3770 H     1 <1>   0.1500 
 47 H       -1.5990    -7.2090    -0.7010 H     1 <1>   0.1500 
@<TRIPOS>BOND
  1   1   2  2   
  2   2   3  am  
  3   2   4  1   
  4   3   5  1   
  5   3   6  1   
  6   4   7  ar  
  7   4   8  ar  
  8   5   9  1   
  9   5  28  1   
 10   5  29  1   
 11   6  10  1   
 12   6  30  1   
 13   6  31  1   
 14   7  11  ar  
 15   7  12  ar  
 16   8  13  ar  
 17   8  32  1   
 18   9  10  1   
 19   9  14  1   
 20   9  33  1   
 21  10  15  1   
 22  10  34  1   
 23  11  16  ar  
 24  11  17  ar  
 25  12  18  ar  
 26  12  35  1   
 27  13  16  ar  
 28  13  19  1   
 29  14  36  1   
 30  15  20  1   
 31  15  37  1   
 32  15  38  1   
 33  17  21  ar  
 34  17  39  1   
 35  18  21  ar  
 36  18  40  1   
 37  19  22  1   
 38  20  23  ar  
 39  20  24  ar  
 40  21  41  1   
 41  22  42  1   
 42  22  43  1   
 43  22  44  1   
 44  23  25  ar  
 45  24  26  ar  
 46  24  45  1   
 47  25  27  ar  
 48  25  46  1   
 49  26  27  ar  
 50  27  47  1   
@<TRIPOS>SUBSTRUCTURE
  1 ****   3 GROUP 4 **** **** 0

# MOE 2024.06 (io_trps.svl 2023.06)
