@<TRIPOS>MOLECULE
NONAME
39 41 1 0 0 
SMALL
USER_CHARGES


@<TRIPOS>ATOM
  1 O        0.6320    -0.2650    -1.2590 O.2   1 <1>  -0.5700 
  2 C        1.5030    -0.7570    -0.5760 C.2   1 <1>   0.5690 
  3 N        1.6760    -2.1120    -0.4620 N.am  1 <1>  -0.6600 
  4 C        2.4290     0.1940     0.1980 C.3   1 <1>   0.1710 
  5 C        2.8670    -2.6920     0.2320 C.3   1 <1>   0.1400 
  6 C        0.7600    -3.1090    -1.1500 C.3   1 <1>   0.0340 
  7 N        3.7440    -0.3850     0.6130 N.3   1 <1>  -0.8100 
  8 C        3.5200    -1.7090     1.2190 C.3   1 <1>   0.1100 
  9 C        0.5330    -4.4540    -0.4490 C.2   1 <1>   0.9060 
 10 C        4.4530     0.5140     1.5400 C.3   1 <1>   0.2900 
 11 O        1.4050    -5.3300    -0.5430 O.co2 1 <1>  -0.9000 
 12 O       -0.5070    -4.6400     0.1950 O.co2 1 <1>  -0.9000 
 13 C        4.8320     1.8490     0.9090 C.2   1 <1>  -0.0400 
 14 O        4.8550     2.8980     1.7280 O.3   1 <1>  -0.2800 
 15 C        5.1680     2.2140    -0.3490 C.2   1 <1>  -0.1810 
 16 C        5.1960     3.9650     1.0060 C.ar  1 <1>   0.1400 
 17 C        5.4050     3.6050    -0.3120 C.ar  1 <1>   0.0000 
 18 C        5.3020     1.3870    -1.6160 C.3   1 <1>  -0.0590 
 19 C        5.3390     5.2750     1.4440 C.ar  1 <1>  -0.1500 
 20 C        5.7700     4.5840    -1.2370 C.ar  1 <1>  -0.1500 
 21 C        5.7010     6.2370     0.5240 C.ar  1 <1>  -0.1500 
 22 C        5.9160     5.8910    -0.8140 C.ar  1 <1>  -0.1500 
 23 H        1.8890     0.5190     1.0680 H     1 <1>   0.0800 
 24 H        2.6010     1.0560    -0.4200 H     1 <1>   0.0800 
 25 H        3.5860    -2.9920    -0.5090 H     1 <1>   0.0800 
 26 H        2.5800    -3.5690     0.7840 H     1 <1>   0.0800 
 27 H        1.1630    -3.3260    -2.1190 H     1 <1>   0.0800 
 28 H       -0.2050    -2.6600    -1.2890 H     1 <1>   0.0800 
 29 H        4.4590    -2.1250     1.5400 H     1 <1>   0.0800 
 30 H        2.8830    -1.6150     2.0830 H     1 <1>   0.0800 
 31 H        5.3550     0.0400     1.8840 H     1 <1>   0.0800 
 32 H        3.8290     0.7010     2.3970 H     1 <1>   0.0800 
 33 H        5.2310     0.3380    -1.4000 H     1 <1>   0.0800 
 34 H        6.2550     1.5740    -2.0750 H     1 <1>   0.0800 
 35 H        4.5220     1.6500    -2.3070 H     1 <1>   0.0800 
 36 H        5.1670     5.5100     2.4780 H     1 <1>   0.1500 
 37 H        5.9320     4.3090    -2.2630 H     1 <1>   0.1500 
 38 H        5.8210     7.2620     0.8310 H     1 <1>   0.1500 
 39 H        6.1970     6.6560    -1.5160 H     1 <1>   0.1500 
@<TRIPOS>BOND
  1   1   2  2   
  2   2   3  am  
  3   2   4  1   
  4   3   5  1   
  5   3   6  1   
  6   4   7  1   
  7   4  23  1   
  8   4  24  1   
  9   5   8  1   
 10   5  25  1   
 11   5  26  1   
 12   6   9  1   
 13   6  27  1   
 14   6  28  1   
 15   7   8  1   
 16   7  10  1   
 17   8  29  1   
 18   8  30  1   
 19   9  11  ar  
 20   9  12  ar  
 21  10  13  1   
 22  10  31  1   
 23  10  32  1   
 24  13  14  1   
 25  13  15  2   
 26  14  16  1   
 27  15  17  1   
 28  15  18  1   
 29  16  17  ar  
 30  16  19  ar  
 31  17  20  ar  
 32  18  33  1   
 33  18  34  1   
 34  18  35  1   
 35  19  21  ar  
 36  19  36  1   
 37  20  22  ar  
 38  20  37  1   
 39  21  22  ar  
 40  21  38  1   
 41  22  39  1   
@<TRIPOS>SUBSTRUCTURE
  1 ****   4 GROUP 4 **** **** 0

# MOE 2024.06 (io_trps.svl 2023.06)
