@<TRIPOS>MOLECULE
NONAME
51 54 1 0 0 
SMALL
USER_CHARGES


@<TRIPOS>ATOM
  1 CL      -2.4800     2.9850    -2.5480 Cl    1 <1>  -0.1230 
  2 C       -1.6970     2.8010    -0.9860 C.2   1 <1>   0.1230 
  3 C       -0.4620     3.3980    -0.6770 C.ar  1 <1>   0.0000 
  4 C       -2.1470     2.0950     0.0800 C.2   1 <1>  -0.3320 
  5 C       -0.1870     3.0070     0.6310 C.ar  1 <1>  -0.1520 
  6 C        0.4380     4.2210    -1.3620 C.ar  1 <1>  -0.1500 
  7 N       -1.2120     2.2080     1.0810 N.pl3 1 <1>   0.0330 
  8 C       -3.4150     1.2880     0.2350 C.3   1 <1>   0.5230 
  9 C        0.9820     3.4270     1.2700 C.ar  1 <1>  -0.1500 
 10 C        1.5870     4.6340    -0.7290 C.ar  1 <1>  -0.1500 
 11 N       -4.5120     2.0280    -0.4240 N.4   1 <1>  -0.9590 
 12 C        1.8590     4.2370     0.5860 C.ar  1 <1>  -0.1500 
 13 C       -4.8160     3.3150     0.2640 C.3   1 <1>   0.3430 
 14 C       -5.7220     1.1880    -0.6240 C.3   1 <1>   0.3430 
 15 C       -5.8320     4.1050    -0.5530 C.3   1 <1>  -0.1600 
 16 C       -6.7390     1.9600    -1.4560 C.3   1 <1>  -0.1600 
 17 C       -7.1180     3.2990    -0.8110 C.3   1 <1>   0.2800 
 18 O       -7.8340     3.9580    -1.8050 O.3   1 <1>  -0.5600 
 19 C       -7.9830     3.0700     0.4640 C.3   1 <1>  -0.1600 
 20 C       -8.5020     5.1670    -1.5250 C.3   1 <1>   0.1200 
 21 C       -9.3160     3.8360     0.4900 C.3   1 <1>   0.2800 
 22 C       -9.1140     5.2450    -0.1110 C.3   1 <1>   0.2000 
 23 O      -10.2290     3.1470    -0.2860 O.3   1 <1>  -0.6800 
 24 C       -9.9230     3.8660     1.8970 C.3   1 <1>  -0.2400 
 25 O       -8.2670     6.0000     0.7120 O.3   1 <1>  -0.6800 
 26 H        0.2200     4.5180    -2.3720 H     1 <1>   0.1500 
 27 H       -1.2190     1.7790     2.0150 H     1 <1>   0.2700 
 28 H       -3.6450     1.1450     1.2780 H     1 <1>   0.0800 
 29 H       -3.2820     0.3220    -0.2270 H     1 <1>   0.0800 
 30 H        1.1920     3.1210     2.2800 H     1 <1>   0.1500 
 31 H        2.2920     5.2680    -1.2400 H     1 <1>   0.1500 
 32 H       -4.1480     2.2800    -1.3560 H     1 <1>   0.4500 
 33 H        2.7660     4.5750     1.0560 H     1 <1>   0.1500 
 34 H       -5.2110     3.1240     1.2480 H     1 <1>   0.0800 
 35 H       -3.9160     3.9010     0.3680 H     1 <1>   0.0800 
 36 H       -5.4610     0.2780    -1.1400 H     1 <1>   0.0800 
 37 H       -6.1540     0.9300     0.3290 H     1 <1>   0.0800 
 38 H       -5.3840     4.3800    -1.4910 H     1 <1>   0.0800 
 39 H       -6.0550     5.0100    -0.0230 H     1 <1>   0.0800 
 40 H       -7.6250     1.3620    -1.5820 H     1 <1>   0.0800 
 41 H       -6.3270     2.1340    -2.4350 H     1 <1>   0.0800 
 42 H       -8.1830     2.0260     0.6210 H     1 <1>   0.0800 
 43 H       -7.4150     3.3910     1.3160 H     1 <1>   0.0800 
 44 H       -7.8210     5.9810    -1.6980 H     1 <1>   0.0800 
 45 H       -9.2970     5.2340    -2.2460 H     1 <1>   0.0800 
 46 H      -10.0580     5.7610    -0.1440 H     1 <1>   0.0800 
 47 H      -10.5090     2.3330     0.1690 H     1 <1>   0.4000 
 48 H       -9.2730     4.3940     2.5710 H     1 <1>   0.0800 
 49 H      -10.0630     2.8710     2.2790 H     1 <1>   0.0800 
 50 H      -10.8680     4.3790     1.8820 H     1 <1>   0.0800 
 51 H       -8.3420     6.9500     0.4900 H     1 <1>   0.4000 
@<TRIPOS>BOND
  1   1   2  1   
  2   2   3  1   
  3   2   4  2   
  4   3   5  ar  
  5   3   6  ar  
  6   4   7  1   
  7   4   8  1   
  8   5   7  1   
  9   5   9  ar  
 10   6  10  ar  
 11   6  26  1   
 12   7  27  1   
 13   8  11  1   
 14   8  28  1   
 15   8  29  1   
 16   9  12  ar  
 17   9  30  1   
 18  10  12  ar  
 19  10  31  1   
 20  11  13  1   
 21  11  14  1   
 22  11  32  1   
 23  12  33  1   
 24  13  15  1   
 25  13  34  1   
 26  13  35  1   
 27  14  16  1   
 28  14  36  1   
 29  14  37  1   
 30  15  17  1   
 31  15  38  1   
 32  15  39  1   
 33  16  17  1   
 34  16  40  1   
 35  16  41  1   
 36  17  18  1   
 37  17  19  1   
 38  18  20  1   
 39  19  21  1   
 40  19  42  1   
 41  19  43  1   
 42  20  22  1   
 43  20  44  1   
 44  20  45  1   
 45  21  22  1   
 46  21  23  1   
 47  21  24  1   
 48  22  25  1   
 49  22  46  1   
 50  23  47  1   
 51  24  48  1   
 52  24  49  1   
 53  24  50  1   
 54  25  51  1   
@<TRIPOS>SUBSTRUCTURE
  1 ****  13 GROUP 4 **** **** 0

# MOE 2024.06 (io_trps.svl 2023.06)
