@<TRIPOS>MOLECULE
NONAME
43 44 1 0 0 
SMALL
USER_CHARGES


@<TRIPOS>ATOM
  1 F       -0.5630    -2.7660    -1.2920 F     1 <1>  -0.3400 
  2 C       -1.8000    -3.2670    -1.2930 C.3   1 <1>   0.9600 
  3 F       -1.6070    -4.5860    -1.2780 F     1 <1>  -0.3400 
  4 O       -2.3930    -2.9560    -0.0380 O.3   1 <1>  -0.3630 
  5 C       -2.6040    -2.8750    -2.5750 C.3   1 <1>   0.6000 
  6 C       -2.6190    -1.7240     0.4900 C.ar  1 <1>   0.0830 
  7 F       -1.9400    -3.1900    -3.6920 F     1 <1>  -0.3400 
  8 F       -2.8090    -1.5590    -2.6880 F     1 <1>  -0.3400 
  9 C       -3.4670    -1.6630     1.6030 C.ar  1 <1>   0.0860 
 10 C       -2.0570    -0.5530    -0.0160 C.ar  1 <1>  -0.1500 
 11 C       -4.0580    -2.8570     2.1620 C.2   1 <1>   0.5440 
 12 C       -3.7350    -0.4190     2.1720 C.ar  1 <1>  -0.1500 
 13 C       -2.3450     0.6690     0.5610 C.ar  1 <1>  -0.1500 
 14 O       -3.4610    -3.4570     3.0370 O.2   1 <1>  -0.5700 
 15 N       -5.2900    -3.3170     1.7540 N.am  1 <1>  -0.6600 
 16 C       -3.1860     0.7380     1.6570 C.ar  1 <1>  -0.1500 
 17 C       -5.7450    -4.6910     2.1300 C.3   1 <1>   0.3210 
 18 C       -6.2500    -2.5260     0.9200 C.3   1 <1>   0.1400 
 19 C       -5.6300    -5.6310     0.9360 C.2   1 <1>   0.0460 
 20 C       -5.8230    -2.3140    -0.5470 C.3   1 <1>   0.1200 
 21 N       -6.6250    -5.7340     0.0290 N.2   1 <1>  -0.5650 
 22 C       -4.5910    -6.4320     0.6010 C.2   1 <1>  -0.3320 
 23 O       -5.2630    -3.4600    -1.0910 O.3   1 <1>  -0.6800 
 24 C       -6.1800    -6.6010    -0.8230 C.2   1 <1>   0.0360 
 25 N       -4.9470    -7.0630    -0.5320 N.pl3 1 <1>   0.0330 
 26 C       -3.2460    -6.6390     1.2770 C.3   1 <1>  -0.0600 
 27 H       -3.5540    -3.3620    -2.6280 H     1 <1>   0.0800 
 28 H       -1.3890    -0.5600    -0.8560 H     1 <1>   0.1500 
 29 H       -4.3780    -0.3700     3.0340 H     1 <1>   0.1500 
 30 H       -1.9100     1.5690     0.1600 H     1 <1>   0.1500 
 31 H       -3.4040     1.6910     2.1090 H     1 <1>   0.1500 
 32 H       -6.7660    -4.6600     2.4640 H     1 <1>   0.0800 
 33 H       -5.1540    -5.0800     2.9390 H     1 <1>   0.0800 
 34 H       -6.4010    -1.5640     1.3770 H     1 <1>   0.0800 
 35 H       -7.2070    -3.0210     0.9190 H     1 <1>   0.0800 
 36 H       -5.1050    -1.5190    -0.6280 H     1 <1>   0.0800 
 37 H       -6.6830    -2.0530    -1.1390 H     1 <1>   0.0800 
 38 H       -5.6600    -4.2590    -0.6470 H     1 <1>   0.4000 
 39 H       -6.7240    -6.9350    -1.6890 H     1 <1>   0.1500 
 40 H       -4.3970    -7.7440    -1.0640 H     1 <1>   0.2700 
 41 H       -3.1470    -5.9950     2.1330 H     1 <1>   0.0800 
 42 H       -2.4480    -6.4080     0.5950 H     1 <1>   0.0800 
 43 H       -3.1440    -7.6580     1.6040 H     1 <1>   0.0800 
@<TRIPOS>BOND
  1   1   2  1   
  2   2   3  1   
  3   2   4  1   
  4   2   5  1   
  5   4   6  1   
  6   5   7  1   
  7   5   8  1   
  8   5  27  1   
  9   6   9  ar  
 10   6  10  ar  
 11   9  11  1   
 12   9  12  ar  
 13  10  13  ar  
 14  10  28  1   
 15  11  14  2   
 16  11  15  am  
 17  12  16  ar  
 18  12  29  1   
 19  13  16  ar  
 20  13  30  1   
 21  15  17  1   
 22  15  18  1   
 23  16  31  1   
 24  17  19  1   
 25  17  32  1   
 26  17  33  1   
 27  18  20  1   
 28  18  34  1   
 29  18  35  1   
 30  19  21  1   
 31  19  22  2   
 32  20  23  1   
 33  20  36  1   
 34  20  37  1   
 35  21  24  2   
 36  22  25  1   
 37  22  26  1   
 38  23  38  1   
 39  24  25  1   
 40  24  39  1   
 41  25  40  1   
 42  26  41  1   
 43  26  42  1   
 44  26  43  1   
@<TRIPOS>SUBSTRUCTURE
  1 ****   4 GROUP 4 **** **** 0

# MOE 2024.06 (io_trps.svl 2023.06)
