@<TRIPOS>MOLECULE
NONAME
47 48 1 0 0 
SMALL
USER_CHARGES


@<TRIPOS>ATOM
  1 O       -0.7740     0.1460     1.6740 O.2   1 <1>  -0.5700 
  2 C       -1.2740     0.6840     0.7170 C.2   1 <1>   0.5690 
  3 N       -1.9580    -0.0170    -0.2250 N.am  1 <1>  -0.7300 
  4 C       -1.1480     2.1990     0.5720 C.3   1 <1>  -0.0190 
  5 C       -2.1440    -1.4870    -0.2160 C.3   1 <1>   0.1400 
  6 C       -2.5250     2.8920     0.5580 C.3   1 <1>  -0.1600 
  7 C       -0.3000     2.5960    -0.6610 C.3   1 <1>  -0.1600 
  8 C       -3.5120    -1.8350     0.3700 C.3   1 <1>  -0.0170 
  9 C       -2.4000     4.4300     0.5730 C.3   1 <1>   0.2000 
 10 C       -0.5750     4.0260    -1.1680 C.3   1 <1>  -0.1600 
 11 C       -3.7410    -3.3360     0.3130 C.ar  1 <1>  -0.1440 
 12 O       -3.4790     4.9560    -0.1600 O.3   1 <1>  -0.5600 
 13 C       -1.0690     4.9370    -0.0420 C.3   1 <1>   0.2000 
 14 C       -4.4770    -3.9000    -0.7190 C.ar  1 <1>  -0.1500 
 15 C       -3.2090    -4.1570     1.2950 C.ar  1 <1>  -0.1500 
 16 C       -4.6730     5.0770     0.5510 C.3   1 <1>   0.0400 
 17 O       -1.2630     6.1980    -0.5670 O.3   1 <1>  -0.6800 
 18 C       -4.6800    -5.2680    -0.7710 C.ar  1 <1>  -0.1500 
 19 C       -3.4100    -5.5250     1.2450 C.ar  1 <1>  -0.1500 
 20 C       -4.1440    -6.0910     0.2150 C.ar  1 <1>   0.0820 
 21 O       -4.2950    -7.4390     0.2400 O.3   1 <1>  -0.3620 
 22 C       -5.0330    -8.1110    -0.7560 C.3   1 <1>   0.0400 
 23 H       -2.3800     0.4830    -1.0090 H     1 <1>   0.3700 
 24 H       -0.6280     2.5460     1.4500 H     1 <1>   0.0800 
 25 H       -2.0660    -1.8650    -1.2210 H     1 <1>   0.0800 
 26 H       -1.3710    -1.9490     0.3770 H     1 <1>   0.0800 
 27 H       -3.0910     2.5760     1.4160 H     1 <1>   0.0800 
 28 H       -3.0540     2.5890    -0.3290 H     1 <1>   0.0800 
 29 H        0.7400     2.5070    -0.3940 H     1 <1>   0.0800 
 30 H       -0.4750     1.9130    -1.4740 H     1 <1>   0.0800 
 31 H       -3.5540    -1.5050     1.3940 H     1 <1>   0.0800 
 32 H       -4.2840    -1.3290    -0.1810 H     1 <1>   0.0800 
 33 H       -2.4520     4.7970     1.5850 H     1 <1>   0.0800 
 34 H       -1.3340     3.9870    -1.9310 H     1 <1>   0.0800 
 35 H        0.3210     4.4330    -1.6030 H     1 <1>   0.0800 
 36 H       -0.3090     5.0090     0.7170 H     1 <1>   0.0800 
 37 H       -4.8960    -3.2750    -1.4870 H     1 <1>   0.1500 
 38 H       -2.6350    -3.7350     2.1030 H     1 <1>   0.1500 
 39 H       -5.4160     5.4860    -0.1110 H     1 <1>   0.0800 
 40 H       -4.5250     5.7450     1.3820 H     1 <1>   0.0800 
 41 H       -4.9890     4.1080     0.8940 H     1 <1>   0.0800 
 42 H       -2.2040     6.2270    -0.8530 H     1 <1>   0.4000 
 43 H       -5.2540    -5.6720    -1.5820 H     1 <1>   0.1500 
 44 H       -2.9980    -6.1640     2.0050 H     1 <1>   0.1500 
 45 H       -5.0190    -9.1620    -0.5290 H     1 <1>   0.0800 
 46 H       -4.5690    -7.9370    -1.7110 H     1 <1>   0.0800 
 47 H       -6.0450    -7.7480    -0.7450 H     1 <1>   0.0800 
@<TRIPOS>BOND
  1   1   2  2   
  2   2   3  am  
  3   2   4  1   
  4   3   5  1   
  5   3  23  1   
  6   4   6  1   
  7   4   7  1   
  8   4  24  1   
  9   5   8  1   
 10   5  25  1   
 11   5  26  1   
 12   6   9  1   
 13   6  27  1   
 14   6  28  1   
 15   7  10  1   
 16   7  29  1   
 17   7  30  1   
 18   8  11  1   
 19   8  31  1   
 20   8  32  1   
 21   9  12  1   
 22   9  13  1   
 23   9  33  1   
 24  10  13  1   
 25  10  34  1   
 26  10  35  1   
 27  11  14  ar  
 28  11  15  ar  
 29  12  16  1   
 30  13  17  1   
 31  13  36  1   
 32  14  18  ar  
 33  14  37  1   
 34  15  19  ar  
 35  15  38  1   
 36  16  39  1   
 37  16  40  1   
 38  16  41  1   
 39  17  42  1   
 40  18  20  ar  
 41  18  43  1   
 42  19  20  ar  
 43  19  44  1   
 44  20  21  1   
 45  21  22  1   
 46  22  45  1   
 47  22  46  1   
 48  22  47  1   
@<TRIPOS>SUBSTRUCTURE
  1 ****   3 GROUP 4 **** **** 0

# MOE 2024.06 (io_trps.svl 2023.06)
