@<TRIPOS>MOLECULE
NONAME
41 44 1 0 0 
SMALL
USER_CHARGES


@<TRIPOS>ATOM
  1 O       -2.2560    -0.6380    -2.8260 O.2   1 <1>  -0.5700 
  2 C       -2.3630    -0.9760    -1.6800 C.2   1 <1>   0.5690 
  3 N       -2.2440    -0.0730    -0.6910 N.am  1 <1>  -0.7300 
  4 C       -2.6720    -2.4110    -1.3510 C.3   1 <1>  -0.0190 
  5 C       -2.3600    -0.3570     0.7570 C.3   1 <1>   0.2200 
  6 C       -1.5540    -3.0570    -0.5030 C.3   1 <1>   0.1200 
  7 C       -4.0970    -2.4850    -0.7860 C.3   1 <1>   0.3430 
  8 C       -1.2830    -1.3820     1.1940 C.3   1 <1>   0.1200 
  9 C       -3.8120    -0.7870     1.1130 C.3   1 <1>   0.3430 
 10 O       -1.6150    -2.7060     0.8550 O.3   1 <1>  -0.5600 
 11 N       -4.1940    -2.1810     0.6850 N.4   1 <1>  -0.9590 
 12 C       -5.4840    -2.6270     1.2760 C.3   1 <1>   0.4860 
 13 C       -5.6140    -4.1180     1.0740 C.ar  1 <1>  -0.1440 
 14 C       -6.4420    -4.5960     0.0500 C.ar  1 <1>   0.0000 
 15 C       -4.9200    -5.0190     1.8550 C.ar  1 <1>  -0.1500 
 16 C       -6.5330    -5.9650    -0.1760 C.ar  1 <1>  -0.1520 
 17 C       -7.2760    -3.9810    -0.9120 C.2   1 <1>  -0.1500 
 18 C       -5.0290    -6.3950     1.6250 C.ar  1 <1>  -0.1500 
 19 N       -7.3830    -6.1770    -1.2320 N.pl3 1 <1>   0.0330 
 20 C       -5.8270    -6.8740     0.6140 C.ar  1 <1>  -0.1500 
 21 C       -7.8240    -4.9610    -1.6690 C.2   1 <1>  -0.3020 
 22 H       -1.9820     0.8760    -0.9800 H     1 <1>   0.3700 
 23 H       -2.6850    -2.9300    -2.2920 H     1 <1>   0.0800 
 24 H       -2.1560     0.5660     1.2720 H     1 <1>   0.0800 
 25 H       -0.5810    -2.7950    -0.8860 H     1 <1>   0.0800 
 26 H       -1.6490    -4.1290    -0.5490 H     1 <1>   0.0800 
 27 H       -4.4500    -3.4880    -0.9570 H     1 <1>   0.0800 
 28 H       -4.7370    -1.8190    -1.3430 H     1 <1>   0.0800 
 29 H       -1.1850    -1.3560     2.2650 H     1 <1>   0.0800 
 30 H       -0.3230    -1.1390     0.7690 H     1 <1>   0.0800 
 31 H       -4.4960    -0.0750     0.6830 H     1 <1>   0.0800 
 32 H       -3.9120    -0.7240     2.1840 H     1 <1>   0.0800 
 33 H       -3.4560    -2.7910     1.0920 H     1 <1>   0.4500 
 34 H       -5.5030    -2.4130     2.3320 H     1 <1>   0.0800 
 35 H       -6.3100    -2.1170     0.8080 H     1 <1>   0.0800 
 36 H       -4.2800    -4.6910     2.6560 H     1 <1>   0.1500 
 37 H       -7.4450    -2.9240    -1.0110 H     1 <1>   0.1500 
 38 H       -4.4790    -7.0790     2.2490 H     1 <1>   0.1500 
 39 H       -7.6440    -7.0950    -1.6090 H     1 <1>   0.2700 
 40 H       -5.9140    -7.9310     0.4300 H     1 <1>   0.1500 
 41 H       -8.5100    -4.8710    -2.4940 H     1 <1>   0.1500 
@<TRIPOS>BOND
  1   1   2  2   
  2   2   3  am  
  3   2   4  1   
  4   3   5  1   
  5   3  22  1   
  6   4   6  1   
  7   4   7  1   
  8   4  23  1   
  9   5   8  1   
 10   5   9  1   
 11   5  24  1   
 12   6  10  1   
 13   6  25  1   
 14   6  26  1   
 15   7  11  1   
 16   7  27  1   
 17   7  28  1   
 18   8  10  1   
 19   8  29  1   
 20   8  30  1   
 21   9  11  1   
 22   9  31  1   
 23   9  32  1   
 24  11  12  1   
 25  11  33  1   
 26  12  13  1   
 27  12  34  1   
 28  12  35  1   
 29  13  14  ar  
 30  13  15  ar  
 31  14  16  ar  
 32  14  17  1   
 33  15  18  ar  
 34  15  36  1   
 35  16  19  1   
 36  16  20  ar  
 37  17  21  2   
 38  17  37  1   
 39  18  20  ar  
 40  18  38  1   
 41  19  21  1   
 42  19  39  1   
 43  20  40  1   
 44  21  41  1   
@<TRIPOS>SUBSTRUCTURE
  1 ****   7 GROUP 4 **** **** 0

# MOE 2024.06 (io_trps.svl 2023.06)
