@<TRIPOS>MOLECULE
NONAME
47 50 1 0 0 
SMALL
USER_CHARGES


@<TRIPOS>ATOM
  1 S       -1.7520    -0.3410    -1.6070 S.3   1 <1>  -0.0800 
  2 C       -2.5910     0.4990    -0.3140 C.2   1 <1>  -0.1400 
  3 C       -0.4010    -0.7170    -0.5530 C.2   1 <1>  -0.1400 
  4 C       -1.8560     0.4730     0.8140 C.2   1 <1>  -0.1500 
  5 C       -3.9530     1.0750    -0.6610 C.3   1 <1>   0.3200 
  6 C       -0.6110    -0.2190     0.6780 C.2   1 <1>  -0.1500 
  7 C        0.7470    -1.5040    -1.1510 C.3   1 <1>  -0.0600 
  8 N       -4.7350     1.4130     0.5610 N.am  1 <1>  -0.5090 
  9 C       -5.1210     0.4910     1.5130 C.2   1 <1>   0.5690 
 10 C       -5.0270     2.8600     0.7130 C.3   1 <1>   0.0490 
 11 O       -5.7360     0.8260     2.5030 O.2   1 <1>  -0.5700 
 12 C       -4.8420    -1.0130     1.3420 C.3   1 <1>   0.2610 
 13 C       -6.4360     3.3130     0.9380 C.3   1 <1>  -0.2000 
 14 C       -5.7780     3.5610    -0.3790 C.3   1 <1>  -0.2000 
 15 O       -3.9530    -1.5100     2.3250 O.3   1 <1>  -0.5600 
 16 C       -6.1740    -1.7890     1.3760 C.3   1 <1>   0.3640 
 17 C       -3.5650    -2.8530     2.1220 C.3   1 <1>   0.1810 
 18 N       -5.9310    -3.2500     1.4270 N.am  1 <1>  -0.7300 
 19 C       -6.9980    -1.4380     0.1450 C.ar  1 <1>  -0.1440 
 20 C       -4.7500    -3.7830     1.8220 C.2   1 <1>   0.5690 
 21 C       -6.7110    -1.9900    -1.0960 C.ar  1 <1>   0.1600 
 22 C       -8.0280    -0.5220     0.2410 C.ar  1 <1>  -0.1500 
 23 O       -4.6210    -4.9770     1.9190 O.2   1 <1>  -0.5700 
 24 N       -7.3440    -1.6970    -2.2190 N.ar  1 <1>  -0.6200 
 25 C       -8.7060    -0.2150    -0.9190 C.ar  1 <1>  -0.1500 
 26 C       -8.3290    -0.8210    -2.1050 C.ar  1 <1>   0.1600 
 27 H       -2.1380     0.9100     1.7580 H     1 <1>   0.1500 
 28 H       -4.5120     0.3660    -1.2470 H     1 <1>   0.0800 
 29 H       -3.8070     1.9530    -1.2660 H     1 <1>   0.0800 
 30 H        0.0610    -0.3060     1.5140 H     1 <1>   0.1500 
 31 H        1.5110    -1.6650    -0.4130 H     1 <1>   0.0800 
 32 H        1.1700    -0.9610    -1.9770 H     1 <1>   0.0800 
 33 H        0.3940    -2.4560    -1.5030 H     1 <1>   0.0800 
 34 H       -4.2400     3.3870     1.2270 H     1 <1>   0.1000 
 35 H       -4.3840    -1.1940     0.3900 H     1 <1>   0.0800 
 36 H       -7.2100     2.5690     1.0070 H     1 <1>   0.1000 
 37 H       -6.6050     4.1450     1.5970 H     1 <1>   0.1000 
 38 H       -5.5140     4.5750    -0.6250 H     1 <1>   0.1000 
 39 H       -6.1380     3.0070    -1.2270 H     1 <1>   0.1000 
 40 H       -6.7180    -1.5080     2.2630 H     1 <1>   0.0800 
 41 H       -2.8690    -2.8820     1.3040 H     1 <1>   0.0800 
 42 H       -3.0660    -3.1870     3.0130 H     1 <1>   0.0800 
 43 H       -6.7290    -3.8740     1.2950 H     1 <1>   0.3700 
 44 H       -5.9130    -2.7100    -1.1770 H     1 <1>   0.1500 
 45 H       -8.2920    -0.0560     1.1770 H     1 <1>   0.1500 
 46 H       -9.5180     0.4890    -0.9070 H     1 <1>   0.1500 
 47 H       -8.8650    -0.5730    -3.0060 H     1 <1>   0.1500 
@<TRIPOS>BOND
  1   1   2  1   
  2   1   3  1   
  3   2   4  2   
  4   2   5  1   
  5   3   6  2   
  6   3   7  1   
  7   4   6  1   
  8   4  27  1   
  9   5   8  1   
 10   5  28  1   
 11   5  29  1   
 12   6  30  1   
 13   7  31  1   
 14   7  32  1   
 15   7  33  1   
 16   8   9  am  
 17   8  10  1   
 18   9  11  2   
 19   9  12  1   
 20  10  13  1   
 21  10  14  1   
 22  10  34  1   
 23  12  15  1   
 24  12  16  1   
 25  12  35  1   
 26  13  14  1   
 27  13  36  1   
 28  13  37  1   
 29  14  38  1   
 30  14  39  1   
 31  15  17  1   
 32  16  18  1   
 33  16  19  1   
 34  16  40  1   
 35  17  20  1   
 36  17  41  1   
 37  17  42  1   
 38  18  20  am  
 39  18  43  1   
 40  19  21  ar  
 41  19  22  ar  
 42  20  23  2   
 43  21  24  ar  
 44  21  44  1   
 45  22  25  ar  
 46  22  45  1   
 47  24  26  ar  
 48  25  26  ar  
 49  25  46  1   
 50  26  47  1   
@<TRIPOS>SUBSTRUCTURE
  1 ****  12 GROUP 4 **** **** 0

# MOE 2024.06 (io_trps.svl 2023.06)
