@<TRIPOS>MOLECULE
NONAME
58 61 1 0 0 
SMALL
USER_CHARGES


@<TRIPOS>ATOM
  1 O       -2.3160     0.8560    -1.7160 O.2   1 <1>  -0.5700 
  2 C       -2.1870     1.0120    -0.5270 C.2   1 <1>   0.5690 
  3 N       -2.2380    -0.0250     0.3410 N.am  1 <1>  -0.7300 
  4 C       -1.9680     2.4260     0.0050 C.3   1 <1>  -0.0190 
  5 C       -2.4310    -1.4410    -0.0490 C.3   1 <1>   0.2200 
  6 C       -3.1740     3.3240    -0.3300 C.3   1 <1>  -0.1600 
  7 C       -0.6750     3.0310    -0.5740 C.3   1 <1>  -0.1600 
  8 C       -3.8460    -1.8670     0.3120 C.3   1 <1>  -0.0800 
  9 C       -1.6020    -2.3290     0.8690 C.3   1 <1>   0.1200 
 10 C       -2.9360     4.7820     0.0580 C.3   1 <1>   0.3430 
 11 C       -0.4920     4.4950    -0.1840 C.3   1 <1>   0.3430 
 12 C       -3.7070    -2.3120     1.7760 C.3   1 <1>   0.1200 
 13 C       -4.3400    -3.0050    -0.6010 C.3   1 <1>  -0.0170 
 14 O       -2.3380    -2.4090     2.0490 O.3   1 <1>  -0.5600 
 15 N       -1.6950     5.2790    -0.6010 N.4   1 <1>  -0.9590 
 16 C       -5.7660    -3.4110    -0.2590 C.ar  1 <1>  -0.1440 
 17 C       -1.5630     6.7600    -0.4400 C.3   1 <1>   0.4230 
 18 C       -6.8450    -2.6260    -0.6110 C.ar  1 <1>  -0.1500 
 19 C       -6.0570    -4.5800     0.4150 C.ar  1 <1>  -0.1500 
 20 C       -0.4070     7.3050    -1.2830 C.3   1 <1>  -0.1600 
 21 C       -1.2630     7.1790     1.0090 C.3   1 <1>  -0.1600 
 22 C       -8.1260    -3.0330    -0.2760 C.ar  1 <1>   0.1600 
 23 C       -7.3750    -4.8950     0.7030 C.ar  1 <1>   0.1600 
 24 C        0.7520     7.5640    -0.3190 C.3   1 <1>  -0.1600 
 25 C        0.0770     7.9240     1.0000 C.3   1 <1>  -0.1600 
 26 N       -8.4170    -4.1480     0.3750 N.ar  1 <1>  -0.6200 
 27 H       -2.1500     0.1020     1.3520 H     1 <1>   0.3700 
 28 H       -1.8690     2.3750     1.0760 H     1 <1>   0.0800 
 29 H       -2.1900    -1.5860    -1.0890 H     1 <1>   0.0800 
 30 H       -4.0440     2.9590     0.1880 H     1 <1>   0.0800 
 31 H       -3.3890     3.2730    -1.3840 H     1 <1>   0.0800 
 32 H       -0.6820     2.9540    -1.6480 H     1 <1>   0.0800 
 33 H        0.1710     2.4650    -0.2230 H     1 <1>   0.0800 
 34 H       -4.5300    -1.0420     0.2280 H     1 <1>   0.0800 
 35 H       -0.6270    -1.9250     1.0750 H     1 <1>   0.0800 
 36 H       -1.5110    -3.3220     0.4670 H     1 <1>   0.0800 
 37 H       -2.8390     4.8610     1.1290 H     1 <1>   0.0800 
 38 H       -3.7820     5.3750    -0.2500 H     1 <1>   0.0800 
 39 H        0.3890     4.8800    -0.6710 H     1 <1>   0.0800 
 40 H       -0.3500     4.5740     0.8820 H     1 <1>   0.0800 
 41 H       -4.1600    -3.2690     1.9650 H     1 <1>   0.0800 
 42 H       -4.1250    -1.5820     2.4460 H     1 <1>   0.0800 
 43 H       -3.6910    -3.8590    -0.5190 H     1 <1>   0.0800 
 44 H       -4.3150    -2.6760    -1.6260 H     1 <1>   0.0800 
 45 H       -1.8110     5.1080    -1.6080 H     1 <1>   0.4500 
 46 H       -2.4770     7.2310    -0.7670 H     1 <1>   0.0800 
 47 H       -6.7040    -1.7040    -1.1440 H     1 <1>   0.1500 
 48 H       -5.2740    -5.2500     0.7210 H     1 <1>   0.1500 
 49 H       -0.1280     6.6650    -2.1000 H     1 <1>   0.0800 
 50 H       -0.7150     8.2530    -1.6900 H     1 <1>   0.0800 
 51 H       -2.0330     7.8420     1.3630 H     1 <1>   0.0800 
 52 H       -1.2100     6.3400     1.6790 H     1 <1>   0.0800 
 53 H       -8.9560    -2.4080    -0.5590 H     1 <1>   0.1500 
 54 H       -7.5830    -5.8100     1.2310 H     1 <1>   0.1500 
 55 H        1.3480     6.6780    -0.1940 H     1 <1>   0.0800 
 56 H        1.3920     8.3590    -0.6670 H     1 <1>   0.0800 
 57 H       -0.1040     8.9860     1.0240 H     1 <1>   0.0800 
 58 H        0.6920     7.6650     1.8470 H     1 <1>   0.0800 
@<TRIPOS>BOND
  1   1   2  2   
  2   2   3  am  
  3   2   4  1   
  4   3   5  1   
  5   3  27  1   
  6   4   6  1   
  7   4   7  1   
  8   4  28  1   
  9   5   8  1   
 10   5   9  1   
 11   5  29  1   
 12   6  10  1   
 13   6  30  1   
 14   6  31  1   
 15   7  11  1   
 16   7  32  1   
 17   7  33  1   
 18   8  12  1   
 19   8  13  1   
 20   8  34  1   
 21   9  14  1   
 22   9  35  1   
 23   9  36  1   
 24  10  15  1   
 25  10  37  1   
 26  10  38  1   
 27  11  15  1   
 28  11  39  1   
 29  11  40  1   
 30  12  14  1   
 31  12  41  1   
 32  12  42  1   
 33  13  16  1   
 34  13  43  1   
 35  13  44  1   
 36  15  17  1   
 37  15  45  1   
 38  16  18  ar  
 39  16  19  ar  
 40  17  20  1   
 41  17  21  1   
 42  17  46  1   
 43  18  22  ar  
 44  18  47  1   
 45  19  23  ar  
 46  19  48  1   
 47  20  24  1   
 48  20  49  1   
 49  20  50  1   
 50  21  25  1   
 51  21  51  1   
 52  21  52  1   
 53  22  26  ar  
 54  22  53  1   
 55  23  26  ar  
 56  23  54  1   
 57  24  25  1   
 58  24  55  1   
 59  24  56  1   
 60  25  57  1   
 61  25  58  1   
@<TRIPOS>SUBSTRUCTURE
  1 ****   2 GROUP 4 **** **** 0

# MOE 2024.06 (io_trps.svl 2023.06)
