@<TRIPOS>MOLECULE
NONAME
46 48 1 0 0 
SMALL
USER_CHARGES


@<TRIPOS>ATOM
  1 O        0.6580    -0.4880    -1.7740 O.co2 1 <1>  -0.9030 
  2 C        1.3680    -1.4530    -1.4560 C.2   1 <1>   0.9770 
  3 O        0.9510    -2.6100    -1.5970 O.co2 1 <1>  -0.9030 
  4 C        2.6880    -1.2160    -0.9230 C.ar  1 <1>  -0.1870 
  5 C        3.5100    -2.2980    -0.5650 C.ar  1 <1>   0.1520 
  6 C        3.1740     0.0730    -0.7560 C.ar  1 <1>  -0.1180 
  7 N        4.7350    -2.2090    -0.0730 N.ar  1 <1>  -0.5840 
  8 C        4.4480     0.1800    -0.2470 C.ar  1 <1>   0.3020 
  9 C        5.1580    -0.9620     0.0680 C.ar  1 <1>   0.6140 
 10 N        5.2670     1.2480     0.0450 N.pl3 1 <1>  -0.7040 
 11 N        6.3910    -0.5710     0.5430 N.pl3 1 <1>  -0.7680 
 12 C        6.4190     0.7730     0.5180 C.cat 1 <1>   1.0680 
 13 C        7.4770    -1.5600     0.7260 C.3   1 <1>   0.3470 
 14 N        7.4300     1.5770     0.8960 N.pl3 1 <1>  -0.5970 
 15 C        8.4000    -1.5240    -0.4890 C.3   1 <1>  -0.2480 
 16 C        7.6380     2.8980     0.2350 C.3   1 <1>   0.3850 
 17 C        8.4550     1.2050     1.9220 C.3   1 <1>   0.0790 
 18 C        9.0590     2.9650    -0.3190 C.ar  1 <1>  -0.1520 
 19 C        7.2150     4.0390     1.1810 C.3   1 <1>  -0.1680 
 20 C       10.1130     3.5530     0.3710 C.ar  1 <1>   0.1520 
 21 C        9.3210     2.4020    -1.5550 C.ar  1 <1>  -0.1580 
 22 C        7.2190     5.4090     0.4880 C.3   1 <1>  -0.2480 
 23 N       11.3630     3.6100    -0.0540 N.ar  1 <1>  -0.6250 
 24 C       10.6180     2.4610    -2.0170 C.ar  1 <1>  -0.1580 
 25 C       11.5870     3.0670    -1.2390 C.ar  1 <1>   0.1520 
 26 H        3.1040    -3.2910    -0.7050 H     1 <1>   0.1420 
 27 H        2.5780     0.9320    -1.0170 H     1 <1>   0.1420 
 28 H        4.9950     2.2250    -0.0280 H     1 <1>   0.4440 
 29 H        7.0650    -2.5510     0.8280 H     1 <1>   0.0710 
 30 H        8.0320    -1.3590     1.6230 H     1 <1>   0.0710 
 31 H        7.8490    -1.7640    -1.3820 H     1 <1>   0.0710 
 32 H        9.1760    -2.2590    -0.3690 H     1 <1>   0.0710 
 33 H        8.8630    -0.5610    -0.5990 H     1 <1>   0.0710 
 34 H        6.9890     2.9630    -0.6220 H     1 <1>   0.0710 
 35 H        8.0450     0.5030     2.6260 H     1 <1>   0.0710 
 36 H        8.7680     2.0720     2.4770 H     1 <1>   0.0710 
 37 H        9.3200     0.7760     1.4440 H     1 <1>   0.0710 
 38 H        7.8570     4.0840     2.0410 H     1 <1>   0.0710 
 39 H        6.2160     3.8510     1.5340 H     1 <1>   0.0710 
 40 H        9.9360     4.0040     1.3310 H     1 <1>   0.1420 
 41 H        8.5550     1.9320    -2.1480 H     1 <1>   0.1420 
 42 H        8.2070     5.6690     0.1490 H     1 <1>   0.0710 
 43 H        6.8930     6.1690     1.1770 H     1 <1>   0.0710 
 44 H        6.5550     5.4140    -0.3590 H     1 <1>   0.0710 
 45 H       10.8810     2.0440    -2.9720 H     1 <1>   0.1420 
 46 H       12.5980     3.1080    -1.6080 H     1 <1>   0.1420 
@<TRIPOS>BOND
  1   1   2  ar  
  2   2   3  ar  
  3   2   4  1   
  4   4   5  ar  
  5   4   6  ar  
  6   5   7  ar  
  7   5  26  1   
  8   6   8  ar  
  9   6  27  1   
 10   7   9  ar  
 11   8   9  ar  
 12   8  10  1   
 13   9  11  1   
 14  10  12  ar  
 15  10  28  1   
 16  11  12  ar  
 17  11  13  1   
 18  12  14  ar  
 19  13  15  1   
 20  13  29  1   
 21  13  30  1   
 22  14  16  1   
 23  14  17  1   
 24  15  31  1   
 25  15  32  1   
 26  15  33  1   
 27  16  18  1   
 28  16  19  1   
 29  16  34  1   
 30  17  35  1   
 31  17  36  1   
 32  17  37  1   
 33  18  20  ar  
 34  18  21  ar  
 35  19  22  1   
 36  19  38  1   
 37  19  39  1   
 38  20  23  ar  
 39  20  40  1   
 40  21  24  ar  
 41  21  41  1   
 42  22  42  1   
 43  22  43  1   
 44  22  44  1   
 45  23  25  ar  
 46  24  25  ar  
 47  24  45  1   
 48  25  46  1   
@<TRIPOS>SUBSTRUCTURE
  1 ****  12 GROUP 4 **** **** 0

# MOE 2024.06 (io_trps.svl 2023.06)
