@<TRIPOS>MOLECULE
NONAME
58 60 1 0 0 
SMALL
USER_CHARGES


@<TRIPOS>ATOM
  1 O        2.3020    -0.0420    -1.8850 O.2   1 <1>  -0.5700 
  2 C        1.6060    -0.2510    -0.9160 C.2   1 <1>   0.5690 
  3 N        0.6480     0.6620    -0.5530 N.am  1 <1>  -0.6600 
  4 C        1.8060    -1.5670    -0.1380 C.3   1 <1>  -0.0190 
  5 C        0.3970     1.8960    -1.3340 C.3   1 <1>   0.1400 
  6 C       -0.1400     0.6770     0.7030 C.3   1 <1>   0.1400 
  7 C        3.2460    -1.7180     0.4360 C.3   1 <1>  -0.0190 
  8 C        1.3590    -2.7910    -0.9810 C.3   1 <1>  -0.1600 
  9 C       -0.3270     2.8300    -0.3750 C.3   1 <1>  -0.1600 
 10 C       -1.0480     1.8960     0.5910 C.3   1 <1>  -0.1600 
 11 C        3.5710    -0.5580     1.4080 C.2   1 <1>   0.5690 
 12 C        4.2630    -2.0310    -0.6970 C.3   1 <1>  -0.1600 
 13 C        2.5010    -3.7420    -1.3690 C.3   1 <1>  -0.1600 
 14 O        2.6750    -0.2510     2.1620 O.2   1 <1>  -0.5700 
 15 N        4.7720     0.1220     1.4820 N.am  1 <1>  -0.6600 
 16 C        3.7230    -2.9410    -1.8160 C.3   1 <1>  -0.1600 
 17 C        4.8470     1.4380     2.1900 C.3   1 <1>   0.1400 
 18 C        6.1060    -0.4230     1.1000 C.3   1 <1>   0.0600 
 19 C        4.8000     2.5900     1.1810 C.3   1 <1>  -0.1600 
 20 C        3.4170     2.7270     0.5320 C.3   1 <1>   0.0200 
 21 C        3.4110     3.8140    -0.5270 C.2   1 <1>   0.0060 
 22 N        3.0420     5.0300    -0.2840 N.2   1 <1>  -0.5650 
 23 N        3.7810     3.6030    -1.8160 N.pl3 1 <1>   0.0480 
 24 C        3.1750     5.6500    -1.4700 C.2   1 <1>   0.0770 
 25 C        3.6220     4.7960    -2.4150 C.2   1 <1>  -0.3020 
 26 C        4.2280     2.3620    -2.4780 C.3   1 <1>   0.0160 
 27 H        1.1440    -1.5510     0.7050 H     1 <1>   0.0800 
 28 H        1.3140     2.3310    -1.6890 H     1 <1>   0.0800 
 29 H       -0.2320     1.6540    -2.1730 H     1 <1>   0.0800 
 30 H       -0.7140    -0.2270     0.8140 H     1 <1>   0.0800 
 31 H        0.5270     0.7940     1.5400 H     1 <1>   0.0800 
 32 H        3.2220    -2.5900     1.0640 H     1 <1>   0.0800 
 33 H        0.6200    -3.3510    -0.4340 H     1 <1>   0.0800 
 34 H        0.8820    -2.4420    -1.8810 H     1 <1>   0.0800 
 35 H        0.4020     3.4200     0.1540 H     1 <1>   0.0800 
 36 H       -0.9990     3.4910    -0.8920 H     1 <1>   0.0800 
 37 H       -1.9910     1.5930     0.1710 H     1 <1>   0.0800 
 38 H       -1.2210     2.3540     1.5490 H     1 <1>   0.0800 
 39 H        4.5950    -1.1140    -1.1500 H     1 <1>   0.0800 
 40 H        5.1150    -2.5250    -0.2690 H     1 <1>   0.0800 
 41 H        2.7650    -4.3650    -0.5310 H     1 <1>   0.0800 
 42 H        2.1750    -4.3880    -2.1660 H     1 <1>   0.0800 
 43 H        3.4420    -2.3320    -2.6600 H     1 <1>   0.0800 
 44 H        4.4990    -3.6090    -2.1480 H     1 <1>   0.0800 
 45 H        4.0340     1.5430     2.8880 H     1 <1>   0.0800 
 46 H        5.7570     1.4940     2.7610 H     1 <1>   0.0800 
 47 H        6.8850     0.0410     1.6780 H     1 <1>   0.0800 
 48 H        6.2970    -0.2320     0.0590 H     1 <1>   0.0800 
 49 H        6.1430    -1.4790     1.2960 H     1 <1>   0.0800 
 50 H        5.0210     3.5100     1.6920 H     1 <1>   0.0800 
 51 H        5.5540     2.4450     0.4290 H     1 <1>   0.0800 
 52 H        2.6890     2.9670     1.2860 H     1 <1>   0.0800 
 53 H        3.1200     1.8010     0.0840 H     1 <1>   0.0800 
 54 H        2.9370     6.6940    -1.5820 H     1 <1>   0.1500 
 55 H        3.8290     4.9700    -3.4540 H     1 <1>   0.1500 
 56 H        5.0810     2.5740    -3.0950 H     1 <1>   0.0800 
 57 H        3.4300     1.9790    -3.0870 H     1 <1>   0.0800 
 58 H        4.4950     1.6240    -1.7440 H     1 <1>   0.0800 
@<TRIPOS>BOND
  1   1   2  2   
  2   2   3  am  
  3   2   4  1   
  4   3   5  1   
  5   3   6  1   
  6   4   7  1   
  7   4   8  1   
  8   4  27  1   
  9   5   9  1   
 10   5  28  1   
 11   5  29  1   
 12   6  10  1   
 13   6  30  1   
 14   6  31  1   
 15   7  11  1   
 16   7  12  1   
 17   7  32  1   
 18   8  13  1   
 19   8  33  1   
 20   8  34  1   
 21   9  10  1   
 22   9  35  1   
 23   9  36  1   
 24  10  37  1   
 25  10  38  1   
 26  11  14  2   
 27  11  15  am  
 28  12  16  1   
 29  12  39  1   
 30  12  40  1   
 31  13  16  1   
 32  13  41  1   
 33  13  42  1   
 34  15  17  1   
 35  15  18  1   
 36  16  43  1   
 37  16  44  1   
 38  17  19  1   
 39  17  45  1   
 40  17  46  1   
 41  18  47  1   
 42  18  48  1   
 43  18  49  1   
 44  19  20  1   
 45  19  50  1   
 46  19  51  1   
 47  20  21  1   
 48  20  52  1   
 49  20  53  1   
 50  21  22  2   
 51  21  23  1   
 52  22  24  1   
 53  23  25  1   
 54  23  26  1   
 55  24  25  2   
 56  24  54  1   
 57  25  55  1   
 58  26  56  1   
 59  26  57  1   
 60  26  58  1   
@<TRIPOS>SUBSTRUCTURE
  1 ****   2 GROUP 4 **** **** 0

# MOE 2024.06 (io_trps.svl 2023.06)
