@<TRIPOS>MOLECULE
NONAME
44 46 1 0 0 
SMALL
USER_CHARGES


@<TRIPOS>ATOM
  1 CL       1.3220     0.9960     2.3270 Cl    1 <1>  -0.1770 
  2 C       -0.1230     1.6460     1.5990 C.ar  1 <1>   0.1770 
  3 C       -1.0520     0.7780     1.0600 C.ar  1 <1>  -0.1500 
  4 C       -0.3100     3.0130     1.5770 C.ar  1 <1>  -0.1500 
  5 C       -2.2050     1.3040     0.4870 C.ar  1 <1>   0.0830 
  6 C       -1.4560     3.5570     1.0030 C.ar  1 <1>   0.0860 
  7 O       -3.1790     0.5450    -0.0710 O.3   1 <1>  -0.3630 
  8 C       -2.3960     2.6750     0.4700 C.ar  1 <1>  -0.1500 
  9 C       -1.6560     4.9910     0.9590 C.2   1 <1>   0.5440 
 10 C       -3.0900    -0.8630    -0.0940 C.3   1 <1>   0.0400 
 11 O       -1.7250     5.6050     2.0080 O.2   1 <1>  -0.5700 
 12 N       -1.7470     5.6800    -0.2360 N.am  1 <1>  -0.6600 
 13 C       -1.3760     5.0630    -1.5550 C.3   1 <1>   0.1400 
 14 C       -1.9340     7.1590    -0.2510 C.3   1 <1>   0.1400 
 15 C       -0.2370     5.8140    -2.2620 C.3   1 <1>   0.1400 
 16 C       -0.6310     7.8920     0.1150 C.3   1 <1>  -0.1600 
 17 N        0.7640     6.3020    -1.2720 N.am  1 <1>  -0.6600 
 18 C        0.5700     7.7100    -0.8310 C.3   1 <1>   0.1400 
 19 C        1.6840     5.4310    -0.7280 C.2   1 <1>   0.7160 
 20 O        1.8920     4.3740    -1.2980 O.2   1 <1>  -0.5700 
 21 C        2.4020     5.7220     0.4870 C.2   1 <1>  -0.0860 
 22 C        3.7890     5.6530     0.6250 C.2   1 <1>   0.1390 
 23 C        1.9840     6.0800     1.7340 C.2   1 <1>  -0.3020 
 24 N        4.1980     5.9580     1.8180 N.2   1 <1>  -0.7070 
 25 N        3.0710     6.2160     2.5050 N.pl3 1 <1>   0.3000 
 26 H       -0.8570    -0.2750     1.1000 H     1 <1>   0.1500 
 27 H        0.4350     3.6600     2.0020 H     1 <1>   0.1500 
 28 H       -3.2960     3.0690     0.0330 H     1 <1>   0.1500 
 29 H       -3.9710    -1.2460    -0.5770 H     1 <1>   0.0800 
 30 H       -3.0420    -1.2270     0.9170 H     1 <1>   0.0800 
 31 H       -2.2150    -1.1490    -0.6500 H     1 <1>   0.0800 
 32 H       -2.2420     5.0390    -2.1940 H     1 <1>   0.0800 
 33 H       -1.0510     4.0480    -1.4180 H     1 <1>   0.0800 
 34 H       -2.6920     7.4150     0.4700 H     1 <1>   0.0800 
 35 H       -2.2840     7.4750    -1.2180 H     1 <1>   0.0800 
 36 H       -0.6400     6.6440    -2.8130 H     1 <1>   0.0800 
 37 H        0.2370     5.1580    -2.9720 H     1 <1>   0.0800 
 38 H       -0.3460     7.6100     1.1080 H     1 <1>   0.0800 
 39 H       -0.8480     8.9430     0.1630 H     1 <1>   0.0800 
 40 H        1.4620     8.0640    -0.3440 H     1 <1>   0.0800 
 41 H        0.4250     8.3210    -1.7060 H     1 <1>   0.0800 
 42 H        4.4520     5.3740    -0.1780 H     1 <1>   0.1500 
 43 H        0.9830     6.2210     2.1000 H     1 <1>   0.1500 
 44 H        3.0860     6.4710     3.5010 H     1 <1>   0.2700 
@<TRIPOS>BOND
  1   1   2  1   
  2   2   3  ar  
  3   2   4  ar  
  4   3   5  ar  
  5   3  26  1   
  6   4   6  ar  
  7   4  27  1   
  8   5   7  1   
  9   5   8  ar  
 10   6   8  ar  
 11   6   9  1   
 12   7  10  1   
 13   8  28  1   
 14   9  11  2   
 15   9  12  am  
 16  10  29  1   
 17  10  30  1   
 18  10  31  1   
 19  12  13  1   
 20  12  14  1   
 21  13  15  1   
 22  13  32  1   
 23  13  33  1   
 24  14  16  1   
 25  14  34  1   
 26  14  35  1   
 27  15  17  1   
 28  15  36  1   
 29  15  37  1   
 30  16  18  1   
 31  16  38  1   
 32  16  39  1   
 33  17  18  1   
 34  17  19  am  
 35  18  40  1   
 36  18  41  1   
 37  19  20  2   
 38  19  21  1   
 39  21  22  1   
 40  21  23  2   
 41  22  24  2   
 42  22  42  1   
 43  23  25  1   
 44  23  43  1   
 45  24  25  1   
 46  25  44  1   
@<TRIPOS>SUBSTRUCTURE
  1 ****   6 GROUP 4 **** **** 0

# MOE 2024.06 (io_trps.svl 2023.06)
