@<TRIPOS>MOLECULE
NONAME
42 45 1 0 0 
SMALL
USER_CHARGES


@<TRIPOS>ATOM
  1 N       -0.3970     1.9980    -0.6910 N.2   1 <1>  -0.6210 
  2 C       -1.5480     2.1720    -1.2580 C.2   1 <1>   0.5090 
  3 C       -0.2880     2.3170     0.6220 C.2   1 <1>   0.2710 
  4 N       -2.6550     2.6950    -0.5770 N.pl3 1 <1>   0.2940 
  5 N       -1.6320     1.8270    -2.5730 N.pl3 1 <1>  -0.8500 
  6 N        0.9690     2.1030     1.1070 N.pl3 1 <1>  -0.8690 
  7 C       -1.3300     2.8120     1.3560 C.2   1 <1>  -0.1050 
  8 C       -2.5630     3.0350     0.7200 C.2   1 <1>   0.1420 
  9 C       -3.9100     3.0510    -0.8780 C.2   1 <1>   0.0370 
 10 C        1.6840     3.1190     1.9170 C.3   1 <1>   0.3890 
 11 N       -3.6820     3.5480     1.1600 N.2   1 <1>  -0.3380 
 12 N       -4.5300     3.5540     0.1330 N.2   1 <1>  -0.3380 
 13 C        2.6850     3.8740     1.0580 C.2   1 <1>   0.0060 
 14 N        3.9610     3.6940     1.1310 N.2   1 <1>  -0.3380 
 15 N        2.3720     4.8060     0.1460 N.pl3 1 <1>   0.0480 
 16 N        4.5260     4.5190     0.2510 N.2   1 <1>  -0.3380 
 17 C        3.5710     5.1650    -0.3190 C.2   1 <1>   0.0360 
 18 C        1.0480     5.3450    -0.2550 C.3   1 <1>   0.1760 
 19 C        0.8110     5.1600    -1.7630 C.3   1 <1>  -0.1600 
 20 C        0.9190     6.8230     0.1480 C.3   1 <1>  -0.1600 
 21 C       -0.5590     5.7170    -2.1740 C.3   1 <1>  -0.1600 
 22 C       -0.4510     7.3820    -0.2620 C.3   1 <1>  -0.1600 
 23 C       -0.7040     7.1890    -1.7640 C.3   1 <1>  -0.1600 
 24 H       -0.8110     1.3730    -2.9830 H     1 <1>   0.4000 
 25 H       -2.5070     1.6900    -3.0800 H     1 <1>   0.4000 
 26 H        1.5920     1.7160     0.3880 H     1 <1>   0.4000 
 27 H       -1.2430     3.0370     2.4010 H     1 <1>   0.1500 
 28 H       -4.3310     2.9270    -1.8580 H     1 <1>   0.1500 
 29 H        2.2120     2.6170     2.7100 H     1 <1>   0.0800 
 30 H        0.9920     3.8100     2.3630 H     1 <1>   0.0800 
 31 H        3.7070     5.9110    -1.0800 H     1 <1>   0.1500 
 32 H        0.2900     4.8000     0.2700 H     1 <1>   0.0800 
 33 H        0.8580     4.1130    -2.0100 H     1 <1>   0.0800 
 34 H        1.5750     5.6730    -2.3200 H     1 <1>   0.0800 
 35 H        1.6900     7.4010    -0.3330 H     1 <1>   0.0800 
 36 H        1.0360     6.9200     1.2130 H     1 <1>   0.0800 
 37 H       -1.3380     5.1430    -1.7030 H     1 <1>   0.0800 
 38 H       -0.6820     5.6260    -3.2400 H     1 <1>   0.0800 
 39 H       -0.5010     8.4310    -0.0220 H     1 <1>   0.0800 
 40 H       -1.2260     6.8820     0.2950 H     1 <1>   0.0800 
 41 H       -1.6940     7.5350    -2.0090 H     1 <1>   0.0800 
 42 H       -0.0020     7.7860    -2.3230 H     1 <1>   0.0800 
@<TRIPOS>BOND
  1   1   2  2   
  2   1   3  1   
  3   2   4  1   
  4   2   5  1   
  5   3   6  1   
  6   3   7  2   
  7   4   8  1   
  8   4   9  1   
  9   5  24  1   
 10   5  25  1   
 11   6  10  1   
 12   6  26  1   
 13   7   8  1   
 14   7  27  1   
 15   8  11  2   
 16   9  12  2   
 17   9  28  1   
 18  10  13  1   
 19  10  29  1   
 20  10  30  1   
 21  11  12  1   
 22  13  14  2   
 23  13  15  1   
 24  14  16  1   
 25  15  17  1   
 26  15  18  1   
 27  16  17  2   
 28  17  31  1   
 29  18  19  1   
 30  18  20  1   
 31  18  32  1   
 32  19  21  1   
 33  19  33  1   
 34  19  34  1   
 35  20  22  1   
 36  20  35  1   
 37  20  36  1   
 38  21  23  1   
 39  21  37  1   
 40  21  38  1   
 41  22  23  1   
 42  22  39  1   
 43  22  40  1   
 44  23  41  1   
 45  23  42  1   
@<TRIPOS>SUBSTRUCTURE
  1 ****  18 GROUP 4 **** **** 0

# MOE 2024.06 (io_trps.svl 2023.06)
