@<TRIPOS>MOLECULE
NONAME
49 50 1 0 0 
SMALL
USER_CHARGES


@<TRIPOS>ATOM
  1 O        2.0950    -0.3890     2.5520 O.co2 1 <1>  -0.9000 
  2 C        2.3830    -0.6710     1.3840 C.2   1 <1>   0.9060 
  3 O        2.2540    -1.8220     0.9390 O.co2 1 <1>  -0.9000 
  4 C        2.8770     0.4350     0.4300 C.3   1 <1>  -0.1060 
  5 C        4.0550    -0.1660    -0.3740 C.3   1 <1>   0.2000 
  6 C        3.4530     1.6110     1.2630 C.3   1 <1>  -0.1600 
  7 C        1.6310     0.8820    -0.4090 C.3   1 <1>  -0.1600 
  8 O        3.5690    -1.1320    -1.2400 O.3   1 <1>  -0.6800 
  9 C        4.8730     0.8590    -1.1740 C.3   1 <1>   0.3430 
 10 C        4.1860     2.6740     0.4560 C.3   1 <1>   0.3430 
 11 C        1.8260     1.6470    -1.7310 C.3   1 <1>  -0.1600 
 12 N        5.2510     2.0750    -0.3900 N.4   1 <1>  -0.9590 
 13 C        0.4740     2.0600    -2.3190 C.3   1 <1>  -0.2400 
 14 C        5.9560     3.0470    -1.2660 C.3   1 <1>   0.4860 
 15 C        6.1840     4.4150    -0.6260 C.ar  1 <1>  -0.1440 
 16 C        6.7890     4.6110     0.6180 C.ar  1 <1>   0.0820 
 17 C        5.7690     5.5310    -1.3420 C.ar  1 <1>  -0.1500 
 18 O        7.1760     3.5890     1.4100 O.3   1 <1>  -0.3620 
 19 C        6.9640     5.8900     1.1200 C.ar  1 <1>  -0.1500 
 20 C        5.9490     6.8080    -0.8390 C.ar  1 <1>  -0.1500 
 21 C        8.4460     2.9820     1.1600 C.3   1 <1>   0.0140 
 22 C        6.5470     6.9900     0.3940 C.ar  1 <1>  -0.1500 
 23 C        8.3190     1.8210     0.1940 C.2   1 <1>   0.9060 
 24 O        8.8340     1.9020    -0.9240 O.co2 1 <1>  -0.9000 
 25 O        7.5360     0.9010     0.4670 O.co2 1 <1>  -0.9000 
 26 H        4.7260    -0.6660     0.3050 H     1 <1>   0.0800 
 27 H        4.1430     1.2190     1.9920 H     1 <1>   0.0800 
 28 H        2.6600     2.0800     1.8190 H     1 <1>   0.0800 
 29 H        1.0790    -0.0100    -0.6570 H     1 <1>   0.0800 
 30 H        0.9850     1.4520     0.2370 H     1 <1>   0.0800 
 31 H        2.9940    -1.7180    -0.6640 H     1 <1>   0.4000 
 32 H        4.3000     1.1550    -2.0320 H     1 <1>   0.0800 
 33 H        5.7730     0.3730    -1.5160 H     1 <1>   0.0800 
 34 H        4.6290     3.3800     1.1400 H     1 <1>   0.0800 
 35 H        3.4870     3.2110    -0.1570 H     1 <1>   0.0800 
 36 H        2.4170     2.5300    -1.5950 H     1 <1>   0.0800 
 37 H        2.3170     1.0070    -2.4430 H     1 <1>   0.0800 
 38 H        6.0070     1.7140     0.2480 H     1 <1>   0.4500 
 39 H       -0.0480     2.7140    -1.6430 H     1 <1>   0.0800 
 40 H       -0.1350     1.1900    -2.4970 H     1 <1>   0.0800 
 41 H        0.6170     2.5730    -3.2540 H     1 <1>   0.0800 
 42 H        6.8970     2.6340    -1.5850 H     1 <1>   0.0800 
 43 H        5.3650     3.1910    -2.1540 H     1 <1>   0.0800 
 44 H        5.3050     5.4170    -2.3070 H     1 <1>   0.1500 
 45 H        7.4260     6.0170     2.0830 H     1 <1>   0.1500 
 46 H        5.6250     7.6630    -1.4080 H     1 <1>   0.1500 
 47 H        9.1190     3.7170     0.7620 H     1 <1>   0.0800 
 48 H        8.8230     2.6110     2.0930 H     1 <1>   0.0800 
 49 H        6.6890     7.9820     0.7860 H     1 <1>   0.1500 
@<TRIPOS>BOND
  1   1   2  ar  
  2   2   3  ar  
  3   2   4  1   
  4   4   5  1   
  5   4   6  1   
  6   4   7  1   
  7   5   8  1   
  8   5   9  1   
  9   5  26  1   
 10   6  10  1   
 11   6  27  1   
 12   6  28  1   
 13   7  11  1   
 14   7  29  1   
 15   7  30  1   
 16   8  31  1   
 17   9  12  1   
 18   9  32  1   
 19   9  33  1   
 20  10  12  1   
 21  10  34  1   
 22  10  35  1   
 23  11  13  1   
 24  11  36  1   
 25  11  37  1   
 26  12  14  1   
 27  12  38  1   
 28  13  39  1   
 29  13  40  1   
 30  13  41  1   
 31  14  15  1   
 32  14  42  1   
 33  14  43  1   
 34  15  16  ar  
 35  15  17  ar  
 36  16  18  1   
 37  16  19  ar  
 38  17  20  ar  
 39  17  44  1   
 40  18  21  1   
 41  19  22  ar  
 42  19  45  1   
 43  20  22  ar  
 44  20  46  1   
 45  21  23  1   
 46  21  47  1   
 47  21  48  1   
 48  22  49  1   
 49  23  24  ar  
 50  23  25  ar  
@<TRIPOS>SUBSTRUCTURE
  1 ****  12 GROUP 4 **** **** 0

# MOE 2024.06 (io_trps.svl 2023.06)
