@<TRIPOS>MOLECULE
NONAME
43 45 1 0 0 
SMALL
USER_CHARGES


@<TRIPOS>ATOM
  1 O       -1.9300    -2.8730     0.4860 O.3   1 <1>  -0.5600 
  2 C       -1.6650    -4.1610     0.0480 C.3   1 <1>   0.1200 
  3 C       -3.2840    -2.5970     0.6460 C.3   1 <1>   0.0400 
  4 C       -0.1500    -4.2950    -0.0870 C.3   1 <1>  -0.1600 
  5 C        0.2150    -5.7070    -0.5570 C.3   1 <1>   0.0960 
  6 N        1.6700    -5.8930    -0.7780 N.pl3 1 <1>   0.0480 
  7 C        2.2820    -6.8980    -1.4190 C.2   1 <1>   0.0060 
  8 C        2.6990    -5.1370    -0.3860 C.2   1 <1>   0.0360 
  9 N        3.5640    -6.7540    -1.4160 N.2   1 <1>  -0.3380 
 10 C        1.5610    -8.0670    -2.0700 C.3   1 <1>   0.3890 
 11 N        3.8300    -5.6280    -0.7550 N.2   1 <1>  -0.3380 
 12 N        0.9830    -8.9480    -1.0230 N.pl3 1 <1>  -0.8690 
 13 C       -0.3560    -9.1010    -0.7300 C.ar  1 <1>   0.4100 
 14 N       -1.2180    -8.4030    -1.4410 N.ar  1 <1>  -0.3100 
 15 C       -0.7510    -9.9600     0.3260 C.ar  1 <1>   0.0000 
 16 N       -2.5130    -8.4510    -1.1630 N.ar  1 <1>  -0.3100 
 17 C       -2.1240   -10.0110     0.6110 C.ar  1 <1>   0.0000 
 18 C        0.1300   -10.7530     1.0960 C.ar  1 <1>  -0.1500 
 19 C       -2.9530    -9.2100    -0.1980 C.ar  1 <1>   0.1670 
 20 C       -2.5680   -10.8450     1.6650 C.ar  1 <1>  -0.1500 
 21 C       -0.3260   -11.5520     2.1090 C.ar  1 <1>  -0.1500 
 22 C       -4.4560    -9.2000     0.0300 C.3   1 <1>  -0.0970 
 23 C       -1.6920   -11.5970     2.3970 C.ar  1 <1>  -0.1500 
 24 H       -2.1510    -4.3120    -0.9020 H     1 <1>   0.0800 
 25 H       -2.0500    -4.8600     0.7730 H     1 <1>   0.0800 
 26 H       -3.3800    -1.5820     0.9880 H     1 <1>   0.0800 
 27 H       -3.7000    -3.2680     1.3780 H     1 <1>   0.0800 
 28 H       -3.7830    -2.7090    -0.3010 H     1 <1>   0.0800 
 29 H        0.2980    -4.1020     0.8710 H     1 <1>   0.0800 
 30 H        0.1970    -3.5720    -0.8050 H     1 <1>   0.0800 
 31 H       -0.2940    -5.9130    -1.4810 H     1 <1>   0.0800 
 32 H       -0.1080    -6.4260     0.1750 H     1 <1>   0.0800 
 33 H        2.5860    -4.2260     0.1730 H     1 <1>   0.1500 
 34 H        2.2670    -8.6340    -2.6520 H     1 <1>   0.0800 
 35 H        0.8020    -7.7040    -2.7400 H     1 <1>   0.0800 
 36 H        1.6780    -9.2950    -0.3600 H     1 <1>   0.4000 
 37 H        1.1810   -10.7320     0.8790 H     1 <1>   0.1500 
 38 H       -3.6160   -10.8920     1.8970 H     1 <1>   0.1500 
 39 H        0.3530   -12.1520     2.6900 H     1 <1>   0.1500 
 40 H       -4.9410    -8.5440    -0.6720 H     1 <1>   0.0800 
 41 H       -4.6760    -8.8560     1.0240 H     1 <1>   0.0800 
 42 H       -4.8540   -10.1890    -0.1040 H     1 <1>   0.0800 
 43 H       -2.0370   -12.2300     3.1970 H     1 <1>   0.1500 
@<TRIPOS>BOND
  1   1   2  1   
  2   1   3  1   
  3   2   4  1   
  4   2  24  1   
  5   2  25  1   
  6   3  26  1   
  7   3  27  1   
  8   3  28  1   
  9   4   5  1   
 10   4  29  1   
 11   4  30  1   
 12   5   6  1   
 13   5  31  1   
 14   5  32  1   
 15   6   7  1   
 16   6   8  1   
 17   7   9  2   
 18   7  10  1   
 19   8  11  2   
 20   8  33  1   
 21   9  11  1   
 22  10  12  1   
 23  10  34  1   
 24  10  35  1   
 25  12  13  1   
 26  12  36  1   
 27  13  14  ar  
 28  13  15  ar  
 29  14  16  ar  
 30  15  17  ar  
 31  15  18  ar  
 32  16  19  ar  
 33  17  19  ar  
 34  17  20  ar  
 35  18  21  ar  
 36  18  37  1   
 37  19  22  1   
 38  20  23  ar  
 39  20  38  1   
 40  21  23  ar  
 41  21  39  1   
 42  22  40  1   
 43  22  41  1   
 44  22  42  1   
 45  23  43  1   
@<TRIPOS>SUBSTRUCTURE
  1 ****  13 GROUP 4 **** **** 0

# MOE 2024.06 (io_trps.svl 2023.06)
