@<TRIPOS>MOLECULE
NONAME
52 55 1 0 0 
SMALL
USER_CHARGES


@<TRIPOS>ATOM
  1 O       -1.0890     0.3420    -0.3270 O.2   1 <1>  -0.5700 
  2 C       -1.3740     1.4210    -0.8250 C.2   1 <1>   0.7160 
  3 N       -2.4750     1.4550    -1.6710 N.am  1 <1>  -0.6600 
  4 C       -0.5460     2.5850    -0.5040 C.2   1 <1>   0.2030 
  5 C       -2.9510     0.2060    -2.3370 C.3   1 <1>   0.1400 
  6 C       -3.2300     2.7010    -1.9680 C.3   1 <1>   0.1400 
  7 N       -0.3910     3.6950    -1.2130 N.2   1 <1>  -0.7070 
  8 C        0.2480     2.6520     0.6460 C.2   1 <1>  -0.1500 
  9 C       -4.2090    -0.3470    -1.6560 C.3   1 <1>   0.1400 
 10 C       -4.7170     2.5740    -1.6230 C.3   1 <1>  -0.1600 
 11 N        0.4830     4.4370    -0.5190 N.pl3 1 <1>   0.3000 
 12 C        0.8930     3.8430     0.6230 C.2   1 <1>  -0.2050 
 13 N       -5.4880     0.2270    -2.2010 N.am  1 <1>  -0.6600 
 14 C       -5.5000     1.6740    -2.5850 C.3   1 <1>   0.1400 
 15 C        1.8330     4.4200     1.5520 C.ar  1 <1>   0.0530 
 16 C       -6.6440    -0.5110    -2.3550 C.2   1 <1>   0.5690 
 17 C        1.8400     5.7850     1.8340 C.ar  1 <1>  -0.1500 
 18 C        2.7700     3.6180     2.1980 C.ar  1 <1>  -0.1500 
 19 O       -7.6220    -0.0410    -2.8900 O.2   1 <1>  -0.5700 
 20 C       -6.7730    -1.9580    -1.8960 C.3   1 <1>   0.0810 
 21 C        2.7540     6.3280     2.7190 C.ar  1 <1>  -0.1500 
 22 C        3.6850     4.1550     3.0850 C.ar  1 <1>  -0.1500 
 23 C       -6.8780    -2.0830    -0.3870 C.2   1 <1>  -0.0400 
 24 C        3.6790     5.5140     3.3460 C.ar  1 <1>  -0.1500 
 25 O       -5.8050    -2.0550     0.3570 O.3   1 <1>  -0.0190 
 26 C       -7.9350    -2.2400     0.4230 C.2   1 <1>  -0.1500 
 27 N       -6.0860    -2.1830     1.6200 N.2   1 <1>  -0.4100 
 28 C       -7.3640    -2.2940     1.6910 C.2   1 <1>   0.1080 
 29 C       -8.1330    -2.4590     2.9830 C.3   1 <1>  -0.0590 
 30 H       -2.1780    -0.5410    -2.2750 H     1 <1>   0.0800 
 31 H       -3.1350     0.3850    -3.3810 H     1 <1>   0.0800 
 32 H       -3.1030     2.9530    -3.0060 H     1 <1>   0.0800 
 33 H       -2.8390     3.5140    -1.3850 H     1 <1>   0.0800 
 34 H        0.3110     1.8790     1.3910 H     1 <1>   0.1500 
 35 H       -4.1500    -0.1650    -0.5960 H     1 <1>   0.0800 
 36 H       -4.2010    -1.4100    -1.7990 H     1 <1>   0.0800 
 37 H       -5.1370     3.5600    -1.7040 H     1 <1>   0.0800 
 38 H       -4.8540     2.2590    -0.6030 H     1 <1>   0.0800 
 39 H        0.8130     5.3520    -0.8450 H     1 <1>   0.2700 
 40 H       -5.1210     1.7790    -3.5870 H     1 <1>   0.0800 
 41 H       -6.5180     2.0260    -2.5950 H     1 <1>   0.0800 
 42 H        1.1200     6.4300     1.3660 H     1 <1>   0.1500 
 43 H        2.7820     2.5620     1.9980 H     1 <1>   0.1500 
 44 H       -5.9580    -2.5480    -2.2650 H     1 <1>   0.0800 
 45 H       -7.6710    -2.3620    -2.3260 H     1 <1>   0.0800 
 46 H        2.7450     7.3850     2.9250 H     1 <1>   0.1500 
 47 H        4.4010     3.5170     3.5720 H     1 <1>   0.1500 
 48 H        4.3910     5.9340     4.0360 H     1 <1>   0.1500 
 49 H       -8.9810    -2.3080     0.1870 H     1 <1>   0.1500 
 50 H       -8.7420    -3.3430     2.9360 H     1 <1>   0.0800 
 51 H       -8.7610    -1.6020     3.1430 H     1 <1>   0.0800 
 52 H       -7.4500    -2.5490     3.8080 H     1 <1>   0.0800 
@<TRIPOS>BOND
  1   1   2  2   
  2   2   3  am  
  3   2   4  1   
  4   3   5  1   
  5   3   6  1   
  6   4   7  2   
  7   4   8  1   
  8   5   9  1   
  9   5  30  1   
 10   5  31  1   
 11   6  10  1   
 12   6  32  1   
 13   6  33  1   
 14   7  11  1   
 15   8  12  2   
 16   8  34  1   
 17   9  13  1   
 18   9  35  1   
 19   9  36  1   
 20  10  14  1   
 21  10  37  1   
 22  10  38  1   
 23  11  12  1   
 24  11  39  1   
 25  12  15  1   
 26  13  14  1   
 27  13  16  am  
 28  14  40  1   
 29  14  41  1   
 30  15  17  ar  
 31  15  18  ar  
 32  16  19  2   
 33  16  20  1   
 34  17  21  ar  
 35  17  42  1   
 36  18  22  ar  
 37  18  43  1   
 38  20  23  1   
 39  20  44  1   
 40  20  45  1   
 41  21  24  ar  
 42  21  46  1   
 43  22  24  ar  
 44  22  47  1   
 45  23  25  1   
 46  23  26  2   
 47  24  48  1   
 48  25  27  1   
 49  26  28  1   
 50  26  49  1   
 51  27  28  2   
 52  28  29  1   
 53  29  50  1   
 54  29  51  1   
 55  29  52  1   
@<TRIPOS>SUBSTRUCTURE
  1 ****   2 GROUP 4 **** **** 0

# MOE 2024.06 (io_trps.svl 2023.06)
