@<TRIPOS>MOLECULE
NONAME
55 58 1 0 0 
SMALL
USER_CHARGES


@<TRIPOS>ATOM
  1 O       -0.0910     0.2410     1.5860 O.2   1 <1>  -0.5700 
  2 C       -0.5560     0.4730     0.4950 C.2   1 <1>   0.5690 
  3 N       -1.3100    -0.4490    -0.1460 N.am  1 <1>  -0.7300 
  4 C       -0.2730     1.8520    -0.1320 C.3   1 <1>   0.0610 
  5 C       -2.0030    -1.5740     0.5190 C.3   1 <1>   0.2840 
  6 C       -0.6080     2.9490     0.9360 C.3   1 <1>   0.4230 
  7 C       -1.2610     2.2670    -1.2620 C.3   1 <1>  -0.1600 
  8 C        1.2120     1.7310    -0.6080 C.3   1 <1>  -0.1600 
  9 C       -3.4940    -1.2510     0.5830 C.ar  1 <1>   0.1660 
 10 N       -1.1360     4.1150     0.1780 N.4   1 <1>  -0.9590 
 11 C       -1.9390     2.6470     1.6590 C.3   1 <1>  -0.1600 
 12 C       -2.1140     3.3690    -0.6190 C.3   1 <1>   0.4230 
 13 C        1.9430     2.8520    -1.3610 C.3   1 <1>  -0.2400 
 14 N       -4.0640    -0.8030    -0.5340 N.ar  1 <1>  -0.6200 
 15 C       -4.1730    -1.4230     1.7810 C.ar  1 <1>  -0.1500 
 16 C       -0.2290     5.0640    -0.5080 C.3   1 <1>   0.4230 
 17 C       -2.9640     2.7880     0.5160 C.3   1 <1>  -0.1600 
 18 C       -5.3610    -0.5460    -0.4520 C.ar  1 <1>   0.1600 
 19 C       -5.5190    -1.1360     1.8510 C.ar  1 <1>  -0.1500 
 20 C        0.6670     5.7370     0.5370 C.3   1 <1>  -0.1600 
 21 C       -1.0470     6.1170    -1.2610 C.3   1 <1>  -0.1600 
 22 C       -6.1210    -0.6890     0.6950 C.ar  1 <1>  -0.1500 
 23 C        1.4810     6.8570    -0.1110 C.3   1 <1>   0.1200 
 24 C       -0.1260     7.2180    -1.7910 C.3   1 <1>   0.1200 
 25 O        0.5970     7.7380    -0.7250 O.3   1 <1>  -0.5600 
 26 H       -1.7570    -0.2380    -1.0420 H     1 <1>   0.3700 
 27 H       -1.8570    -2.4710    -0.0560 H     1 <1>   0.0800 
 28 H       -1.6040    -1.7310     1.5060 H     1 <1>   0.0800 
 29 H        0.2020     3.1740     1.6120 H     1 <1>   0.0800 
 30 H       -1.8910     1.4780    -1.6270 H     1 <1>   0.0800 
 31 H       -0.7490     2.6750    -2.1120 H     1 <1>   0.0800 
 32 H        1.8170     1.4930     0.2530 H     1 <1>   0.0800 
 33 H        1.2640     0.8640    -1.2460 H     1 <1>   0.0800 
 34 H       -1.6710     4.6760     0.8480 H     1 <1>   0.4500 
 35 H       -2.0020     1.6930     2.1490 H     1 <1>   0.0800 
 36 H       -2.1120     3.3920     2.4170 H     1 <1>   0.0800 
 37 H       -2.6770     3.9670    -1.3190 H     1 <1>   0.0800 
 38 H        2.1410     3.6890    -0.7220 H     1 <1>   0.0800 
 39 H        1.4160     3.1600    -2.2450 H     1 <1>   0.0800 
 40 H        2.9010     2.4790    -1.6820 H     1 <1>   0.0800 
 41 H       -3.6580    -1.7810     2.6550 H     1 <1>   0.1500 
 42 H        0.3750     4.5500    -1.2270 H     1 <1>   0.0800 
 43 H       -3.7590     3.4620     0.7870 H     1 <1>   0.0800 
 44 H       -3.3970     1.8420     0.2390 H     1 <1>   0.0800 
 45 H       -5.8480    -0.2020    -1.3490 H     1 <1>   0.1500 
 46 H       -6.0760    -1.2600     2.7640 H     1 <1>   0.1500 
 47 H        1.3450     5.0290     0.9760 H     1 <1>   0.0800 
 48 H        0.0720     6.1710     1.3200 H     1 <1>   0.0800 
 49 H       -1.7730     6.5720    -0.6110 H     1 <1>   0.0800 
 50 H       -1.5550     5.6740    -2.0980 H     1 <1>   0.0800 
 51 H       -7.1700    -0.4560     0.6810 H     1 <1>   0.1500 
 52 H        2.1710     6.4850    -0.8500 H     1 <1>   0.0800 
 53 H        2.0300     7.4100     0.6330 H     1 <1>   0.0800 
 54 H       -0.7010     8.0220    -2.2200 H     1 <1>   0.0800 
 55 H        0.5640     6.8490    -2.5320 H     1 <1>   0.0800 
@<TRIPOS>BOND
  1   1   2  2   
  2   2   3  am  
  3   2   4  1   
  4   3   5  1   
  5   3  26  1   
  6   4   6  1   
  7   4   7  1   
  8   4   8  1   
  9   5   9  1   
 10   5  27  1   
 11   5  28  1   
 12   6  10  1   
 13   6  11  1   
 14   6  29  1   
 15   7  12  1   
 16   7  30  1   
 17   7  31  1   
 18   8  13  1   
 19   8  32  1   
 20   8  33  1   
 21   9  14  ar  
 22   9  15  ar  
 23  10  12  1   
 24  10  16  1   
 25  10  34  1   
 26  11  17  1   
 27  11  35  1   
 28  11  36  1   
 29  12  17  1   
 30  12  37  1   
 31  13  38  1   
 32  13  39  1   
 33  13  40  1   
 34  14  18  ar  
 35  15  19  ar  
 36  15  41  1   
 37  16  20  1   
 38  16  21  1   
 39  16  42  1   
 40  17  43  1   
 41  17  44  1   
 42  18  22  ar  
 43  18  45  1   
 44  19  22  ar  
 45  19  46  1   
 46  20  23  1   
 47  20  47  1   
 48  20  48  1   
 49  21  24  1   
 50  21  49  1   
 51  21  50  1   
 52  22  51  1   
 53  23  25  1   
 54  23  52  1   
 55  23  53  1   
 56  24  25  1   
 57  24  54  1   
 58  24  55  1   
@<TRIPOS>SUBSTRUCTURE
  1 ****   4 GROUP 4 **** **** 0

# MOE 2024.06 (io_trps.svl 2023.06)
