@<TRIPOS>MOLECULE
NONAME
40 42 1 0 0 
SMALL
USER_CHARGES


@<TRIPOS>ATOM
  1 CL       1.6600    -3.3090     2.5270 Cl    1 <1>  -0.1770 
  2 C        2.0440    -2.2490     1.1820 C.ar  1 <1>   0.1770 
  3 C        1.1550    -2.0650     0.1080 C.ar  1 <1>   0.4100 
  4 C        3.2480    -1.5910     1.2220 C.ar  1 <1>  -0.1500 
  5 N        1.4360    -1.2340    -0.8950 N.ar  1 <1>  -0.6200 
  6 N       -0.0600    -2.7370     0.0290 N.pl3 1 <1>  -0.8380 
  7 C        3.5360    -0.7390     0.1650 C.ar  1 <1>  -0.1430 
  8 C        2.5980    -0.6050    -0.8450 C.ar  1 <1>   0.1600 
  9 C       -1.1300    -2.2690    -0.9040 C.3   1 <1>   0.2090 
 10 C       -0.0420    -4.2300    -0.0010 C.3   1 <1>   0.2090 
 11 C        4.8300     0.0580     0.0700 C.3   1 <1>   1.1640 
 12 C       -2.1010    -3.4420    -0.9870 C.3   1 <1>   0.2000 
 13 C       -1.1650    -4.6480    -0.9550 C.3   1 <1>  -0.0800 
 14 F        4.6220     1.3570     0.2350 F     1 <1>  -0.3400 
 15 F        5.4170    -0.0800    -1.1110 F     1 <1>  -0.3400 
 16 F        5.7290    -0.2970     0.9790 F     1 <1>  -0.3400 
 17 O       -2.8760    -3.4280     0.1640 O.3   1 <1>  -0.6800 
 18 C       -1.8190    -5.9940    -0.5870 C.3   1 <1>   0.0210 
 19 C       -0.7870    -7.1030    -0.4810 C.2   1 <1>   0.1080 
 20 N        0.1570    -7.2870    -1.3530 N.2   1 <1>  -0.7070 
 21 C       -0.7310    -8.0310     0.5540 C.2   1 <1>  -0.1500 
 22 N        0.8430    -8.3500    -0.8940 N.pl3 1 <1>   0.3000 
 23 C        0.3250    -8.8180     0.2610 C.2   1 <1>  -0.3320 
 24 C        0.8800   -10.0060     1.0250 C.3   1 <1>  -0.0600 
 25 H        3.9220    -1.7420     2.0480 H     1 <1>   0.1500 
 26 H        2.8090     0.0600    -1.6680 H     1 <1>   0.1500 
 27 H       -1.6070    -1.3740    -0.5410 H     1 <1>   0.0800 
 28 H       -0.7140    -2.0830    -1.8800 H     1 <1>   0.0800 
 29 H        0.9080    -4.6070    -0.3410 H     1 <1>   0.0800 
 30 H       -0.2370    -4.6040     0.9890 H     1 <1>   0.0800 
 31 H       -2.7460    -3.4120    -1.8480 H     1 <1>   0.0800 
 32 H       -0.7260    -4.7490    -1.9320 H     1 <1>   0.0800 
 33 H       -2.2770    -3.2050     0.9080 H     1 <1>   0.4000 
 34 H       -2.5350    -6.2610    -1.3420 H     1 <1>   0.0800 
 35 H       -2.3370    -5.9160     0.3510 H     1 <1>   0.0800 
 36 H       -1.4010    -8.0850     1.3940 H     1 <1>   0.1500 
 37 H        1.6570    -8.7310    -1.3910 H     1 <1>   0.2700 
 38 H        0.2940   -10.1840     1.9100 H     1 <1>   0.0800 
 39 H        1.8970    -9.8170     1.3210 H     1 <1>   0.0800 
 40 H        0.8500   -10.8900     0.4120 H     1 <1>   0.0800 
@<TRIPOS>BOND
  1   1   2  1   
  2   2   3  ar  
  3   2   4  ar  
  4   3   5  ar  
  5   3   6  1   
  6   4   7  ar  
  7   4  25  1   
  8   5   8  ar  
  9   6   9  1   
 10   6  10  1   
 11   7   8  ar  
 12   7  11  1   
 13   8  26  1   
 14   9  12  1   
 15   9  27  1   
 16   9  28  1   
 17  10  13  1   
 18  10  29  1   
 19  10  30  1   
 20  11  14  1   
 21  11  15  1   
 22  11  16  1   
 23  12  13  1   
 24  12  17  1   
 25  12  31  1   
 26  13  18  1   
 27  13  32  1   
 28  17  33  1   
 29  18  19  1   
 30  18  34  1   
 31  18  35  1   
 32  19  20  2   
 33  19  21  1   
 34  20  22  1   
 35  21  23  2   
 36  21  36  1   
 37  22  23  1   
 38  22  37  1   
 39  23  24  1   
 40  24  38  1   
 41  24  39  1   
 42  24  40  1   
@<TRIPOS>SUBSTRUCTURE
  1 ****  10 GROUP 4 **** **** 0

# MOE 2024.06 (io_trps.svl 2023.06)
