@<TRIPOS>MOLECULE
NONAME
53 55 1 0 0 
SMALL
USER_CHARGES


@<TRIPOS>ATOM
  1 F        0.7600     0.3070     1.5600 F     1 <1>  -0.1900 
  2 C        1.5880    -0.5400     1.0080 C.ar  1 <1>   0.1900 
  3 C        1.4820    -1.8770     1.3270 C.ar  1 <1>  -0.1500 
  4 C        2.5330    -0.0600     0.1220 C.ar  1 <1>  -0.1500 
  5 C        2.3480    -2.8010     0.7430 C.ar  1 <1>   0.0860 
  6 C        3.4090    -0.9640    -0.4520 C.ar  1 <1>  -0.1500 
  7 C        3.3300    -2.3140    -0.1360 C.ar  1 <1>   0.0830 
  8 C        2.2010    -4.2060     1.0480 C.2   1 <1>   0.5440 
  9 O        4.2290    -3.1300    -0.7270 O.3   1 <1>  -0.3630 
 10 O        2.4620    -4.5940     2.1700 O.2   1 <1>  -0.5700 
 11 N        1.7640    -5.1060     0.1040 N.am  1 <1>  -0.6600 
 12 C        5.1880    -3.7670     0.0950 C.3   1 <1>   0.0400 
 13 C        1.7640    -6.5830     0.3840 C.3   1 <1>   0.3640 
 14 C        1.2040    -4.6600    -1.2100 C.3   1 <1>   0.1400 
 15 C        3.0670    -7.2480    -0.0880 C.ar  1 <1>  -0.1430 
 16 C        0.5250    -7.3220    -0.2160 C.3   1 <1>   0.2000 
 17 C        0.6570    -5.8270    -2.0430 C.3   1 <1>   0.1200 
 18 C        3.4350    -8.4460     0.5120 C.ar  1 <1>  -0.1500 
 19 C        3.8910    -6.7230    -1.0790 C.ar  1 <1>  -0.1500 
 20 O       -0.1500    -6.6240    -1.2390 O.3   1 <1>  -0.5600 
 21 C       -0.5190    -7.6340     0.8630 C.3   1 <1>   0.1200 
 22 C        4.5850    -9.1170     0.1320 C.ar  1 <1>   0.0830 
 23 C        5.0540    -7.3750    -1.4540 C.ar  1 <1>  -0.1500 
 24 O       -0.0440    -8.6180     1.7260 O.3   1 <1>  -0.6800 
 25 O        4.8420   -10.3030     0.7370 O.3   1 <1>  -0.3630 
 26 C        5.4180    -8.5630    -0.8450 C.ar  1 <1>   0.0830 
 27 C        4.8320   -11.4470    -0.0890 C.3   1 <1>   0.0400 
 28 O        6.5880    -9.1290    -1.2290 O.3   1 <1>  -0.3630 
 29 C        7.6040    -9.1840    -0.2510 C.3   1 <1>   0.0400 
 30 H        0.7320    -2.2090     2.0230 H     1 <1>   0.1500 
 31 H        2.5800     0.9900    -0.1050 H     1 <1>   0.1500 
 32 H        4.1610    -0.6270    -1.1430 H     1 <1>   0.1500 
 33 H        5.9560    -4.1730    -0.5380 H     1 <1>   0.0800 
 34 H        4.7220    -4.5630     0.6470 H     1 <1>   0.0800 
 35 H        5.6110    -3.0430     0.7690 H     1 <1>   0.0800 
 36 H        1.7320    -6.7260     1.4500 H     1 <1>   0.0800 
 37 H        0.4040    -3.9630    -1.0300 H     1 <1>   0.0800 
 38 H        1.9650    -4.1510    -1.7750 H     1 <1>   0.0800 
 39 H        0.8460    -8.2530    -0.6490 H     1 <1>   0.0800 
 40 H        1.4500    -6.4290    -2.4520 H     1 <1>   0.0800 
 41 H        0.0550    -5.4550    -2.8530 H     1 <1>   0.0800 
 42 H        2.8250    -8.8760     1.2870 H     1 <1>   0.1500 
 43 H        3.6500    -5.7970    -1.5650 H     1 <1>   0.1500 
 44 H       -1.4300    -7.9930     0.4170 H     1 <1>   0.0800 
 45 H       -0.7250    -6.7520     1.4440 H     1 <1>   0.0800 
 46 H        5.6880    -6.9610    -2.2160 H     1 <1>   0.1500 
 47 H       -0.0980    -9.5010     1.3100 H     1 <1>   0.4000 
 48 H        4.9210   -12.3150     0.5380 H     1 <1>   0.0800 
 49 H        5.6610   -11.4020    -0.7710 H     1 <1>   0.0800 
 50 H        3.9030   -11.4760    -0.6310 H     1 <1>   0.0800 
 51 H        8.4990    -9.5550    -0.7170 H     1 <1>   0.0800 
 52 H        7.3030    -9.8450     0.5410 H     1 <1>   0.0800 
 53 H        7.7700    -8.1930     0.1330 H     1 <1>   0.0800 
@<TRIPOS>BOND
  1   1   2  1   
  2   2   3  ar  
  3   2   4  ar  
  4   3   5  ar  
  5   3  30  1   
  6   4   6  ar  
  7   4  31  1   
  8   5   7  ar  
  9   5   8  1   
 10   6   7  ar  
 11   6  32  1   
 12   7   9  1   
 13   8  10  2   
 14   8  11  am  
 15   9  12  1   
 16  11  13  1   
 17  11  14  1   
 18  12  33  1   
 19  12  34  1   
 20  12  35  1   
 21  13  15  1   
 22  13  16  1   
 23  13  36  1   
 24  14  17  1   
 25  14  37  1   
 26  14  38  1   
 27  15  18  ar  
 28  15  19  ar  
 29  16  20  1   
 30  16  21  1   
 31  16  39  1   
 32  17  20  1   
 33  17  40  1   
 34  17  41  1   
 35  18  22  ar  
 36  18  42  1   
 37  19  23  ar  
 38  19  43  1   
 39  21  24  1   
 40  21  44  1   
 41  21  45  1   
 42  22  25  1   
 43  22  26  ar  
 44  23  26  ar  
 45  23  46  1   
 46  24  47  1   
 47  25  27  1   
 48  26  28  1   
 49  27  48  1   
 50  27  49  1   
 51  27  50  1   
 52  28  29  1   
 53  29  51  1   
 54  29  52  1   
 55  29  53  1   
@<TRIPOS>SUBSTRUCTURE
  1 ****  11 GROUP 4 **** **** 0

# MOE 2024.06 (io_trps.svl 2023.06)
