@<TRIPOS>MOLECULE
NONAME
50 52 1 0 0 
SMALL
USER_CHARGES


@<TRIPOS>ATOM
  1 F       -0.6810    -0.3480     0.0560 F     1 <1>  -0.1900 
  2 C       -1.2000    -1.5230    -0.1770 C.ar  1 <1>   0.1900 
  3 C       -1.1560    -2.4760     0.8190 C.ar  1 <1>  -0.1500 
  4 C       -1.7750    -1.7610    -1.4100 C.ar  1 <1>  -0.1500 
  5 C       -1.7140    -3.7270     0.5700 C.ar  1 <1>   0.0830 
  6 C       -2.3270    -3.0060    -1.6550 C.ar  1 <1>  -0.1500 
  7 O       -1.7240    -4.7240     1.4960 O.3   1 <1>  -0.3630 
  8 C       -2.3000    -3.9880    -0.6710 C.ar  1 <1>  -0.1440 
  9 C       -0.9610    -4.6190     2.6830 C.3   1 <1>   0.0400 
 10 C       -2.9100    -5.3490    -0.9550 C.3   1 <1>   0.4870 
 11 N       -3.9780    -5.6100     0.0430 N.4   1 <1>  -0.9590 
 12 C       -4.3330    -7.0690     0.0830 C.3   1 <1>   0.3430 
 13 C       -5.1260    -4.6650    -0.1390 C.3   1 <1>   0.3430 
 14 C       -5.4070    -7.4450     1.1260 C.3   1 <1>   0.1400 
 15 C       -5.8300    -4.4430     1.2000 C.3   1 <1>  -0.1600 
 16 N       -6.6980    -6.7670     0.8190 N.am  1 <1>  -0.6600 
 17 C       -6.9300    -5.4660     1.5040 C.3   1 <1>   0.1400 
 18 C       -7.4910    -7.1280    -0.2400 C.2   1 <1>   0.5690 
 19 O       -7.9680    -6.2790    -0.9530 O.2   1 <1>  -0.5700 
 20 C       -7.7320    -8.5980    -0.5730 C.3   1 <1>  -0.0190 
 21 C       -8.8080    -8.8210    -1.6560 C.3   1 <1>   0.1400 
 22 C       -8.2000    -9.4440     0.6340 C.3   1 <1>  -0.0990 
 23 N       -9.4330   -10.0820    -1.2410 N.am  1 <1>  -0.7300 
 24 C       -9.1370   -10.4390     0.0140 C.2   1 <1>   0.5690 
 25 O       -9.5560   -11.4150     0.5770 O.2   1 <1>  -0.5700 
 26 H       -0.6940    -2.2180     1.7530 H     1 <1>   0.1500 
 27 H       -1.7830    -0.9850    -2.1560 H     1 <1>   0.1500 
 28 H       -2.7720    -3.1940    -2.6180 H     1 <1>   0.1500 
 29 H       -1.0370    -5.5480     3.2210 H     1 <1>   0.0800 
 30 H       -1.3510    -3.8180     3.2860 H     1 <1>   0.0800 
 31 H        0.0680    -4.4350     2.4260 H     1 <1>   0.0800 
 32 H       -2.1360    -6.0950    -0.8710 H     1 <1>   0.0800 
 33 H       -3.3130    -5.3800    -1.9540 H     1 <1>   0.0800 
 34 H       -3.5200    -5.3530     0.9340 H     1 <1>   0.4500 
 35 H       -3.4430    -7.6380     0.2980 H     1 <1>   0.0800 
 36 H       -4.6860    -7.3760    -0.8870 H     1 <1>   0.0800 
 37 H       -5.8220    -5.0350    -0.8760 H     1 <1>   0.0800 
 38 H       -4.7540    -3.7120    -0.4790 H     1 <1>   0.0800 
 39 H       -5.0730    -7.1760     2.1140 H     1 <1>   0.0800 
 40 H       -5.5470    -8.5110     1.1150 H     1 <1>   0.0800 
 41 H       -6.2990    -3.4750     1.1740 H     1 <1>   0.0800 
 42 H       -5.1150    -4.4130     2.0020 H     1 <1>   0.0800 
 43 H       -7.8790    -5.0640     1.1840 H     1 <1>   0.0800 
 44 H       -7.0010    -5.6260     2.5670 H     1 <1>   0.0800 
 45 H       -6.8180    -9.0150    -0.9520 H     1 <1>   0.0800 
 46 H       -8.3750    -8.9050    -2.6390 H     1 <1>   0.0800 
 47 H       -9.5540    -8.0430    -1.6480 H     1 <1>   0.0800 
 48 H       -8.7530    -8.8520     1.3410 H     1 <1>   0.0800 
 49 H       -7.3910    -9.9480     1.1260 H     1 <1>   0.0800 
 50 H      -10.1250   -10.5850    -1.8030 H     1 <1>   0.3700 
@<TRIPOS>BOND
  1   1   2  1   
  2   2   3  ar  
  3   2   4  ar  
  4   3   5  ar  
  5   3  26  1   
  6   4   6  ar  
  7   4  27  1   
  8   5   7  1   
  9   5   8  ar  
 10   6   8  ar  
 11   6  28  1   
 12   7   9  1   
 13   8  10  1   
 14   9  29  1   
 15   9  30  1   
 16   9  31  1   
 17  10  11  1   
 18  10  32  1   
 19  10  33  1   
 20  11  12  1   
 21  11  13  1   
 22  11  34  1   
 23  12  14  1   
 24  12  35  1   
 25  12  36  1   
 26  13  15  1   
 27  13  37  1   
 28  13  38  1   
 29  14  16  1   
 30  14  39  1   
 31  14  40  1   
 32  15  17  1   
 33  15  41  1   
 34  15  42  1   
 35  16  17  1   
 36  16  18  am  
 37  17  43  1   
 38  17  44  1   
 39  18  19  2   
 40  18  20  1   
 41  20  21  1   
 42  20  22  1   
 43  20  45  1   
 44  21  23  1   
 45  21  46  1   
 46  21  47  1   
 47  22  24  1   
 48  22  48  1   
 49  22  49  1   
 50  23  24  am  
 51  23  50  1   
 52  24  25  2   
@<TRIPOS>SUBSTRUCTURE
  1 ****  11 GROUP 4 **** **** 0

# MOE 2024.06 (io_trps.svl 2023.06)
