@<TRIPOS>MOLECULE
Untitled Document
56 60 1 0 0 
SMALL
USER_CHARGES


@<TRIPOS>ATOM
  1 F        0.3420     1.6120     2.6170 F     1 <1>  -0.1900 
  2 C        1.0700     2.1910     1.6920 C.ar  1 <1>   0.1900 
  3 C        0.5020     3.2140     0.9340 C.ar  1 <1>   0.1000 
  4 C        2.3650     1.7500     1.5200 C.ar  1 <1>  -0.1500 
  5 N       -0.8240     3.6160     1.1480 N.pl3 1 <1>  -0.5830 
  6 C        1.3150     3.7850    -0.0400 C.ar  1 <1>  -0.1500 
  7 C        3.1710     2.3310     0.5440 C.ar  1 <1>   0.0540 
  8 C       -1.4520     4.8190     0.8040 C.2   1 <1>   0.3720 
  9 C        2.6170     3.3530    -0.2260 C.ar  1 <1>  -0.1500 
 10 C        4.5340     1.8940     0.3350 C.2   1 <1>  -0.0540 
 11 N       -0.8190     5.9400     0.6550 N.2   1 <1>  -0.7070 
 12 C       -2.8190     4.9680     0.6070 C.2   1 <1>  -0.1810 
 13 C        5.0660     0.6220     0.5630 C.2   1 <1>   0.1390 
 14 C        5.6020     2.5940    -0.1250 C.2   1 <1>  -0.3020 
 15 N       -1.7750     6.8540     0.3490 N.pl3 1 <1>   0.3140 
 16 C       -2.9960     6.2730     0.3270 C.2   1 <1>  -0.3320 
 17 C       -3.9200     3.9250     0.6550 C.3   1 <1>   0.3210 
 18 N        6.3290     0.5400     0.2800 N.2   1 <1>  -0.7070 
 19 N        6.6600     1.7660    -0.1470 N.pl3 1 <1>   0.3140 
 20 C       -1.4550     8.2750     0.0470 C.3   1 <1>   0.1760 
 21 C       -4.3560     6.8790     0.0350 C.3   1 <1>   0.0200 
 22 N       -5.2080     4.5150     0.1630 N.am  1 <1>  -0.6600 
 23 C        8.0290     2.0830    -0.5670 C.3   1 <1>   0.0160 
 24 C       -0.6990     8.3710    -1.2810 C.3   1 <1>   0.1200 
 25 C       -0.4870     8.8820     1.0600 C.3   1 <1>  -0.1600 
 26 C       -5.4570     5.9410     0.5630 C.3   1 <1>   0.1400 
 27 C       -6.0620     3.7410    -0.5720 C.2   1 <1>   0.5690 
 28 O        0.4830     9.0600    -1.0110 O.3   1 <1>  -0.5600 
 29 C        0.8360     8.8550     0.3150 C.3   1 <1>   0.1200 
 30 O       -5.8520     2.5690    -0.7720 O.2   1 <1>  -0.5700 
 31 C       -7.3240     4.3270    -1.1620 C.3   1 <1>  -0.1790 
 32 H        2.7440     0.9640     2.1450 H     1 <1>   0.1500 
 33 H       -1.3330     3.0600     1.8340 H     1 <1>   0.4000 
 34 H        0.9220     4.5730    -0.6570 H     1 <1>   0.1500 
 35 H        3.2160     3.8160    -0.9890 H     1 <1>   0.1500 
 36 H        4.4940    -0.2120     0.9320 H     1 <1>   0.1500 
 37 H        5.6540     3.6240    -0.4250 H     1 <1>   0.1500 
 38 H       -4.0510     3.5810     1.6650 H     1 <1>   0.0800 
 39 H       -3.6330     3.0880     0.0420 H     1 <1>   0.0800 
 40 H       -2.3660     8.8390     0.0060 H     1 <1>   0.0800 
 41 H       -4.4550     7.8360     0.5150 H     1 <1>   0.0800 
 42 H       -4.4730     7.0120    -1.0260 H     1 <1>   0.0800 
 43 H        8.0890     3.1140    -0.8600 H     1 <1>   0.0800 
 44 H        8.2940     1.4510    -1.3940 H     1 <1>   0.0800 
 45 H        8.6960     1.8970     0.2540 H     1 <1>   0.0800 
 46 H       -1.2500     8.9240    -2.0190 H     1 <1>   0.0800 
 47 H       -0.4360     7.3980    -1.6620 H     1 <1>   0.0800 
 48 H       -0.4400     8.3380     1.9870 H     1 <1>   0.0800 
 49 H       -0.7510     9.9050     1.2580 H     1 <1>   0.0800 
 50 H       -6.4150     6.2840     0.2180 H     1 <1>   0.0800 
 51 H       -5.4620     5.9880     1.6390 H     1 <1>   0.0800 
 52 H        1.3080     7.8880     0.3920 H     1 <1>   0.0800 
 53 H        1.5140     9.6300     0.6300 H     1 <1>   0.0800 
 54 H       -7.0820     5.1710    -1.7770 H     1 <1>   0.0800 
 55 H       -7.9910     4.6220    -0.3750 H     1 <1>   0.0800 
 56 H       -7.8140     3.5890    -1.7690 H     1 <1>   0.0800 
@<TRIPOS>BOND
  1   1   2  1   
  2   2   3  ar  
  3   2   4  ar  
  4   3   5  1   
  5   3   6  ar  
  6   4   7  ar  
  7   4  32  1   
  8   5   8  1   
  9   5  33  1   
 10   6   9  ar  
 11   6  34  1   
 12   7   9  ar  
 13   7  10  1   
 14   8  11  2   
 15   8  12  1   
 16   9  35  1   
 17  10  13  1   
 18  10  14  2   
 19  11  15  1   
 20  12  16  2   
 21  12  17  1   
 22  13  18  2   
 23  13  36  1   
 24  14  19  1   
 25  14  37  1   
 26  15  16  1   
 27  15  20  1   
 28  16  21  1   
 29  17  22  1   
 30  17  38  1   
 31  17  39  1   
 32  18  19  1   
 33  19  23  1   
 34  20  24  1   
 35  20  25  1   
 36  20  40  1   
 37  21  26  1   
 38  21  41  1   
 39  21  42  1   
 40  22  26  1   
 41  22  27  am  
 42  23  43  1   
 43  23  44  1   
 44  23  45  1   
 45  24  28  1   
 46  24  46  1   
 47  24  47  1   
 48  25  29  1   
 49  25  48  1   
 50  25  49  1   
 51  26  50  1   
 52  26  51  1   
 53  27  30  2   
 54  27  31  1   
 55  28  29  1   
 56  29  52  1   
 57  29  53  1   
 58  31  54  1   
 59  31  55  1   
 60  31  56  1   
@<TRIPOS>SUBSTRUCTURE
  1 ****   5 GROUP 4 **** **** 0

# MOE 2024.06 (io_trps.svl 2023.06)
