@<TRIPOS>MOLECULE
NONAME
32 33 1 0 0 
SMALL
USER_CHARGES


@<TRIPOS>ATOM
  1 O       -1.1910    -7.6910     0.4450 O.3   1 <1>  -0.6800 
  2 C       -1.0040    -6.5550     1.2110 C.3   1 <1>   0.1200 
  3 C       -0.4740    -5.4310     0.2870 C.3   1 <1>   0.0000 
  4 C       -0.5870    -4.0570     0.9790 C.3   1 <1>  -0.0800 
  5 C        0.9770    -5.7760    -0.1350 C.3   1 <1>  -0.1600 
  6 C       -1.4330    -5.2830    -0.9070 C.3   1 <1>   0.3430 
  7 C        0.3030    -2.9670     0.3480 C.3   1 <1>   0.3430 
  8 C       -2.0620    -3.6710     0.7940 C.3   1 <1>   0.3430 
  9 C        1.7530    -4.6250    -0.7700 C.3   1 <1>   0.3430 
 10 N       -2.5280    -4.3930    -0.4260 N.4   1 <1>  -0.9060 
 11 N        1.6980    -3.4500     0.1410 N.4   1 <1>  -0.9590 
 12 C        2.5810    -2.3510    -0.3740 C.3   1 <1>   0.2630 
 13 H       -1.3710    -8.4800     1.0040 H     1 <1>   0.4000 
 14 H       -1.9520    -6.3070     1.6600 H     1 <1>   0.0800 
 15 H       -0.3000    -6.7870     1.9930 H     1 <1>   0.0800 
 16 H       -0.3510    -4.1210     2.0270 H     1 <1>   0.0800 
 17 H        0.9650    -6.6050    -0.8240 H     1 <1>   0.0800 
 18 H        1.5340    -6.1080     0.7250 H     1 <1>   0.0800 
 19 H       -1.8130    -6.2390    -1.2350 H     1 <1>   0.0800 
 20 H       -0.9210    -4.8150    -1.7310 H     1 <1>   0.0800 
 21 H        0.3110    -2.0970     0.9870 H     1 <1>   0.0800 
 22 H       -0.1070    -2.6720    -0.6050 H     1 <1>   0.0800 
 23 H       -2.1880    -2.6040     0.6930 H     1 <1>   0.0800 
 24 H       -2.6320    -4.0050     1.6470 H     1 <1>   0.0800 
 25 H        1.3300    -4.3720    -1.7280 H     1 <1>   0.0800 
 26 H        2.7780    -4.9270    -0.9240 H     1 <1>   0.0800 
 27 H       -2.8600    -3.7600    -1.1690 H     1 <1>   0.4500 
 28 H       -3.3400    -4.9850    -0.1850 H     1 <1>   0.4500 
 29 H        2.0870    -3.7460     1.0520 H     1 <1>   0.4500 
 30 H        2.2360    -2.0060    -1.3350 H     1 <1>   0.0800 
 31 H        3.5950    -2.7040    -0.4800 H     1 <1>   0.0800 
 32 H        2.5840    -1.5170     0.3110 H     1 <1>   0.0800 
@<TRIPOS>BOND
  1   1   2  1   
  2   1  13  1   
  3   2   3  1   
  4   2  14  1   
  5   2  15  1   
  6   3   4  1   
  7   3   5  1   
  8   3   6  1   
  9   4   7  1   
 10   4   8  1   
 11   4  16  1   
 12   5   9  1   
 13   5  17  1   
 14   5  18  1   
 15   6  10  1   
 16   6  19  1   
 17   6  20  1   
 18   7  11  1   
 19   7  21  1   
 20   7  22  1   
 21   8  10  1   
 22   8  23  1   
 23   8  24  1   
 24   9  11  1   
 25   9  25  1   
 26   9  26  1   
 27  10  27  1   
 28  10  28  1   
 29  11  12  1   
 30  11  29  1   
 31  12  30  1   
 32  12  31  1   
 33  12  32  1   
@<TRIPOS>SUBSTRUCTURE
  1 ****   3 GROUP 4 **** **** 0

# MOE 2024.06 (io_trps.svl 2023.06)
