@<TRIPOS>MOLECULE
NONAME
49 51 1 0 0 
SMALL
USER_CHARGES


@<TRIPOS>ATOM
  1 O        2.8040     1.2890     0.5240 O.co2 1 <1>  -0.9000 
  2 C        3.2020     0.6820     1.5260 C.2   1 <1>   0.9060 
  3 O        3.7150     1.2830     2.4770 O.co2 1 <1>  -0.9000 
  4 C        3.1280    -0.8410     1.5360 C.3   1 <1>   0.0140 
  5 O        4.4190    -1.4460     1.6350 O.3   1 <1>  -0.3630 
  6 C        4.8130    -2.3310     0.6960 C.ar  1 <1>   0.0830 
  7 C        5.2340    -1.9470    -0.5790 C.ar  1 <1>  -0.1440 
  8 C        4.8280    -3.6670     1.0670 C.ar  1 <1>  -0.1500 
  9 C        5.6670    -2.9320    -1.4570 C.ar  1 <1>  -0.1500 
 10 C        5.2300    -0.5050    -1.0750 C.3   1 <1>   0.2540 
 11 C        5.2540    -4.6360     0.1780 C.ar  1 <1>  -0.1500 
 12 C        5.6760    -4.2670    -1.0860 C.ar  1 <1>  -0.1500 
 13 N        6.5130     0.1680    -0.7770 N.3   1 <1>  -0.8100 
 14 C        6.4410     0.9440     0.5210 C.3   1 <1>   0.1900 
 15 C        7.0220     0.9140    -1.9420 C.3   1 <1>   0.1100 
 16 C        5.9130     2.3870     0.3890 C.3   1 <1>   0.1200 
 17 C        7.8060     0.9410     1.2440 C.3   1 <1>   0.3430 
 18 C        8.0750     1.9950    -1.6230 C.3   1 <1>  -0.0800 
 19 O        6.9550     3.2850     0.1020 O.3   1 <1>  -0.5600 
 20 N        8.8690     0.5040     0.2910 N.4   1 <1>  -0.9590 
 21 C        7.4010     3.3140    -1.2090 C.3   1 <1>   0.1200 
 22 C        9.2210     1.5920    -0.6690 C.3   1 <1>   0.3430 
 23 C       10.1030    -0.0160     1.0150 C.3   1 <1>   0.2370 
 24 C       11.0770     1.0330     1.5770 C.2   1 <1>   0.9060 
 25 O       11.7100     1.7320     0.7740 O.co2 1 <1>  -0.9000 
 26 O       11.1720     1.1590     2.8000 O.co2 1 <1>  -0.9000 
 27 H        2.6460    -1.1770     0.6390 H     1 <1>   0.0800 
 28 H        2.5560    -1.1490     2.3880 H     1 <1>   0.0800 
 29 H        4.5060    -3.9350     2.0560 H     1 <1>   0.1500 
 30 H        6.0010    -2.6610    -2.4420 H     1 <1>   0.1500 
 31 H        4.4090     0.0460    -0.6660 H     1 <1>   0.0800 
 32 H        5.0680    -0.5280    -2.1380 H     1 <1>   0.0800 
 33 H        5.2590    -5.6720     0.4700 H     1 <1>   0.1500 
 34 H        6.0090    -5.0170    -1.7820 H     1 <1>   0.1500 
 35 H        5.7690     0.4400     1.1840 H     1 <1>   0.0800 
 36 H        7.4510     0.2000    -2.6240 H     1 <1>   0.0800 
 37 H        6.1970     1.3850    -2.4500 H     1 <1>   0.0800 
 38 H        5.5000     2.6890     1.3360 H     1 <1>   0.0800 
 39 H        5.1290     2.4640    -0.3450 H     1 <1>   0.0800 
 40 H        7.7470     0.2470     2.0650 H     1 <1>   0.0800 
 41 H        8.0280     1.9140     1.6500 H     1 <1>   0.0800 
 42 H        8.5470     2.2260    -2.5600 H     1 <1>   0.0800 
 43 H        8.3730    -0.2270    -0.2480 H     1 <1>   0.4500 
 44 H        6.5670     3.5520    -1.8470 H     1 <1>   0.0800 
 45 H        8.1130     4.1190    -1.2720 H     1 <1>   0.0800 
 46 H        9.5540     2.4590    -0.1200 H     1 <1>   0.0800 
 47 H       10.0570     1.2580    -1.2600 H     1 <1>   0.0800 
 48 H        9.8020    -0.6400     1.8360 H     1 <1>   0.0800 
 49 H       10.6750    -0.6180     0.3350 H     1 <1>   0.0800 
@<TRIPOS>BOND
  1   1   2  ar  
  2   2   3  ar  
  3   2   4  1   
  4   4   5  1   
  5   4  27  1   
  6   4  28  1   
  7   5   6  1   
  8   6   7  ar  
  9   6   8  ar  
 10   7   9  ar  
 11   7  10  1   
 12   8  11  ar  
 13   8  29  1   
 14   9  12  ar  
 15   9  30  1   
 16  10  13  1   
 17  10  31  1   
 18  10  32  1   
 19  11  12  ar  
 20  11  33  1   
 21  12  34  1   
 22  13  14  1   
 23  13  15  1   
 24  14  16  1   
 25  14  17  1   
 26  14  35  1   
 27  15  18  1   
 28  15  36  1   
 29  15  37  1   
 30  16  19  1   
 31  16  38  1   
 32  16  39  1   
 33  17  20  1   
 34  17  40  1   
 35  17  41  1   
 36  18  21  1   
 37  18  22  1   
 38  18  42  1   
 39  19  21  1   
 40  20  22  1   
 41  20  23  1   
 42  20  43  1   
 43  21  44  1   
 44  21  45  1   
 45  22  46  1   
 46  22  47  1   
 47  23  24  1   
 48  23  48  1   
 49  23  49  1   
 50  24  25  ar  
 51  24  26  ar  
@<TRIPOS>SUBSTRUCTURE
  1 ****  14 GROUP 4 **** **** 0

# MOE 2024.06 (io_trps.svl 2023.06)
