@<TRIPOS>MOLECULE
NONAME
38 40 1 0 0 
SMALL
USER_CHARGES


@<TRIPOS>ATOM
  1 O       -3.3740     1.2110    -1.0430 O.2   1 <1>  -0.5700 
  2 C       -2.6650     0.9210    -0.1120 C.2   1 <1>   0.5690 
  3 N       -2.3030    -0.3560     0.1450 N.am  1 <1>  -0.7300 
  4 C       -2.1720     2.0030     0.8110 C.3   1 <1>  -0.1790 
  5 C       -2.7250    -1.5170    -0.6680 C.3   1 <1>   0.2200 
  6 C       -3.9730    -2.1250    -0.0540 C.3   1 <1>  -0.0800 
  7 C       -1.7190    -2.6530    -0.5230 C.3   1 <1>   0.1200 
  8 C       -3.3910    -3.0560     1.0140 C.3   1 <1>   0.1200 
  9 C       -4.8050    -2.8850    -1.1060 C.3   1 <1>  -0.0160 
 10 O       -2.0750    -3.3450     0.6370 O.3   1 <1>  -0.5600 
 11 C       -6.1150    -3.4010    -0.5200 C.ar  1 <1>  -0.1440 
 12 C       -7.2160    -2.5490    -0.2640 C.ar  1 <1>   0.0000 
 13 C       -6.2590    -4.7240    -0.2220 C.ar  1 <1>  -0.1500 
 14 C       -8.3790    -3.1290     0.2990 C.ar  1 <1>   0.3100 
 15 C       -7.2340    -1.1600    -0.5340 C.ar  1 <1>  -0.1500 
 16 C       -7.4570    -5.1970     0.3270 C.ar  1 <1>   0.1600 
 17 N       -8.4830    -4.4510     0.5880 N.ar  1 <1>  -0.6200 
 18 C       -9.4850    -2.3080     0.5730 C.ar  1 <1>  -0.1500 
 19 C       -8.3290    -0.3880    -0.2560 C.ar  1 <1>  -0.1500 
 20 C       -9.4700    -0.9660     0.3060 C.ar  1 <1>  -0.1500 
 21 H       -1.7640    -0.5900     0.9810 H     1 <1>   0.3700 
 22 H       -1.1030     1.9530     0.8950 H     1 <1>   0.0800 
 23 H       -2.6170     1.8810     1.7810 H     1 <1>   0.0800 
 24 H       -2.4470     2.9650     0.4200 H     1 <1>   0.0800 
 25 H       -2.8580    -1.2180    -1.6940 H     1 <1>   0.0800 
 26 H       -4.5880    -1.3680     0.4000 H     1 <1>   0.0800 
 27 H       -0.7050    -2.3030    -0.4420 H     1 <1>   0.0800 
 28 H       -1.8010    -3.3390    -1.3480 H     1 <1>   0.0800 
 29 H       -3.9370    -3.9770     1.1150 H     1 <1>   0.0800 
 30 H       -3.3510    -2.5590     1.9680 H     1 <1>   0.0800 
 31 H       -4.2330    -3.7100    -1.4930 H     1 <1>   0.0800 
 32 H       -5.0240    -2.2390    -1.9390 H     1 <1>   0.0800 
 33 H       -5.4680    -5.4310    -0.3950 H     1 <1>   0.1500 
 34 H       -6.3710    -0.6900    -0.9700 H     1 <1>   0.1500 
 35 H       -7.5280    -6.2490     0.5480 H     1 <1>   0.1500 
 36 H      -10.3510    -2.7750     1.0030 H     1 <1>   0.1500 
 37 H       -8.3260     0.6680    -0.4660 H     1 <1>   0.1500 
 38 H      -10.3240    -0.3480     0.5220 H     1 <1>   0.1500 
@<TRIPOS>BOND
  1   1   2  2   
  2   2   3  am  
  3   2   4  1   
  4   3   5  1   
  5   3  21  1   
  6   4  22  1   
  7   4  23  1   
  8   4  24  1   
  9   5   6  1   
 10   5   7  1   
 11   5  25  1   
 12   6   8  1   
 13   6   9  1   
 14   6  26  1   
 15   7  10  1   
 16   7  27  1   
 17   7  28  1   
 18   8  10  1   
 19   8  29  1   
 20   8  30  1   
 21   9  11  1   
 22   9  31  1   
 23   9  32  1   
 24  11  12  ar  
 25  11  13  ar  
 26  12  14  ar  
 27  12  15  ar  
 28  13  16  ar  
 29  13  33  1   
 30  14  17  ar  
 31  14  18  ar  
 32  15  19  ar  
 33  15  34  1   
 34  16  17  ar  
 35  16  35  1   
 36  18  20  ar  
 37  18  36  1   
 38  19  20  ar  
 39  19  37  1   
 40  20  38  1   
@<TRIPOS>SUBSTRUCTURE
  1 ****   6 GROUP 4 **** **** 0

# MOE 2024.06 (io_trps.svl 2023.06)
