@<TRIPOS>MOLECULE
NONAME
48 50 1 0 0 
SMALL
USER_CHARGES


@<TRIPOS>ATOM
  1 O        1.7230     1.7390    -1.2870 O.3   1 <1>  -0.0190 
  2 N        2.4890     0.7230    -1.0290 N.2   1 <1>  -0.4100 
  3 C        0.9640     2.0480    -0.2700 C.2   1 <1>  -0.0400 
  4 C        2.2030     0.3530     0.1680 C.2   1 <1>   0.1080 
  5 C        1.2230     1.1770     0.7170 C.2   1 <1>  -0.1500 
  6 C        0.0280     3.2370    -0.3590 C.3   1 <1>   0.0200 
  7 C        2.8490    -0.8180     0.8750 C.3   1 <1>  -0.0590 
  8 C        0.7680     4.4580    -0.9390 C.3   1 <1>  -0.0800 
  9 C        0.0120     5.7820    -0.8760 C.3   1 <1>   0.2000 
 10 C        2.1040     4.7430    -0.2460 C.3   1 <1>   0.3430 
 11 O       -0.5290     5.9280     0.4080 O.3   1 <1>  -0.5600 
 12 C        1.1470     6.7930    -1.0480 C.3   1 <1>   0.3430 
 13 N        2.3020     6.2260    -0.2750 N.4   1 <1>  -0.9590 
 14 C       -1.6330     6.7800     0.4880 C.3   1 <1>   0.0400 
 15 C        2.3350     6.7710     1.1090 C.3   1 <1>   0.5240 
 16 C        2.5240     8.2660     1.0230 C.2   1 <1>  -0.1810 
 17 C        1.5920     9.2110     1.4330 C.2   1 <1>   0.1390 
 18 C        3.5600     8.9920     0.5440 C.2   1 <1>  -0.3020 
 19 N        1.9980    10.4190     1.2120 N.2   1 <1>  -0.7070 
 20 N        3.2240    10.2940     0.6690 N.pl3 1 <1>   0.3140 
 21 C        4.0480    11.4690     0.2990 C.3   1 <1>   0.2340 
 22 C        4.5670    11.3530    -1.1300 C.2   1 <1>  -0.2880 
 23 C        5.8550    11.3010    -1.4860 C.2   1 <1>  -0.3000 
 24 H        0.8030     1.0970     1.7030 H     1 <1>   0.1500 
 25 H       -0.8050     2.9850    -0.9920 H     1 <1>   0.0800 
 26 H       -0.3550     3.4440     0.6250 H     1 <1>   0.0800 
 27 H        3.3100    -0.4890     1.7880 H     1 <1>   0.0800 
 28 H        3.6010    -1.2580     0.2440 H     1 <1>   0.0800 
 29 H        2.1080    -1.5620     1.0990 H     1 <1>   0.0800 
 30 H        0.9870     4.2490    -1.9720 H     1 <1>   0.0800 
 31 H       -0.7610     5.8620    -1.6230 H     1 <1>   0.0800 
 32 H        2.9060     4.2280    -0.7520 H     1 <1>   0.0800 
 33 H        2.0600     4.3940     0.7740 H     1 <1>   0.0800 
 34 H        0.8590     7.7740    -0.7090 H     1 <1>   0.0800 
 35 H        1.4090     6.8480    -2.0920 H     1 <1>   0.0800 
 36 H        3.1860     6.4890    -0.7270 H     1 <1>   0.4500 
 37 H       -1.9490     6.8270     1.5160 H     1 <1>   0.0800 
 38 H       -2.4350     6.3830    -0.1120 H     1 <1>   0.0800 
 39 H       -1.3600     7.7650     0.1500 H     1 <1>   0.0800 
 40 H        1.4120     6.5460     1.6210 H     1 <1>   0.0800 
 41 H        3.1520     6.3360     1.6610 H     1 <1>   0.0800 
 42 H        0.6350     8.9900     1.8800 H     1 <1>   0.1500 
 43 H        4.5030     8.6840     0.1270 H     1 <1>   0.1500 
 44 H        3.4440    12.3520     0.3980 H     1 <1>   0.0800 
 45 H        4.8660    11.5380     0.9920 H     1 <1>   0.0800 
 46 H        3.7660    11.3220    -1.8510 H     1 <1>   0.1500 
 47 H        6.1930    11.2240    -2.5060 H     1 <1>   0.1500 
 48 H        6.6830    11.3340    -0.7970 H     1 <1>   0.1500 
@<TRIPOS>BOND
  1   1   2  1   
  2   1   3  1   
  3   2   4  2   
  4   3   5  2   
  5   3   6  1   
  6   4   5  1   
  7   4   7  1   
  8   5  24  1   
  9   6   8  1   
 10   6  25  1   
 11   6  26  1   
 12   7  27  1   
 13   7  28  1   
 14   7  29  1   
 15   8   9  1   
 16   8  10  1   
 17   8  30  1   
 18   9  11  1   
 19   9  12  1   
 20   9  31  1   
 21  10  13  1   
 22  10  32  1   
 23  10  33  1   
 24  11  14  1   
 25  12  13  1   
 26  12  34  1   
 27  12  35  1   
 28  13  15  1   
 29  13  36  1   
 30  14  37  1   
 31  14  38  1   
 32  14  39  1   
 33  15  16  1   
 34  15  40  1   
 35  15  41  1   
 36  16  17  1   
 37  16  18  2   
 38  17  19  2   
 39  17  42  1   
 40  18  20  1   
 41  18  43  1   
 42  19  20  1   
 43  20  21  1   
 44  21  22  1   
 45  21  44  1   
 46  21  45  1   
 47  22  23  2   
 48  22  46  1   
 49  23  47  1   
 50  23  48  1   
@<TRIPOS>SUBSTRUCTURE
  1 ****  13 GROUP 4 **** **** 0

# MOE 2024.06 (io_trps.svl 2023.06)
