@<TRIPOS>MOLECULE
NONAME
54 56 1 0 0 
SMALL
USER_CHARGES


@<TRIPOS>ATOM
  1 S        0.7370     0.7290    -1.0990 S.o2  1 <1>   1.4470 
  2 O        1.4310     1.9780    -0.9110 O.2   1 <1>  -0.6500 
  3 O        0.3780     0.2300    -2.4040 O.2   1 <1>  -0.6500 
  4 N       -0.7040     0.9000    -0.2810 N.am  1 <1>  -0.9780 
  5 C        1.5570    -0.5820    -0.1500 C.ar  1 <1>  -0.0090 
  6 C        1.4150    -1.9160    -0.5010 C.ar  1 <1>  -0.1500 
  7 C        2.3210    -0.2890     0.9710 C.ar  1 <1>  -0.1500 
  8 C        1.9940    -2.9590     0.2220 C.ar  1 <1>   0.0860 
  9 C        2.9120    -1.2960     1.7100 C.ar  1 <1>  -0.1500 
 10 C        2.7540    -2.6230     1.3490 C.ar  1 <1>  -0.1430 
 11 C        1.7690    -4.3270    -0.2180 C.2   1 <1>   0.5440 
 12 C        3.4240    -3.6950     2.2000 C.3   1 <1>  -0.0970 
 13 O        2.6930    -5.1040    -0.3700 O.2   1 <1>  -0.5700 
 14 N        0.4970    -4.7950    -0.4680 N.am  1 <1>  -0.6600 
 15 C        0.3040    -6.0630    -1.2220 C.3   1 <1>   0.1400 
 16 C       -0.6560    -4.4150     0.3900 C.3   1 <1>   0.1400 
 17 C        0.0770    -7.2170    -0.2210 C.3   1 <1>   0.4230 
 18 C       -0.8840    -5.5440     1.4030 C.3   1 <1>  -0.1600 
 19 N        0.0430    -8.5970    -0.8640 N.4   1 <1>  -0.9590 
 20 C       -1.1220    -6.9320     0.7370 C.3   1 <1>   0.0000 
 21 C       -0.5780    -9.6580    -0.0060 C.3   1 <1>   0.3430 
 22 C       -0.5360    -8.6520    -2.2460 C.3   1 <1>   0.2630 
 23 C       -1.1620    -8.0170     1.8520 C.3   1 <1>  -0.1600 
 24 C       -2.4570    -6.9290    -0.0620 C.3   1 <1>   0.1200 
 25 C       -0.4310    -9.3210     1.4770 C.3   1 <1>  -0.1600 
 26 O       -3.5010    -6.4150     0.6880 O.3   1 <1>  -0.6800 
 27 H       -0.4870     1.1820     0.6680 H     1 <1>   0.4200 
 28 H       -1.1780     0.0040    -0.2940 H     1 <1>   0.4200 
 29 H        0.8380    -2.1620    -1.3780 H     1 <1>   0.1500 
 30 H        2.4630     0.7390     1.2670 H     1 <1>   0.1500 
 31 H        3.5040    -1.0350     2.5720 H     1 <1>   0.1500 
 32 H        3.8250    -3.2800     3.1070 H     1 <1>   0.0800 
 33 H        4.2320    -4.1450     1.6490 H     1 <1>   0.0800 
 34 H        2.7190    -4.4620     2.4640 H     1 <1>   0.0800 
 35 H       -0.5310    -5.9410    -1.8860 H     1 <1>   0.0800 
 36 H        1.1780    -6.2650    -1.8170 H     1 <1>   0.0800 
 37 H       -0.4540    -3.4980     0.9170 H     1 <1>   0.0800 
 38 H       -1.5320    -4.2630    -0.2180 H     1 <1>   0.0800 
 39 H        0.9500    -7.2040     0.4120 H     1 <1>   0.0800 
 40 H       -0.0150    -5.5870     2.0370 H     1 <1>   0.0800 
 41 H       -1.7110    -5.2780     2.0380 H     1 <1>   0.0800 
 42 H        1.0390    -8.8510    -0.9520 H     1 <1>   0.4500 
 43 H       -1.6280    -9.7430    -0.2330 H     1 <1>   0.0800 
 44 H       -0.1160   -10.6110    -0.2110 H     1 <1>   0.0800 
 45 H       -1.5690    -8.3460    -2.2360 H     1 <1>   0.0800 
 46 H       -0.4800    -9.6570    -2.6340 H     1 <1>   0.0800 
 47 H        0.0110    -8.0050    -2.9130 H     1 <1>   0.0800 
 48 H       -0.7120    -7.6480     2.7590 H     1 <1>   0.0800 
 49 H       -2.1830    -8.2490     2.1020 H     1 <1>   0.0800 
 50 H       -2.7370    -7.9210    -0.3680 H     1 <1>   0.0800 
 51 H       -2.3910    -6.3120    -0.9400 H     1 <1>   0.0800 
 52 H       -0.8290   -10.1300     2.0660 H     1 <1>   0.0800 
 53 H        0.6160    -9.2430     1.7190 H     1 <1>   0.0800 
 54 H       -3.6950    -6.9600     1.4770 H     1 <1>   0.4000 
@<TRIPOS>BOND
  1   1   2  2   
  2   1   3  2   
  3   1   4  am  
  4   1   5  1   
  5   4  27  1   
  6   4  28  1   
  7   5   6  ar  
  8   5   7  ar  
  9   6   8  ar  
 10   6  29  1   
 11   7   9  ar  
 12   7  30  1   
 13   8  10  ar  
 14   8  11  1   
 15   9  10  ar  
 16   9  31  1   
 17  10  12  1   
 18  11  13  2   
 19  11  14  am  
 20  12  32  1   
 21  12  33  1   
 22  12  34  1   
 23  14  15  1   
 24  14  16  1   
 25  15  17  1   
 26  15  35  1   
 27  15  36  1   
 28  16  18  1   
 29  16  37  1   
 30  16  38  1   
 31  17  19  1   
 32  17  20  1   
 33  17  39  1   
 34  18  20  1   
 35  18  40  1   
 36  18  41  1   
 37  19  21  1   
 38  19  22  1   
 39  19  42  1   
 40  20  23  1   
 41  20  24  1   
 42  21  25  1   
 43  21  43  1   
 44  21  44  1   
 45  22  45  1   
 46  22  46  1   
 47  22  47  1   
 48  23  25  1   
 49  23  48  1   
 50  23  49  1   
 51  24  26  1   
 52  24  50  1   
 53  24  51  1   
 54  25  52  1   
 55  25  53  1   
 56  26  54  1   
@<TRIPOS>SUBSTRUCTURE
  1 ****  14 GROUP 4 **** **** 0

# MOE 2024.06 (io_trps.svl 2023.06)
