@<TRIPOS>MOLECULE
NONAME
59 62 1 0 0 
SMALL
USER_CHARGES


@<TRIPOS>ATOM
  1 F        0.2750    -0.4930    -0.2380 F     1 <1>  -0.1900 
  2 C       -0.3260    -1.5730    -0.6710 C.ar  1 <1>   0.1900 
  3 C       -0.2960    -1.8960    -2.0170 C.ar  1 <1>   0.1900 
  4 C       -0.9850    -2.3770     0.2360 C.ar  1 <1>  -0.1500 
  5 F        0.3340    -1.1260    -2.8730 F     1 <1>  -0.1900 
  6 C       -0.9290    -3.0340    -2.4830 C.ar  1 <1>  -0.1500 
  7 C       -1.6280    -3.5280    -0.2120 C.ar  1 <1>   0.1000 
  8 C       -1.5930    -3.8420    -1.5730 C.ar  1 <1>  -0.1500 
  9 N       -2.2960    -4.3400     0.7020 N.pl3 1 <1>  -0.8380 
 10 C       -3.4880    -3.8180     1.4020 C.3   1 <1>   0.2090 
 11 C       -2.0850    -5.8060     0.7100 C.3   1 <1>   0.2090 
 12 C       -4.7310    -4.5150     0.8570 C.3   1 <1>  -0.1600 
 13 C       -3.3410    -6.5130     0.2090 C.3   1 <1>  -0.1600 
 14 C       -4.6000    -6.0420     0.9540 C.3   1 <1>   0.4230 
 15 N       -5.8000    -6.7160     0.3760 N.4   1 <1>  -0.9590 
 16 C       -5.7990    -8.2000     0.5350 C.3   1 <1>   0.3430 
 17 C       -7.1370    -6.1200     0.6970 C.3   1 <1>   0.3430 
 18 C       -6.7280    -8.8540    -0.4980 C.3   1 <1>  -0.1060 
 19 C       -8.2910    -7.1180     0.5460 C.3   1 <1>  -0.1600 
 20 C       -6.0580    -8.7160    -1.8540 C.2   1 <1>   0.9060 
 21 C       -8.0470    -8.0520    -0.6370 C.3   1 <1>   0.2000 
 22 C       -6.9170   -10.3420    -0.0760 C.3   1 <1>  -0.0160 
 23 O       -5.3950    -7.6890    -2.0680 O.co2 1 <1>  -0.9000 
 24 O       -6.2750    -9.5490    -2.7310 O.co2 1 <1>  -0.9000 
 25 O       -9.1410    -8.8850    -0.7480 O.3   1 <1>  -0.6800 
 26 C       -5.6300   -10.9780     0.4450 C.ar  1 <1>  -0.1440 
 27 C       -4.6100   -11.3130    -0.4320 C.ar  1 <1>  -0.1500 
 28 C       -5.4600   -11.2120     1.8020 C.ar  1 <1>  -0.1500 
 29 C       -3.4290   -11.8570     0.0400 C.ar  1 <1>  -0.1500 
 30 C       -4.2800   -11.7570     2.2770 C.ar  1 <1>  -0.1500 
 31 C       -3.2620   -12.0780     1.3960 C.ar  1 <1>  -0.1500 
 32 H       -0.9960    -2.1230     1.2780 H     1 <1>   0.1500 
 33 H       -0.9020    -3.2770    -3.5300 H     1 <1>   0.1500 
 34 H       -2.0950    -4.7250    -1.9230 H     1 <1>   0.1500 
 35 H       -3.3830    -3.9980     2.4590 H     1 <1>   0.0800 
 36 H       -3.5680    -2.7550     1.2460 H     1 <1>   0.0800 
 37 H       -1.2440    -6.0600     0.0850 H     1 <1>   0.0800 
 38 H       -1.8570    -6.1200     1.7150 H     1 <1>   0.0800 
 39 H       -4.8610    -4.2220    -0.1710 H     1 <1>   0.0800 
 40 H       -5.5670    -4.1620     1.4290 H     1 <1>   0.0800 
 41 H       -3.1810    -7.5660     0.3350 H     1 <1>   0.0800 
 42 H       -3.4480    -6.3190    -0.8440 H     1 <1>   0.0800 
 43 H       -4.5090    -6.3110     1.9940 H     1 <1>   0.0800 
 44 H       -5.6560    -6.6530    -0.6670 H     1 <1>   0.4500 
 45 H       -4.8110    -8.6010     0.3870 H     1 <1>   0.0800 
 46 H       -6.1210    -8.4600     1.5290 H     1 <1>   0.0800 
 47 H       -7.1380    -5.7480     1.7080 H     1 <1>   0.0800 
 48 H       -7.3070    -5.2860     0.0350 H     1 <1>   0.0800 
 49 H       -9.2070    -6.5740     0.3970 H     1 <1>   0.0800 
 50 H       -8.3900    -7.6940     1.4490 H     1 <1>   0.0800 
 51 H       -8.0260    -7.4530    -1.5360 H     1 <1>   0.0800 
 52 H       -7.6580   -10.4010     0.7020 H     1 <1>   0.0800 
 53 H       -7.2890   -10.9240    -0.9020 H     1 <1>   0.0800 
 54 H       -9.0380    -9.4330    -1.5560 H     1 <1>   0.4000 
 55 H       -4.7320   -11.1520    -1.4930 H     1 <1>   0.1500 
 56 H       -6.2460   -10.9760     2.4980 H     1 <1>   0.1500 
 57 H       -2.6460   -12.1110    -0.6520 H     1 <1>   0.1500 
 58 H       -4.1540   -11.9390     3.3300 H     1 <1>   0.1500 
 59 H       -2.3440   -12.5030     1.7620 H     1 <1>   0.1500 
@<TRIPOS>BOND
  1   1   2  1   
  2   2   3  ar  
  3   2   4  ar  
  4   3   5  1   
  5   3   6  ar  
  6   4   7  ar  
  7   4  32  1   
  8   6   8  ar  
  9   6  33  1   
 10   7   8  ar  
 11   7   9  1   
 12   8  34  1   
 13   9  10  1   
 14   9  11  1   
 15  10  12  1   
 16  10  35  1   
 17  10  36  1   
 18  11  13  1   
 19  11  37  1   
 20  11  38  1   
 21  12  14  1   
 22  12  39  1   
 23  12  40  1   
 24  13  14  1   
 25  13  41  1   
 26  13  42  1   
 27  14  15  1   
 28  14  43  1   
 29  15  16  1   
 30  15  17  1   
 31  15  44  1   
 32  16  18  1   
 33  16  45  1   
 34  16  46  1   
 35  17  19  1   
 36  17  47  1   
 37  17  48  1   
 38  18  20  1   
 39  18  21  1   
 40  18  22  1   
 41  19  21  1   
 42  19  49  1   
 43  19  50  1   
 44  20  23  ar  
 45  20  24  ar  
 46  21  25  1   
 47  21  51  1   
 48  22  26  1   
 49  22  52  1   
 50  22  53  1   
 51  25  54  1   
 52  26  27  ar  
 53  26  28  ar  
 54  27  29  ar  
 55  27  55  1   
 56  28  30  ar  
 57  28  56  1   
 58  29  31  ar  
 59  29  57  1   
 60  30  31  ar  
 61  30  58  1   
 62  31  59  1   
@<TRIPOS>SUBSTRUCTURE
  1 ****  13 GROUP 4 **** **** 0

# MOE 2024.06 (io_trps.svl 2023.06)
