@<TRIPOS>MOLECULE
NONAME
41 43 1 0 0 
SMALL
USER_CHARGES


@<TRIPOS>ATOM
  1 CL       1.7430    -1.9730    -1.2220 Cl    1 <1>  -0.1770 
  2 C        0.3560    -2.5670    -0.3460 C.ar  1 <1>   0.1770 
  3 C       -0.7690    -2.9560    -1.0480 C.ar  1 <1>  -0.1500 
  4 C        0.4130    -2.6340     1.0360 C.ar  1 <1>  -0.1500 
  5 C       -1.8960    -3.4280    -0.3740 C.ar  1 <1>   0.0860 
  6 C       -0.6890    -3.1060     1.7290 C.ar  1 <1>  -0.1500 
  7 C       -1.8110    -3.4930     1.0170 C.ar  1 <1>   0.1900 
  8 C       -3.0750    -3.8340    -1.1010 C.2   1 <1>   0.5440 
  9 F       -2.8310    -3.9370     1.7000 F     1 <1>  -0.1900 
 10 O       -3.0050    -4.8210    -1.8080 O.2   1 <1>  -0.5700 
 11 N       -4.2550    -3.1190    -1.0510 N.am  1 <1>  -0.6600 
 12 C       -5.4960    -3.5940    -1.7280 C.3   1 <1>   0.1400 
 13 C       -4.4190    -1.8050    -0.3710 C.3   1 <1>   0.1400 
 14 C       -6.6200    -3.7130    -0.6970 C.3   1 <1>  -0.1600 
 15 C       -5.5250    -1.9170     0.6800 C.3   1 <1>  -0.1600 
 16 C       -6.8430    -2.4000     0.0580 C.3   1 <1>   0.4180 
 17 O       -7.2770    -1.4630    -0.8990 O.3   1 <1>  -0.5600 
 18 C       -7.9120    -2.6000     1.1300 C.2   1 <1>  -0.2880 
 19 C       -7.9590    -0.3310    -0.4350 C.3   1 <1>   0.1200 
 20 C       -9.0240    -1.8670     1.2280 C.2   1 <1>  -0.2760 
 21 C       -9.2710    -0.7330     0.2510 C.3   1 <1>  -0.0220 
 22 C      -10.1110    -2.0850     2.2650 C.3   1 <1>  -0.1020 
 23 H       -0.7780    -2.9000    -2.1220 H     1 <1>   0.1500 
 24 H        1.3040    -2.3230     1.5520 H     1 <1>   0.1500 
 25 H       -0.6800    -3.1770     2.8030 H     1 <1>   0.1500 
 26 H       -5.3370    -4.5490    -2.1980 H     1 <1>   0.0800 
 27 H       -5.7720    -2.8880    -2.4940 H     1 <1>   0.0800 
 28 H       -4.6890    -1.0640    -1.1050 H     1 <1>   0.0800 
 29 H       -3.5030    -1.4910     0.0970 H     1 <1>   0.0800 
 30 H       -6.3630    -4.4910    -0.0020 H     1 <1>   0.0800 
 31 H       -7.5330    -4.0000    -1.1850 H     1 <1>   0.0800 
 32 H       -5.6700    -0.9730     1.1690 H     1 <1>   0.0800 
 33 H       -5.2160    -2.6190     1.4320 H     1 <1>   0.0800 
 34 H       -7.6800    -3.4070     1.8010 H     1 <1>   0.1500 
 35 H       -8.1580     0.3020    -1.2810 H     1 <1>   0.0800 
 36 H       -7.3220     0.1970     0.2510 H     1 <1>   0.0800 
 37 H       -9.9900    -1.0380    -0.4890 H     1 <1>   0.0800 
 38 H       -9.6630     0.1250     0.7670 H     1 <1>   0.0800 
 39 H      -10.2240    -1.2080     2.8760 H     1 <1>   0.0800 
 40 H       -9.8620    -2.9150     2.9020 H     1 <1>   0.0800 
 41 H      -11.0470    -2.2970     1.7800 H     1 <1>   0.0800 
@<TRIPOS>BOND
  1   1   2  1   
  2   2   3  ar  
  3   2   4  ar  
  4   3   5  ar  
  5   3  23  1   
  6   4   6  ar  
  7   4  24  1   
  8   5   7  ar  
  9   5   8  1   
 10   6   7  ar  
 11   6  25  1   
 12   7   9  1   
 13   8  10  2   
 14   8  11  am  
 15  11  12  1   
 16  11  13  1   
 17  12  14  1   
 18  12  26  1   
 19  12  27  1   
 20  13  15  1   
 21  13  28  1   
 22  13  29  1   
 23  14  16  1   
 24  14  30  1   
 25  14  31  1   
 26  15  16  1   
 27  15  32  1   
 28  15  33  1   
 29  16  17  1   
 30  16  18  1   
 31  17  19  1   
 32  18  20  2   
 33  18  34  1   
 34  19  21  1   
 35  19  35  1   
 36  19  36  1   
 37  20  21  1   
 38  20  22  1   
 39  21  37  1   
 40  21  38  1   
 41  22  39  1   
 42  22  40  1   
 43  22  41  1   
@<TRIPOS>SUBSTRUCTURE
  1 ****  13 GROUP 4 **** **** 0

# MOE 2024.06 (io_trps.svl 2023.06)
