@<TRIPOS>MOLECULE
NONAME
44 47 1 0 0 
SMALL
USER_CHARGES


@<TRIPOS>ATOM
  1 O        0.2170     1.3330    -1.1480 O.2   1 <1>  -0.5700 
  2 C       -0.1070     2.4930    -1.0460 C.2   1 <1>   0.5690 
  3 N       -1.0280     2.9490    -0.1400 N.am  1 <1>  -0.5090 
  4 C        0.5510     3.5090    -1.9700 C.3   1 <1>   0.1810 
  5 C       -1.3650     4.4080    -0.0520 C.3   1 <1>   0.3640 
  6 C       -1.5290     2.0910     0.9650 C.3   1 <1>   0.0490 
  7 O        0.7910     4.7120    -1.2880 O.3   1 <1>  -0.5600 
  8 C       -2.7750     4.6570    -0.5860 C.ar  1 <1>  -0.1440 
  9 C       -0.3750     5.3570    -0.7940 C.3   1 <1>   0.2610 
 10 C       -2.2340     0.8170     0.6210 C.3   1 <1>  -0.2000 
 11 C       -2.9990     1.9490     1.2240 C.3   1 <1>  -0.2000 
 12 C       -3.2640     3.9840    -1.6990 C.ar  1 <1>   0.1600 
 13 C       -3.5940     5.5840     0.0320 C.ar  1 <1>  -0.1500 
 14 C        0.0110     6.5190     0.1280 C.2   1 <1>   0.5690 
 15 N       -4.4600     4.1650    -2.2340 N.ar  1 <1>  -0.6200 
 16 C       -4.8470     5.7790    -0.5070 C.ar  1 <1>  -0.1500 
 17 O       -0.8570     7.1630     0.6690 O.2   1 <1>  -0.5700 
 18 N        1.3210     6.8050     0.3290 N.am  1 <1>  -0.7300 
 19 C       -5.2240     5.0560    -1.6250 C.ar  1 <1>   0.1600 
 20 C        1.8450     7.9270     1.1200 C.3   1 <1>   0.3210 
 21 C        3.1310     8.3970     0.4740 C.2   1 <1>  -0.1810 
 22 C        4.3900     8.3610     0.9610 C.2   1 <1>  -0.0100 
 23 C        3.2390     8.9750    -0.7990 C.2   1 <1>  -0.1500 
 24 O        5.2420     8.8660     0.0920 O.3   1 <1>  -0.2800 
 25 C        4.5520     9.2380    -0.9690 C.2   1 <1>  -0.0100 
 26 H       -0.0740     3.7040    -2.8220 H     1 <1>   0.0800 
 27 H        1.4980     3.1270    -2.3060 H     1 <1>   0.0800 
 28 H       -1.3590     4.6680     0.9930 H     1 <1>   0.0800 
 29 H       -0.8550     2.0750     1.8060 H     1 <1>   0.1000 
 30 H       -0.8740     5.7860    -1.6440 H     1 <1>   0.0800 
 31 H       -2.3850     0.5780    -0.4170 H     1 <1>   0.1000 
 32 H       -2.0410    -0.0540     1.2210 H     1 <1>   0.1000 
 33 H       -3.3380     1.8390     2.2390 H     1 <1>   0.1000 
 34 H       -3.7300     2.4290     0.5990 H     1 <1>   0.1000 
 35 H       -2.6440     3.2500    -2.1840 H     1 <1>   0.1500 
 36 H       -3.2760     6.1420     0.8980 H     1 <1>   0.1500 
 37 H       -5.5260     6.4870    -0.0680 H     1 <1>   0.1500 
 38 H        2.0230     6.2480    -0.1700 H     1 <1>   0.3700 
 39 H       -6.2050     5.2180    -2.0390 H     1 <1>   0.1500 
 40 H        1.1280     8.7300     1.1480 H     1 <1>   0.0800 
 41 H        2.0350     7.5950     2.1260 H     1 <1>   0.0800 
 42 H        4.7690     7.9990     1.9010 H     1 <1>   0.1500 
 43 H        2.4220     9.1570    -1.4750 H     1 <1>   0.1500 
 44 H        5.0750     9.6810    -1.7980 H     1 <1>   0.1500 
@<TRIPOS>BOND
  1   1   2  2   
  2   2   3  am  
  3   2   4  1   
  4   3   5  1   
  5   3   6  1   
  6   4   7  1   
  7   4  26  1   
  8   4  27  1   
  9   5   8  1   
 10   5   9  1   
 11   5  28  1   
 12   6  10  1   
 13   6  11  1   
 14   6  29  1   
 15   7   9  1   
 16   8  12  ar  
 17   8  13  ar  
 18   9  14  1   
 19   9  30  1   
 20  10  11  1   
 21  10  31  1   
 22  10  32  1   
 23  11  33  1   
 24  11  34  1   
 25  12  15  ar  
 26  12  35  1   
 27  13  16  ar  
 28  13  36  1   
 29  14  17  2   
 30  14  18  am  
 31  15  19  ar  
 32  16  19  ar  
 33  16  37  1   
 34  18  20  1   
 35  18  38  1   
 36  19  39  1   
 37  20  21  1   
 38  20  40  1   
 39  20  41  1   
 40  21  22  2   
 41  21  23  1   
 42  22  24  1   
 43  22  42  1   
 44  23  25  2   
 45  23  43  1   
 46  24  25  1   
 47  25  44  1   
@<TRIPOS>SUBSTRUCTURE
  1 ****   9 GROUP 4 **** **** 0

# MOE 2024.06 (io_trps.svl 2023.06)
