@<TRIPOS>MOLECULE
NONAME
49 52 1 0 0 
SMALL
USER_CHARGES


@<TRIPOS>ATOM
  1 O       -0.2950    -1.2410    -1.9130 O.2   1 <1>  -0.5700 
  2 C       -1.2660    -1.8850    -1.6170 C.2   1 <1>   0.5690 
  3 N       -1.6440    -2.1840    -0.3700 N.am  1 <1>  -0.7300 
  4 C       -2.1980    -2.5140    -2.6130 C.3   1 <1>  -0.0990 
  5 C       -2.7740    -3.1370    -0.2960 C.3   1 <1>   0.2810 
  6 C       -2.9490    -3.5620    -1.7710 C.3   1 <1>  -0.1600 
  7 C       -2.5550    -4.3260     0.6700 C.2   1 <1>   0.5690 
  8 O       -1.4480    -4.4800     1.1370 O.2   1 <1>  -0.5700 
  9 N       -3.5830    -5.1870     0.9840 N.am  1 <1>  -0.6600 
 10 C       -3.3570    -6.3820     1.8480 C.3   1 <1>   0.1400 
 11 C       -4.9900    -5.0820     0.5090 C.3   1 <1>   0.1400 
 12 C       -3.6750    -7.6450     1.0440 C.3   1 <1>  -0.1600 
 13 C       -5.3200    -6.3180    -0.3310 C.3   1 <1>  -0.1600 
 14 C       -5.0980    -7.6170     0.4640 C.3   1 <1>   0.4240 
 15 O       -5.9510    -7.5870     1.5830 O.3   1 <1>  -0.5600 
 16 C       -5.3440    -8.8610    -0.4180 C.ar  1 <1>  -0.1430 
 17 C       -7.2640    -8.0220     1.4090 C.3   1 <1>   0.1200 
 18 C       -6.3650    -9.7590    -0.1250 C.ar  1 <1>  -0.1430 
 19 C       -4.5470    -9.1040    -1.5320 C.ar  1 <1>  -0.1500 
 20 C       -7.2520    -9.5110     1.0780 C.3   1 <1>  -0.0170 
 21 C       -6.5780   -10.8740    -0.9210 C.ar  1 <1>  -0.1500 
 22 C       -4.7600   -10.2140    -2.3280 C.ar  1 <1>  -0.1500 
 23 C       -5.7730   -11.1070    -2.0310 C.ar  1 <1>   0.0830 
 24 O       -5.9140   -12.1710    -2.8610 O.3   1 <1>  -0.3630 
 25 C       -6.9030   -13.1510    -2.6350 C.3   1 <1>   0.0400 
 26 H       -0.9760    -2.1450     0.4050 H     1 <1>   0.3700 
 27 H       -2.8640    -1.7600    -2.9910 H     1 <1>   0.0800 
 28 H       -1.6470    -2.9620    -3.4200 H     1 <1>   0.0800 
 29 H       -3.6360    -2.5840     0.0310 H     1 <1>   0.0800 
 30 H       -2.4880    -4.5250    -1.9120 H     1 <1>   0.0800 
 31 H       -3.9840    -3.6330    -2.0480 H     1 <1>   0.0800 
 32 H       -2.3380    -6.4220     2.1940 H     1 <1>   0.0800 
 33 H       -3.9970    -6.3230     2.7120 H     1 <1>   0.0800 
 34 H       -5.6460    -5.0370     1.3640 H     1 <1>   0.0800 
 35 H       -5.1490    -4.1930    -0.0710 H     1 <1>   0.0800 
 36 H       -3.5680    -8.5120     1.6700 H     1 <1>   0.0800 
 37 H       -2.9510    -7.7280     0.2550 H     1 <1>   0.0800 
 38 H       -4.6890    -6.3150    -1.2000 H     1 <1>   0.0800 
 39 H       -6.3340    -6.2700    -0.6780 H     1 <1>   0.0800 
 40 H       -7.7950    -7.8450     2.3280 H     1 <1>   0.0800 
 41 H       -7.7260    -7.4540     0.6210 H     1 <1>   0.0800 
 42 H       -3.7500    -8.4320    -1.7930 H     1 <1>   0.1500 
 43 H       -6.8810   -10.0620     1.9230 H     1 <1>   0.0800 
 44 H       -8.2560    -9.8360     0.8750 H     1 <1>   0.0800 
 45 H       -7.3700   -11.5510    -0.6670 H     1 <1>   0.1500 
 46 H       -4.1400   -10.3970    -3.1870 H     1 <1>   0.1500 
 47 H       -6.8190   -13.8930    -3.4080 H     1 <1>   0.0800 
 48 H       -7.8710   -12.6850    -2.6780 H     1 <1>   0.0800 
 49 H       -6.7330   -13.6030    -1.6740 H     1 <1>   0.0800 
@<TRIPOS>BOND
  1   1   2  2   
  2   2   3  am  
  3   2   4  1   
  4   3   5  1   
  5   3  26  1   
  6   4   6  1   
  7   4  27  1   
  8   4  28  1   
  9   5   6  1   
 10   5   7  1   
 11   5  29  1   
 12   6  30  1   
 13   6  31  1   
 14   7   8  2   
 15   7   9  am  
 16   9  10  1   
 17   9  11  1   
 18  10  12  1   
 19  10  32  1   
 20  10  33  1   
 21  11  13  1   
 22  11  34  1   
 23  11  35  1   
 24  12  14  1   
 25  12  36  1   
 26  12  37  1   
 27  13  14  1   
 28  13  38  1   
 29  13  39  1   
 30  14  15  1   
 31  14  16  1   
 32  15  17  1   
 33  16  18  ar  
 34  16  19  ar  
 35  17  20  1   
 36  17  40  1   
 37  17  41  1   
 38  18  20  1   
 39  18  21  ar  
 40  19  22  ar  
 41  19  42  1   
 42  20  43  1   
 43  20  44  1   
 44  21  23  ar  
 45  21  45  1   
 46  22  23  ar  
 47  22  46  1   
 48  23  24  1   
 49  24  25  1   
 50  25  47  1   
 51  25  48  1   
 52  25  49  1   
@<TRIPOS>SUBSTRUCTURE
  1 ****  13 GROUP 4 **** **** 0

# MOE 2024.06 (io_trps.svl 2023.06)
