@<TRIPOS>MOLECULE
NONAME
52 54 1 0 0 
SMALL
USER_CHARGES


@<TRIPOS>ATOM
  1 O       -0.3570     1.6190     2.1220 O.2   1 <1>  -0.5700 
  2 C       -0.0550     2.3580     1.2130 C.2   1 <1>   0.5690 
  3 N       -1.0190     3.0930     0.5540 N.am  1 <1>  -0.6600 
  4 C        1.4410     2.3940     0.8560 C.3   1 <1>  -0.0190 
  5 C       -2.4670     2.9430     0.9100 C.3   1 <1>   0.1400 
  6 C       -0.8240     4.0310    -0.5840 C.3   1 <1>   0.1400 
  7 C        2.0880     3.7490     1.2260 C.3   1 <1>  -0.1600 
  8 C        1.7210     1.8520    -0.5680 C.3   1 <1>  -0.1600 
  9 C       -3.2700     2.3720    -0.2880 C.3   1 <1>   0.0000 
 10 C       -1.5620     3.5000    -1.8170 C.3   1 <1>  -0.1600 
 11 C        3.5930     3.8660     0.9380 C.3   1 <1>  -0.1600 
 12 C        3.1830     1.4310    -0.7790 C.3   1 <1>  -0.1600 
 13 C       -4.7630     2.2320     0.0560 C.3   1 <1>   0.2000 
 14 C       -3.0550     3.2700    -1.5260 C.3   1 <1>  -0.1600 
 15 C       -2.8750     0.9080    -0.5500 C.3   1 <1>  -0.1600 
 16 C        3.8980     3.9330    -0.5650 C.3   1 <1>  -0.1600 
 17 C        4.1140     2.5660    -1.2330 C.3   1 <1>  -0.1600 
 18 O       -5.2250     3.3280     0.7890 O.3   1 <1>  -0.5600 
 19 C       -4.8850     0.9300     0.8540 C.3   1 <1>  -0.1600 
 20 C       -3.6630     0.0830     0.4720 C.3   1 <1>  -0.1600 
 21 C       -6.6100     3.4270     0.8870 C.3   1 <1>   0.0400 
 22 H        1.8930     1.6800     1.5230 H     1 <1>   0.0800 
 23 H       -2.5890     2.3100     1.7700 H     1 <1>   0.0800 
 24 H       -2.8530     3.9120     1.1740 H     1 <1>   0.0800 
 25 H       -1.2250     4.9920    -0.3100 H     1 <1>   0.0800 
 26 H        0.2120     4.1680    -0.8160 H     1 <1>   0.0800 
 27 H        1.5800     4.5590     0.7400 H     1 <1>   0.0800 
 28 H        1.9420     3.8940     2.2830 H     1 <1>   0.0800 
 29 H        1.1100     0.9750    -0.6980 H     1 <1>   0.0800 
 30 H        1.4350     2.5490    -1.3310 H     1 <1>   0.0800 
 31 H       -1.4590     4.2060    -2.6220 H     1 <1>   0.0800 
 32 H       -1.1030     2.5790    -2.1300 H     1 <1>   0.0800 
 33 H        3.9380     4.7810     1.3870 H     1 <1>   0.0800 
 34 H        4.1360     3.0610     1.4040 H     1 <1>   0.0800 
 35 H        3.5670     0.9910     0.1250 H     1 <1>   0.0800 
 36 H        3.2150     0.6620    -1.5310 H     1 <1>   0.0800 
 37 H       -5.3290     2.1560    -0.8570 H     1 <1>   0.0800 
 38 H       -3.5300     2.8370    -2.3890 H     1 <1>   0.0800 
 39 H       -3.5220     4.2230    -1.3420 H     1 <1>   0.0800 
 40 H       -3.1850     0.6200    -1.5400 H     1 <1>   0.0800 
 41 H       -1.8160     0.7370    -0.4620 H     1 <1>   0.0800 
 42 H        3.1060     4.4590    -1.0700 H     1 <1>   0.0800 
 43 H        4.7940     4.5120    -0.7090 H     1 <1>   0.0800 
 44 H        5.1280     2.2520    -1.0560 H     1 <1>   0.0800 
 45 H        4.0080     2.6970    -2.2960 H     1 <1>   0.0800 
 46 H       -4.8600     1.1360     1.9100 H     1 <1>   0.0800 
 47 H       -5.7970     0.4190     0.6060 H     1 <1>   0.0800 
 48 H       -3.0530    -0.0840     1.3450 H     1 <1>   0.0800 
 49 H       -3.9490    -0.8710     0.0630 H     1 <1>   0.0800 
 50 H       -6.8410     4.3150     1.4490 H     1 <1>   0.0800 
 51 H       -6.9980     2.5650     1.4000 H     1 <1>   0.0800 
 52 H       -7.0320     3.5040    -0.1000 H     1 <1>   0.0800 
@<TRIPOS>BOND
  1   1   2  2   
  2   2   3  am  
  3   2   4  1   
  4   3   5  1   
  5   3   6  1   
  6   4   7  1   
  7   4   8  1   
  8   4  22  1   
  9   5   9  1   
 10   5  23  1   
 11   5  24  1   
 12   6  10  1   
 13   6  25  1   
 14   6  26  1   
 15   7  11  1   
 16   7  27  1   
 17   7  28  1   
 18   8  12  1   
 19   8  29  1   
 20   8  30  1   
 21   9  13  1   
 22   9  14  1   
 23   9  15  1   
 24  10  14  1   
 25  10  31  1   
 26  10  32  1   
 27  11  16  1   
 28  11  33  1   
 29  11  34  1   
 30  12  17  1   
 31  12  35  1   
 32  12  36  1   
 33  13  18  1   
 34  13  19  1   
 35  13  37  1   
 36  14  38  1   
 37  14  39  1   
 38  15  20  1   
 39  15  40  1   
 40  15  41  1   
 41  16  17  1   
 42  16  42  1   
 43  16  43  1   
 44  17  44  1   
 45  17  45  1   
 46  18  21  1   
 47  19  20  1   
 48  19  46  1   
 49  19  47  1   
 50  20  48  1   
 51  20  49  1   
 52  21  50  1   
 53  21  51  1   
 54  21  52  1   
@<TRIPOS>SUBSTRUCTURE
  1 ****   3 GROUP 4 **** **** 0

# MOE 2024.06 (io_trps.svl 2023.06)
