@<TRIPOS>MOLECULE
NONAME
44 47 1 0 0 
SMALL
USER_CHARGES


@<TRIPOS>ATOM
  1 O       -1.7190     0.6020     2.7570 O.2   1 <1>  -0.5700 
  2 C       -1.9480     1.1910     1.7270 C.2   1 <1>   0.5690 
  3 N       -2.4360     0.5200     0.6360 N.am  1 <1>  -0.6600 
  4 C       -1.7210     2.6900     1.7060 C.3   1 <1>   0.0810 
  5 C       -2.8620     1.0830    -0.6720 C.3   1 <1>   0.1400 
  6 C       -2.6280    -0.9530     0.6390 C.3   1 <1>   0.1400 
  7 C       -0.4170     3.0430     1.0270 C.2   1 <1>   0.2980 
  8 C       -3.7990     0.0230    -1.2450 C.3   1 <1>   0.2000 
  9 C       -3.1960    -1.2940    -0.7450 C.3   1 <1>  -0.0800 
 10 O       -0.2850     2.7920    -0.2670 O.3   1 <1>  -0.2800 
 11 N        0.5950     3.5960     1.5810 N.2   1 <1>  -0.5650 
 12 O       -5.0510     0.2060    -0.6780 O.3   1 <1>  -0.6800 
 13 C       -4.1530    -2.5010    -0.7470 C.3   1 <1>  -0.0170 
 14 C        0.9270     3.2070    -0.5790 C.ar  1 <1>   0.1400 
 15 C        1.4920     3.7110     0.5650 C.ar  1 <1>   0.2270 
 16 C       -3.4290    -3.7700    -0.3250 C.ar  1 <1>  -0.1440 
 17 C        1.5990     3.1850    -1.7940 C.ar  1 <1>  -0.1500 
 18 C        2.7840     4.2250     0.5310 C.ar  1 <1>  -0.1500 
 19 C       -3.4660    -4.2400     0.9720 C.ar  1 <1>  -0.1500 
 20 C       -2.6930    -4.5170    -1.2220 C.ar  1 <1>  -0.1500 
 21 C        2.8830     3.6960    -1.8270 C.ar  1 <1>  -0.1500 
 22 C        3.4720     4.2140    -0.6690 C.ar  1 <1>  -0.1500 
 23 C       -2.7830    -5.3990     1.3010 C.ar  1 <1>   0.1600 
 24 C       -2.0460    -5.6640    -0.7910 C.ar  1 <1>   0.1600 
 25 N       -2.0720    -6.1220     0.4500 N.ar  1 <1>  -0.6200 
 26 H       -2.5330     3.1840     1.2100 H     1 <1>   0.0800 
 27 H       -1.6890     3.0460     2.7180 H     1 <1>   0.0800 
 28 H       -3.3540     2.0340    -0.5750 H     1 <1>   0.0800 
 29 H       -2.0000     1.1820    -1.3090 H     1 <1>   0.0800 
 30 H       -1.6930    -1.4580     0.8170 H     1 <1>   0.0800 
 31 H       -3.3230    -1.2130     1.4190 H     1 <1>   0.0800 
 32 H       -3.8950     0.0740    -2.3160 H     1 <1>   0.0800 
 33 H       -2.3600    -1.5290    -1.3800 H     1 <1>   0.0800 
 34 H       -4.9470     0.2710     0.2930 H     1 <1>   0.4000 
 35 H       -4.5580    -2.6340    -1.7350 H     1 <1>   0.0800 
 36 H       -4.9820    -2.3250    -0.0830 H     1 <1>   0.0800 
 37 H        1.1220     2.7810    -2.6680 H     1 <1>   0.1500 
 38 H        3.2160     4.6160     1.4330 H     1 <1>   0.1500 
 39 H       -4.0190    -3.7180     1.7320 H     1 <1>   0.1500 
 40 H       -2.6170    -4.2210    -2.2520 H     1 <1>   0.1500 
 41 H        3.4400     3.6990    -2.7490 H     1 <1>   0.1500 
 42 H        4.4740     4.6060    -0.7170 H     1 <1>   0.1500 
 43 H       -2.8220    -5.7490     2.3180 H     1 <1>   0.1500 
 44 H       -1.4770    -6.2340    -1.5050 H     1 <1>   0.1500 
@<TRIPOS>BOND
  1   1   2  2   
  2   2   3  am  
  3   2   4  1   
  4   3   5  1   
  5   3   6  1   
  6   4   7  1   
  7   4  26  1   
  8   4  27  1   
  9   5   8  1   
 10   5  28  1   
 11   5  29  1   
 12   6   9  1   
 13   6  30  1   
 14   6  31  1   
 15   7  10  1   
 16   7  11  2   
 17   8   9  1   
 18   8  12  1   
 19   8  32  1   
 20   9  13  1   
 21   9  33  1   
 22  10  14  1   
 23  11  15  1   
 24  12  34  1   
 25  13  16  1   
 26  13  35  1   
 27  13  36  1   
 28  14  15  ar  
 29  14  17  ar  
 30  15  18  ar  
 31  16  19  ar  
 32  16  20  ar  
 33  17  21  ar  
 34  17  37  1   
 35  18  22  ar  
 36  18  38  1   
 37  19  23  ar  
 38  19  39  1   
 39  20  24  ar  
 40  20  40  1   
 41  21  22  ar  
 42  21  41  1   
 43  22  42  1   
 44  23  25  ar  
 45  23  43  1   
 46  24  25  ar  
 47  24  44  1   
@<TRIPOS>SUBSTRUCTURE
  1 ****   3 GROUP 4 **** **** 0

# MOE 2024.06 (io_trps.svl 2023.06)
