@<TRIPOS>MOLECULE
NONAME
63 65 1 0 0 
SMALL
USER_CHARGES


@<TRIPOS>ATOM
  1 O       -2.6630     0.7380     2.0780 O.2   1 <1>  -0.5700 
  2 C       -2.6950     1.1070     0.9250 C.2   1 <1>   0.5690 
  3 N       -3.0090     0.2350    -0.0870 N.am  1 <1>  -0.6600 
  4 C       -2.2720     2.5690     0.6410 C.3   1 <1>   0.1710 
  5 C       -2.6560    -1.2190     0.0870 C.3   1 <1>   0.3640 
  6 C       -3.7490     0.6540    -1.3170 C.3   1 <1>   0.1400 
  7 N       -0.7910     2.7870     0.4500 N.3   1 <1>  -0.8100 
  8 C       -1.1350    -1.3010    -0.1060 C.ar  1 <1>  -0.1430 
  9 C       -3.4530    -2.2260    -0.8010 C.3   1 <1>   0.2000 
 10 C       -4.0100    -0.4980    -2.2960 C.3   1 <1>   0.1200 
 11 C       -0.0930     2.3110     1.6820 C.3   1 <1>   0.1100 
 12 C       -0.3540     2.0750    -0.7590 C.3   1 <1>   0.1100 
 13 C       -0.3300    -1.2010     1.0220 C.ar  1 <1>  -0.1500 
 14 C       -0.5310    -1.3680    -1.3570 C.ar  1 <1>  -0.1500 
 15 O       -4.4380    -1.6220    -1.5990 O.3   1 <1>  -0.5600 
 16 C       -4.1600    -3.2880     0.0510 C.3   1 <1>   0.1200 
 17 C        1.4260     2.5500     1.7830 C.3   1 <1>   0.3430 
 18 C        0.8590     2.7220    -1.4260 C.3   1 <1>  -0.1600 
 19 C        1.0500    -1.0850     0.9130 C.ar  1 <1>   0.0830 
 20 C        0.8460    -1.2820    -1.4790 C.ar  1 <1>  -0.1500 
 21 O       -3.2280    -4.0340     0.7670 O.3   1 <1>  -0.6800 
 22 N        2.1840     2.1080     0.5750 N.4   1 <1>  -0.9590 
 23 C        2.0050     3.1110    -0.5010 C.3   1 <1>   0.3430 
 24 O        1.8480    -0.8830     2.0000 O.3   1 <1>  -0.3630 
 25 C        1.6330    -1.1160    -0.3530 C.ar  1 <1>   0.0830 
 26 C        3.6170     1.8510     0.8850 C.3   1 <1>   0.2630 
 27 C        1.4450    -1.3710     3.2640 C.3   1 <1>   0.0400 
 28 O        2.9640    -0.9390    -0.5190 O.3   1 <1>  -0.3630 
 29 C        3.7620    -2.0740    -0.2580 C.3   1 <1>   0.0400 
 30 H       -2.5990     3.1650     1.4750 H     1 <1>   0.0800 
 31 H       -2.7990     2.9380    -0.2190 H     1 <1>   0.0800 
 32 H       -2.8630    -1.4830     1.1100 H     1 <1>   0.0800 
 33 H       -4.6990     1.0610    -1.0180 H     1 <1>   0.0800 
 34 H       -3.2080     1.4270    -1.8300 H     1 <1>   0.0800 
 35 H       -2.7870    -2.7390    -1.4690 H     1 <1>   0.0800 
 36 H       -3.1280    -0.7440    -2.8600 H     1 <1>   0.0800 
 37 H       -4.7880    -0.2220    -2.9860 H     1 <1>   0.0800 
 38 H       -0.5460     2.7880     2.5340 H     1 <1>   0.0800 
 39 H       -0.2510     1.2580     1.8060 H     1 <1>   0.0800 
 40 H       -0.1330     1.0580    -0.5110 H     1 <1>   0.0800 
 41 H       -1.1460     2.0630    -1.4880 H     1 <1>   0.0800 
 42 H       -0.8060    -1.1680     1.9860 H     1 <1>   0.1500 
 43 H       -1.1190    -1.4640    -2.2510 H     1 <1>   0.1500 
 44 H       -4.7250    -3.9610    -0.5700 H     1 <1>   0.0800 
 45 H       -4.8180    -2.8150     0.7590 H     1 <1>   0.0800 
 46 H        1.7840     2.0080     2.6430 H     1 <1>   0.0800 
 47 H        1.6030     3.5970     1.9610 H     1 <1>   0.0800 
 48 H        0.5350     3.6040    -1.9470 H     1 <1>   0.0800 
 49 H        1.2350     2.0430    -2.1710 H     1 <1>   0.0800 
 50 H        1.3110    -1.3260    -2.4480 H     1 <1>   0.1500 
 51 H       -2.7660    -4.6720     0.1880 H     1 <1>   0.4000 
 52 H        1.7760     1.2100     0.2620 H     1 <1>   0.4500 
 53 H        1.7910     4.0720    -0.0630 H     1 <1>   0.0800 
 54 H        2.9080     3.2010    -1.0830 H     1 <1>   0.0800 
 55 H        4.0960     2.7500     1.2360 H     1 <1>   0.0800 
 56 H        4.1280     1.5020     0.0020 H     1 <1>   0.0800 
 57 H        3.6970     1.0880     1.6430 H     1 <1>   0.0800 
 58 H        2.2850    -1.3140     3.9320 H     1 <1>   0.0800 
 59 H        1.1320    -2.3960     3.1610 H     1 <1>   0.0800 
 60 H        0.6400    -0.7650     3.6390 H     1 <1>   0.0800 
 61 H        4.7870    -1.8240    -0.4600 H     1 <1>   0.0800 
 62 H        3.4460    -2.8780    -0.9000 H     1 <1>   0.0800 
 63 H        3.6480    -2.3560     0.7740 H     1 <1>   0.0800 
@<TRIPOS>BOND
  1   1   2  2   
  2   2   3  am  
  3   2   4  1   
  4   3   5  1   
  5   3   6  1   
  6   4   7  1   
  7   4  30  1   
  8   4  31  1   
  9   5   8  1   
 10   5   9  1   
 11   5  32  1   
 12   6  10  1   
 13   6  33  1   
 14   6  34  1   
 15   7  11  1   
 16   7  12  1   
 17   8  13  ar  
 18   8  14  ar  
 19   9  15  1   
 20   9  16  1   
 21   9  35  1   
 22  10  15  1   
 23  10  36  1   
 24  10  37  1   
 25  11  17  1   
 26  11  38  1   
 27  11  39  1   
 28  12  18  1   
 29  12  40  1   
 30  12  41  1   
 31  13  19  ar  
 32  13  42  1   
 33  14  20  ar  
 34  14  43  1   
 35  16  21  1   
 36  16  44  1   
 37  16  45  1   
 38  17  22  1   
 39  17  46  1   
 40  17  47  1   
 41  18  23  1   
 42  18  48  1   
 43  18  49  1   
 44  19  24  1   
 45  19  25  ar  
 46  20  25  ar  
 47  20  50  1   
 48  21  51  1   
 49  22  23  1   
 50  22  26  1   
 51  22  52  1   
 52  23  53  1   
 53  23  54  1   
 54  24  27  1   
 55  25  28  1   
 56  26  55  1   
 57  26  56  1   
 58  26  57  1   
 59  27  58  1   
 60  27  59  1   
 61  27  60  1   
 62  28  29  1   
 63  29  61  1   
 64  29  62  1   
 65  29  63  1   
@<TRIPOS>SUBSTRUCTURE
  1 ****   8 GROUP 4 **** **** 0

# MOE 2024.06 (io_trps.svl 2023.06)
