@<TRIPOS>MOLECULE
NONAME
47 49 1 0 0 
SMALL
USER_CHARGES


@<TRIPOS>ATOM
  1 S        0.5260     0.5900    -0.0060 S.o2  1 <1>   1.3330 
  2 O        0.3960     0.1750     1.3730 O.2   1 <1>  -0.6500 
  3 O        0.2250    -0.3470    -1.0650 O.2   1 <1>  -0.6500 
  4 N       -0.4330     1.9740    -0.2250 N.am  1 <1>  -0.8490 
  5 C        2.1840     1.2070    -0.2810 C.3   1 <1>  -0.0550 
  6 C       -1.7850     1.6440    -0.6860 C.3   1 <1>   0.1160 
  7 C       -0.5050     2.8280     0.9650 C.3   1 <1>   0.1160 
  8 C        3.2620     0.1070    -0.2050 C.3   1 <1>  -0.0800 
  9 C        4.6710     0.5600    -0.5620 C.3   1 <1>   0.2200 
 10 C        3.4380    -0.5130     1.1880 C.3   1 <1>   0.1200 
 11 N        4.9520     1.8980     0.0080 N.am  1 <1>  -0.7300 
 12 C        5.4970    -0.4780     0.1840 C.3   1 <1>   0.1200 
 13 O        4.8120    -0.6890     1.3790 O.3   1 <1>  -0.5600 
 14 C        4.9800     3.0790    -0.6760 C.2   1 <1>   0.7160 
 15 O        4.7560     3.0570    -1.8720 O.2   1 <1>  -0.5700 
 16 C        5.2380     4.3260     0.0140 C.2   1 <1>   0.1410 
 17 N        5.4090     4.4100     1.3510 N.2   1 <1>  -0.2270 
 18 C        5.3440     5.5770    -0.4870 C.2   1 <1>  -0.3020 
 19 N        5.6080     5.6380     1.6630 N.2   1 <1>  -0.4180 
 20 N        5.5790     6.3910     0.5450 N.pl3 1 <1>   0.5930 
 21 C        5.7550     7.8060     0.5220 C.ar  1 <1>  -0.0230 
 22 C        5.3670     8.5880     1.6080 C.ar  1 <1>  -0.1500 
 23 C        6.3180     8.4420    -0.5830 C.ar  1 <1>  -0.1500 
 24 C        5.5290     9.9620     1.5880 C.ar  1 <1>  -0.1500 
 25 C        6.4800     9.8160    -0.6040 C.ar  1 <1>  -0.1500 
 26 C        6.0840    10.5780     0.4810 C.ar  1 <1>  -0.1500 
 27 H        2.2250     1.6590    -1.2530 H     1 <1>   0.0800 
 28 H        2.3960     1.9690     0.4430 H     1 <1>   0.0800 
 29 H       -2.3600     2.5420    -0.8330 H     1 <1>   0.0800 
 30 H       -2.2830     1.0160     0.0330 H     1 <1>   0.0800 
 31 H       -1.7360     1.1210    -1.6270 H     1 <1>   0.0800 
 32 H       -1.0510     3.7290     0.7400 H     1 <1>   0.0800 
 33 H        0.4840     3.1040     1.2860 H     1 <1>   0.0800 
 34 H       -0.9990     2.3110     1.7710 H     1 <1>   0.0800 
 35 H        2.9870    -0.6850    -0.8810 H     1 <1>   0.0800 
 36 H        4.8590     0.5470    -1.6230 H     1 <1>   0.0800 
 37 H        2.9490    -1.4700     1.2650 H     1 <1>   0.0800 
 38 H        3.0820     0.1370     1.9690 H     1 <1>   0.0800 
 39 H        5.1380     1.9100     1.0160 H     1 <1>   0.3700 
 40 H        6.5000    -0.1470     0.3920 H     1 <1>   0.0800 
 41 H        5.5200    -1.4100    -0.3540 H     1 <1>   0.0800 
 42 H        5.2560     5.9090    -1.5030 H     1 <1>   0.1500 
 43 H        4.9340     8.1210     2.4770 H     1 <1>   0.1500 
 44 H        6.6390     7.8690    -1.4350 H     1 <1>   0.1500 
 45 H        5.2230    10.5520     2.4350 H     1 <1>   0.1500 
 46 H        6.9150    10.2950    -1.4640 H     1 <1>   0.1500 
 47 H        6.2100    11.6470     0.4660 H     1 <1>   0.1500 
@<TRIPOS>BOND
  1   1   2  2   
  2   1   3  2   
  3   1   4  am  
  4   1   5  1   
  5   4   6  1   
  6   4   7  1   
  7   5   8  1   
  8   5  27  1   
  9   5  28  1   
 10   6  29  1   
 11   6  30  1   
 12   6  31  1   
 13   7  32  1   
 14   7  33  1   
 15   7  34  1   
 16   8   9  1   
 17   8  10  1   
 18   8  35  1   
 19   9  11  1   
 20   9  12  1   
 21   9  36  1   
 22  10  13  1   
 23  10  37  1   
 24  10  38  1   
 25  11  14  am  
 26  11  39  1   
 27  12  13  1   
 28  12  40  1   
 29  12  41  1   
 30  14  15  2   
 31  14  16  1   
 32  16  17  1   
 33  16  18  2   
 34  17  19  2   
 35  18  20  1   
 36  18  42  1   
 37  19  20  1   
 38  20  21  1   
 39  21  22  ar  
 40  21  23  ar  
 41  22  24  ar  
 42  22  43  1   
 43  23  25  ar  
 44  23  44  1   
 45  24  26  ar  
 46  24  45  1   
 47  25  26  ar  
 48  25  46  1   
 49  26  47  1   
@<TRIPOS>SUBSTRUCTURE
  1 ****  16 GROUP 4 **** **** 0

# MOE 2024.06 (io_trps.svl 2023.06)
