@<TRIPOS>MOLECULE
NONAME
45 47 1 0 0 
SMALL
USER_CHARGES


@<TRIPOS>ATOM
  1 O       -3.0510     1.0520    -1.2350 O.2   1 <1>  -0.5700 
  2 C       -2.3710     0.7620    -0.2810 C.2   1 <1>   0.5690 
  3 N       -2.0860    -0.5260     0.0230 N.am  1 <1>  -0.7300 
  4 C       -1.8300     1.8590     0.6050 C.3   1 <1>  -0.0990 
  5 C       -2.5780    -1.6890    -0.7470 C.3   1 <1>   0.2200 
  6 C       -0.9930     2.8360    -0.2120 C.3   1 <1>   0.1200 
  7 C       -3.8700    -2.1850    -0.1240 C.3   1 <1>  -0.0800 
  8 C       -1.6530    -2.8830    -0.5440 C.3   1 <1>   0.1200 
  9 O       -0.4370     3.7590     0.6670 O.3   1 <1>  -0.5600 
 10 C       -3.3620    -3.1070     0.9880 C.3   1 <1>   0.1200 
 11 C       -4.7420    -2.9300    -1.1540 C.3   1 <1>  -0.0160 
 12 O       -2.0650    -3.5000     0.6390 O.3   1 <1>  -0.5600 
 13 C        0.3220     4.7430     0.0430 C.3   1 <1>   0.0400 
 14 C       -6.0900    -3.3300    -0.5620 C.ar  1 <1>  -0.1440 
 15 C       -7.1310    -2.3940    -0.3540 C.ar  1 <1>   0.0000 
 16 C       -6.3280    -4.6260    -0.2110 C.ar  1 <1>  -0.1500 
 17 C       -8.3370    -2.8690     0.2190 C.ar  1 <1>   0.3100 
 18 C       -7.0510    -1.0200    -0.6830 C.ar  1 <1>  -0.1500 
 19 C       -7.5600    -4.9920     0.3440 C.ar  1 <1>   0.1600 
 20 N       -8.5340    -4.1670     0.5620 N.ar  1 <1>  -0.6200 
 21 C       -9.3840    -1.9620     0.4470 C.ar  1 <1>  -0.1500 
 22 C       -8.0920    -0.1630    -0.4480 C.ar  1 <1>  -0.1500 
 23 C       -9.2740    -0.6370     0.1250 C.ar  1 <1>  -0.1500 
 24 H       -1.5750    -0.7640     0.8760 H     1 <1>   0.3700 
 25 H       -2.6570     2.3810     1.0480 H     1 <1>   0.0800 
 26 H       -1.2250     1.4350     1.3840 H     1 <1>   0.0800 
 27 H       -2.6810    -1.4250    -1.7870 H     1 <1>   0.0800 
 28 H       -1.6100     3.3560    -0.9260 H     1 <1>   0.0800 
 29 H       -0.1960     2.3210    -0.7210 H     1 <1>   0.0800 
 30 H       -4.4360    -1.3700     0.2910 H     1 <1>   0.0800 
 31 H       -0.6180    -2.6000    -0.4640 H     1 <1>   0.0800 
 32 H       -1.7740    -3.5960    -1.3400 H     1 <1>   0.0800 
 33 H       -3.9710    -3.9840     1.1220 H     1 <1>   0.0800 
 34 H       -3.2980    -2.5740     1.9210 H     1 <1>   0.0800 
 35 H       -4.2250    -3.8090    -1.4980 H     1 <1>   0.0800 
 36 H       -4.9090    -2.3080    -2.0150 H     1 <1>   0.0800 
 37 H        0.7060     5.4010     0.8020 H     1 <1>   0.0800 
 38 H       -0.3030     5.2980    -0.6350 H     1 <1>   0.0800 
 39 H        1.1390     4.2810    -0.4850 H     1 <1>   0.0800 
 40 H       -5.5860    -5.3930    -0.3450 H     1 <1>   0.1500 
 41 H       -6.1550    -0.6300    -1.1280 H     1 <1>   0.1500 
 42 H       -7.7050    -6.0260     0.6080 H     1 <1>   0.1500 
 43 H      -10.2840    -2.3500     0.8870 H     1 <1>   0.1500 
 44 H       -8.0140     0.8800    -0.7020 H     1 <1>   0.1500 
 45 H      -10.0860     0.0470     0.3060 H     1 <1>   0.1500 
@<TRIPOS>BOND
  1   1   2  2   
  2   2   3  am  
  3   2   4  1   
  4   3   5  1   
  5   3  24  1   
  6   4   6  1   
  7   4  25  1   
  8   4  26  1   
  9   5   7  1   
 10   5   8  1   
 11   5  27  1   
 12   6   9  1   
 13   6  28  1   
 14   6  29  1   
 15   7  10  1   
 16   7  11  1   
 17   7  30  1   
 18   8  12  1   
 19   8  31  1   
 20   8  32  1   
 21   9  13  1   
 22  10  12  1   
 23  10  33  1   
 24  10  34  1   
 25  11  14  1   
 26  11  35  1   
 27  11  36  1   
 28  13  37  1   
 29  13  38  1   
 30  13  39  1   
 31  14  15  ar  
 32  14  16  ar  
 33  15  17  ar  
 34  15  18  ar  
 35  16  19  ar  
 36  16  40  1   
 37  17  20  ar  
 38  17  21  ar  
 39  18  22  ar  
 40  18  41  1   
 41  19  20  ar  
 42  19  42  1   
 43  21  23  ar  
 44  21  43  1   
 45  22  23  ar  
 46  22  44  1   
 47  23  45  1   
@<TRIPOS>SUBSTRUCTURE
  1 ****   7 GROUP 4 **** **** 0

# MOE 2024.06 (io_trps.svl 2023.06)
