@<TRIPOS>MOLECULE
NONAME
38 38 1 0 0 
SMALL
USER_CHARGES


@<TRIPOS>ATOM
  1 O        1.3850    -0.9230     2.2830 O.2   1 <1>  -0.5700 
  2 C        1.9030    -1.2140     1.2320 C.2   1 <1>   0.5690 
  3 N        2.4280    -0.3000     0.3700 N.am  1 <1>  -0.4930 
  4 C        1.9680    -2.6800     0.8480 C.3   1 <1>  -0.0990 
  5 C        2.4930     1.1100     0.5050 C.2   1 <1>   0.0630 
  6 C        0.8660    -3.0610    -0.1550 C.3   1 <1>  -0.1600 
  7 C        2.0650     1.9230     1.5550 C.2   1 <1>   0.1390 
  8 C        3.0050     1.9690    -0.4000 C.2   1 <1>  -0.3020 
  9 C        0.8800    -4.5600    -0.4550 C.3   1 <1>   0.1400 
 10 N        2.2910     3.1830     1.3270 N.2   1 <1>  -0.7070 
 11 N        2.8750     3.2150     0.1110 N.pl3 1 <1>   0.3140 
 12 N       -0.1750    -4.8600    -1.4430 N.am  1 <1>  -0.7300 
 13 C        3.3100     4.4780    -0.5520 C.3   1 <1>   0.1760 
 14 C       -1.3860    -5.4290    -1.2520 C.2   1 <1>   0.5690 
 15 C        4.3860     5.1870     0.2830 C.3   1 <1>  -0.2400 
 16 C        2.1100     5.4040    -0.7960 C.3   1 <1>  -0.2400 
 17 O       -2.1170    -5.6110    -2.1890 O.2   1 <1>  -0.5700 
 18 C       -1.8420    -5.8380     0.1270 C.3   1 <1>  -0.1790 
 19 H        2.8260    -0.6590    -0.4940 H     1 <1>   0.3700 
 20 H        1.8550    -3.2640     1.7450 H     1 <1>   0.0800 
 21 H        2.9380    -2.8940     0.4370 H     1 <1>   0.0800 
 22 H        1.0030    -2.5100    -1.0690 H     1 <1>   0.0800 
 23 H       -0.0910    -2.7950     0.2620 H     1 <1>   0.0800 
 24 H        1.6010     1.5560     2.4550 H     1 <1>   0.1500 
 25 H        3.4460     1.7750    -1.3580 H     1 <1>   0.1500 
 26 H        0.7130    -5.1190     0.4500 H     1 <1>   0.0800 
 27 H        1.8330    -4.8520    -0.8610 H     1 <1>   0.0800 
 28 H        0.0230    -4.6020    -2.4120 H     1 <1>   0.3700 
 29 H        3.7360     4.2140    -1.5040 H     1 <1>   0.0800 
 30 H        3.9870     5.4700     1.2420 H     1 <1>   0.0800 
 31 H        4.7260     6.0730    -0.2220 H     1 <1>   0.0800 
 32 H        5.2270     4.5340     0.4340 H     1 <1>   0.0800 
 33 H        1.6650     5.6920     0.1410 H     1 <1>   0.0800 
 34 H        1.3710     4.9030    -1.3940 H     1 <1>   0.0800 
 35 H        2.4240     6.2930    -1.3130 H     1 <1>   0.0800 
 36 H       -1.7890    -4.9990     0.7940 H     1 <1>   0.0800 
 37 H       -1.2230    -6.6350     0.4930 H     1 <1>   0.0800 
 38 H       -2.8590    -6.1810     0.0830 H     1 <1>   0.0800 
@<TRIPOS>BOND
  1   1   2  2   
  2   2   3  am  
  3   2   4  1   
  4   3   5  1   
  5   3  19  1   
  6   4   6  1   
  7   4  20  1   
  8   4  21  1   
  9   5   7  1   
 10   5   8  2   
 11   6   9  1   
 12   6  22  1   
 13   6  23  1   
 14   7  10  2   
 15   7  24  1   
 16   8  11  1   
 17   8  25  1   
 18   9  12  1   
 19   9  26  1   
 20   9  27  1   
 21  10  11  1   
 22  11  13  1   
 23  12  14  am  
 24  12  28  1   
 25  13  15  1   
 26  13  16  1   
 27  13  29  1   
 28  14  17  2   
 29  14  18  1   
 30  15  30  1   
 31  15  31  1   
 32  15  32  1   
 33  16  33  1   
 34  16  34  1   
 35  16  35  1   
 36  18  36  1   
 37  18  37  1   
 38  18  38  1   
@<TRIPOS>SUBSTRUCTURE
  1 ****   3 GROUP 4 **** **** 0

# MOE 2024.06 (io_trps.svl 2023.06)
