@<TRIPOS>MOLECULE
NONAME
50 52 1 0 0 
SMALL
USER_CHARGES


@<TRIPOS>ATOM
  1 F        1.2460     1.3020    -0.2150 F     1 <1>  -0.1900 
  2 C        2.1650     0.3840    -0.0890 C.ar  1 <1>   0.1900 
  3 C        3.4920     0.7450     0.1730 C.ar  1 <1>   0.0860 
  4 C        1.7470    -0.9260    -0.2330 C.ar  1 <1>  -0.1500 
  5 C        3.9570     2.1140     0.3350 C.2   1 <1>   0.5440 
  6 C        4.3940    -0.3190     0.2770 C.ar  1 <1>  -0.1500 
  7 C        2.6720    -1.9470    -0.1200 C.ar  1 <1>  -0.1500 
  8 O        5.1440     2.3730     0.2520 O.2   1 <1>  -0.5700 
  9 N        3.1040     3.1530     0.5870 N.am  1 <1>  -0.7300 
 10 C        3.9970    -1.6380     0.1350 C.ar  1 <1>  -0.1500 
 11 C        3.5150     4.5570     0.8150 C.3   1 <1>   0.1400 
 12 C        3.7080     5.2580    -0.5270 C.3   1 <1>  -0.0990 
 13 C        4.4680     6.5490    -0.3240 C.2   1 <1>   0.5690 
 14 O        3.8340     7.5690    -0.2090 O.2   1 <1>  -0.5700 
 15 N        5.8330     6.5430    -0.2650 N.am  1 <1>  -0.6600 
 16 C        6.6380     7.7800    -0.0710 C.3   1 <1>   0.1400 
 17 C        6.7300     5.3690    -0.3770 C.3   1 <1>   0.1400 
 18 C        8.0680     7.4150    -0.4970 C.3   1 <1>   0.4240 
 19 C        8.1260     5.9310    -0.1120 C.3   1 <1>  -0.1600 
 20 O        8.1220     7.4470    -1.8810 O.3   1 <1>  -0.6800 
 21 C        9.1850     8.3260     0.0720 C.ar  1 <1>  -0.1430 
 22 C        9.1550     9.7240    -0.0320 C.ar  1 <1>  -0.1430 
 23 C       10.2800     7.7480     0.7170 C.ar  1 <1>  -0.1500 
 24 C       10.1700    10.4840     0.5320 C.ar  1 <1>  -0.1500 
 25 C        8.0610    10.5000    -0.7580 C.3   1 <1>  -0.0970 
 26 C       11.2880     8.5150     1.2700 C.ar  1 <1>  -0.1500 
 27 C       11.2310     9.8890     1.1830 C.ar  1 <1>  -0.1500 
 28 H        0.7120    -1.1430    -0.4330 H     1 <1>   0.1500 
 29 H        5.4320    -0.1060     0.4740 H     1 <1>   0.1500 
 30 H        2.3660    -2.9740    -0.2290 H     1 <1>   0.1500 
 31 H        2.0950     2.9750     0.5620 H     1 <1>   0.3700 
 32 H        4.7230    -2.4300     0.2230 H     1 <1>   0.1500 
 33 H        4.4380     4.5630     1.3700 H     1 <1>   0.0800 
 34 H        2.7710     5.0700     1.4010 H     1 <1>   0.0800 
 35 H        2.7500     5.4770    -0.9610 H     1 <1>   0.0800 
 36 H        4.2520     4.6290    -1.2050 H     1 <1>   0.0800 
 37 H        6.6250     8.0470     0.9710 H     1 <1>   0.0800 
 38 H        6.2320     8.5880    -0.6520 H     1 <1>   0.0800 
 39 H        6.6690     4.9590    -1.3710 H     1 <1>   0.0800 
 40 H        6.4750     4.6090     0.3430 H     1 <1>   0.0800 
 41 H        8.8910     5.3960    -0.6460 H     1 <1>   0.0800 
 42 H        8.3100     5.8400     0.9430 H     1 <1>   0.0800 
 43 H        7.3020     7.0400    -2.2160 H     1 <1>   0.4000 
 44 H       10.3830     6.6840     0.8020 H     1 <1>   0.1500 
 45 H       10.1440    11.5570     0.4630 H     1 <1>   0.1500 
 46 H        7.7870    10.0120    -1.6740 H     1 <1>   0.0800 
 47 H        8.4010    11.4870    -1.0150 H     1 <1>   0.0800 
 48 H        7.1960    10.5990    -0.1280 H     1 <1>   0.0800 
 49 H       12.1170     8.0410     1.7650 H     1 <1>   0.1500 
 50 H       12.0100    10.4930     1.6140 H     1 <1>   0.1500 
@<TRIPOS>BOND
  1   1   2  1   
  2   2   3  ar  
  3   2   4  ar  
  4   3   5  1   
  5   3   6  ar  
  6   4   7  ar  
  7   4  28  1   
  8   5   8  2   
  9   5   9  am  
 10   6  10  ar  
 11   6  29  1   
 12   7  10  ar  
 13   7  30  1   
 14   9  11  1   
 15   9  31  1   
 16  10  32  1   
 17  11  12  1   
 18  11  33  1   
 19  11  34  1   
 20  12  13  1   
 21  12  35  1   
 22  12  36  1   
 23  13  14  2   
 24  13  15  am  
 25  15  16  1   
 26  15  17  1   
 27  16  18  1   
 28  16  37  1   
 29  16  38  1   
 30  17  19  1   
 31  17  39  1   
 32  17  40  1   
 33  18  19  1   
 34  18  20  1   
 35  18  21  1   
 36  19  41  1   
 37  19  42  1   
 38  20  43  1   
 39  21  22  ar  
 40  21  23  ar  
 41  22  24  ar  
 42  22  25  1   
 43  23  26  ar  
 44  23  44  1   
 45  24  27  ar  
 46  24  45  1   
 47  25  46  1   
 48  25  47  1   
 49  25  48  1   
 50  26  27  ar  
 51  26  49  1   
 52  27  50  1   
@<TRIPOS>SUBSTRUCTURE
  1 ****  17 GROUP 4 **** **** 0

# MOE 2024.06 (io_trps.svl 2023.06)
