@<TRIPOS>MOLECULE
NONAME
55 58 1 0 0 
SMALL
USER_CHARGES


@<TRIPOS>ATOM
  1 O       -1.2110     0.8700     2.4030 O.2   1 <1>  -0.5700 
  2 C       -1.7900     1.4000     1.4820 C.2   1 <1>   0.5690 
  3 N       -2.5790     0.6620     0.6350 N.am  1 <1>  -0.6600 
  4 C       -1.6460     2.9230     1.3050 C.3   1 <1>   0.1710 
  5 C       -3.4080     1.1490    -0.4980 C.3   1 <1>   0.1400 
  6 C       -2.7860    -0.7910     0.8220 C.3   1 <1>   0.1400 
  7 N       -0.4290     3.4090     0.5860 N.3   1 <1>  -0.8100 
  8 C       -4.2370    -0.0590    -0.9570 C.3   1 <1>   0.2000 
  9 C       -3.4220    -1.2680    -0.4840 C.3   1 <1>  -0.0800 
 10 C       -0.4220     4.8820     0.5390 C.3   1 <1>   0.2530 
 11 C       -0.2860     2.8080    -0.7560 C.3   1 <1>   0.1100 
 12 O       -5.4710    -0.0600    -0.2970 O.3   1 <1>  -0.5600 
 13 C       -4.2330    -2.5690    -0.3340 C.3   1 <1>   0.0200 
 14 C        0.9770     5.4540     0.3660 C.ar  1 <1>  -0.1440 
 15 C        1.0780     3.0720    -1.4070 C.3   1 <1>   0.1200 
 16 C       -6.4860     0.6560    -0.9270 C.3   1 <1>   0.0400 
 17 C       -3.3690    -3.7820    -0.0330 C.2   1 <1>  -0.0400 
 18 C        1.7020     5.2350    -0.7990 C.ar  1 <1>   0.0820 
 19 C        1.5330     6.2450     1.3610 C.ar  1 <1>  -0.1500 
 20 O        1.2280     4.4290    -1.7680 O.3   1 <1>  -0.3630 
 21 O       -3.9570    -4.9290     0.1870 O.3   1 <1>  -0.0190 
 22 C       -2.0440    -3.9790     0.0660 C.2   1 <1>  -0.1500 
 23 C        2.9400     5.8280    -0.9840 C.ar  1 <1>  -0.1500 
 24 C        2.7790     6.8260     1.1850 C.ar  1 <1>  -0.1500 
 25 N       -3.1000    -5.8780     0.4290 N.2   1 <1>  -0.4100 
 26 C       -1.9390    -5.3340     0.3650 C.2   1 <1>   0.1080 
 27 C        3.4810     6.6240     0.0090 C.ar  1 <1>  -0.1500 
 28 C       -0.6390    -6.0750     0.5860 C.3   1 <1>  -0.0590 
 29 H       -1.6340     3.3380     2.2970 H     1 <1>   0.0800 
 30 H       -2.5220     3.3020     0.8140 H     1 <1>   0.0800 
 31 H       -4.0400     1.9640    -0.1950 H     1 <1>   0.0800 
 32 H       -2.7590     1.4630    -1.2950 H     1 <1>   0.0800 
 33 H       -1.8540    -1.2870     1.0290 H     1 <1>   0.0800 
 34 H       -3.4600    -0.9400     1.6500 H     1 <1>   0.0800 
 35 H       -4.4010    -0.0760    -2.0210 H     1 <1>   0.0800 
 36 H       -2.6330    -1.4310    -1.1960 H     1 <1>   0.0800 
 37 H       -1.0490     5.2270    -0.2660 H     1 <1>   0.0800 
 38 H       -0.8290     5.2700     1.4560 H     1 <1>   0.0800 
 39 H       -0.3780     1.7400    -0.6660 H     1 <1>   0.0800 
 40 H       -1.0660     3.1570    -1.4090 H     1 <1>   0.0800 
 41 H       -4.7740    -2.7570    -1.2440 H     1 <1>   0.0800 
 42 H       -4.9560    -2.4590     0.4560 H     1 <1>   0.0800 
 43 H        1.1640     2.4970    -2.3100 H     1 <1>   0.0800 
 44 H        1.8760     2.7920    -0.7410 H     1 <1>   0.0800 
 45 H       -7.3680     0.5930    -0.3140 H     1 <1>   0.0800 
 46 H       -6.6850     0.2170    -1.8900 H     1 <1>   0.0800 
 47 H       -6.1920     1.6860    -1.0320 H     1 <1>   0.0800 
 48 H        0.9990     6.4170     2.2780 H     1 <1>   0.1500 
 49 H       -1.2260    -3.2940    -0.0480 H     1 <1>   0.1500 
 50 H        3.4740     5.6560    -1.9010 H     1 <1>   0.1500 
 51 H        3.2000     7.4380     1.9640 H     1 <1>   0.1500 
 52 H        4.4450     7.0820    -0.1310 H     1 <1>   0.1500 
 53 H       -0.0780    -5.6020     1.3700 H     1 <1>   0.0800 
 54 H       -0.0590    -6.0710    -0.3190 H     1 <1>   0.0800 
 55 H       -0.8400    -7.0930     0.8670 H     1 <1>   0.0800 
@<TRIPOS>BOND
  1   1   2  2   
  2   2   3  am  
  3   2   4  1   
  4   3   5  1   
  5   3   6  1   
  6   4   7  1   
  7   4  29  1   
  8   4  30  1   
  9   5   8  1   
 10   5  31  1   
 11   5  32  1   
 12   6   9  1   
 13   6  33  1   
 14   6  34  1   
 15   7  10  1   
 16   7  11  1   
 17   8   9  1   
 18   8  12  1   
 19   8  35  1   
 20   9  13  1   
 21   9  36  1   
 22  10  14  1   
 23  10  37  1   
 24  10  38  1   
 25  11  15  1   
 26  11  39  1   
 27  11  40  1   
 28  12  16  1   
 29  13  17  1   
 30  13  41  1   
 31  13  42  1   
 32  14  18  ar  
 33  14  19  ar  
 34  15  20  1   
 35  15  43  1   
 36  15  44  1   
 37  16  45  1   
 38  16  46  1   
 39  16  47  1   
 40  17  21  1   
 41  17  22  2   
 42  18  20  1   
 43  18  23  ar  
 44  19  24  ar  
 45  19  48  1   
 46  21  25  1   
 47  22  26  1   
 48  22  49  1   
 49  23  27  ar  
 50  23  50  1   
 51  24  27  ar  
 52  24  51  1   
 53  25  26  2   
 54  26  28  1   
 55  27  52  1   
 56  28  53  1   
 57  28  54  1   
 58  28  55  1   
@<TRIPOS>SUBSTRUCTURE
  1 ****   3 GROUP 4 **** **** 0

# MOE 2024.06 (io_trps.svl 2023.06)
