@<TRIPOS>MOLECULE
NONAME
42 43 1 0 0 
SMALL
USER_CHARGES


@<TRIPOS>ATOM
  1 S        1.0900    -1.7850     1.7970 S.3   1 <1>  -0.0800 
  2 C        0.4710    -3.0050     0.7000 C.2   1 <1>  -0.1100 
  3 C        0.0170    -0.5730     1.1230 C.2   1 <1>  -0.1100 
  4 C       -0.4870    -2.4920    -0.0970 C.2   1 <1>  -0.1810 
  5 C       -0.7400    -1.0990     0.1440 C.2   1 <1>  -0.1500 
  6 C       -1.2480    -3.2630    -1.1560 C.3   1 <1>   0.5240 
  7 N       -2.3510    -4.0080    -0.5010 N.4   1 <1>  -0.9590 
  8 C       -3.0330    -4.9580    -1.4240 C.3   1 <1>   0.3430 
  9 C       -3.3350    -3.1470     0.2080 C.3   1 <1>   0.3430 
 10 C       -3.8810    -5.9300    -0.5920 C.3   1 <1>   0.2000 
 11 C       -4.2850    -4.0150     1.0450 C.3   1 <1>  -0.1600 
 12 O       -2.9820    -6.6170     0.2220 O.3   1 <1>  -0.6800 
 13 C       -4.9430    -5.2120     0.3010 C.3   1 <1>   0.0000 
 14 C       -5.4560    -6.2010     1.3870 C.3   1 <1>   0.1200 
 15 C       -6.1940    -4.7750    -0.5230 C.3   1 <1>  -0.1600 
 16 O       -5.8370    -7.4050     0.8120 O.3   1 <1>  -0.6800 
 17 C       -6.1160    -3.5260    -1.4210 C.3   1 <1>  -0.1600 
 18 C       -7.4490    -3.3020    -2.1400 C.3   1 <1>  -0.2400 
 19 H        0.9050    -3.9880     0.7810 H     1 <1>   0.1500 
 20 H        0.0750     0.4190     1.5380 H     1 <1>   0.1500 
 21 H       -1.4680    -0.5430    -0.4240 H     1 <1>   0.1500 
 22 H       -0.5760    -3.9570    -1.6340 H     1 <1>   0.0800 
 23 H       -1.6330    -2.5870    -1.9020 H     1 <1>   0.0800 
 24 H       -1.9250    -4.6200     0.2160 H     1 <1>   0.4500 
 25 H       -3.6400    -4.4300    -2.1340 H     1 <1>   0.0800 
 26 H       -2.3050    -5.5340    -1.9720 H     1 <1>   0.0800 
 27 H       -2.8200    -2.4640     0.8660 H     1 <1>   0.0800 
 28 H       -3.8900    -2.5650    -0.5080 H     1 <1>   0.0800 
 29 H       -4.3510    -6.6530    -1.2370 H     1 <1>   0.0800 
 30 H       -3.7060    -4.3870     1.8730 H     1 <1>   0.0800 
 31 H       -5.0490    -3.3870     1.4700 H     1 <1>   0.0800 
 32 H       -3.4640    -7.3650     0.6470 H     1 <1>   0.4000 
 33 H       -6.2960    -5.8010     1.9320 H     1 <1>   0.0800 
 34 H       -4.6810    -6.4250     2.1010 H     1 <1>   0.0800 
 35 H       -6.5080    -5.6070    -1.1320 H     1 <1>   0.0800 
 36 H       -7.0010    -4.5920     0.1680 H     1 <1>   0.0800 
 37 H       -6.7880    -7.3980     0.5770 H     1 <1>   0.4000 
 38 H       -5.9160    -2.6510    -0.8270 H     1 <1>   0.0800 
 39 H       -5.3570    -3.6240    -2.1700 H     1 <1>   0.0800 
 40 H       -8.2460    -3.1620    -1.4310 H     1 <1>   0.0800 
 41 H       -7.6900    -4.1420    -2.7680 H     1 <1>   0.0800 
 42 H       -7.3930    -2.4230    -2.7590 H     1 <1>   0.0800 
@<TRIPOS>BOND
  1   1   2  1   
  2   1   3  1   
  3   2   4  2   
  4   2  19  1   
  5   3   5  2   
  6   3  20  1   
  7   4   5  1   
  8   4   6  1   
  9   5  21  1   
 10   6   7  1   
 11   6  22  1   
 12   6  23  1   
 13   7   8  1   
 14   7   9  1   
 15   7  24  1   
 16   8  10  1   
 17   8  25  1   
 18   8  26  1   
 19   9  11  1   
 20   9  27  1   
 21   9  28  1   
 22  10  12  1   
 23  10  13  1   
 24  10  29  1   
 25  11  13  1   
 26  11  30  1   
 27  11  31  1   
 28  12  32  1   
 29  13  14  1   
 30  13  15  1   
 31  14  16  1   
 32  14  33  1   
 33  14  34  1   
 34  15  17  1   
 35  15  35  1   
 36  15  36  1   
 37  16  37  1   
 38  17  18  1   
 39  17  38  1   
 40  17  39  1   
 41  18  40  1   
 42  18  41  1   
 43  18  42  1   
@<TRIPOS>SUBSTRUCTURE
  1 ****   9 GROUP 4 **** **** 0

# MOE 2024.06 (io_trps.svl 2023.06)
