@<TRIPOS>MOLECULE
NONAME
49 51 1 0 0 
SMALL
USER_CHARGES


@<TRIPOS>ATOM
  1 O       -4.6360     2.8360    -1.2160 O.2   1 <1>  -0.5700 
  2 C       -3.4530     2.6920    -1.0280 C.2   1 <1>   0.5690 
  3 N       -2.8330     1.5080    -1.2560 N.am  1 <1>  -0.7300 
  4 C       -2.6380     3.8710    -0.5190 C.3   1 <1>   0.0440 
  5 C       -3.4780     0.2610    -1.7190 C.3   1 <1>   0.2200 
  6 C       -1.2400     3.4600    -0.0640 C.ar  1 <1>  -0.1440 
  7 C       -3.3890    -0.7790    -0.6160 C.3   1 <1>  -0.0800 
  8 C       -2.6370    -0.3730    -2.8260 C.3   1 <1>   0.1200 
  9 C       -1.0340     3.0060     1.2300 C.ar  1 <1>  -0.1500 
 10 C       -0.1710     3.5080    -0.9470 C.ar  1 <1>  -0.1500 
 11 C       -1.9820    -1.3400    -0.8350 C.3   1 <1>   0.1200 
 12 C       -4.4780    -1.8580    -0.7690 C.3   1 <1>  -0.0160 
 13 O       -1.7070    -1.2100    -2.1990 O.3   1 <1>  -0.5600 
 14 C        0.2240     2.5990     1.6320 C.ar  1 <1>  -0.1500 
 15 C        1.0890     3.1000    -0.5460 C.ar  1 <1>  -0.1500 
 16 C       -4.3990    -2.8920     0.3440 C.ar  1 <1>  -0.1440 
 17 C        1.2920     2.6380     0.7510 C.ar  1 <1>   0.0820 
 18 C       -3.8770    -4.1530     0.1370 C.ar  1 <1>  -0.1500 
 19 C       -4.8470    -2.6210     1.6210 C.ar  1 <1>  -0.1500 
 20 O        2.4880     2.2100     1.2230 O.3   1 <1>  -0.3620 
 21 C       -3.8260    -5.0540     1.1880 C.ar  1 <1>   0.1600 
 22 C       -4.7500    -3.5940     2.6020 C.ar  1 <1>   0.1600 
 23 C        3.6280     2.1680     0.3980 C.3   1 <1>   0.1200 
 24 N       -4.2480    -4.8040     2.4160 N.ar  1 <1>  -0.6200 
 25 C        4.7860     1.6150     1.2220 C.3   1 <1>  -0.2400 
 26 H       -1.8290     1.4340    -1.0580 H     1 <1>   0.3700 
 27 H       -2.5710     4.6000    -1.3050 H     1 <1>   0.0800 
 28 H       -3.1680     4.3230     0.2990 H     1 <1>   0.0800 
 29 H       -4.4870     0.4600    -2.0380 H     1 <1>   0.0800 
 30 H       -3.4790    -0.3280     0.3560 H     1 <1>   0.0800 
 31 H       -2.1200     0.3590    -3.4210 H     1 <1>   0.0800 
 32 H       -3.2500    -0.9890    -3.4590 H     1 <1>   0.0800 
 33 H       -1.8520     2.9630     1.9290 H     1 <1>   0.1500 
 34 H       -0.3160     3.8600    -1.9540 H     1 <1>   0.1500 
 35 H       -1.8820    -2.3720    -0.5500 H     1 <1>   0.0800 
 36 H       -1.2540    -0.7530    -0.3020 H     1 <1>   0.0800 
 37 H       -4.3860    -2.3490    -1.7230 H     1 <1>   0.0800 
 38 H       -5.4480    -1.3930    -0.7370 H     1 <1>   0.0800 
 39 H        0.3890     2.2450     2.6340 H     1 <1>   0.1500 
 40 H        1.8940     3.1490    -1.2540 H     1 <1>   0.1500 
 41 H       -3.5070    -4.4440    -0.8300 H     1 <1>   0.1500 
 42 H       -5.2700    -1.6630     1.8610 H     1 <1>   0.1500 
 43 H       -3.4140    -6.0330     1.0080 H     1 <1>   0.1500 
 44 H       -5.1050    -3.3640     3.5920 H     1 <1>   0.1500 
 45 H        3.4190     1.5270    -0.4410 H     1 <1>   0.0800 
 46 H        3.8430     3.1680     0.0620 H     1 <1>   0.0800 
 47 H        4.5540     0.6230     1.5660 H     1 <1>   0.0800 
 48 H        4.9760     2.2530     2.0670 H     1 <1>   0.0800 
 49 H        5.6740     1.5700     0.6190 H     1 <1>   0.0800 
@<TRIPOS>BOND
  1   1   2  2   
  2   2   3  am  
  3   2   4  1   
  4   3   5  1   
  5   3  26  1   
  6   4   6  1   
  7   4  27  1   
  8   4  28  1   
  9   5   7  1   
 10   5   8  1   
 11   5  29  1   
 12   6   9  ar  
 13   6  10  ar  
 14   7  11  1   
 15   7  12  1   
 16   7  30  1   
 17   8  13  1   
 18   8  31  1   
 19   8  32  1   
 20   9  14  ar  
 21   9  33  1   
 22  10  15  ar  
 23  10  34  1   
 24  11  13  1   
 25  11  35  1   
 26  11  36  1   
 27  12  16  1   
 28  12  37  1   
 29  12  38  1   
 30  14  17  ar  
 31  14  39  1   
 32  15  17  ar  
 33  15  40  1   
 34  16  18  ar  
 35  16  19  ar  
 36  17  20  1   
 37  18  21  ar  
 38  18  41  1   
 39  19  22  ar  
 40  19  42  1   
 41  20  23  1   
 42  21  24  ar  
 43  21  43  1   
 44  22  24  ar  
 45  22  44  1   
 46  23  25  1   
 47  23  45  1   
 48  23  46  1   
 49  25  47  1   
 50  25  48  1   
 51  25  49  1   
@<TRIPOS>SUBSTRUCTURE
  1 ****  11 GROUP 4 **** **** 0

# MOE 2024.06 (io_trps.svl 2023.06)
