@<TRIPOS>MOLECULE
NONAME
55 58 1 0 0 
SMALL
USER_CHARGES


@<TRIPOS>ATOM
  1 O       -0.3800    -0.5080    -1.1690 O.3   1 <1>  -0.0190 
  2 N        0.6880     0.2270    -1.1040 N.2   1 <1>  -0.4100 
  3 C       -0.0490    -1.6100    -0.5410 C.2   1 <1>   0.2980 
  4 C        1.5680    -0.4430    -0.4710 C.2   1 <1>   0.3350 
  5 N        1.1440    -1.6390    -0.0920 N.2   1 <1>  -0.5650 
  6 C       -1.0680    -2.7440    -0.4350 C.3   1 <1>   0.2900 
  7 C        2.9800     0.0090    -0.1480 C.3   1 <1>   0.0210 
  8 N       -2.1790    -2.4770     0.5140 N.3   1 <1>  -0.8100 
  9 C        3.3030     1.3760    -0.7490 C.3   1 <1>   0.1200 
 10 C       -3.1860    -1.5480    -0.0530 C.3   1 <1>   0.1100 
 11 C       -2.8130    -3.7300     0.9520 C.3   1 <1>   0.1100 
 12 O        4.6150     1.7040    -0.4160 O.3   1 <1>  -0.5600 
 13 C       -4.2630    -1.1730     0.9840 C.3   1 <1>   0.1430 
 14 C       -3.8600    -3.4460     2.0340 C.3   1 <1>  -0.1600 
 15 C        5.0290     2.9360    -0.9110 C.3   1 <1>   0.0400 
 16 C       -5.2650    -0.2420     0.3260 C.ar  1 <1>   0.1670 
 17 C       -4.9220    -2.4530     1.5360 C.3   1 <1>  -0.1600 
 18 C       -3.6700    -0.2840     2.1090 C.3   1 <1>  -0.1600 
 19 N       -6.1790    -0.5980    -0.5440 N.ar  1 <1>  -0.6200 
 20 C       -5.0940     1.0450     0.7360 C.ar  1 <1>  -0.1430 
 21 C       -3.9620     1.1770     1.7240 C.3   1 <1>  -0.0160 
 22 C       -6.9520     0.3920    -0.9970 C.ar  1 <1>   0.7200 
 23 C       -5.9320     1.9970     0.2130 C.ar  1 <1>   0.1600 
 24 N       -6.8660     1.6820    -0.6530 N.ar  1 <1>  -0.6200 
 25 N       -7.9340     0.0520    -1.9080 N.pl3 1 <1>  -0.8380 
 26 C       -9.0330     0.9890    -2.2690 C.3   1 <1>   0.1290 
 27 C       -7.9760    -1.2810    -2.5690 C.3   1 <1>   0.1290 
 28 H       -0.5280    -3.6120    -0.1000 H     1 <1>   0.0800 
 29 H       -1.4630    -2.9600    -1.4110 H     1 <1>   0.0800 
 30 H        3.6680    -0.7200    -0.5350 H     1 <1>   0.0800 
 31 H        3.0870     0.0540     0.9200 H     1 <1>   0.0800 
 32 H        2.6440     2.1280    -0.3480 H     1 <1>   0.0800 
 33 H        3.2140     1.3450    -1.8210 H     1 <1>   0.0800 
 34 H       -3.6630    -2.0040    -0.9040 H     1 <1>   0.0800 
 35 H       -2.7110    -0.6430    -0.3850 H     1 <1>   0.0800 
 36 H       -2.0650    -4.3900     1.3590 H     1 <1>   0.0800 
 37 H       -3.2790    -4.2190     0.1120 H     1 <1>   0.0800 
 38 H       -3.3640    -3.0520     2.9030 H     1 <1>   0.0800 
 39 H       -4.3360    -4.3670     2.3190 H     1 <1>   0.0800 
 40 H        6.0470     3.0960    -0.6020 H     1 <1>   0.0800 
 41 H        4.4010     3.7110    -0.5070 H     1 <1>   0.0800 
 42 H        4.9750     2.9240    -1.9860 H     1 <1>   0.0800 
 43 H       -5.4880    -2.9190     0.7480 H     1 <1>   0.0800 
 44 H       -5.6100    -2.2090     2.3260 H     1 <1>   0.0800 
 45 H       -2.6180    -0.4550     2.2540 H     1 <1>   0.0800 
 46 H       -4.1760    -0.4930     3.0350 H     1 <1>   0.0800 
 47 H       -3.1070     1.6170     1.2380 H     1 <1>   0.0800 
 48 H       -4.2420     1.7640     2.5800 H     1 <1>   0.0800 
 49 H       -5.8340     3.0280     0.5070 H     1 <1>   0.1500 
 50 H       -9.2640     1.6360    -1.4400 H     1 <1>   0.0800 
 51 H       -9.9210     0.4390    -2.5250 H     1 <1>   0.0800 
 52 H       -8.7300     1.5900    -3.1080 H     1 <1>   0.0800 
 53 H       -6.9830    -1.6860    -2.6670 H     1 <1>   0.0800 
 54 H       -8.4020    -1.1930    -3.5530 H     1 <1>   0.0800 
 55 H       -8.5730    -1.9550    -1.9800 H     1 <1>   0.0800 
@<TRIPOS>BOND
  1   1   2  1   
  2   1   3  1   
  3   2   4  2   
  4   3   5  2   
  5   3   6  1   
  6   4   5  1   
  7   4   7  1   
  8   6   8  1   
  9   6  28  1   
 10   6  29  1   
 11   7   9  1   
 12   7  30  1   
 13   7  31  1   
 14   8  10  1   
 15   8  11  1   
 16   9  12  1   
 17   9  32  1   
 18   9  33  1   
 19  10  13  1   
 20  10  34  1   
 21  10  35  1   
 22  11  14  1   
 23  11  36  1   
 24  11  37  1   
 25  12  15  1   
 26  13  16  1   
 27  13  17  1   
 28  13  18  1   
 29  14  17  1   
 30  14  38  1   
 31  14  39  1   
 32  15  40  1   
 33  15  41  1   
 34  15  42  1   
 35  16  19  ar  
 36  16  20  ar  
 37  17  43  1   
 38  17  44  1   
 39  18  21  1   
 40  18  45  1   
 41  18  46  1   
 42  19  22  ar  
 43  20  21  1   
 44  20  23  ar  
 45  21  47  1   
 46  21  48  1   
 47  22  24  ar  
 48  22  25  1   
 49  23  24  ar  
 50  23  49  1   
 51  25  26  1   
 52  25  27  1   
 53  26  50  1   
 54  26  51  1   
 55  26  52  1   
 56  27  53  1   
 57  27  54  1   
 58  27  55  1   
@<TRIPOS>SUBSTRUCTURE
  1 ****  10 GROUP 4 **** **** 0

# MOE 2024.06 (io_trps.svl 2023.06)
