@<TRIPOS>MOLECULE
NONAME
49 51 1 0 0 
SMALL
USER_CHARGES


@<TRIPOS>ATOM
  1 O       -1.2600     0.6520    -0.9790 O.2   1 <1>  -0.5700 
  2 C       -1.6920     1.0600     0.0820 C.2   1 <1>   0.5440 
  3 N       -2.2180     0.1490     0.9520 N.am  1 <1>  -0.7300 
  4 C       -1.6470     2.4740     0.4150 C.ar  1 <1>   0.0860 
  5 C       -2.3330    -1.3040     0.6980 C.3   1 <1>   0.2200 
  6 C       -0.7090     3.3140    -0.1850 C.ar  1 <1>  -0.1500 
  7 C       -2.5300     3.0470     1.3350 C.ar  1 <1>  -0.1500 
  8 C       -3.7560    -1.6200     0.2710 C.3   1 <1>  -0.0800 
  9 C       -2.2310    -2.0620     2.0170 C.3   1 <1>   0.1200 
 10 C       -0.6430     4.6690     0.1210 C.ar  1 <1>   0.0820 
 11 C       -2.4710     4.3920     1.6500 C.ar  1 <1>  -0.1500 
 12 C       -4.4790    -1.7640     1.6160 C.3   1 <1>   0.1200 
 13 C       -3.8200    -2.9080    -0.5710 C.3   1 <1>  -0.0160 
 14 O       -3.5030    -2.0010     2.5900 O.3   1 <1>  -0.5600 
 15 O        0.2470     5.5350    -0.4290 O.3   1 <1>  -0.3630 
 16 C       -1.5270     5.2000     1.0440 C.ar  1 <1>  -0.1500 
 17 C       -5.2400    -3.1980    -1.0320 C.ar  1 <1>  -0.1430 
 18 C        1.1480     5.1760    -1.4530 C.3   1 <1>   0.2000 
 19 C       -6.0070    -4.1990    -0.4710 C.ar  1 <1>  -0.1500 
 20 C       -5.8350    -2.4680    -2.0410 C.ar  1 <1>  -0.1500 
 21 C        2.2490     6.2330    -1.4690 C.3   1 <1>  -0.2400 
 22 C        0.3980     5.1440    -2.7880 C.3   1 <1>  -0.2400 
 23 C       -7.2960    -4.4120    -0.9290 C.ar  1 <1>   0.1600 
 24 C       -7.1330    -2.7630    -2.4260 C.ar  1 <1>   0.1600 
 25 N       -7.8790    -3.7170    -1.8920 N.ar  1 <1>  -0.6200 
 26 H       -2.5670     0.4440     1.8650 H     1 <1>   0.3700 
 27 H       -1.5900    -1.6220    -0.0150 H     1 <1>   0.0800 
 28 H       -0.0360     2.8760    -0.8970 H     1 <1>   0.1500 
 29 H       -3.2790     2.4380     1.8080 H     1 <1>   0.1500 
 30 H       -4.1730    -0.8130    -0.3060 H     1 <1>   0.0800 
 31 H       -1.5080    -1.6340     2.6880 H     1 <1>   0.0800 
 32 H       -1.9990    -3.0980     1.8440 H     1 <1>   0.0800 
 33 H       -3.1580     4.8140     2.3630 H     1 <1>   0.1500 
 34 H       -5.1870    -2.5730     1.6290 H     1 <1>   0.0800 
 35 H       -4.9810    -0.8480     1.8770 H     1 <1>   0.0800 
 36 H       -3.4450    -3.7440    -0.0070 H     1 <1>   0.0800 
 37 H       -3.1950    -2.7960    -1.4400 H     1 <1>   0.0800 
 38 H       -1.4710     6.2470     1.2800 H     1 <1>   0.1500 
 39 H        1.5830     4.2200    -1.2200 H     1 <1>   0.0800 
 40 H       -5.6160    -4.8160     0.3180 H     1 <1>   0.1500 
 41 H       -5.3030    -1.6740    -2.5320 H     1 <1>   0.1500 
 42 H        1.8330     7.2040    -1.6680 H     1 <1>   0.0800 
 43 H        2.9690     6.0020    -2.2320 H     1 <1>   0.0800 
 44 H        2.7520     6.2490    -0.5200 H     1 <1>   0.0800 
 45 H       -0.0430     6.1030    -2.9900 H     1 <1>   0.0800 
 46 H       -0.3760     4.3980    -2.7720 H     1 <1>   0.0800 
 47 H        1.0780     4.9040    -3.5840 H     1 <1>   0.0800 
 48 H       -7.8800    -5.1970    -0.4790 H     1 <1>   0.1500 
 49 H       -7.5810    -2.1830    -3.2140 H     1 <1>   0.1500 
@<TRIPOS>BOND
  1   1   2  2   
  2   2   3  am  
  3   2   4  1   
  4   3   5  1   
  5   3  26  1   
  6   4   6  ar  
  7   4   7  ar  
  8   5   8  1   
  9   5   9  1   
 10   5  27  1   
 11   6  10  ar  
 12   6  28  1   
 13   7  11  ar  
 14   7  29  1   
 15   8  12  1   
 16   8  13  1   
 17   8  30  1   
 18   9  14  1   
 19   9  31  1   
 20   9  32  1   
 21  10  15  1   
 22  10  16  ar  
 23  11  16  ar  
 24  11  33  1   
 25  12  14  1   
 26  12  34  1   
 27  12  35  1   
 28  13  17  1   
 29  13  36  1   
 30  13  37  1   
 31  15  18  1   
 32  16  38  1   
 33  17  19  ar  
 34  17  20  ar  
 35  18  21  1   
 36  18  22  1   
 37  18  39  1   
 38  19  23  ar  
 39  19  40  1   
 40  20  24  ar  
 41  20  41  1   
 42  21  42  1   
 43  21  43  1   
 44  21  44  1   
 45  22  45  1   
 46  22  46  1   
 47  22  47  1   
 48  23  25  ar  
 49  23  48  1   
 50  24  25  ar  
 51  24  49  1   
@<TRIPOS>SUBSTRUCTURE
  1 ****   2 GROUP 4 **** **** 0

# MOE 2024.06 (io_trps.svl 2023.06)
