@<TRIPOS>MOLECULE
NONAME
60 63 1 0 0 
SMALL
USER_CHARGES


@<TRIPOS>ATOM
  1 O       -0.0500    -1.2030     0.2120 O.2   1 <1>  -0.5700 
  2 C        1.0980    -1.4580     0.5250 C.2   1 <1>   0.5440 
  3 N        1.3270    -2.4020     1.5070 N.am  1 <1>  -0.6600 
  4 C        2.1850    -0.7800    -0.1570 C.ar  1 <1>   0.0860 
  5 C        0.2270    -2.9070     2.3730 C.3   1 <1>   0.1400 
  6 C        2.5940    -3.1720     1.6260 C.3   1 <1>   0.1400 
  7 C        3.2080    -0.1450     0.5460 C.ar  1 <1>  -0.1500 
  8 C        2.2400    -0.7380    -1.5490 C.ar  1 <1>  -0.1500 
  9 C       -0.0900    -4.3560     1.9960 C.3   1 <1>  -0.1600 
 10 C        2.3310    -4.6230     1.2170 C.3   1 <1>  -0.1600 
 11 C        4.2500     0.4850    -0.1110 C.ar  1 <1>  -0.1500 
 12 C        3.2800    -0.1100    -2.2110 C.ar  1 <1>  -0.1500 
 13 C        1.1740    -5.2390     2.0320 C.3   1 <1>  -0.0190 
 14 C        4.2950     0.5020    -1.4950 C.ar  1 <1>  -0.1430 
 15 C        0.8820    -6.7090     1.7050 C.2   1 <1>   0.5690 
 16 C        5.4350     1.1940    -2.2190 C.3   1 <1>  -0.0970 
 17 O        0.8880    -7.4760     2.6380 O.2   1 <1>  -0.5700 
 18 N        0.6170    -7.1700     0.4380 N.am  1 <1>  -0.6600 
 19 C        0.4480    -6.4110    -0.8310 C.3   1 <1>   0.1400 
 20 C        0.3390    -8.6100     0.1860 C.3   1 <1>   0.1400 
 21 C       -0.4840    -7.2840    -1.6670 C.3   1 <1>   0.2000 
 22 C       -0.0570    -8.7030    -1.2930 C.3   1 <1>  -0.0800 
 23 O       -1.7820    -7.0580    -1.2340 O.3   1 <1>  -0.6800 
 24 C       -1.0850    -9.8080    -1.5920 C.3   1 <1>   0.0210 
 25 C       -0.5480   -11.1660    -1.1860 C.2   1 <1>   0.1080 
 26 N        0.5010   -11.7000    -1.7320 N.2   1 <1>  -0.7070 
 27 C       -1.0930   -11.9750    -0.1940 C.2   1 <1>  -0.1500 
 28 N        0.6520   -12.8780    -1.0980 N.pl3 1 <1>   0.3000 
 29 C       -0.3010   -13.0670    -0.1600 C.2   1 <1>  -0.3320 
 30 C       -0.3960   -14.2960     0.7240 C.3   1 <1>  -0.0600 
 31 H        0.5380    -2.8540     3.4020 H     1 <1>   0.0800 
 32 H       -0.6550    -2.2990     2.2630 H     1 <1>   0.0800 
 33 H        3.3610    -2.7590     0.9950 H     1 <1>   0.0800 
 34 H        2.9390    -3.1290     2.6460 H     1 <1>   0.0800 
 35 H        3.1780    -0.1450     1.6210 H     1 <1>   0.1500 
 36 H        1.4490    -1.2040    -2.1110 H     1 <1>   0.1500 
 37 H       -0.8180    -4.7470     2.6850 H     1 <1>   0.0800 
 38 H       -0.5390    -4.3560     1.0220 H     1 <1>   0.0800 
 39 H        2.1120    -4.6310     0.1680 H     1 <1>   0.0800 
 40 H        3.2240    -5.2030     1.3700 H     1 <1>   0.0800 
 41 H        5.0260     0.9680     0.4590 H     1 <1>   0.1500 
 42 H        3.2930    -0.0960    -3.2870 H     1 <1>   0.1500 
 43 H        1.5060    -5.2360     3.0570 H     1 <1>   0.0800 
 44 H        6.3340     1.1550    -1.6300 H     1 <1>   0.0800 
 45 H        5.1810     2.2230    -2.3970 H     1 <1>   0.0800 
 46 H        5.6280     0.7150    -3.1620 H     1 <1>   0.0800 
 47 H        0.0390    -5.4290    -0.6890 H     1 <1>   0.0800 
 48 H        1.4030    -6.3350    -1.3200 H     1 <1>   0.0800 
 49 H        1.2100    -9.2090     0.3940 H     1 <1>   0.0800 
 50 H       -0.4680    -8.9310     0.8230 H     1 <1>   0.0800 
 51 H       -0.4290    -7.0810    -2.7230 H     1 <1>   0.0800 
 52 H        0.8390    -8.9300    -1.8450 H     1 <1>   0.0800 
 53 H       -1.7910    -7.1020    -0.2560 H     1 <1>   0.4000 
 54 H       -1.3000    -9.8240    -2.6450 H     1 <1>   0.0800 
 55 H       -2.0050    -9.6240    -1.0680 H     1 <1>   0.0800 
 56 H       -1.9600   -11.7520     0.4020 H     1 <1>   0.1500 
 57 H        1.4130   -13.5280    -1.3270 H     1 <1>   0.2700 
 58 H       -1.2380   -14.2090     1.3880 H     1 <1>   0.0800 
 59 H        0.4960   -14.3990     1.3150 H     1 <1>   0.0800 
 60 H       -0.5240   -15.1780     0.1220 H     1 <1>   0.0800 
@<TRIPOS>BOND
  1   1   2  2   
  2   2   3  am  
  3   2   4  1   
  4   3   5  1   
  5   3   6  1   
  6   4   7  ar  
  7   4   8  ar  
  8   5   9  1   
  9   5  31  1   
 10   5  32  1   
 11   6  10  1   
 12   6  33  1   
 13   6  34  1   
 14   7  11  ar  
 15   7  35  1   
 16   8  12  ar  
 17   8  36  1   
 18   9  13  1   
 19   9  37  1   
 20   9  38  1   
 21  10  13  1   
 22  10  39  1   
 23  10  40  1   
 24  11  14  ar  
 25  11  41  1   
 26  12  14  ar  
 27  12  42  1   
 28  13  15  1   
 29  13  43  1   
 30  14  16  1   
 31  15  17  2   
 32  15  18  am  
 33  16  44  1   
 34  16  45  1   
 35  16  46  1   
 36  18  19  1   
 37  18  20  1   
 38  19  21  1   
 39  19  47  1   
 40  19  48  1   
 41  20  22  1   
 42  20  49  1   
 43  20  50  1   
 44  21  22  1   
 45  21  23  1   
 46  21  51  1   
 47  22  24  1   
 48  22  52  1   
 49  23  53  1   
 50  24  25  1   
 51  24  54  1   
 52  24  55  1   
 53  25  26  2   
 54  25  27  1   
 55  26  28  1   
 56  27  29  2   
 57  27  56  1   
 58  28  29  1   
 59  28  57  1   
 60  29  30  1   
 61  30  58  1   
 62  30  59  1   
 63  30  60  1   
@<TRIPOS>SUBSTRUCTURE
  1 ****  19 GROUP 4 **** **** 0

# MOE 2024.06 (io_trps.svl 2023.06)
