@<TRIPOS>MOLECULE
NONAME
66 69 1 0 0 
SMALL
USER_CHARGES


@<TRIPOS>ATOM
  1 O       -1.9770     0.4810    -1.3300 O.2   1 <1>  -0.5700 
  2 C       -1.6840     0.6710    -0.1640 C.2   1 <1>   0.7160 
  3 N       -1.4170    -0.4040     0.6340 N.am  1 <1>  -0.7300 
  4 C       -1.6270     1.9760     0.3950 C.2   1 <1>  -0.0860 
  5 C       -1.6360    -1.8180     0.2600 C.3   1 <1>   0.1400 
  6 C       -2.7270     2.7870     0.6860 C.2   1 <1>   0.3720 
  7 C       -0.5660     2.6940     0.8440 C.2   1 <1>   0.0870 
  8 C       -3.0050    -2.3050     0.7740 C.3   1 <1>  -0.0800 
  9 N       -2.3510     3.8710     1.2700 N.2   1 <1>  -0.4100 
 10 N       -4.0610     2.4510     0.3990 N.pl3 1 <1>  -0.8210 
 11 O       -1.0480     3.8000     1.3520 O.3   1 <1>  -0.0190 
 12 C        0.8490     2.4260     0.8510 C.ar  1 <1>   0.0530 
 13 C       -3.2360    -3.7660     0.3540 C.3   1 <1>  -0.1600 
 14 C       -4.1690    -1.4290     0.2650 C.3   1 <1>  -0.1600 
 15 C       -5.1210     3.2480     1.0790 C.3   1 <1>   0.2090 
 16 C       -4.3740     2.3980    -1.0580 C.3   1 <1>   0.2090 
 17 C        1.6720     2.9430     1.8520 C.ar  1 <1>  -0.1500 
 18 C        1.4510     1.6410    -0.1340 C.ar  1 <1>  -0.1500 
 19 C       -4.6250    -4.2690     0.7540 C.3   1 <1>   0.3430 
 20 C       -5.5340    -1.9850     0.6590 C.3   1 <1>   0.3430 
 21 C       -6.3020     3.2350     0.1220 C.3   1 <1>  -0.1600 
 22 C       -5.6500     3.2080    -1.2530 C.3   1 <1>  -0.1600 
 23 C        3.0280     2.6770     1.8760 C.ar  1 <1>  -0.1500 
 24 C        2.8070     1.3700    -0.1150 C.ar  1 <1>  -0.1500 
 25 N       -5.6700    -3.3830     0.1630 N.4   1 <1>  -0.9590 
 26 C        3.6080     1.8880     0.8970 C.ar  1 <1>   0.0830 
 27 C       -7.0480    -3.8890     0.4090 C.3   1 <1>   0.3430 
 28 O        4.9410     1.6720     0.9920 O.3   1 <1>  -0.3630 
 29 C       -7.3250    -5.1310    -0.4410 C.3   1 <1>  -0.1600 
 30 C        5.6380     0.9110     0.0310 C.3   1 <1>   0.0400 
 31 C       -8.7790    -5.5890    -0.2830 C.3   1 <1>  -0.2400 
 32 H       -1.1470    -0.2200     1.6020 H     1 <1>   0.3700 
 33 H       -0.8450    -2.4170     0.6790 H     1 <1>   0.0800 
 34 H       -1.5910    -1.9150    -0.8130 H     1 <1>   0.0800 
 35 H       -2.9880    -2.2630     1.8510 H     1 <1>   0.0800 
 36 H       -2.4960    -4.3940     0.8190 H     1 <1>   0.0800 
 37 H       -3.1210    -3.8690    -0.7110 H     1 <1>   0.0800 
 38 H       -4.1190    -1.3290    -0.8060 H     1 <1>   0.0800 
 39 H       -4.0910    -0.4400     0.6800 H     1 <1>   0.0800 
 40 H       -4.7980     4.2640     1.2290 H     1 <1>   0.0800 
 41 H       -5.3750     2.8110     2.0300 H     1 <1>   0.0800 
 42 H       -4.5360     1.3730    -1.3420 H     1 <1>   0.0800 
 43 H       -3.5690     2.8020    -1.6500 H     1 <1>   0.0800 
 44 H        1.2430     3.5590     2.6230 H     1 <1>   0.1500 
 45 H        0.8540     1.2400    -0.9340 H     1 <1>   0.1500 
 46 H       -4.7130    -4.2710     1.8290 H     1 <1>   0.0800 
 47 H       -4.7490    -5.2800     0.4030 H     1 <1>   0.0800 
 48 H       -6.3070    -1.3630     0.2350 H     1 <1>   0.0800 
 49 H       -5.6340    -1.9650     1.7330 H     1 <1>   0.0800 
 50 H       -6.9360     4.0920     0.2590 H     1 <1>   0.0800 
 51 H       -6.8750     2.3390     0.2800 H     1 <1>   0.0800 
 52 H       -6.2870     2.7780    -2.0050 H     1 <1>   0.0800 
 53 H       -5.3820     4.2070    -1.5490 H     1 <1>   0.0800 
 54 H        3.6490     3.0810     2.6550 H     1 <1>   0.1500 
 55 H        3.2220     0.7600    -0.8940 H     1 <1>   0.1500 
 56 H       -5.5180    -3.3570    -0.8540 H     1 <1>   0.4500 
 57 H       -7.7640    -3.1270     0.1430 H     1 <1>   0.0800 
 58 H       -7.1800    -4.1200     1.4540 H     1 <1>   0.0800 
 59 H       -6.6820    -5.9410    -0.1440 H     1 <1>   0.0800 
 60 H       -7.1470    -4.9100    -1.4790 H     1 <1>   0.0800 
 61 H        6.6750     0.8890     0.3120 H     1 <1>   0.0800 
 62 H        5.5280     1.3790    -0.9310 H     1 <1>   0.0800 
 63 H        5.2400    -0.0890     0.0230 H     1 <1>   0.0800 
 64 H       -8.9930    -5.8450     0.7410 H     1 <1>   0.0800 
 65 H       -8.9580    -6.4610    -0.8900 H     1 <1>   0.0800 
 66 H       -9.4610    -4.8180    -0.5970 H     1 <1>   0.0800 
@<TRIPOS>BOND
  1   1   2  2   
  2   2   3  am  
  3   2   4  1   
  4   3   5  1   
  5   3  32  1   
  6   4   6  1   
  7   4   7  2   
  8   5   8  1   
  9   5  33  1   
 10   5  34  1   
 11   6   9  2   
 12   6  10  1   
 13   7  11  1   
 14   7  12  1   
 15   8  13  1   
 16   8  14  1   
 17   8  35  1   
 18   9  11  1   
 19  10  15  1   
 20  10  16  1   
 21  12  17  ar  
 22  12  18  ar  
 23  13  19  1   
 24  13  36  1   
 25  13  37  1   
 26  14  20  1   
 27  14  38  1   
 28  14  39  1   
 29  15  21  1   
 30  15  40  1   
 31  15  41  1   
 32  16  22  1   
 33  16  42  1   
 34  16  43  1   
 35  17  23  ar  
 36  17  44  1   
 37  18  24  ar  
 38  18  45  1   
 39  19  25  1   
 40  19  46  1   
 41  19  47  1   
 42  20  25  1   
 43  20  48  1   
 44  20  49  1   
 45  21  22  1   
 46  21  50  1   
 47  21  51  1   
 48  22  52  1   
 49  22  53  1   
 50  23  26  ar  
 51  23  54  1   
 52  24  26  ar  
 53  24  55  1   
 54  25  27  1   
 55  25  56  1   
 56  26  28  1   
 57  27  29  1   
 58  27  57  1   
 59  27  58  1   
 60  28  30  1   
 61  29  31  1   
 62  29  59  1   
 63  29  60  1   
 64  30  61  1   
 65  30  62  1   
 66  30  63  1   
 67  31  64  1   
 68  31  65  1   
 69  31  66  1   
@<TRIPOS>SUBSTRUCTURE
  1 ****   2 GROUP 4 **** **** 0

# MOE 2024.06 (io_trps.svl 2023.06)
