@<TRIPOS>MOLECULE
NONAME
36 38 1 0 0 
SMALL
USER_CHARGES


@<TRIPOS>ATOM
  1 O        0.1080    -0.0360    -1.0510 O.2   1 <1>  -0.5760 
  2 C        1.0770    -0.6690    -0.6970 C.2   1 <1>   0.8230 
  3 N        2.1920     0.0190    -0.3030 N.pl3 1 <1>  -0.7350 
  4 C        1.0700    -2.1100    -0.6530 C.ar  1 <1>   0.0750 
  5 C        2.3770     1.3400    -0.2920 C.cat 1 <1>   1.0680 
  6 C        2.1530    -2.8410    -1.1310 C.ar  1 <1>   0.1500 
  7 C        0.0110    -2.8300    -0.1190 C.ar  1 <1>  -0.1600 
  8 N        1.5100     2.2510    -0.6900 N.pl3 1 <1>  -0.7050 
  9 N        3.4910     1.9400     0.1320 N.pl3 1 <1>  -0.7690 
 10 N        2.2810    -4.1490    -1.0780 N.ar  1 <1>  -0.6260 
 11 C        0.1110    -4.2030    -0.0650 C.ar  1 <1>  -0.1540 
 12 C        2.0650     3.4960    -0.5220 C.2   1 <1>   0.1900 
 13 C        3.2950     3.3050    -0.0120 C.2   1 <1>   0.1900 
 14 C        4.7560     1.3670     0.6700 C.3   1 <1>   0.2650 
 15 C        1.2650    -4.8150    -0.5490 C.ar  1 <1>   0.1560 
 16 C       -1.0420    -5.0000     0.5350 C.3   1 <1>  -0.0280 
 17 C        1.4280    -6.3300    -0.5200 C.3   1 <1>  -0.0280 
 18 C       -0.9910    -6.4830     0.1580 C.3   1 <1>  -0.1700 
 19 C        0.4150    -7.0400     0.3870 C.3   1 <1>  -0.1700 
 20 H        2.9340    -0.5320     0.1030 H     1 <1>   0.4420 
 21 H        2.9730    -2.3160    -1.5900 H     1 <1>   0.1400 
 22 H       -0.8680    -2.3260     0.2480 H     1 <1>   0.1400 
 23 H        0.5820     1.9840    -1.0430 H     1 <1>   0.4420 
 24 H        1.5520     4.4120    -0.7730 H     1 <1>   0.1400 
 25 H        4.0370     4.0420     0.2570 H     1 <1>   0.1400 
 26 H        4.7620     0.2940     0.5890 H     1 <1>   0.0690 
 27 H        4.8670     1.6380     1.7070 H     1 <1>   0.0690 
 28 H        5.5950     1.7570     0.1190 H     1 <1>   0.0690 
 29 H       -1.9820    -4.5880     0.2090 H     1 <1>   0.0690 
 30 H       -0.9960    -4.9100     1.6070 H     1 <1>   0.0690 
 31 H        2.4240    -6.5750    -0.1950 H     1 <1>   0.0690 
 32 H        1.3150    -6.6920    -1.5260 H     1 <1>   0.0690 
 33 H       -1.2590    -6.6010    -0.8780 H     1 <1>   0.0690 
 34 H       -1.7030    -7.0300     0.7510 H     1 <1>   0.0690 
 35 H        0.6940    -6.8960     1.4170 H     1 <1>   0.0690 
 36 H        0.4310    -8.0970     0.1830 H     1 <1>   0.0690 
@<TRIPOS>BOND
  1   1   2  2   
  2   2   3  1   
  3   2   4  1   
  4   3   5  ar  
  5   3  20  1   
  6   4   6  ar  
  7   4   7  ar  
  8   5   8  ar  
  9   5   9  ar  
 10   6  10  ar  
 11   6  21  1   
 12   7  11  ar  
 13   7  22  1   
 14   8  12  1   
 15   8  23  1   
 16   9  13  1   
 17   9  14  1   
 18  10  15  ar  
 19  11  15  ar  
 20  11  16  1   
 21  12  13  2   
 22  12  24  1   
 23  13  25  1   
 24  14  26  1   
 25  14  27  1   
 26  14  28  1   
 27  15  17  1   
 28  16  18  1   
 29  16  29  1   
 30  16  30  1   
 31  17  19  1   
 32  17  31  1   
 33  17  32  1   
 34  18  19  1   
 35  18  33  1   
 36  18  34  1   
 37  19  35  1   
 38  19  36  1   
@<TRIPOS>SUBSTRUCTURE
  1 ****   4 GROUP 4 **** **** 0

# MOE 2024.06 (io_trps.svl 2023.06)
