@<TRIPOS>MOLECULE
NONAME
57 60 1 0 0 
SMALL
USER_CHARGES


@<TRIPOS>ATOM
  1 CL      -3.5170    -3.5750     0.7220 Cl    1 <1>  -0.1770 
  2 C       -3.8830    -1.8710     0.6660 C.ar  1 <1>   0.1770 
  3 C       -3.3580    -1.0960    -0.3510 C.ar  1 <1>  -0.1500 
  4 C       -4.6920    -1.3170     1.6400 C.ar  1 <1>  -0.1500 
  5 C       -3.6630     0.2530    -0.3960 C.ar  1 <1>  -0.1500 
  6 C       -4.9900     0.0340     1.5850 C.ar  1 <1>  -0.1500 
  7 C       -4.4990     0.8380     0.5550 C.ar  1 <1>   0.0540 
  8 C       -4.8460     2.2380     0.4580 C.2   1 <1>   0.2350 
  9 N       -3.9670     3.2010     0.4200 N.2   1 <1>  -0.7070 
 10 C       -6.1440     2.7530     0.3630 C.2   1 <1>  -0.1810 
 11 N       -4.6730     4.3390     0.3390 N.pl3 1 <1>   0.3000 
 12 C       -5.9980     4.0940     0.2960 C.2   1 <1>  -0.3020 
 13 C       -7.4140     1.9330     0.3280 C.3   1 <1>   0.5240 
 14 N       -7.8220     1.7690    -1.0970 N.4   1 <1>  -0.9590 
 15 C       -9.2260     1.3280    -1.3320 C.3   1 <1>   0.4230 
 16 C       -6.8590     0.8820    -1.8270 C.3   1 <1>   0.2630 
 17 C      -10.2700     2.3440    -0.8720 C.3   1 <1>  -0.1600 
 18 C       -9.6230     0.0350    -0.6180 C.3   1 <1>  -0.1600 
 19 C      -11.5710     1.5300    -0.7860 C.3   1 <1>  -0.0800 
 20 C      -11.1600     0.0630    -0.6230 C.3   1 <1>  -0.0800 
 21 C      -12.4830     1.8470     0.4110 C.3   1 <1>  -0.1600 
 22 C      -11.8460    -0.4250     0.6640 C.3   1 <1>  -0.1600 
 23 C      -13.0550     0.4990     0.8690 C.3   1 <1>   0.4230 
 24 N      -14.2090     0.0790     0.0090 N.4   1 <1>  -0.9590 
 25 C      -15.3670     1.0290     0.0960 C.3   1 <1>   0.2630 
 26 C      -14.7150    -1.2920     0.3500 C.3   1 <1>   0.2630 
 27 H       -2.7140    -1.5450    -1.0860 H     1 <1>   0.1500 
 28 H       -5.0680    -1.9400     2.4320 H     1 <1>   0.1500 
 29 H       -3.2420     0.8720    -1.1720 H     1 <1>   0.1500 
 30 H       -5.5950     0.4720     2.3590 H     1 <1>   0.1500 
 31 H       -4.2190     5.2630     0.3150 H     1 <1>   0.2700 
 32 H       -6.7260     4.8840     0.2220 H     1 <1>   0.1500 
 33 H       -8.1750     2.4560     0.8800 H     1 <1>   0.0800 
 34 H       -7.2540     0.9720     0.7880 H     1 <1>   0.0800 
 35 H       -7.7220     2.7090    -1.5050 H     1 <1>   0.4500 
 36 H       -9.3710     1.1770    -2.3910 H     1 <1>   0.0800 
 37 H       -6.8410    -0.1020    -1.3870 H     1 <1>   0.0800 
 38 H       -5.8630     1.2940    -1.7840 H     1 <1>   0.0800 
 39 H       -7.1410     0.7920    -2.8640 H     1 <1>   0.0800 
 40 H      -10.0210     2.7430     0.0930 H     1 <1>   0.0800 
 41 H      -10.3690     3.1510    -1.5770 H     1 <1>   0.0800 
 42 H       -9.2540    -0.8330    -1.1370 H     1 <1>   0.0800 
 43 H       -9.2600     0.0260     0.3930 H     1 <1>   0.0800 
 44 H      -12.1250     1.6350    -1.7060 H     1 <1>   0.0800 
 45 H      -11.5290    -0.4960    -1.4680 H     1 <1>   0.0800 
 46 H      -13.2210     2.5910     0.1760 H     1 <1>   0.0800 
 47 H      -11.8930     2.2330     1.2240 H     1 <1>   0.0800 
 48 H      -11.1890    -0.2750     1.5040 H     1 <1>   0.0800 
 49 H      -12.0810    -1.4720     0.6310 H     1 <1>   0.0800 
 50 H      -13.3550     0.5300     1.9050 H     1 <1>   0.0800 
 51 H      -13.8750     0.0670    -0.9640 H     1 <1>   0.4500 
 52 H      -15.6980     1.1260     1.1170 H     1 <1>   0.0800 
 53 H      -16.1910     0.6680    -0.4980 H     1 <1>   0.0800 
 54 H      -15.0940     2.0040    -0.2730 H     1 <1>   0.0800 
 55 H      -15.0050    -1.3380     1.3880 H     1 <1>   0.0800 
 56 H      -13.9590    -2.0370     0.1690 H     1 <1>   0.0800 
 57 H      -15.5730    -1.5340    -0.2560 H     1 <1>   0.0800 
@<TRIPOS>BOND
  1   1   2  1   
  2   2   3  ar  
  3   2   4  ar  
  4   3   5  ar  
  5   3  27  1   
  6   4   6  ar  
  7   4  28  1   
  8   5   7  ar  
  9   5  29  1   
 10   6   7  ar  
 11   6  30  1   
 12   7   8  1   
 13   8   9  2   
 14   8  10  1   
 15   9  11  1   
 16  10  12  2   
 17  10  13  1   
 18  11  12  1   
 19  11  31  1   
 20  12  32  1   
 21  13  14  1   
 22  13  33  1   
 23  13  34  1   
 24  14  15  1   
 25  14  16  1   
 26  14  35  1   
 27  15  17  1   
 28  15  18  1   
 29  15  36  1   
 30  16  37  1   
 31  16  38  1   
 32  16  39  1   
 33  17  19  1   
 34  17  40  1   
 35  17  41  1   
 36  18  20  1   
 37  18  42  1   
 38  18  43  1   
 39  19  20  1   
 40  19  21  1   
 41  19  44  1   
 42  20  22  1   
 43  20  45  1   
 44  21  23  1   
 45  21  46  1   
 46  21  47  1   
 47  22  23  1   
 48  22  48  1   
 49  22  49  1   
 50  23  24  1   
 51  23  50  1   
 52  24  25  1   
 53  24  26  1   
 54  24  51  1   
 55  25  52  1   
 56  25  53  1   
 57  25  54  1   
 58  26  55  1   
 59  26  56  1   
 60  26  57  1   
@<TRIPOS>SUBSTRUCTURE
  1 ****  13 GROUP 4 **** **** 0

# MOE 2024.06 (io_trps.svl 2023.06)
