@<TRIPOS>MOLECULE
NONAME
49 51 1 0 0 
SMALL
USER_CHARGES


@<TRIPOS>ATOM
  1 O        4.6840    -1.7840    -1.2710 O.2   1 <1>  -0.5700 
  2 C        3.6120    -1.6920    -0.6970 C.2   1 <1>   0.6160 
  3 N        3.3260    -0.4490    -0.2030 N.am  1 <1>  -0.6600 
  4 C        2.7070    -2.8090    -0.6200 C.2   1 <1>   0.0290 
  5 C        3.9420    -0.0550     1.1150 C.3   1 <1>   0.2200 
  6 C        2.8810     0.6050    -1.1570 C.3   1 <1>   0.1400 
  7 C        1.8450    -2.9640     0.5150 C.2   1 <1>   0.6160 
  8 C        2.6400    -3.7560    -1.6130 C.2   1 <1>  -0.1500 
  9 C        3.1250     1.0170     1.8520 C.3   1 <1>   0.1200 
 10 C        5.4140     0.3950     0.9470 C.3   1 <1>   0.3430 
 11 C        3.5510     1.9770    -0.9580 C.3   1 <1>  -0.0800 
 12 O        1.8480    -2.2410     1.5020 O.2   1 <1>  -0.5700 
 13 N        0.9660    -4.0120     0.5300 N.am  1 <1>  -0.5390 
 14 C        1.7270    -4.8280    -1.5360 C.2   1 <1>  -0.1500 
 15 O        3.5130     2.2960     1.4410 O.3   1 <1>  -0.5600 
 16 N        5.7550     0.7340    -0.4770 N.4   1 <1>  -0.9590 
 17 C        2.9660     2.7370     0.2440 C.3   1 <1>   0.1200 
 18 C        5.0960     1.9850    -0.9740 C.3   1 <1>   0.3430 
 19 C        0.8890    -4.9510    -0.4660 C.2   1 <1>  -0.0290 
 20 C        7.2270     0.7510    -0.6970 C.3   1 <1>   0.2630 
 21 C       -0.1460    -6.0620    -0.2720 C.3   1 <1>   0.0580 
 22 C        0.0860    -7.2810    -1.1750 C.3   1 <1>  -0.2400 
 23 C       -1.5580    -5.5100    -0.5020 C.3   1 <1>  -0.2400 
 24 H        3.9430    -0.9230     1.7520 H     1 <1>   0.0800 
 25 H        3.0780     0.2670    -2.1620 H     1 <1>   0.0800 
 26 H        1.8130     0.7140    -1.0660 H     1 <1>   0.0800 
 27 H        3.2830    -3.6970    -2.4760 H     1 <1>   0.1500 
 28 H        3.3340     0.9570     2.9050 H     1 <1>   0.0800 
 29 H        2.0660     0.8780     1.7120 H     1 <1>   0.0800 
 30 H        6.0410    -0.4180     1.2710 H     1 <1>   0.0800 
 31 H        5.6140     1.2350     1.5910 H     1 <1>   0.0800 
 32 H        3.2510     2.5640    -1.8080 H     1 <1>   0.0800 
 33 H        0.3710    -4.0590     1.3590 H     1 <1>   0.3700 
 34 H        1.7180    -5.5320    -2.3500 H     1 <1>   0.1500 
 35 H        5.3530    -0.0670    -1.0140 H     1 <1>   0.4500 
 36 H        1.8930     2.6440     0.2940 H     1 <1>   0.0800 
 37 H        3.2040     3.7840     0.1640 H     1 <1>   0.0800 
 38 H        5.4430     2.8260    -0.3960 H     1 <1>   0.0800 
 39 H        5.4110     2.1430    -1.9930 H     1 <1>   0.0800 
 40 H        7.6830     1.5410    -0.1230 H     1 <1>   0.0800 
 41 H        7.4450     0.9090    -1.7410 H     1 <1>   0.0800 
 42 H        7.6570    -0.1910    -0.3980 H     1 <1>   0.0800 
 43 H       -0.0770    -6.4040     0.7470 H     1 <1>   0.0800 
 44 H       -0.0540    -7.0250    -2.2100 H     1 <1>   0.0800 
 45 H       -0.6080    -8.0630    -0.9240 H     1 <1>   0.0800 
 46 H        1.0830    -7.6600    -1.0380 H     1 <1>   0.0800 
 47 H       -1.6570    -5.1490    -1.5100 H     1 <1>   0.0800 
 48 H       -1.7600    -4.6970     0.1720 H     1 <1>   0.0800 
 49 H       -2.2930    -6.2770    -0.3360 H     1 <1>   0.0800 
@<TRIPOS>BOND
  1   1   2  2   
  2   2   3  am  
  3   2   4  1   
  4   3   5  1   
  5   3   6  1   
  6   4   7  1   
  7   4   8  2   
  8   5   9  1   
  9   5  10  1   
 10   5  24  1   
 11   6  11  1   
 12   6  25  1   
 13   6  26  1   
 14   7  12  2   
 15   7  13  am  
 16   8  14  1   
 17   8  27  1   
 18   9  15  1   
 19   9  28  1   
 20   9  29  1   
 21  10  16  1   
 22  10  30  1   
 23  10  31  1   
 24  11  17  1   
 25  11  18  1   
 26  11  32  1   
 27  13  19  1   
 28  13  33  1   
 29  14  19  2   
 30  14  34  1   
 31  15  17  1   
 32  16  18  1   
 33  16  20  1   
 34  16  35  1   
 35  17  36  1   
 36  17  37  1   
 37  18  38  1   
 38  18  39  1   
 39  19  21  1   
 40  20  40  1   
 41  20  41  1   
 42  20  42  1   
 43  21  22  1   
 44  21  23  1   
 45  21  43  1   
 46  22  44  1   
 47  22  45  1   
 48  22  46  1   
 49  23  47  1   
 50  23  48  1   
 51  23  49  1   
@<TRIPOS>SUBSTRUCTURE
  1 ****   2 GROUP 4 **** **** 0

# MOE 2024.06 (io_trps.svl 2023.06)
