@<TRIPOS>MOLECULE
NONAME
52 55 1 0 0 
SMALL
USER_CHARGES


@<TRIPOS>ATOM
  1 O       -5.3000     2.8690    -1.1150 O.2   1 <1>  -0.5700 
  2 C       -4.1070     2.9510    -0.9500 C.2   1 <1>   0.5690 
  3 N       -3.2510     2.0450    -1.4820 N.am  1 <1>  -0.7300 
  4 C       -3.5480     4.0980    -0.1090 C.3   1 <1>   0.1810 
  5 C       -3.6050     0.8880    -2.3330 C.3   1 <1>   0.2200 
  6 O       -2.1410     4.0560    -0.0310 O.3   1 <1>  -0.5600 
  7 C       -3.3390    -0.4260    -1.6110 C.3   1 <1>  -0.0800 
  8 C       -2.5950     0.7910    -3.4680 C.3   1 <1>   0.1200 
  9 C       -1.5960     5.0450     0.7980 C.3   1 <1>   0.3000 
 10 C       -1.8460    -0.6660    -1.8660 C.3   1 <1>   0.1200 
 11 C       -3.7420    -0.4710    -0.1250 C.3   1 <1>  -0.0160 
 12 O       -1.4670     0.1980    -2.8990 O.3   1 <1>  -0.5600 
 13 C       -0.0950     4.8500     0.8980 C.2   1 <1>   0.0060 
 14 C       -3.5120    -1.8570     0.4570 C.ar  1 <1>  -0.1440 
 15 N        0.6320     5.2820     1.8710 N.2   1 <1>  -0.5650 
 16 N        0.6060     4.1890    -0.0580 N.pl3 1 <1>   0.0330 
 17 C       -2.3970    -2.1610     1.2110 C.ar  1 <1>  -0.1500 
 18 C       -4.4110    -2.8850     0.2570 C.ar  1 <1>  -0.1500 
 19 C        1.8960     4.8850     1.5480 C.ar  1 <1>   0.2270 
 20 C        1.8980     4.2000     0.3480 C.ar  1 <1>  -0.1520 
 21 C       -2.2370    -3.4430     1.7100 C.ar  1 <1>   0.1600 
 22 C       -4.1560    -4.1330     0.8010 C.ar  1 <1>   0.1600 
 23 C        3.0920     5.0760     2.2370 C.ar  1 <1>  -0.1500 
 24 C        3.0780     3.6880    -0.1950 C.ar  1 <1>  -0.1500 
 25 N       -3.0890    -4.4380     1.5210 N.ar  1 <1>  -0.6200 
 26 C        4.2610     4.5740     1.7080 C.ar  1 <1>  -0.1500 
 27 C        4.2590     3.8780     0.4900 C.ar  1 <1>  -0.1440 
 28 C        5.5720     3.3440    -0.0530 C.3   1 <1>  -0.0970 
 29 H       -2.2500     2.1600    -1.2990 H     1 <1>   0.3700 
 30 H       -3.9540     4.0250     0.8840 H     1 <1>   0.0800 
 31 H       -3.8420     5.0330    -0.5520 H     1 <1>   0.0800 
 32 H       -4.6180     0.9730    -2.6900 H     1 <1>   0.0800 
 33 H       -3.8800    -1.1980    -2.1290 H     1 <1>   0.0800 
 34 H       -2.3350     1.7510    -3.8800 H     1 <1>   0.0800 
 35 H       -2.9540     0.1410    -4.2460 H     1 <1>   0.0800 
 36 H       -1.8130     6.0110     0.3770 H     1 <1>   0.0800 
 37 H       -2.0340     4.9660     1.7780 H     1 <1>   0.0800 
 38 H       -1.6520    -1.6810    -2.1690 H     1 <1>   0.0800 
 39 H       -1.2490    -0.4230    -1.0040 H     1 <1>   0.0800 
 40 H       -4.7830    -0.2120    -0.0310 H     1 <1>   0.0800 
 41 H       -3.1780     0.2500     0.4410 H     1 <1>   0.0800 
 42 H        0.2150     3.7510    -0.8950 H     1 <1>   0.2700 
 43 H       -1.6510    -1.4150     1.4180 H     1 <1>   0.1500 
 44 H       -5.3070    -2.7280    -0.3140 H     1 <1>   0.1500 
 45 H       -1.3610    -3.6630     2.2960 H     1 <1>   0.1500 
 46 H       -4.8690    -4.9230     0.6350 H     1 <1>   0.1500 
 47 H        3.0710     5.6110     3.1670 H     1 <1>   0.1500 
 48 H        3.0490     3.1580    -1.1310 H     1 <1>   0.1500 
 49 H        5.1900     4.7160     2.2320 H     1 <1>   0.1500 
 50 H        6.0020     2.6510     0.6480 H     1 <1>   0.0800 
 51 H        6.2600     4.1550    -0.2090 H     1 <1>   0.0800 
 52 H        5.4220     2.8360    -0.9890 H     1 <1>   0.0800 
@<TRIPOS>BOND
  1   1   2  2   
  2   2   3  am  
  3   2   4  1   
  4   3   5  1   
  5   3  29  1   
  6   4   6  1   
  7   4  30  1   
  8   4  31  1   
  9   5   7  1   
 10   5   8  1   
 11   5  32  1   
 12   6   9  1   
 13   7  10  1   
 14   7  11  1   
 15   7  33  1   
 16   8  12  1   
 17   8  34  1   
 18   8  35  1   
 19   9  13  1   
 20   9  36  1   
 21   9  37  1   
 22  10  12  1   
 23  10  38  1   
 24  10  39  1   
 25  11  14  1   
 26  11  40  1   
 27  11  41  1   
 28  13  15  2   
 29  13  16  1   
 30  14  17  ar  
 31  14  18  ar  
 32  15  19  1   
 33  16  20  1   
 34  16  42  1   
 35  17  21  ar  
 36  17  43  1   
 37  18  22  ar  
 38  18  44  1   
 39  19  20  ar  
 40  19  23  ar  
 41  20  24  ar  
 42  21  25  ar  
 43  21  45  1   
 44  22  25  ar  
 45  22  46  1   
 46  23  26  ar  
 47  23  47  1   
 48  24  27  ar  
 49  24  48  1   
 50  26  27  ar  
 51  26  49  1   
 52  27  28  1   
 53  28  50  1   
 54  28  51  1   
 55  28  52  1   
@<TRIPOS>SUBSTRUCTURE
  1 ****   6 GROUP 4 **** **** 0

# MOE 2024.06 (io_trps.svl 2023.06)
