@<TRIPOS>MOLECULE
NONAME
41 42 1 0 0 
SMALL
USER_CHARGES


@<TRIPOS>ATOM
  1 S        0.4560    -0.0210     0.0520 S.o2  1 <1>   1.3330 
  2 O        0.1220    -0.8920    -1.0530 O.2   1 <1>  -0.6500 
  3 O        0.8280    -0.5990     1.3250 O.2   1 <1>  -0.6500 
  4 N       -0.8520     1.0260     0.3220 N.am  1 <1>  -0.8490 
  5 C        1.7540     1.0830    -0.4960 C.3   1 <1>  -0.0550 
  6 C       -0.7930     1.7130     1.6160 C.3   1 <1>   0.1160 
  7 C       -2.1430     0.3470     0.1740 C.3   1 <1>   0.1160 
  8 C        3.0450     0.3460    -0.9050 C.3   1 <1>  -0.0800 
  9 C        4.1370     1.2360    -1.4810 C.3   1 <1>   0.2200 
 10 C        3.7590    -0.3730     0.2480 C.3   1 <1>   0.1200 
 11 N        4.2350     2.5030    -0.7210 N.am  1 <1>  -0.7300 
 12 C        5.3690     0.3920    -1.1920 C.3   1 <1>   0.1200 
 13 O        5.1310    -0.1820     0.0570 O.3   1 <1>  -0.5600 
 14 C        3.7580     3.7270    -1.1040 C.2   1 <1>   0.5440 
 15 O        3.1910     3.7970    -2.1800 O.2   1 <1>  -0.5700 
 16 C        3.9060     4.8940    -0.2310 C.ar  1 <1>   0.3960 
 17 N        4.3770     4.7080     1.0180 N.ar  1 <1>  -0.6200 
 18 C        3.5570     6.1620    -0.7030 C.ar  1 <1>  -0.1500 
 19 C        4.4840     5.7900     1.7550 C.ar  1 <1>   0.3930 
 20 C        3.6810     7.2810     0.0950 C.ar  1 <1>  -0.1500 
 21 O        4.9480     5.5690     2.9700 O.3   1 <1>  -0.5330 
 22 C        4.1620     7.0780     1.3660 C.ar  1 <1>  -0.1500 
 23 H        1.3980     1.6400    -1.3410 H     1 <1>   0.0800 
 24 H        1.9700     1.7820     0.2870 H     1 <1>   0.0800 
 25 H       -1.5980     2.4230     1.6950 H     1 <1>   0.0800 
 26 H        0.1380     2.2450     1.7130 H     1 <1>   0.0800 
 27 H       -0.8710     1.0030     2.4240 H     1 <1>   0.0800 
 28 H       -2.9500     1.0420     0.3320 H     1 <1>   0.0800 
 29 H       -2.2240    -0.4610     0.8820 H     1 <1>   0.0800 
 30 H       -2.2360    -0.0540    -0.8210 H     1 <1>   0.0800 
 31 H        2.7940    -0.3940    -1.6450 H     1 <1>   0.0800 
 32 H        4.0080     1.4300    -2.5330 H     1 <1>   0.0800 
 33 H        3.5500    -1.4300     0.2510 H     1 <1>   0.0800 
 34 H        3.5020     0.0480     1.2060 H     1 <1>   0.0800 
 35 H        4.6930     2.4260     0.1940 H     1 <1>   0.3700 
 36 H        6.2750     0.9710    -1.1610 H     1 <1>   0.0800 
 37 H        5.4650    -0.4050    -1.9100 H     1 <1>   0.0800 
 38 H        3.1840     6.2650    -1.7070 H     1 <1>   0.1500 
 39 H        3.4150     8.2630    -0.2610 H     1 <1>   0.1500 
 40 H        5.1280     4.6190     3.0680 H     1 <1>   0.4500 
 41 H        4.2920     7.8910     2.0560 H     1 <1>   0.1500 
@<TRIPOS>BOND
  1   1   2  2   
  2   1   3  2   
  3   1   4  am  
  4   1   5  1   
  5   4   6  1   
  6   4   7  1   
  7   5   8  1   
  8   5  23  1   
  9   5  24  1   
 10   6  25  1   
 11   6  26  1   
 12   6  27  1   
 13   7  28  1   
 14   7  29  1   
 15   7  30  1   
 16   8   9  1   
 17   8  10  1   
 18   8  31  1   
 19   9  11  1   
 20   9  12  1   
 21   9  32  1   
 22  10  13  1   
 23  10  33  1   
 24  10  34  1   
 25  11  14  am  
 26  11  35  1   
 27  12  13  1   
 28  12  36  1   
 29  12  37  1   
 30  14  15  2   
 31  14  16  1   
 32  16  17  ar  
 33  16  18  ar  
 34  17  19  ar  
 35  18  20  ar  
 36  18  38  1   
 37  19  21  1   
 38  19  22  ar  
 39  20  22  ar  
 40  20  39  1   
 41  21  40  1   
 42  22  41  1   
@<TRIPOS>SUBSTRUCTURE
  1 ****  11 GROUP 4 **** **** 0

# MOE 2024.06 (io_trps.svl 2023.06)
