@<TRIPOS>MOLECULE
NONAME
55 58 1 0 0 
SMALL
USER_CHARGES


@<TRIPOS>ATOM
  1 CL      -0.1810    -2.6210     3.1580 Cl    1 <1>  -0.1770 
  2 C        1.2770    -2.6670     2.2020 C.ar  1 <1>   0.1770 
  3 C        1.1860    -2.8180     0.8340 C.ar  1 <1>  -0.1500 
  4 C        2.5040    -2.5550     2.8240 C.ar  1 <1>  -0.1500 
  5 C        2.3470    -2.8690     0.0830 C.ar  1 <1>  -0.1500 
  6 C        3.6610    -2.6070     2.0650 C.ar  1 <1>  -0.1500 
  7 C        3.6020    -2.7790     0.6820 C.ar  1 <1>  -0.1430 
  8 C        4.8490    -2.8770    -0.2340 C.3   1 <1>   0.2040 
  9 C        4.7340    -4.2030    -1.0310 C.2   1 <1>   0.5690 
 10 C        4.8260    -1.6140    -1.1480 C.3   1 <1>  -0.1600 
 11 C        6.2030    -2.9450     0.5390 C.3   1 <1>  -0.1600 
 12 O        4.7260    -4.2140    -2.2410 O.2   1 <1>  -0.5700 
 13 N        4.6310    -5.3680    -0.3340 N.am  1 <1>  -0.7300 
 14 C        6.2210    -1.1880    -1.6270 C.3   1 <1>  -0.1600 
 15 C        6.7840    -1.5590     0.8560 C.3   1 <1>  -0.1600 
 16 C        4.4920    -6.7230    -0.9130 C.3   1 <1>   0.2200 
 17 C        7.1220    -0.7990    -0.4400 C.3   1 <1>  -0.1600 
 18 C        3.1290    -7.3220    -0.5860 C.3   1 <1>  -0.0800 
 19 C        5.4040    -7.6730    -0.1500 C.3   1 <1>   0.1200 
 20 C        3.3380    -7.9230     0.8090 C.3   1 <1>   0.1200 
 21 C        1.9340    -6.3560    -0.6770 C.3   1 <1>  -0.0170 
 22 O        4.7180    -7.9620     1.0310 O.3   1 <1>  -0.5600 
 23 C        0.6220    -7.0560    -0.3610 C.ar  1 <1>  -0.1430 
 24 C       -0.0350    -6.8630     0.8370 C.ar  1 <1>  -0.1500 
 25 C        0.0200    -7.9180    -1.2550 C.ar  1 <1>  -0.1500 
 26 C       -1.2260    -7.5260     1.0790 C.ar  1 <1>   0.1600 
 27 C       -1.1730    -8.5320    -0.9150 C.ar  1 <1>   0.1600 
 28 N       -1.8100    -8.3590     0.2320 N.ar  1 <1>  -0.6200 
 29 H        0.2210    -2.8950     0.3650 H     1 <1>   0.1500 
 30 H        2.5490    -2.4280     3.8910 H     1 <1>   0.1500 
 31 H        2.2640    -2.9860    -0.9860 H     1 <1>   0.1500 
 32 H        4.5960    -2.5060     2.5830 H     1 <1>   0.1500 
 33 H        4.1860    -1.7760    -1.9980 H     1 <1>   0.0800 
 34 H        4.4060    -0.7880    -0.5990 H     1 <1>   0.0800 
 35 H        6.1110    -3.5370     1.4310 H     1 <1>   0.0800 
 36 H        6.9250    -3.4540    -0.0770 H     1 <1>   0.0800 
 37 H        4.6030    -5.3500     0.6880 H     1 <1>   0.3700 
 38 H        6.6660    -2.0070    -2.1680 H     1 <1>   0.0800 
 39 H        6.1400    -0.3570    -2.3070 H     1 <1>   0.0800 
 40 H        6.0660    -0.9910     1.4230 H     1 <1>   0.0800 
 41 H        7.6720    -1.6560     1.4570 H     1 <1>   0.0800 
 42 H        4.7020    -6.7130    -1.9690 H     1 <1>   0.0800 
 43 H        7.0300     0.2570    -0.2510 H     1 <1>   0.0800 
 44 H        8.1460    -0.9880    -0.7130 H     1 <1>   0.0800 
 45 H        2.9560    -8.1380    -1.2640 H     1 <1>   0.0800 
 46 H        6.3600    -7.2380     0.0810 H     1 <1>   0.0800 
 47 H        5.5370    -8.5940    -0.6900 H     1 <1>   0.0800 
 48 H        2.9440    -8.9230     0.8750 H     1 <1>   0.0800 
 49 H        2.9020    -7.3100     1.5790 H     1 <1>   0.0800 
 50 H        1.8860    -5.9330    -1.6660 H     1 <1>   0.0800 
 51 H        2.0640    -5.5470     0.0170 H     1 <1>   0.0800 
 52 H        0.3640    -6.2020     1.5860 H     1 <1>   0.1500 
 53 H        0.4660    -8.1160    -2.2120 H     1 <1>   0.1500 
 54 H       -1.7260    -7.3630     2.0190 H     1 <1>   0.1500 
 55 H       -1.6290    -9.2020    -1.6240 H     1 <1>   0.1500 
@<TRIPOS>BOND
  1   1   2  1   
  2   2   3  ar  
  3   2   4  ar  
  4   3   5  ar  
  5   3  29  1   
  6   4   6  ar  
  7   4  30  1   
  8   5   7  ar  
  9   5  31  1   
 10   6   7  ar  
 11   6  32  1   
 12   7   8  1   
 13   8   9  1   
 14   8  10  1   
 15   8  11  1   
 16   9  12  2   
 17   9  13  am  
 18  10  14  1   
 19  10  33  1   
 20  10  34  1   
 21  11  15  1   
 22  11  35  1   
 23  11  36  1   
 24  13  16  1   
 25  13  37  1   
 26  14  17  1   
 27  14  38  1   
 28  14  39  1   
 29  15  17  1   
 30  15  40  1   
 31  15  41  1   
 32  16  18  1   
 33  16  19  1   
 34  16  42  1   
 35  17  43  1   
 36  17  44  1   
 37  18  20  1   
 38  18  21  1   
 39  18  45  1   
 40  19  22  1   
 41  19  46  1   
 42  19  47  1   
 43  20  22  1   
 44  20  48  1   
 45  20  49  1   
 46  21  23  1   
 47  21  50  1   
 48  21  51  1   
 49  23  24  ar  
 50  23  25  ar  
 51  24  26  ar  
 52  24  52  1   
 53  25  27  ar  
 54  25  53  1   
 55  26  28  ar  
 56  26  54  1   
 57  27  28  ar  
 58  27  55  1   
@<TRIPOS>SUBSTRUCTURE
  1 ****  13 GROUP 4 **** **** 0

# MOE 2024.06 (io_trps.svl 2023.06)
