@<TRIPOS>MOLECULE
NONAME
36 38 1 0 0 
SMALL
USER_CHARGES


@<TRIPOS>ATOM
  1 O        0.5940     0.6380    -0.2570 O.2   1 <1>  -0.5700 
  2 C        0.7950     1.7150     0.2380 C.2   1 <1>   0.6590 
  3 O        0.1410     2.8020    -0.1250 O.3   1 <1>  -0.4300 
  4 C        1.7750     2.0050     1.3650 C.3   1 <1>   0.2610 
  5 C        0.4080     3.9050     0.7160 C.3   1 <1>   0.2000 
  6 O        3.1130     1.8210     1.0270 O.3   1 <1>  -0.5600 
  7 C        1.6420     3.4950     1.5420 C.3   1 <1>   0.2000 
  8 C        0.5630     5.2020    -0.1050 C.3   1 <1>   0.2000 
  9 C        3.6420     3.0050     0.5520 C.3   1 <1>   0.5600 
 10 O        2.8160     4.0200     1.0130 O.3   1 <1>  -0.5600 
 11 O       -0.6380     5.4900    -0.7360 O.3   1 <1>  -0.5600 
 12 C        0.7890     6.4220     0.7630 C.3   1 <1>   0.1200 
 13 C        3.6570     3.0040    -0.9710 C.3   1 <1>  -0.2400 
 14 C        5.0200     3.1920     1.1600 C.3   1 <1>  -0.2400 
 15 C       -1.2750     6.5420    -0.0910 C.3   1 <1>   0.5600 
 16 O       -0.4960     6.8500     1.0140 O.3   1 <1>  -0.5600 
 17 C       -1.3400     7.7400    -1.0280 C.3   1 <1>  -0.2400 
 18 C       -2.6400     6.0760     0.3860 C.3   1 <1>  -0.2400 
 19 H        1.5330     1.4410     2.2460 H     1 <1>   0.0800 
 20 H       -0.4350     4.0010     1.3770 H     1 <1>   0.0800 
 21 H        1.5640     3.7940     2.5720 H     1 <1>   0.0800 
 22 H        1.3390     5.0980    -0.8420 H     1 <1>   0.0800 
 23 H        1.3120     7.1900     0.2200 H     1 <1>   0.0800 
 24 H        1.2950     6.2160     1.6890 H     1 <1>   0.0800 
 25 H        4.0860     3.9220    -1.3290 H     1 <1>   0.0800 
 26 H        2.6680     2.9030    -1.3740 H     1 <1>   0.0800 
 27 H        4.2620     2.1890    -1.3240 H     1 <1>   0.0800 
 28 H        5.4400     4.1260     0.8350 H     1 <1>   0.0800 
 29 H        5.6680     2.3970     0.8420 H     1 <1>   0.0800 
 30 H        4.9540     3.1860     2.2320 H     1 <1>   0.0800 
 31 H       -1.7900     8.5720    -0.5210 H     1 <1>   0.0800 
 32 H       -1.9420     7.4950    -1.8830 H     1 <1>   0.0800 
 33 H       -0.3570     8.0150    -1.3600 H     1 <1>   0.0800 
 34 H       -3.1340     6.8750     0.9080 H     1 <1>   0.0800 
 35 H       -2.5360     5.2340     1.0430 H     1 <1>   0.0800 
 36 H       -3.2410     5.7940    -0.4580 H     1 <1>   0.0800 
@<TRIPOS>BOND
  1   1   2  2   
  2   2   3  1   
  3   2   4  1   
  4   3   5  1   
  5   4   6  1   
  6   4   7  1   
  7   4  19  1   
  8   5   7  1   
  9   5   8  1   
 10   5  20  1   
 11   6   9  1   
 12   7  10  1   
 13   7  21  1   
 14   8  11  1   
 15   8  12  1   
 16   8  22  1   
 17   9  10  1   
 18   9  13  1   
 19   9  14  1   
 20  11  15  1   
 21  12  16  1   
 22  12  23  1   
 23  12  24  1   
 24  13  25  1   
 25  13  26  1   
 26  13  27  1   
 27  14  28  1   
 28  14  29  1   
 29  14  30  1   
 30  15  16  1   
 31  15  17  1   
 32  15  18  1   
 33  17  31  1   
 34  17  32  1   
 35  17  33  1   
 36  18  34  1   
 37  18  35  1   
 38  18  36  1   
@<TRIPOS>SUBSTRUCTURE
  1 ****   5 GROUP 4 **** **** 0

# MOE 2024.06 (io_trps.svl 2023.06)
