@<TRIPOS>MOLECULE
NONAME
60 62 1 0 0 
SMALL
USER_CHARGES


@<TRIPOS>ATOM
  1 O       -0.6880     0.9030     1.4660 O.2   1 <1>  -0.5700 
  2 C       -1.5910     1.5330     0.9660 C.2   1 <1>   0.5690 
  3 N       -2.8690     1.0250     0.9030 N.am  1 <1>  -0.6600 
  4 C       -1.2740     2.9130     0.4040 C.3   1 <1>  -0.0990 
  5 C       -3.9880     1.7030     0.1770 C.3   1 <1>   0.2200 
  6 C       -3.1600    -0.2810     1.5760 C.3   1 <1>   0.0600 
  7 C        0.1160     3.4440     0.7870 C.3   1 <1>  -0.0160 
  8 C       -4.9930     2.3460     1.1290 C.3   1 <1>  -0.1600 
  9 C       -4.8300     0.7800    -0.7070 C.3   1 <1>  -0.1600 
 10 C        0.3290     4.8340     0.1950 C.ar  1 <1>  -0.1440 
 11 C       -6.2670     2.5100     0.2900 C.3   1 <1>  -0.0800 
 12 C       -6.1550     1.5330    -0.8860 C.3   1 <1>  -0.0800 
 13 C        0.9210     5.0410    -1.0480 C.ar  1 <1>  -0.1440 
 14 C       -0.0940     5.9290     0.9350 C.ar  1 <1>  -0.1500 
 15 C       -7.5780     2.1530     1.0060 C.3   1 <1>  -0.1600 
 16 C       -7.4200     0.6620    -0.8320 C.3   1 <1>  -0.1600 
 17 C        1.0730     6.3360    -1.5240 C.ar  1 <1>  -0.1500 
 18 C        1.4170     3.8870    -1.9100 C.3   1 <1>  -0.0970 
 19 C        0.0620     7.2150     0.4510 C.ar  1 <1>  -0.1500 
 20 C       -8.4560     1.4860    -0.0590 C.3   1 <1>   0.4230 
 21 C        0.6460     7.4250    -0.7850 C.ar  1 <1>  -0.1440 
 22 N       -9.0920     2.5120    -0.9480 N.4   1 <1>  -0.9590 
 23 C        0.8250     8.8330    -1.3230 C.3   1 <1>  -0.0960 
 24 C      -10.0100     3.4350    -0.2040 C.3   1 <1>   0.2630 
 25 C       -9.8600     1.9000    -2.0810 C.3   1 <1>   0.2630 
 26 H       -1.3440     2.8680    -0.6660 H     1 <1>   0.0800 
 27 H       -2.0070     3.6090     0.7640 H     1 <1>   0.0800 
 28 H       -3.6010     2.4750    -0.4650 H     1 <1>   0.0800 
 29 H       -4.1530    -0.2890     1.9840 H     1 <1>   0.0800 
 30 H       -2.4670    -0.4520     2.3820 H     1 <1>   0.0800 
 31 H       -3.0580    -1.0820     0.8650 H     1 <1>   0.0800 
 32 H        0.8770     2.7650     0.4490 H     1 <1>   0.0800 
 33 H        0.1960     3.4930     1.8590 H     1 <1>   0.0800 
 34 H       -5.1680     1.6980     1.9680 H     1 <1>   0.0800 
 35 H       -4.6320     3.2940     1.4880 H     1 <1>   0.0800 
 36 H       -4.3450     0.6020    -1.6510 H     1 <1>   0.0800 
 37 H       -5.0050    -0.1600    -0.2210 H     1 <1>   0.0800 
 38 H       -6.3150     3.5160    -0.0960 H     1 <1>   0.0800 
 39 H       -6.1270     2.0960    -1.8060 H     1 <1>   0.0800 
 40 H       -0.5490     5.7850     1.8980 H     1 <1>   0.1500 
 41 H       -8.0210     2.9980     1.4970 H     1 <1>   0.0800 
 42 H       -7.3810     1.4130     1.7620 H     1 <1>   0.0800 
 43 H       -7.2230    -0.2220    -0.2490 H     1 <1>   0.0800 
 44 H       -7.7330     0.3350    -1.8050 H     1 <1>   0.0800 
 45 H        1.5330     6.5010    -2.4820 H     1 <1>   0.1500 
 46 H        1.7340     4.2350    -2.8760 H     1 <1>   0.0800 
 47 H        0.6350     3.1650    -2.0550 H     1 <1>   0.0800 
 48 H        2.2520     3.4090    -1.4320 H     1 <1>   0.0800 
 49 H       -0.2720     8.0490     1.0420 H     1 <1>   0.1500 
 50 H       -9.2090     0.8560     0.3880 H     1 <1>   0.0800 
 51 H       -8.3190     3.0680    -1.3410 H     1 <1>   0.4500 
 52 H        0.0950     9.4970    -0.8960 H     1 <1>   0.0800 
 53 H        0.7090     8.8430    -2.3920 H     1 <1>   0.0800 
 54 H        1.8080     9.1940    -1.0770 H     1 <1>   0.0800 
 55 H      -10.7800     2.8730     0.2980 H     1 <1>   0.0800 
 56 H      -10.4780     4.1260    -0.8870 H     1 <1>   0.0800 
 57 H       -9.4660     4.0080     0.5290 H     1 <1>   0.0800 
 58 H      -10.6210     1.2370    -1.7020 H     1 <1>   0.0800 
 59 H       -9.2070     1.3400    -2.7290 H     1 <1>   0.0800 
 60 H      -10.3350     2.6690    -2.6680 H     1 <1>   0.0800 
@<TRIPOS>BOND
  1   1   2  2   
  2   2   3  am  
  3   2   4  1   
  4   3   5  1   
  5   3   6  1   
  6   4   7  1   
  7   4  26  1   
  8   4  27  1   
  9   5   8  1   
 10   5   9  1   
 11   5  28  1   
 12   6  29  1   
 13   6  30  1   
 14   6  31  1   
 15   7  10  1   
 16   7  32  1   
 17   7  33  1   
 18   8  11  1   
 19   8  34  1   
 20   8  35  1   
 21   9  12  1   
 22   9  36  1   
 23   9  37  1   
 24  10  13  ar  
 25  10  14  ar  
 26  11  12  1   
 27  11  15  1   
 28  11  38  1   
 29  12  16  1   
 30  12  39  1   
 31  13  17  ar  
 32  13  18  1   
 33  14  19  ar  
 34  14  40  1   
 35  15  20  1   
 36  15  41  1   
 37  15  42  1   
 38  16  20  1   
 39  16  43  1   
 40  16  44  1   
 41  17  21  ar  
 42  17  45  1   
 43  18  46  1   
 44  18  47  1   
 45  18  48  1   
 46  19  21  ar  
 47  19  49  1   
 48  20  22  1   
 49  20  50  1   
 50  21  23  1   
 51  22  24  1   
 52  22  25  1   
 53  22  51  1   
 54  23  52  1   
 55  23  53  1   
 56  23  54  1   
 57  24  55  1   
 58  24  56  1   
 59  24  57  1   
 60  25  58  1   
 61  25  59  1   
 62  25  60  1   
@<TRIPOS>SUBSTRUCTURE
  1 ****   5 GROUP 4 **** **** 0

# MOE 2024.06 (io_trps.svl 2023.06)
