@<TRIPOS>MOLECULE
NONAME
42 43 1 0 0 
SMALL
USER_CHARGES


@<TRIPOS>ATOM
  1 O        1.0200    -0.2010     1.9720 O.2   1 <1>  -0.5700 
  2 C        0.9150    -1.0180     1.0870 C.2   1 <1>   0.5690 
  3 N        1.9380    -1.7130     0.5490 N.am  1 <1>  -0.6600 
  4 C       -0.3760    -1.3220     0.3830 C.3   1 <1>  -0.0990 
  5 C        3.3700    -1.5140     0.9430 C.3   1 <1>   0.2810 
  6 C        1.5440    -2.4370    -0.6760 C.3   1 <1>   0.1400 
  7 C        0.0790    -2.0350    -0.9010 C.3   1 <1>  -0.1600 
  8 C        3.9310    -0.1900     0.3840 C.2   1 <1>   0.5690 
  9 C        4.2040    -2.7570     0.5950 C.3   1 <1>  -0.2400 
 10 O        4.7730    -0.2060    -0.4870 O.2   1 <1>  -0.5700 
 11 N        3.4010     0.9570     0.9110 N.am  1 <1>  -0.4940 
 12 C        3.6270     2.3250     0.6200 C.2   1 <1>  -0.0880 
 13 N        2.6460     3.2610     0.6920 N.pl3 1 <1>   0.3140 
 14 C        4.7500     2.9860     0.2460 C.2   1 <1>  -0.1810 
 15 N        3.0950     4.4880     0.3630 N.2   1 <1>  -0.7070 
 16 C        1.2420     3.0390     1.0610 C.3   1 <1>   0.0160 
 17 C        4.3510     4.3150     0.0950 C.2   1 <1>   0.1080 
 18 C        6.1500     2.4350     0.0420 C.3   1 <1>  -0.0590 
 19 C        5.2430     5.4670    -0.3310 C.3   1 <1>   0.0210 
 20 C        5.8900     6.1460     0.8810 C.3   1 <1>  -0.2400 
 21 H       -0.9190    -0.4200     0.1710 H     1 <1>   0.0800 
 22 H       -0.9660    -1.9740     1.0020 H     1 <1>   0.0800 
 23 H        3.3920    -1.4180     2.0150 H     1 <1>   0.0800 
 24 H        1.6310    -3.4980    -0.5150 H     1 <1>   0.0800 
 25 H        2.1610    -2.1390    -1.5090 H     1 <1>   0.0800 
 26 H        0.0300    -1.3530    -1.7330 H     1 <1>   0.0800 
 27 H       -0.5320    -2.8920    -1.1230 H     1 <1>   0.0800 
 28 H        4.2820    -2.8810    -0.4700 H     1 <1>   0.0800 
 29 H        3.7690    -3.6360     1.0360 H     1 <1>   0.0800 
 30 H        5.1990    -2.6380     0.9850 H     1 <1>   0.0800 
 31 H        2.5890     0.7700     1.5170 H     1 <1>   0.3700 
 32 H        0.8170     2.3040     0.4040 H     1 <1>   0.0800 
 33 H        0.7030     3.9640     0.9670 H     1 <1>   0.0800 
 34 H        1.1950     2.6940     2.0770 H     1 <1>   0.0800 
 35 H        6.3030     1.5740     0.6660 H     1 <1>   0.0800 
 36 H        6.8890     3.1700     0.2970 H     1 <1>   0.0800 
 37 H        6.2780     2.1440    -0.9850 H     1 <1>   0.0800 
 38 H        4.6440     6.1830    -0.8660 H     1 <1>   0.0800 
 39 H        6.0010     5.1070    -1.0020 H     1 <1>   0.0800 
 40 H        5.1230     6.5210     1.5360 H     1 <1>   0.0800 
 41 H        6.5090     6.9650     0.5630 H     1 <1>   0.0800 
 42 H        6.4910     5.4400     1.4250 H     1 <1>   0.0800 
@<TRIPOS>BOND
  1   1   2  2   
  2   2   3  am  
  3   2   4  1   
  4   3   5  1   
  5   3   6  1   
  6   4   7  1   
  7   4  21  1   
  8   4  22  1   
  9   5   8  1   
 10   5   9  1   
 11   5  23  1   
 12   6   7  1   
 13   6  24  1   
 14   6  25  1   
 15   7  26  1   
 16   7  27  1   
 17   8  10  2   
 18   8  11  am  
 19   9  28  1   
 20   9  29  1   
 21   9  30  1   
 22  11  12  1   
 23  11  31  1   
 24  12  13  1   
 25  12  14  2   
 26  13  15  1   
 27  13  16  1   
 28  14  17  1   
 29  14  18  1   
 30  15  17  2   
 31  16  32  1   
 32  16  33  1   
 33  16  34  1   
 34  17  19  1   
 35  18  35  1   
 36  18  36  1   
 37  18  37  1   
 38  19  20  1   
 39  19  38  1   
 40  19  39  1   
 41  20  40  1   
 42  20  41  1   
 43  20  42  1   
@<TRIPOS>SUBSTRUCTURE
  1 ****  11 GROUP 4 **** **** 0

# MOE 2024.06 (io_trps.svl 2023.06)
