@<TRIPOS>MOLECULE
NONAME
59 61 1 0 0 
SMALL
USER_CHARGES


@<TRIPOS>ATOM
  1 S        0.5470     0.3120    -1.1260 S.o2  1 <1>   1.3330 
  2 O       -0.1980    -0.9260    -1.1530 O.2   1 <1>  -0.6500 
  3 O        1.3640     0.6790    -2.2610 O.2   1 <1>  -0.6500 
  4 N        1.5420     0.2770     0.2510 N.am  1 <1>  -0.8490 
  5 C       -0.5830     1.6670    -0.7970 C.3   1 <1>  -0.0550 
  6 C        0.9740    -0.4960     1.3610 C.3   1 <1>   0.1160 
  7 C        2.8970    -0.1980    -0.0500 C.3   1 <1>   0.1160 
  8 C        0.0810     3.0620    -0.7880 C.3   1 <1>  -0.0800 
  9 C       -0.9040     4.2200    -0.6670 C.3   1 <1>   0.2000 
 10 C        1.0660     3.2980     0.3630 C.3   1 <1>   0.2090 
 11 O       -1.8040     3.9410     0.3530 O.3   1 <1>  -0.6800 
 12 C       -0.0190     5.3750    -0.2090 C.3   1 <1>   0.2090 
 13 N        0.9820     4.7480     0.7020 N.pl3 1 <1>  -0.8380 
 14 C        2.1960     5.3890     0.8170 C.ar  1 <1>   0.4100 
 15 N        2.8890     5.5860    -0.2970 N.ar  1 <1>  -0.6200 
 16 C        2.6430     5.7780     2.0750 C.ar  1 <1>  -0.1500 
 17 C        4.0640     6.1720    -0.1460 C.ar  1 <1>   0.1600 
 18 C        3.8650     6.3920     2.2160 C.ar  1 <1>  -0.1500 
 19 C        4.5980     6.5930     1.0610 C.ar  1 <1>  -0.1430 
 20 C        5.9630     7.2580     1.1040 C.3   1 <1>   0.2530 
 21 N        5.9950     8.4430     0.2230 N.3   1 <1>  -0.8100 
 22 C        7.3600     8.9900     0.1040 C.3   1 <1>   0.1100 
 23 C        5.0280     9.4820     0.6450 C.3   1 <1>   0.1100 
 24 C        7.4010    10.1930    -0.8620 C.3   1 <1>   0.3430 
 25 C        5.0470    10.6920    -0.3110 C.3   1 <1>   0.3430 
 26 N        6.4310    11.2690    -0.4570 N.4   1 <1>  -0.9590 
 27 C        6.4430    12.4030    -1.4280 C.3   1 <1>   0.2630 
 28 H       -1.3370     1.6660    -1.5590 H     1 <1>   0.0800 
 29 H       -1.0770     1.4960     0.1390 H     1 <1>   0.0800 
 30 H        1.5970    -0.4030     2.2340 H     1 <1>   0.0800 
 31 H        0.8980    -1.5380     1.0940 H     1 <1>   0.0800 
 32 H       -0.0090    -0.1310     1.6030 H     1 <1>   0.0800 
 33 H        3.5000    -0.1970     0.8410 H     1 <1>   0.0800 
 34 H        3.3630     0.4530    -0.7710 H     1 <1>   0.0800 
 35 H        2.8620    -1.1950    -0.4560 H     1 <1>   0.0800 
 36 H        0.6270     3.1910    -1.7070 H     1 <1>   0.0800 
 37 H       -1.4490     4.4270    -1.5720 H     1 <1>   0.0800 
 38 H        2.0670     3.0190     0.0730 H     1 <1>   0.0800 
 39 H        0.7840     2.7270     1.2300 H     1 <1>   0.0800 
 40 H       -1.3200     4.0460     1.2000 H     1 <1>   0.4000 
 41 H       -0.5860     6.1370     0.2960 H     1 <1>   0.0800 
 42 H        0.4760     5.8090    -1.0620 H     1 <1>   0.0800 
 43 H        2.0160     5.5820     2.9240 H     1 <1>   0.1500 
 44 H        4.6390     6.3320    -1.0420 H     1 <1>   0.1500 
 45 H        4.2250     6.6950     3.1840 H     1 <1>   0.1500 
 46 H        6.6970     6.5430     0.7710 H     1 <1>   0.0800 
 47 H        6.2060     7.5410     2.1140 H     1 <1>   0.0800 
 48 H        7.7260     9.2890     1.0720 H     1 <1>   0.0800 
 49 H        8.0160     8.2230    -0.2750 H     1 <1>   0.0800 
 50 H        4.0320     9.0710     0.6420 H     1 <1>   0.0800 
 51 H        5.2460     9.8070     1.6480 H     1 <1>   0.0800 
 52 H        7.1580     9.8390    -1.8500 H     1 <1>   0.0800 
 53 H        8.4020    10.5910    -0.8890 H     1 <1>   0.0800 
 54 H        4.3710    11.4450     0.0570 H     1 <1>   0.0800 
 55 H        4.6880    10.3650    -1.2730 H     1 <1>   0.0800 
 56 H        6.7180    11.6120     0.4690 H     1 <1>   0.4500 
 57 H        6.1410    12.0620    -2.4060 H     1 <1>   0.0800 
 58 H        7.4330    12.8240    -1.5000 H     1 <1>   0.0800 
 59 H        5.7630    13.1770    -1.1090 H     1 <1>   0.0800 
@<TRIPOS>BOND
  1   1   2  2   
  2   1   3  2   
  3   1   4  am  
  4   1   5  1   
  5   4   6  1   
  6   4   7  1   
  7   5   8  1   
  8   5  28  1   
  9   5  29  1   
 10   6  30  1   
 11   6  31  1   
 12   6  32  1   
 13   7  33  1   
 14   7  34  1   
 15   7  35  1   
 16   8   9  1   
 17   8  10  1   
 18   8  36  1   
 19   9  11  1   
 20   9  12  1   
 21   9  37  1   
 22  10  13  1   
 23  10  38  1   
 24  10  39  1   
 25  11  40  1   
 26  12  13  1   
 27  12  41  1   
 28  12  42  1   
 29  13  14  1   
 30  14  15  ar  
 31  14  16  ar  
 32  15  17  ar  
 33  16  18  ar  
 34  16  43  1   
 35  17  19  ar  
 36  17  44  1   
 37  18  19  ar  
 38  18  45  1   
 39  19  20  1   
 40  20  21  1   
 41  20  46  1   
 42  20  47  1   
 43  21  22  1   
 44  21  23  1   
 45  22  24  1   
 46  22  48  1   
 47  22  49  1   
 48  23  25  1   
 49  23  50  1   
 50  23  51  1   
 51  24  26  1   
 52  24  52  1   
 53  24  53  1   
 54  25  26  1   
 55  25  54  1   
 56  25  55  1   
 57  26  27  1   
 58  26  56  1   
 59  27  57  1   
 60  27  58  1   
 61  27  59  1   
@<TRIPOS>SUBSTRUCTURE
  1 ****  15 GROUP 4 **** **** 0

# MOE 2024.06 (io_trps.svl 2023.06)
