@<TRIPOS>MOLECULE
NONAME
53 55 1 0 0 
SMALL
USER_CHARGES


@<TRIPOS>ATOM
  1 O       -3.3410     2.4840     1.4650 O.2   1 <1>  -0.5700 
  2 C       -2.5560     2.6370     0.5490 C.2   1 <1>   0.5440 
  3 N       -2.5520     1.7400    -0.5000 N.am  1 <1>  -0.6600 
  4 C       -1.6460     3.7610     0.6000 C.ar  1 <1>   0.0860 
  5 C       -3.6120     0.6990    -0.6400 C.3   1 <1>   0.1400 
  6 C       -1.4210     1.5850    -1.4580 C.3   1 <1>   0.1400 
  7 C       -0.8100     3.9760     1.6780 C.ar  1 <1>  -0.1500 
  8 C       -1.5530     4.7030    -0.4150 C.ar  1 <1>  -0.1500 
  9 C       -2.9970    -0.6920    -0.4630 C.3   1 <1>  -0.1600 
 10 C       -0.7890     0.1990    -1.2930 C.3   1 <1>  -0.1600 
 11 C        0.0570     5.0580     1.7060 C.ar  1 <1>   0.4100 
 12 C       -0.6650     5.7520    -0.3030 C.ar  1 <1>   0.1600 
 13 C       -1.8290    -0.9210    -1.4330 C.3   1 <1>  -0.1600 
 14 N        0.1340     5.9560     0.7310 N.ar  1 <1>  -0.6200 
 15 N        0.8980     5.2060     2.7860 N.pl3 1 <1>  -0.8690 
 16 C        1.6380     6.4560     3.0870 C.3   1 <1>   0.2090 
 17 C        2.8830     6.5560     2.2000 C.3   1 <1>  -0.0990 
 18 C        2.9740     7.9270     1.5800 C.2   1 <1>   0.5690 
 19 O        3.9040     8.6350     1.8780 O.2   1 <1>  -0.5700 
 20 N        1.9750     8.2980     0.7280 N.am  1 <1>  -0.5470 
 21 C        1.7660     9.5150     0.0630 C.ar  1 <1>   0.1170 
 22 C        0.4830    10.0540    -0.0520 C.ar  1 <1>  -0.1430 
 23 C        2.8350    10.1960    -0.5090 C.ar  1 <1>  -0.1500 
 24 C        0.2950    11.2410    -0.7430 C.ar  1 <1>  -0.1500 
 25 C       -0.7300     9.3800     0.5780 C.3   1 <1>  -0.0970 
 26 C        2.6420    11.3810    -1.1930 C.ar  1 <1>  -0.1500 
 27 C        1.3680    11.9040    -1.3140 C.ar  1 <1>  -0.1500 
 28 H       -4.0550     0.7820    -1.6170 H     1 <1>   0.0800 
 29 H       -4.3910     0.8460     0.0890 H     1 <1>   0.0800 
 30 H       -0.6670     2.3340    -1.2940 H     1 <1>   0.0800 
 31 H       -1.7950     1.6980    -2.4610 H     1 <1>   0.0800 
 32 H       -0.8320     3.2900     2.5030 H     1 <1>   0.1500 
 33 H       -2.1790     4.6090    -1.2840 H     1 <1>   0.1500 
 34 H       -3.7540    -1.4380    -0.6240 H     1 <1>   0.0800 
 35 H       -2.6530    -0.7890     0.5530 H     1 <1>   0.0800 
 36 H       -0.3270     0.1430    -0.3220 H     1 <1>   0.0800 
 37 H       -0.0170     0.0690    -2.0300 H     1 <1>   0.0800 
 38 H       -0.6090     6.4640    -1.1100 H     1 <1>   0.1500 
 39 H       -2.2020    -0.9400    -2.4420 H     1 <1>   0.0800 
 40 H       -1.3690    -1.8730    -1.2290 H     1 <1>   0.0800 
 41 H        0.6590     4.6530     3.6130 H     1 <1>   0.4000 
 42 H        1.9340     6.4600     4.1230 H     1 <1>   0.0800 
 43 H        0.9800     7.2960     2.9340 H     1 <1>   0.0800 
 44 H        2.8550     5.8290     1.4100 H     1 <1>   0.0800 
 45 H        3.7610     6.3750     2.7920 H     1 <1>   0.0800 
 46 H        1.2230     7.6020     0.6320 H     1 <1>   0.3700 
 47 H        3.8270     9.7920    -0.4170 H     1 <1>   0.1500 
 48 H       -0.6900    11.6630    -0.8400 H     1 <1>   0.1500 
 49 H       -0.4830     8.9730     1.5420 H     1 <1>   0.0800 
 50 H       -1.0800     8.5890    -0.0570 H     1 <1>   0.0800 
 51 H       -1.5290    10.0860     0.7140 H     1 <1>   0.0800 
 52 H        3.4810    11.8930    -1.6290 H     1 <1>   0.1500 
 53 H        1.2120    12.8250    -1.8470 H     1 <1>   0.1500 
@<TRIPOS>BOND
  1   1   2  2   
  2   2   3  am  
  3   2   4  1   
  4   3   5  1   
  5   3   6  1   
  6   4   7  ar  
  7   4   8  ar  
  8   5   9  1   
  9   5  28  1   
 10   5  29  1   
 11   6  10  1   
 12   6  30  1   
 13   6  31  1   
 14   7  11  ar  
 15   7  32  1   
 16   8  12  ar  
 17   8  33  1   
 18   9  13  1   
 19   9  34  1   
 20   9  35  1   
 21  10  13  1   
 22  10  36  1   
 23  10  37  1   
 24  11  14  ar  
 25  11  15  1   
 26  12  14  ar  
 27  12  38  1   
 28  13  39  1   
 29  13  40  1   
 30  15  16  1   
 31  15  41  1   
 32  16  17  1   
 33  16  42  1   
 34  16  43  1   
 35  17  18  1   
 36  17  44  1   
 37  17  45  1   
 38  18  19  2   
 39  18  20  am  
 40  20  21  1   
 41  20  46  1   
 42  21  22  ar  
 43  21  23  ar  
 44  22  24  ar  
 45  22  25  1   
 46  23  26  ar  
 47  23  47  1   
 48  24  27  ar  
 49  24  48  1   
 50  25  49  1   
 51  25  50  1   
 52  25  51  1   
 53  26  27  ar  
 54  26  52  1   
 55  27  53  1   
@<TRIPOS>SUBSTRUCTURE
  1 ****  14 GROUP 4 **** **** 0

# MOE 2024.06 (io_trps.svl 2023.06)
