@<TRIPOS>MOLECULE
NONAME
60 63 1 0 0 
SMALL
USER_CHARGES


@<TRIPOS>ATOM
  1 O       -0.1300     0.0690    -0.4820 O.2   1 <1>  -0.5700 
  2 C        0.0260     1.2640    -0.6530 C.2   1 <1>   0.5440 
  3 N        1.2680     1.7230    -1.0520 N.am  1 <1>  -0.6600 
  4 C       -1.1060     2.1500    -0.4690 C.ar  1 <1>   0.0860 
  5 C        1.5570     3.1560    -1.3560 C.3   1 <1>   0.1400 
  6 C        2.3390     0.7440    -1.3960 C.3   1 <1>   0.0600 
  7 C       -1.1840     3.0480     0.5940 C.ar  1 <1>  -0.1500 
  8 C       -2.1710     2.1180    -1.3680 C.ar  1 <1>  -0.1500 
  9 C        2.2470     3.8610    -0.1740 C.3   1 <1>  -0.0800 
 10 C       -2.2600     3.9030     0.7400 C.ar  1 <1>   0.0830 
 11 C       -3.2540     2.9670    -1.2360 C.ar  1 <1>  -0.1500 
 12 C        2.1970     5.3790    -0.3870 C.3   1 <1>   0.1400 
 13 C        3.7060     3.4080     0.0480 C.3   1 <1>  -0.1600 
 14 O       -2.2480     4.7500     1.7980 O.3   1 <1>  -0.3630 
 15 C       -3.3000     3.8850    -0.1940 C.ar  1 <1>   0.0830 
 16 N        2.8010     6.0570     0.7950 N.am  1 <1>  -0.6600 
 17 C        4.3700     4.2080     1.1830 C.3   1 <1>  -0.1600 
 18 C       -3.2230     4.5320     2.7920 C.3   1 <1>   0.0400 
 19 O       -4.3420     4.7460    -0.0800 O.3   1 <1>  -0.3630 
 20 C        2.1120     6.8080     1.7160 C.2   1 <1>   0.5690 
 21 C        4.2360     5.7230     0.9880 C.3   1 <1>   0.1400 
 22 C       -4.7460     5.5020    -1.2070 C.3   1 <1>   0.1200 
 23 O        2.6630     7.3700     2.6330 O.2   1 <1>  -0.5700 
 24 C        0.6080     6.9630     1.6150 C.3   1 <1>  -0.0990 
 25 C       -4.3950     6.9740    -0.9870 C.3   1 <1>   0.0960 
 26 C        0.2280     8.0540     0.6050 C.3   1 <1>   0.0210 
 27 N       -2.9410     7.1600    -0.8580 N.pl3 1 <1>   0.3140 
 28 C       -0.9920     7.6370    -0.1890 C.2   1 <1>   0.0460 
 29 N       -2.0790     6.8750    -1.8420 N.2   1 <1>  -0.4180 
 30 C       -2.2770     7.6510     0.1880 C.2   1 <1>  -0.3020 
 31 N       -0.8920     7.1570    -1.4340 N.2   1 <1>  -0.2270 
 32 H        0.6330     3.6630    -1.5810 H     1 <1>   0.0800 
 33 H        2.1720     3.2230    -2.2370 H     1 <1>   0.0800 
 34 H        1.9390    -0.0130    -2.0490 H     1 <1>   0.0800 
 35 H        2.6900     0.2690    -0.4970 H     1 <1>   0.0800 
 36 H        3.1630     1.2280    -1.8890 H     1 <1>   0.0800 
 37 H       -0.3970     3.0720     1.3240 H     1 <1>   0.1500 
 38 H       -2.1400     1.4100    -2.1780 H     1 <1>   0.1500 
 39 H        1.6830     3.6480     0.7150 H     1 <1>   0.0800 
 40 H       -4.0610     2.9080    -1.9420 H     1 <1>   0.1500 
 41 H        1.1820     5.6920    -0.5450 H     1 <1>   0.0800 
 42 H        2.7570     5.6470    -1.2670 H     1 <1>   0.0800 
 43 H        4.2680     3.5450    -0.8590 H     1 <1>   0.0800 
 44 H        3.7310     2.3650     0.3070 H     1 <1>   0.0800 
 45 H        5.4120     3.9500     1.2460 H     1 <1>   0.0800 
 46 H        3.9130     3.9460     2.1220 H     1 <1>   0.0800 
 47 H       -3.0010     5.1730     3.6260 H     1 <1>   0.0800 
 48 H       -3.1830     3.5010     3.0980 H     1 <1>   0.0800 
 49 H       -4.1940     4.7680     2.3970 H     1 <1>   0.0800 
 50 H        4.6360     6.2360     1.8460 H     1 <1>   0.0800 
 51 H        4.7910     6.0370     0.1210 H     1 <1>   0.0800 
 52 H       -5.8090     5.3830    -1.3110 H     1 <1>   0.0800 
 53 H       -4.2630     5.1400    -2.0970 H     1 <1>   0.0800 
 54 H        0.2140     7.2210     2.5810 H     1 <1>   0.0800 
 55 H        0.1730     6.0190     1.3470 H     1 <1>   0.0800 
 56 H       -4.8800     7.3370    -0.1010 H     1 <1>   0.0800 
 57 H       -4.7300     7.5530    -1.8270 H     1 <1>   0.0800 
 58 H        1.0380     8.2360    -0.0810 H     1 <1>   0.0800 
 59 H        0.0290     8.9740     1.1240 H     1 <1>   0.0800 
 60 H       -2.7370     7.9540     1.1080 H     1 <1>   0.1500 
@<TRIPOS>BOND
  1   1   2  2   
  2   2   3  am  
  3   2   4  1   
  4   3   5  1   
  5   3   6  1   
  6   4   7  ar  
  7   4   8  ar  
  8   5   9  1   
  9   5  32  1   
 10   5  33  1   
 11   6  34  1   
 12   6  35  1   
 13   6  36  1   
 14   7  10  ar  
 15   7  37  1   
 16   8  11  ar  
 17   8  38  1   
 18   9  12  1   
 19   9  13  1   
 20   9  39  1   
 21  10  14  1   
 22  10  15  ar  
 23  11  15  ar  
 24  11  40  1   
 25  12  16  1   
 26  12  41  1   
 27  12  42  1   
 28  13  17  1   
 29  13  43  1   
 30  13  44  1   
 31  14  18  1   
 32  15  19  1   
 33  16  20  am  
 34  16  21  1   
 35  17  21  1   
 36  17  45  1   
 37  17  46  1   
 38  18  47  1   
 39  18  48  1   
 40  18  49  1   
 41  19  22  1   
 42  20  23  2   
 43  20  24  1   
 44  21  50  1   
 45  21  51  1   
 46  22  25  1   
 47  22  52  1   
 48  22  53  1   
 49  24  26  1   
 50  24  54  1   
 51  24  55  1   
 52  25  27  1   
 53  25  56  1   
 54  25  57  1   
 55  26  28  1   
 56  26  58  1   
 57  26  59  1   
 58  27  29  1   
 59  27  30  1   
 60  28  30  2   
 61  28  31  1   
 62  29  31  2   
 63  30  60  1   
@<TRIPOS>SUBSTRUCTURE
  1 ****   7 GROUP 4 **** **** 0

# MOE 2024.06 (io_trps.svl 2023.06)
