@<TRIPOS>MOLECULE
F1913-0918
31 32 1 0 0 
SMALL
USER_CHARGES


@<TRIPOS>ATOM
  1 O       -2.0150    -1.5670    -0.5910 O.co2 1 <1>  -0.9000 
  2 C       -2.8910    -1.3700     0.2560 C.2   1 <1>   0.9060 
  3 O       -2.6490    -1.3550     1.4670 O.co2 1 <1>  -0.9000 
  4 C       -4.3050    -1.0290    -0.2220 C.3   1 <1>   0.2480 
  5 N       -4.7380     0.4290    -0.1350 N.pl3 1 <1>  -0.7640 
  6 C       -6.0410     0.8470    -0.0760 C.2   1 <1>   0.1820 
  7 C       -3.9710     1.5200    -0.0460 C.cat 1 <1>   0.6560 
  8 C       -6.0410     2.1840     0.0520 C.2   1 <1>   0.1820 
  9 C       -7.2890    -0.0130    -0.1320 C.3   1 <1>   0.0080 
 10 N       -4.7420     2.5960     0.0610 N.pl3 1 <1>  -0.7000 
 11 C       -2.4450     1.5970    -0.0690 C.3   1 <1>  -0.0160 
 12 C       -7.2780     3.0510     0.1660 C.3   1 <1>   0.0080 
 13 C       -8.5310     0.8730    -0.3710 C.3   1 <1>  -0.1600 
 14 C       -1.8680     3.0190    -0.1930 C.3   1 <1>  -0.2400 
 15 C       -8.5080     2.1680     0.4700 C.3   1 <1>  -0.1600 
 16 H       -4.9720    -1.6250     0.3710 H     1 <1>   0.0800 
 17 H       -4.3840    -1.3540    -1.2420 H     1 <1>   0.0800 
 18 H       -7.3840    -0.5380     0.8030 H     1 <1>   0.0800 
 19 H       -7.2020    -0.7370    -0.9220 H     1 <1>   0.0800 
 20 H       -4.3940     3.5500     0.1480 H     1 <1>   0.4500 
 21 H       -2.0880     1.0120    -0.8980 H     1 <1>   0.0800 
 22 H       -2.0680     1.1490     0.8340 H     1 <1>   0.0800 
 23 H       -7.4220     3.5730    -0.7630 H     1 <1>   0.0800 
 24 H       -7.1500     3.7760     0.9500 H     1 <1>   0.0800 
 25 H       -9.4190     0.3070    -0.1440 H     1 <1>   0.0800 
 26 H       -8.5740     1.1380    -1.4140 H     1 <1>   0.0800 
 27 H       -2.2150     3.4920    -1.0950 H     1 <1>   0.0800 
 28 H       -0.7940     2.9650    -0.2320 H     1 <1>   0.0800 
 29 H       -2.1420     3.6170     0.6580 H     1 <1>   0.0800 
 30 H       -9.4060     2.7350     0.2910 H     1 <1>   0.0800 
 31 H       -8.4970     1.9020     1.5140 H     1 <1>   0.0800 
@<TRIPOS>BOND
  1   1   2  ar  
  2   2   3  ar  
  3   2   4  1   
  4   4   5  1   
  5   4  16  1   
  6   4  17  1   
  7   5   6  1   
  8   5   7  ar  
  9   6   8  2   
 10   6   9  1   
 11   7  10  ar  
 12   7  11  1   
 13   8  10  1   
 14   8  12  1   
 15   9  13  1   
 16   9  18  1   
 17   9  19  1   
 18  10  20  1   
 19  11  14  1   
 20  11  21  1   
 21  11  22  1   
 22  12  15  1   
 23  12  23  1   
 24  12  24  1   
 25  13  15  1   
 26  13  25  1   
 27  13  26  1   
 28  14  27  1   
 29  14  28  1   
 30  14  29  1   
 31  15  30  1   
 32  15  31  1   
@<TRIPOS>SUBSTRUCTURE
  1 ****   5 GROUP 4 **** **** 0

# MOE 2024.06 (io_trps.svl 2023.06)
