@<TRIPOS>MOLECULE
NONAME
52 54 1 0 0 
SMALL
USER_CHARGES


@<TRIPOS>ATOM
  1 O       -1.0010    -1.7840     1.7230 O.2   1 <1>  -0.5700 
  2 C       -1.5860    -1.2810     0.8000 C.2   1 <1>   0.4230 
  3 C       -2.9980    -1.4810     0.6050 C.ar  1 <1>   0.0860 
  4 C       -0.7360    -0.5010    -0.1850 C.3   1 <1>  -0.1790 
  5 C       -3.9160    -0.5840     0.0600 C.ar  1 <1>   0.1660 
  6 C       -3.5450    -2.6950     0.9910 C.ar  1 <1>   0.1600 
  7 N       -5.1760    -0.8940    -0.1150 N.ar  1 <1>  -0.6200 
  8 C       -3.5560     0.8370    -0.3460 C.3   1 <1>  -0.0960 
  9 N       -4.8040    -3.0240     0.8310 N.ar  1 <1>  -0.6200 
 10 C       -5.5830    -2.0890     0.2940 C.ar  1 <1>   0.7200 
 11 N       -6.9080    -2.4030     0.1470 N.pl3 1 <1>  -0.8380 
 12 C       -7.6190    -3.1090     1.2530 C.3   1 <1>   0.3530 
 13 C       -7.8070    -1.5250    -0.6690 C.3   1 <1>   0.1290 
 14 C       -8.6350    -4.1430     0.7530 C.ar  1 <1>  -0.1430 
 15 C       -8.4410    -5.0000    -0.3370 C.ar  1 <1>  -0.1430 
 16 C       -9.8240    -4.2270     1.4650 C.ar  1 <1>  -0.1500 
 17 C       -9.4350    -5.9080    -0.6790 C.ar  1 <1>  -0.1500 
 18 C       -7.1870    -5.0030    -1.2010 C.3   1 <1>   0.4860 
 19 C      -10.8060    -5.1350     1.1170 C.ar  1 <1>  -0.1500 
 20 C      -10.6110    -5.9780     0.0420 C.ar  1 <1>  -0.1500 
 21 N       -5.9980    -5.3950    -0.4060 N.4   1 <1>  -0.9590 
 22 C       -4.7870    -5.6370    -1.2110 C.3   1 <1>   0.3430 
 23 C       -6.1800    -6.5640     0.4780 C.3   1 <1>   0.3430 
 24 C       -3.8790    -6.4600    -0.3030 C.3   1 <1>  -0.1600 
 25 C       -4.7580    -6.9510     0.8520 C.3   1 <1>  -0.1600 
 26 H       -1.1670    -0.5230    -1.1680 H     1 <1>   0.0800 
 27 H        0.2430    -0.9440    -0.2370 H     1 <1>   0.0800 
 28 H       -0.6260     0.5140     0.1470 H     1 <1>   0.0800 
 29 H       -2.8920    -3.4200     1.4520 H     1 <1>   0.1500 
 30 H       -2.8670     1.2730     0.3530 H     1 <1>   0.0800 
 31 H       -4.4390     1.4530    -0.3570 H     1 <1>   0.0800 
 32 H       -3.1320     0.8470    -1.3330 H     1 <1>   0.0800 
 33 H       -8.1270    -2.3670     1.8460 H     1 <1>   0.0800 
 34 H       -6.9250    -3.6040     1.9100 H     1 <1>   0.0800 
 35 H       -7.3060    -1.2100    -1.5680 H     1 <1>   0.0800 
 36 H       -8.0750    -0.6510    -0.1010 H     1 <1>   0.0800 
 37 H       -8.7040    -2.0520    -0.9460 H     1 <1>   0.0800 
 38 H      -10.0040    -3.5820     2.3090 H     1 <1>   0.1500 
 39 H       -9.3100    -6.5740    -1.5160 H     1 <1>   0.1500 
 40 H       -7.0370    -4.0230    -1.6220 H     1 <1>   0.0800 
 41 H       -7.3220    -5.6970    -2.0120 H     1 <1>   0.0800 
 42 H      -11.7220    -5.1850     1.6810 H     1 <1>   0.1500 
 43 H      -11.3760    -6.6850    -0.2320 H     1 <1>   0.1500 
 44 H       -5.7880    -4.5730     0.1940 H     1 <1>   0.4500 
 45 H       -4.3210    -4.7090    -1.5040 H     1 <1>   0.0800 
 46 H       -5.0360    -6.2110    -2.0890 H     1 <1>   0.0800 
 47 H       -6.6480    -7.3670    -0.0690 H     1 <1>   0.0800 
 48 H       -6.7760    -6.3210     1.3430 H     1 <1>   0.0800 
 49 H       -3.0730    -5.8490     0.0670 H     1 <1>   0.0800 
 50 H       -3.4580    -7.2820    -0.8550 H     1 <1>   0.0800 
 51 H       -4.6750    -8.0130     1.0040 H     1 <1>   0.0800 
 52 H       -4.4850    -6.4510     1.7650 H     1 <1>   0.0800 
@<TRIPOS>BOND
  1   1   2  2   
  2   2   3  1   
  3   2   4  1   
  4   3   5  ar  
  5   3   6  ar  
  6   4  26  1   
  7   4  27  1   
  8   4  28  1   
  9   5   7  ar  
 10   5   8  1   
 11   6   9  ar  
 12   6  29  1   
 13   7  10  ar  
 14   8  30  1   
 15   8  31  1   
 16   8  32  1   
 17   9  10  ar  
 18  10  11  1   
 19  11  12  1   
 20  11  13  1   
 21  12  14  1   
 22  12  33  1   
 23  12  34  1   
 24  13  35  1   
 25  13  36  1   
 26  13  37  1   
 27  14  15  ar  
 28  14  16  ar  
 29  15  17  ar  
 30  15  18  1   
 31  16  19  ar  
 32  16  38  1   
 33  17  20  ar  
 34  17  39  1   
 35  18  21  1   
 36  18  40  1   
 37  18  41  1   
 38  19  20  ar  
 39  19  42  1   
 40  20  43  1   
 41  21  22  1   
 42  21  23  1   
 43  21  44  1   
 44  22  24  1   
 45  22  45  1   
 46  22  46  1   
 47  23  25  1   
 48  23  47  1   
 49  23  48  1   
 50  24  25  1   
 51  24  49  1   
 52  24  50  1   
 53  25  51  1   
 54  25  52  1   
@<TRIPOS>SUBSTRUCTURE
  1 ****   9 GROUP 4 **** **** 0

# MOE 2024.06 (io_trps.svl 2023.06)
