@<TRIPOS>MOLECULE
NONAME
47 49 1 0 0 
SMALL
USER_CHARGES


@<TRIPOS>ATOM
  1 O       -2.7670    -1.4920    -2.3140 O.co2 1 <1>  -0.9000 
  2 C       -2.2720    -0.8030    -1.4020 C.2   1 <1>   0.9790 
  3 O       -1.1370    -0.3250    -1.5520 O.co2 1 <1>  -0.9000 
  4 C       -2.9920    -0.7350    -0.1490 C.ar  1 <1>  -0.1790 
  5 C       -3.5200     0.3880     0.5160 C.ar  1 <1>   0.0820 
  6 C       -3.2640    -1.9830     0.4000 C.ar  1 <1>  -0.1500 
  7 O       -3.3810     1.6890     0.1540 O.3   1 <1>  -0.3630 
  8 C       -4.3030     0.2070     1.6480 C.ar  1 <1>  -0.1500 
  9 C       -4.1020    -2.1630     1.4810 C.ar  1 <1>  -0.1430 
 10 C       -2.4570     2.1430    -0.8080 C.3   1 <1>   0.0400 
 11 C       -4.6110    -1.0520     2.1300 C.ar  1 <1>  -0.1500 
 12 C       -4.4960    -3.5750     1.8490 C.3   1 <1>   0.4870 
 13 N       -5.0270    -4.1920     0.5980 N.4   1 <1>  -0.9590 
 14 C       -6.2070    -3.4660     0.0110 C.3   1 <1>   0.3430 
 15 C       -5.3440    -5.6420     0.6520 C.3   1 <1>   0.3430 
 16 C       -7.2560    -4.5420    -0.3020 C.3   1 <1>   0.2000 
 17 C       -6.4390    -5.8330    -0.3950 C.3   1 <1>  -0.0800 
 18 O       -8.1600    -4.6250     0.7540 O.3   1 <1>  -0.6800 
 19 C       -7.2130    -7.1560    -0.2420 C.3   1 <1>  -0.0170 
 20 C       -6.2360    -8.3190    -0.1840 C.ar  1 <1>  -0.1430 
 21 C       -5.4780    -8.6870    -1.2780 C.ar  1 <1>  -0.1500 
 22 C       -6.0480    -9.0600     0.9660 C.ar  1 <1>  -0.1500 
 23 C       -4.5740    -9.7310    -1.1650 C.ar  1 <1>   0.1600 
 24 C       -5.1200   -10.0880     0.9740 C.ar  1 <1>   0.1600 
 25 N       -4.3700   -10.4290    -0.0610 N.ar  1 <1>  -0.6200 
 26 H       -2.8110    -2.8260    -0.0960 H     1 <1>   0.1500 
 27 H       -4.6870     1.0810     2.1440 H     1 <1>   0.1500 
 28 H       -2.5130     3.2140    -0.8490 H     1 <1>   0.0800 
 29 H       -2.7120     1.7310    -1.7690 H     1 <1>   0.0800 
 30 H       -1.4680     1.8420    -0.5120 H     1 <1>   0.0800 
 31 H       -5.2490    -1.1450     2.9910 H     1 <1>   0.1500 
 32 H       -5.2490    -3.5660     2.6200 H     1 <1>   0.0800 
 33 H       -3.6310    -4.1130     2.2000 H     1 <1>   0.0800 
 34 H       -4.2760    -4.0510    -0.0970 H     1 <1>   0.4500 
 35 H       -6.6080    -2.7270     0.6860 H     1 <1>   0.0800 
 36 H       -5.9030    -2.9740    -0.8990 H     1 <1>   0.0800 
 37 H       -4.4800    -6.2500     0.4350 H     1 <1>   0.0800 
 38 H       -5.7290    -5.9020     1.6240 H     1 <1>   0.0800 
 39 H       -7.8090    -4.3260    -1.2000 H     1 <1>   0.0800 
 40 H       -5.9560    -5.8430    -1.3570 H     1 <1>   0.0800 
 41 H       -7.7250    -4.7490     1.6170 H     1 <1>   0.4000 
 42 H       -7.8800    -7.2870    -1.0780 H     1 <1>   0.0800 
 43 H       -7.8150    -7.1520     0.6500 H     1 <1>   0.0800 
 44 H       -5.5770    -8.1800    -2.2210 H     1 <1>   0.1500 
 45 H       -6.6130    -8.8580     1.8580 H     1 <1>   0.1500 
 46 H       -3.9880   -10.0050    -2.0260 H     1 <1>   0.1500 
 47 H       -4.9850   -10.6600     1.8770 H     1 <1>   0.1500 
@<TRIPOS>BOND
  1   1   2  ar  
  2   2   3  ar  
  3   2   4  1   
  4   4   5  ar  
  5   4   6  ar  
  6   5   7  1   
  7   5   8  ar  
  8   6   9  ar  
  9   6  26  1   
 10   7  10  1   
 11   8  11  ar  
 12   8  27  1   
 13   9  11  ar  
 14   9  12  1   
 15  10  28  1   
 16  10  29  1   
 17  10  30  1   
 18  11  31  1   
 19  12  13  1   
 20  12  32  1   
 21  12  33  1   
 22  13  14  1   
 23  13  15  1   
 24  13  34  1   
 25  14  16  1   
 26  14  35  1   
 27  14  36  1   
 28  15  17  1   
 29  15  37  1   
 30  15  38  1   
 31  16  17  1   
 32  16  18  1   
 33  16  39  1   
 34  17  19  1   
 35  17  40  1   
 36  18  41  1   
 37  19  20  1   
 38  19  42  1   
 39  19  43  1   
 40  20  21  ar  
 41  20  22  ar  
 42  21  23  ar  
 43  21  44  1   
 44  22  24  ar  
 45  22  45  1   
 46  23  25  ar  
 47  23  46  1   
 48  24  25  ar  
 49  24  47  1   
@<TRIPOS>SUBSTRUCTURE
  1 ****  13 GROUP 4 **** **** 0

# MOE 2024.06 (io_trps.svl 2023.06)
