@<TRIPOS>MOLECULE
NONAME
47 48 1 0 0 
SMALL
USER_CHARGES


@<TRIPOS>ATOM
  1 S       -0.1190     0.6260    -1.0130 S.o2  1 <1>   1.3330 
  2 O       -0.8940    -0.5030    -1.4620 O.2   1 <1>  -0.6500 
  3 O        0.1910     1.7200    -1.9060 O.2   1 <1>  -0.6500 
  4 N        1.3540     0.0480    -0.3960 N.am  1 <1>  -0.8490 
  5 C       -0.9050     1.3520     0.4340 C.3   1 <1>  -0.0550 
  6 C        2.3490    -0.1260    -1.4650 C.3   1 <1>   0.1160 
  7 C        1.2140    -1.2380     0.3090 C.3   1 <1>   0.1160 
  8 C       -0.4250     2.7690     0.8420 C.3   1 <1>  -0.0800 
  9 C       -0.8580     3.8660    -0.1480 C.3   1 <1>   0.2000 
 10 C        1.1040     2.9170     0.9780 C.3   1 <1>   0.3430 
 11 O       -1.5220     4.8570     0.5680 O.3   1 <1>  -0.6800 
 12 C        0.4530     4.4510    -0.6910 C.3   1 <1>   0.3430 
 13 N        1.4630     4.2340     0.3880 N.4   1 <1>  -0.9590 
 14 C        1.4200     5.3310     1.3990 C.3   1 <1>   0.4860 
 15 C        1.8910     6.6210     0.7530 C.ar  1 <1>  -0.1430 
 16 C        3.2420     6.8520     0.5300 C.ar  1 <1>  -0.1500 
 17 C        0.9690     7.5900     0.3800 C.ar  1 <1>  -0.1500 
 18 C        3.6430     8.0340    -0.0650 C.ar  1 <1>   0.1900 
 19 C        1.3850     8.7700    -0.2150 C.ar  1 <1>  -0.1500 
 20 F        4.9310     8.1760    -0.2500 F     1 <1>  -0.1900 
 21 C        2.7280     9.0190    -0.4520 C.ar  1 <1>   0.0820 
 22 O        3.0040    10.2150    -1.0430 O.3   1 <1>  -0.3630 
 23 C        4.3170    10.6710    -1.2830 C.3   1 <1>   0.0400 
 24 H       -1.9620     1.4050     0.2480 H     1 <1>   0.0800 
 25 H       -0.7780     0.6880     1.2670 H     1 <1>   0.0800 
 26 H        3.2780    -0.4900    -1.0580 H     1 <1>   0.0800 
 27 H        2.5430     0.8140    -1.9550 H     1 <1>   0.0800 
 28 H        1.9910    -0.8280    -2.2020 H     1 <1>   0.0800 
 29 H        2.1600    -1.5370     0.7290 H     1 <1>   0.0800 
 30 H        0.8790    -2.0080    -0.3690 H     1 <1>   0.0800 
 31 H        0.5010    -1.1570     1.1100 H     1 <1>   0.0800 
 32 H       -0.8560     2.9740     1.8070 H     1 <1>   0.0800 
 33 H       -1.4990     3.5290    -0.9460 H     1 <1>   0.0800 
 34 H        1.6050     2.1480     0.4180 H     1 <1>   0.0800 
 35 H        1.4150     2.8460     2.0070 H     1 <1>   0.0800 
 36 H       -2.4750     4.6440     0.6670 H     1 <1>   0.4000 
 37 H        0.3410     5.4900    -0.9540 H     1 <1>   0.0800 
 38 H        0.7460     3.9000    -1.5690 H     1 <1>   0.0800 
 39 H        2.4020     4.2190    -0.0280 H     1 <1>   0.4500 
 40 H        0.4170     5.4570     1.7740 H     1 <1>   0.0800 
 41 H        2.0650     5.0950     2.2290 H     1 <1>   0.0800 
 42 H        3.9920     6.1350     0.8120 H     1 <1>   0.1500 
 43 H       -0.0860     7.4380     0.5490 H     1 <1>   0.1500 
 44 H        0.6630     9.5160    -0.5010 H     1 <1>   0.1500 
 45 H        4.2560    11.6540    -1.7150 H     1 <1>   0.0800 
 46 H        4.8000    10.0020    -1.9730 H     1 <1>   0.0800 
 47 H        4.8490    10.7160    -0.3500 H     1 <1>   0.0800 
@<TRIPOS>BOND
  1   1   2  2   
  2   1   3  2   
  3   1   4  am  
  4   1   5  1   
  5   4   6  1   
  6   4   7  1   
  7   5   8  1   
  8   5  24  1   
  9   5  25  1   
 10   6  26  1   
 11   6  27  1   
 12   6  28  1   
 13   7  29  1   
 14   7  30  1   
 15   7  31  1   
 16   8   9  1   
 17   8  10  1   
 18   8  32  1   
 19   9  11  1   
 20   9  12  1   
 21   9  33  1   
 22  10  13  1   
 23  10  34  1   
 24  10  35  1   
 25  11  36  1   
 26  12  13  1   
 27  12  37  1   
 28  12  38  1   
 29  13  14  1   
 30  13  39  1   
 31  14  15  1   
 32  14  40  1   
 33  14  41  1   
 34  15  16  ar  
 35  15  17  ar  
 36  16  18  ar  
 37  16  42  1   
 38  17  19  ar  
 39  17  43  1   
 40  18  20  1   
 41  18  21  ar  
 42  19  21  ar  
 43  19  44  1   
 44  21  22  1   
 45  22  23  1   
 46  23  45  1   
 47  23  46  1   
 48  23  47  1   
@<TRIPOS>SUBSTRUCTURE
  1 ****  13 GROUP 4 **** **** 0

# MOE 2024.06 (io_trps.svl 2023.06)
