@<TRIPOS>MOLECULE
NONAME
46 47 1 0 0 
SMALL
USER_CHARGES


@<TRIPOS>ATOM
  1 S       -0.9790    -0.9910    -0.6480 S.3   1 <1>  -0.4600 
  2 C       -1.9650    -0.3140     0.7380 C.3   1 <1>   0.1310 
  3 C        0.3100     0.2590    -0.8950 C.3   1 <1>  -0.0100 
  4 C       -2.9270    -1.3510     1.3140 C.2   1 <1>   0.5690 
  5 O       -2.6740    -1.7650     2.4230 O.2   1 <1>  -0.5700 
  6 N       -4.0550    -1.7590     0.6360 N.am  1 <1>  -0.6600 
  7 C       -4.9480    -2.8110     1.2110 C.3   1 <1>   0.1400 
  8 C       -4.4740    -1.2250    -0.6910 C.3   1 <1>   0.1400 
  9 C       -6.3760    -2.2980     1.4450 C.3   1 <1>   0.1400 
 10 C       -5.5600    -0.1630    -0.4910 C.3   1 <1>  -0.1600 
 11 N       -7.1000    -2.0810     0.1520 N.am  1 <1>  -0.6600 
 12 C       -6.9950    -0.7100    -0.4330 C.3   1 <1>   0.1400 
 13 C       -7.8490    -3.0480    -0.4750 C.2   1 <1>   0.5690 
 14 O       -8.4320    -2.8300    -1.5110 O.2   1 <1>  -0.5700 
 15 C       -7.9560    -4.4420     0.1180 C.3   1 <1>  -0.0990 
 16 C       -8.8140    -5.3870    -0.7370 C.3   1 <1>   0.0960 
 17 N       -8.7920    -6.7580    -0.1910 N.pl3 1 <1>   0.3140 
 18 N       -9.0390    -7.0230     1.1070 N.2   1 <1>  -0.7070 
 19 C       -8.5270    -7.8880    -0.8770 C.2   1 <1>  -0.3020 
 20 C       -8.9290    -8.3120     1.2100 C.2   1 <1>   0.1390 
 21 C       -8.6080    -8.9120    -0.0030 C.2   1 <1>  -0.1810 
 22 C       -8.4020   -10.3900    -0.2580 C.3   1 <1>  -0.0590 
 23 H       -2.4980     0.5420     0.3710 H     1 <1>   0.0800 
 24 H       -1.2680    -0.0090     1.4960 H     1 <1>   0.0800 
 25 H        0.9330    -0.0710    -1.7080 H     1 <1>   0.0800 
 26 H        0.8800     0.3350     0.0140 H     1 <1>   0.0800 
 27 H       -0.1680     1.1920    -1.1340 H     1 <1>   0.0800 
 28 H       -4.5560    -3.1530     2.1520 H     1 <1>   0.0800 
 29 H       -4.9660    -3.6590     0.5490 H     1 <1>   0.0800 
 30 H       -4.8350    -2.0260    -1.3150 H     1 <1>   0.0800 
 31 H       -3.6370    -0.7840    -1.1980 H     1 <1>   0.0800 
 32 H       -6.3390    -1.3810     2.0070 H     1 <1>   0.0800 
 33 H       -6.9070    -3.0130     2.0470 H     1 <1>   0.0800 
 34 H       -5.5170     0.5270    -1.3140 H     1 <1>   0.0800 
 35 H       -5.3530     0.4060     0.3980 H     1 <1>   0.0800 
 36 H       -7.3830    -0.7210    -1.4380 H     1 <1>   0.0800 
 37 H       -7.6140    -0.0380     0.1360 H     1 <1>   0.0800 
 38 H       -8.4020    -4.3670     1.0930 H     1 <1>   0.0800 
 39 H       -6.9700    -4.8570     0.2110 H     1 <1>   0.0800 
 40 H       -8.4400    -5.4140    -1.7440 H     1 <1>   0.0800 
 41 H       -9.8320    -5.0450    -0.7560 H     1 <1>   0.0800 
 42 H       -8.3030    -7.8990    -1.9270 H     1 <1>   0.1500 
 43 H       -9.0720    -8.8460     2.1340 H     1 <1>   0.1500 
 44 H       -8.1640   -10.5590    -1.2920 H     1 <1>   0.0800 
 45 H       -9.2980   -10.9320    -0.0150 H     1 <1>   0.0800 
 46 H       -7.5940   -10.7580     0.3490 H     1 <1>   0.0800 
@<TRIPOS>BOND
  1   1   2  1   
  2   1   3  1   
  3   2   4  1   
  4   2  23  1   
  5   2  24  1   
  6   3  25  1   
  7   3  26  1   
  8   3  27  1   
  9   4   5  2   
 10   4   6  am  
 11   6   7  1   
 12   6   8  1   
 13   7   9  1   
 14   7  28  1   
 15   7  29  1   
 16   8  10  1   
 17   8  30  1   
 18   8  31  1   
 19   9  11  1   
 20   9  32  1   
 21   9  33  1   
 22  10  12  1   
 23  10  34  1   
 24  10  35  1   
 25  11  12  1   
 26  11  13  am  
 27  12  36  1   
 28  12  37  1   
 29  13  14  2   
 30  13  15  1   
 31  15  16  1   
 32  15  38  1   
 33  15  39  1   
 34  16  17  1   
 35  16  40  1   
 36  16  41  1   
 37  17  18  1   
 38  17  19  1   
 39  18  20  2   
 40  19  21  2   
 41  19  42  1   
 42  20  21  1   
 43  20  43  1   
 44  21  22  1   
 45  22  44  1   
 46  22  45  1   
 47  22  46  1   
@<TRIPOS>SUBSTRUCTURE
  1 ****   7 GROUP 4 **** **** 0

# MOE 2024.06 (io_trps.svl 2023.06)
