@<TRIPOS>MOLECULE
NONAME
51 53 1 0 0 
SMALL
USER_CHARGES


@<TRIPOS>ATOM
  1 O        0.9300     0.3740     0.3490 O.2   1 <1>  -0.5700 
  2 C        1.6910    -0.5670     0.4720 C.2   1 <1>   0.5440 
  3 N        2.8440    -0.3900     1.2120 N.am  1 <1>  -0.6600 
  4 C        1.3730    -1.8280    -0.1740 C.ar  1 <1>   0.0860 
  5 C        4.0860    -1.1960     1.0010 C.3   1 <1>   0.1400 
  6 C        3.0240     0.7890     2.1010 C.3   1 <1>   0.1400 
  7 C        0.9590    -1.8640    -1.5050 C.ar  1 <1>  -0.1500 
  8 C        1.4590    -3.0430     0.5070 C.ar  1 <1>  -0.1500 
  9 C        5.2090    -0.3110     0.4460 C.3   1 <1>   0.2000 
 10 C        4.0790     1.7160     1.4980 C.3   1 <1>  -0.1600 
 11 C        0.6610    -3.0590    -2.1360 C.ar  1 <1>  -0.1500 
 12 C        1.1640    -4.2420    -0.1170 C.ar  1 <1>  -0.1500 
 13 O        6.3810    -1.0570     0.4430 O.3   1 <1>  -0.6800 
 14 C        5.4030     0.9750     1.2820 C.3   1 <1>   0.2200 
 15 C        0.7660    -4.2510    -1.4420 C.ar  1 <1>  -0.1500 
 16 N        6.3540     1.9120     0.6320 N.am  1 <1>  -0.7300 
 17 C        7.7040     1.7870     0.6390 C.2   1 <1>   0.5690 
 18 O        8.2350     0.8260     1.1410 O.2   1 <1>  -0.5700 
 19 C        8.5540     2.8690    -0.0260 C.3   1 <1>  -0.0190 
 20 C        9.3190     2.3070    -1.2420 C.3   1 <1>  -0.1600 
 21 C        9.5300     3.5120     0.9820 C.3   1 <1>  -0.1600 
 22 C       10.1960     3.3800    -1.9070 C.3   1 <1>  -0.1600 
 23 C       10.4070     4.5850     0.3180 C.3   1 <1>  -0.1600 
 24 C       11.1520     4.0090    -0.8900 C.3   1 <1>   0.2000 
 25 O       11.8310     5.0340    -1.5090 O.3   1 <1>  -0.6800 
 26 H        4.3920    -1.6160     1.9440 H     1 <1>   0.0800 
 27 H        3.9110    -1.9980     0.3070 H     1 <1>   0.0800 
 28 H        2.0940     1.3200     2.2200 H     1 <1>   0.0800 
 29 H        3.3360     0.4510     3.0750 H     1 <1>   0.0800 
 30 H        0.8690    -0.9370    -2.0440 H     1 <1>   0.1500 
 31 H        1.7590    -3.0420     1.5400 H     1 <1>   0.1500 
 32 H        4.9820    -0.0510    -0.5730 H     1 <1>   0.0800 
 33 H        4.2330     2.5450     2.1640 H     1 <1>   0.0800 
 34 H        3.7020     2.0910     0.5620 H     1 <1>   0.0800 
 35 H        0.3460    -3.0610    -3.1650 H     1 <1>   0.1500 
 36 H        1.2410    -5.1670     0.4270 H     1 <1>   0.1500 
 37 H        7.1520    -0.4560     0.6230 H     1 <1>   0.4000 
 38 H        5.7930     0.6920     2.2470 H     1 <1>   0.0800 
 39 H        0.5350    -5.1820    -1.9310 H     1 <1>   0.1500 
 40 H        5.9220     2.6960     0.1420 H     1 <1>   0.3700 
 41 H        7.8930     3.6400    -0.3790 H     1 <1>   0.0800 
 42 H        9.9430     1.4900    -0.9200 H     1 <1>   0.0800 
 43 H        8.6190     1.9180    -1.9610 H     1 <1>   0.0800 
 44 H        8.9750     3.9510     1.7930 H     1 <1>   0.0800 
 45 H       10.1640     2.7460     1.3980 H     1 <1>   0.0800 
 46 H        9.5620     4.1390    -2.3290 H     1 <1>   0.0800 
 47 H       10.7680     2.9290    -2.6990 H     1 <1>   0.0800 
 48 H       11.1220     4.9520     1.0340 H     1 <1>   0.0800 
 49 H        9.7840     5.4040     0.0050 H     1 <1>   0.0800 
 50 H       11.8800     3.2830    -0.5650 H     1 <1>   0.0800 
 51 H       11.2020     5.7120    -1.8170 H     1 <1>   0.4000 
@<TRIPOS>BOND
  1   1   2  2   
  2   2   3  am  
  3   2   4  1   
  4   3   5  1   
  5   3   6  1   
  6   4   7  ar  
  7   4   8  ar  
  8   5   9  1   
  9   5  26  1   
 10   5  27  1   
 11   6  10  1   
 12   6  28  1   
 13   6  29  1   
 14   7  11  ar  
 15   7  30  1   
 16   8  12  ar  
 17   8  31  1   
 18   9  13  1   
 19   9  14  1   
 20   9  32  1   
 21  10  14  1   
 22  10  33  1   
 23  10  34  1   
 24  11  15  ar  
 25  11  35  1   
 26  12  15  ar  
 27  12  36  1   
 28  13  37  1   
 29  14  16  1   
 30  14  38  1   
 31  15  39  1   
 32  16  17  am  
 33  16  40  1   
 34  17  18  2   
 35  17  19  1   
 36  19  20  1   
 37  19  21  1   
 38  19  41  1   
 39  20  22  1   
 40  20  42  1   
 41  20  43  1   
 42  21  23  1   
 43  21  44  1   
 44  21  45  1   
 45  22  24  1   
 46  22  46  1   
 47  22  47  1   
 48  23  24  1   
 49  23  48  1   
 50  23  49  1   
 51  24  25  1   
 52  24  50  1   
 53  25  51  1   
@<TRIPOS>SUBSTRUCTURE
  1 ****   9 GROUP 4 **** **** 0

# MOE 2024.06 (io_trps.svl 2023.06)
