@<TRIPOS>MOLECULE
NONAME
55 58 1 0 0 
SMALL
USER_CHARGES


@<TRIPOS>ATOM
  1 O       -0.1790     0.8140     0.2950 O.3   1 <1>  -0.3630 
  2 C        1.1420     0.6050     0.0510 C.ar  1 <1>   0.0830 
  3 C       -0.8210     2.0580     0.0800 C.3   1 <1>   0.1200 
  4 C        1.7450    -0.4750     0.6490 C.ar  1 <1>  -0.1440 
  5 C        1.8910     1.4390    -0.7980 C.ar  1 <1>  -0.1500 
  6 C       -0.3460     3.0690     1.1250 C.3   1 <1>  -0.2400 
  7 C        3.1180    -0.7610     0.4460 C.ar  1 <1>   0.0000 
  8 C        0.9050    -1.3830     1.5220 C.3   1 <1>   0.4870 
  9 C        3.2100     1.1740    -1.0260 C.ar  1 <1>  -0.1500 
 10 C        3.8550     0.0780    -0.4210 C.ar  1 <1>   0.0000 
 11 C        3.8060    -1.8360     1.0590 C.ar  1 <1>  -0.1500 
 12 N        0.5180    -2.5530     0.7020 N.4   1 <1>  -0.9590 
 13 C        5.2170    -0.1960    -0.6550 C.ar  1 <1>  -0.1500 
 14 C        5.1310    -2.0720     0.8210 C.ar  1 <1>  -0.1500 
 15 C       -0.4490    -2.2450    -0.3900 C.3   1 <1>   0.3430 
 16 C        0.0430    -3.7680     1.3880 C.3   1 <1>   0.3430 
 17 C        5.8460    -1.2460    -0.0500 C.ar  1 <1>  -0.1500 
 18 C       -1.1740    -3.5640    -0.6890 C.3   1 <1>   0.2000 
 19 C       -0.6000    -4.6050     0.2810 C.3   1 <1>  -0.0800 
 20 O       -2.5340    -3.4170    -0.4370 O.3   1 <1>  -0.6800 
 21 C        0.3910    -5.5800    -0.4020 C.3   1 <1>   0.0210 
 22 C        1.7660    -5.0330    -0.7760 C.2   1 <1>   0.1080 
 23 N        1.9860    -3.8640    -1.2980 N.2   1 <1>  -0.7070 
 24 C        2.9430    -5.7550    -0.6160 C.2   1 <1>  -0.1500 
 25 N        3.3230    -3.8170    -1.5020 N.pl3 1 <1>   0.3000 
 26 C        3.9190    -4.9530    -1.0890 C.2   1 <1>  -0.3320 
 27 C        5.4110    -5.2160    -1.1940 C.3   1 <1>  -0.0600 
 28 H       -0.6360     2.3920    -0.9250 H     1 <1>   0.0800 
 29 H       -1.8790     1.8930     0.1890 H     1 <1>   0.0800 
 30 H        1.4380     2.2850    -1.2790 H     1 <1>   0.1500 
 31 H        0.7070     3.2600     1.0280 H     1 <1>   0.0800 
 32 H       -0.5540     2.7050     2.1160 H     1 <1>   0.0800 
 33 H       -0.8700     3.9980     0.9900 H     1 <1>   0.0800 
 34 H        0.0270    -0.8640     1.8690 H     1 <1>   0.0800 
 35 H        1.4790    -1.6930     2.3790 H     1 <1>   0.0800 
 36 H        3.7840     1.8090    -1.6770 H     1 <1>   0.1500 
 37 H        3.2920    -2.4920     1.7330 H     1 <1>   0.1500 
 38 H        1.3640    -2.8490     0.1660 H     1 <1>   0.4500 
 39 H        5.7630     0.4490    -1.3210 H     1 <1>   0.1500 
 40 H        5.6430    -2.8890     1.3010 H     1 <1>   0.1500 
 41 H       -1.1550    -1.4920    -0.0820 H     1 <1>   0.0800 
 42 H        0.0830    -1.9020    -1.2620 H     1 <1>   0.0800 
 43 H        0.8540    -4.2960     1.8650 H     1 <1>   0.0800 
 44 H       -0.7000    -3.5040     2.1230 H     1 <1>   0.0800 
 45 H        6.8900    -1.4440    -0.2270 H     1 <1>   0.1500 
 46 H       -1.0590    -3.8460    -1.7230 H     1 <1>   0.0800 
 47 H       -1.3920    -5.2050     0.6950 H     1 <1>   0.0800 
 48 H       -2.7280    -3.1900     0.4920 H     1 <1>   0.4000 
 49 H       -0.0630    -5.9750    -1.2940 H     1 <1>   0.0800 
 50 H        0.5450    -6.4160     0.2570 H     1 <1>   0.0800 
 51 H        3.0360    -6.7490    -0.2110 H     1 <1>   0.1500 
 52 H        3.8010    -3.0030    -1.9130 H     1 <1>   0.2700 
 53 H        5.6470    -6.1830    -0.7860 H     1 <1>   0.0800 
 54 H        5.9660    -4.4720    -0.6520 H     1 <1>   0.0800 
 55 H        5.7190    -5.1980    -2.2240 H     1 <1>   0.0800 
@<TRIPOS>BOND
  1   1   2  1   
  2   1   3  1   
  3   2   4  ar  
  4   2   5  ar  
  5   3   6  1   
  6   3  28  1   
  7   3  29  1   
  8   4   7  ar  
  9   4   8  1   
 10   5   9  ar  
 11   5  30  1   
 12   6  31  1   
 13   6  32  1   
 14   6  33  1   
 15   7  10  ar  
 16   7  11  ar  
 17   8  12  1   
 18   8  34  1   
 19   8  35  1   
 20   9  10  ar  
 21   9  36  1   
 22  10  13  ar  
 23  11  14  ar  
 24  11  37  1   
 25  12  15  1   
 26  12  16  1   
 27  12  38  1   
 28  13  17  ar  
 29  13  39  1   
 30  14  17  ar  
 31  14  40  1   
 32  15  18  1   
 33  15  41  1   
 34  15  42  1   
 35  16  19  1   
 36  16  43  1   
 37  16  44  1   
 38  17  45  1   
 39  18  19  1   
 40  18  20  1   
 41  18  46  1   
 42  19  21  1   
 43  19  47  1   
 44  20  48  1   
 45  21  22  1   
 46  21  49  1   
 47  21  50  1   
 48  22  23  2   
 49  22  24  1   
 50  23  25  1   
 51  24  26  2   
 52  24  51  1   
 53  25  26  1   
 54  25  52  1   
 55  26  27  1   
 56  27  53  1   
 57  27  54  1   
 58  27  55  1   
@<TRIPOS>SUBSTRUCTURE
  1 ****  12 GROUP 4 **** **** 0

# MOE 2024.06 (io_trps.svl 2023.06)
