@<TRIPOS>MOLECULE
NONAME
40 41 1 0 0 
SMALL
USER_CHARGES


@<TRIPOS>ATOM
  1 O       -0.2920    -0.4460    -0.2090 O.3   1 <1>  -0.5600 
  2 C       -0.1860    -1.8260    -0.1840 C.3   1 <1>   0.1200 
  3 C        0.9090     0.2170    -0.4450 C.3   1 <1>   0.0400 
  4 C       -1.5850    -2.3640     0.1010 C.3   1 <1>  -0.1600 
  5 C       -1.5920    -3.8890     0.1140 C.3   1 <1>   0.3430 
  6 N       -2.9390    -4.3900     0.4930 N.4   1 <1>  -0.9590 
  7 C       -4.0370    -4.0870    -0.4630 C.3   1 <1>   0.3430 
  8 C       -3.0000    -5.8650     0.7090 C.3   1 <1>   0.3430 
  9 C       -5.1620    -5.0170    -0.0120 C.3   1 <1>   0.2000 
 10 C       -4.4330    -6.3120     0.3580 C.3   1 <1>  -0.0800 
 11 O       -5.7050    -4.4850     1.1520 O.3   1 <1>  -0.6800 
 12 C       -4.4530    -7.3260    -0.8050 C.3   1 <1>  -0.0170 
 13 C       -3.7940    -8.6470    -0.4310 C.ar  1 <1>   0.1670 
 14 N       -2.4770    -8.6310    -0.3030 N.ar  1 <1>  -0.6200 
 15 C       -4.5720    -9.7910    -0.2460 C.ar  1 <1>   0.1600 
 16 C       -1.9930    -9.8260     0.0080 C.ar  1 <1>   0.1600 
 17 N       -4.0900   -10.9780     0.0760 N.ar  1 <1>  -0.6200 
 18 C       -2.7740   -10.9600     0.1920 C.ar  1 <1>   0.1600 
 19 H        0.1750    -2.1590    -1.1430 H     1 <1>   0.0800 
 20 H        0.5070    -2.1050     0.5930 H     1 <1>   0.0800 
 21 H        0.7120     1.2750    -0.4450 H     1 <1>   0.0800 
 22 H        1.2980    -0.0780    -1.4050 H     1 <1>   0.0800 
 23 H        1.6080    -0.0200     0.3380 H     1 <1>   0.0800 
 24 H       -1.9020    -1.9900     1.0590 H     1 <1>   0.0800 
 25 H       -2.2460    -1.9960    -0.6630 H     1 <1>   0.0800 
 26 H       -0.8650    -4.2390     0.8310 H     1 <1>   0.0800 
 27 H       -1.3170    -4.2660    -0.8580 H     1 <1>   0.0800 
 28 H       -3.2380    -3.9530     1.3800 H     1 <1>   0.4500 
 29 H       -4.3420    -3.0540    -0.4180 H     1 <1>   0.0800 
 30 H       -3.7340    -4.3370    -1.4660 H     1 <1>   0.0800 
 31 H       -2.2920    -6.3540     0.0600 H     1 <1>   0.0800 
 32 H       -2.7600    -6.1120     1.7300 H     1 <1>   0.0800 
 33 H       -5.9420    -5.1260    -0.7470 H     1 <1>   0.0800 
 34 H       -4.8890    -6.7770     1.2150 H     1 <1>   0.0800 
 35 H       -6.5300    -4.9490     1.4100 H     1 <1>   0.4000 
 36 H       -3.9450    -6.9240    -1.6650 H     1 <1>   0.0800 
 37 H       -5.4720    -7.5140    -1.0950 H     1 <1>   0.0800 
 38 H       -5.6390    -9.7270    -0.3690 H     1 <1>   0.1500 
 39 H       -0.9270    -9.9160     0.1230 H     1 <1>   0.1500 
 40 H       -2.2910   -11.8880     0.4450 H     1 <1>   0.1500 
@<TRIPOS>BOND
  1   1   2  1   
  2   1   3  1   
  3   2   4  1   
  4   2  19  1   
  5   2  20  1   
  6   3  21  1   
  7   3  22  1   
  8   3  23  1   
  9   4   5  1   
 10   4  24  1   
 11   4  25  1   
 12   5   6  1   
 13   5  26  1   
 14   5  27  1   
 15   6   7  1   
 16   6   8  1   
 17   6  28  1   
 18   7   9  1   
 19   7  29  1   
 20   7  30  1   
 21   8  10  1   
 22   8  31  1   
 23   8  32  1   
 24   9  10  1   
 25   9  11  1   
 26   9  33  1   
 27  10  12  1   
 28  10  34  1   
 29  11  35  1   
 30  12  13  1   
 31  12  36  1   
 32  12  37  1   
 33  13  14  ar  
 34  13  15  ar  
 35  14  16  ar  
 36  15  17  ar  
 37  15  38  1   
 38  16  18  ar  
 39  16  39  1   
 40  17  18  ar  
 41  18  40  1   
@<TRIPOS>SUBSTRUCTURE
  1 ****   8 GROUP 4 **** **** 0

# MOE 2024.06 (io_trps.svl 2023.06)
