@<TRIPOS>MOLECULE
NONAME
34 36 1 0 0 
SMALL
USER_CHARGES


@<TRIPOS>ATOM
  1 F        1.0920    -1.2590    -2.1840 F     1 <1>  -0.1900 
  2 C        1.3520    -1.7970    -1.0210 C.ar  1 <1>   0.1900 
  3 C        1.1140    -3.1540    -0.8300 C.ar  1 <1>  -0.1440 
  4 C        1.8620    -0.9750    -0.0350 C.ar  1 <1>  -0.1500 
  5 C        1.4100    -3.6980     0.4180 C.ar  1 <1>  -0.1500 
  6 C        0.5470    -3.9960    -1.9790 C.3   1 <1>   0.0450 
  7 C        2.1390    -1.5550     1.1850 C.ar  1 <1>   0.1900 
  8 C        1.9200    -2.8990     1.4310 C.ar  1 <1>  -0.1500 
  9 C        0.0430    -5.3800    -1.5910 C.2   1 <1>   0.5690 
 10 F        2.6270    -0.8100     2.1400 F     1 <1>  -0.1900 
 11 O        0.6800    -6.3350    -1.9760 O.2   1 <1>  -0.5700 
 12 N       -1.0830    -5.5160    -0.8370 N.am  1 <1>  -0.6600 
 13 C       -1.9340    -4.4150    -0.3010 C.3   1 <1>   0.2350 
 14 C       -1.6330    -6.8340    -0.4160 C.3   1 <1>   0.2350 
 15 C       -3.2660    -5.0600     0.0300 C.3   1 <1>  -0.2420 
 16 C       -3.0770    -6.5580    -0.0290 C.3   1 <1>  -0.2420 
 17 C       -4.0720    -4.1590     0.9690 C.2   1 <1>   0.9470 
 18 C       -4.0050    -5.8760    -1.0000 C.3   1 <1>  -0.2000 
 19 C       -3.6200    -7.6720     0.8690 C.2   1 <1>   0.9470 
 20 O       -5.1950    -3.7670     0.6230 O.co2 1 <1>  -0.9000 
 21 O       -3.5140    -3.6930     1.9710 O.co2 1 <1>  -0.9000 
 22 O       -4.6030    -8.3280     0.4980 O.co2 1 <1>  -0.9000 
 23 O       -2.9710    -8.0030     1.8710 O.co2 1 <1>  -0.9000 
 24 H        2.0340     0.0700    -0.2100 H     1 <1>   0.1500 
 25 H        1.2410    -4.7440     0.6220 H     1 <1>   0.1500 
 26 H        1.3160    -4.1180    -2.7200 H     1 <1>   0.0800 
 27 H       -0.2630    -3.4710    -2.4490 H     1 <1>   0.0800 
 28 H        2.1410    -3.3140     2.3980 H     1 <1>   0.1500 
 29 H       -1.4830    -4.0200     0.5940 H     1 <1>   0.0800 
 30 H       -2.0720    -3.6270    -1.0190 H     1 <1>   0.0800 
 31 H       -1.5790    -7.5530    -1.2140 H     1 <1>   0.0800 
 32 H       -1.0800    -7.1940     0.4350 H     1 <1>   0.0800 
 33 H       -3.7300    -5.8050    -2.0350 H     1 <1>   0.1000 
 34 H       -5.0640    -6.0200    -0.8630 H     1 <1>   0.1000 
@<TRIPOS>BOND
  1   1   2  1   
  2   2   3  ar  
  3   2   4  ar  
  4   3   5  ar  
  5   3   6  1   
  6   4   7  ar  
  7   4  24  1   
  8   5   8  ar  
  9   5  25  1   
 10   6   9  1   
 11   6  26  1   
 12   6  27  1   
 13   7   8  ar  
 14   7  10  1   
 15   8  28  1   
 16   9  11  2   
 17   9  12  am  
 18  12  13  1   
 19  12  14  1   
 20  13  15  1   
 21  13  29  1   
 22  13  30  1   
 23  14  16  1   
 24  14  31  1   
 25  14  32  1   
 26  15  16  1   
 27  15  17  1   
 28  15  18  1   
 29  16  18  1   
 30  16  19  1   
 31  17  20  ar  
 32  17  21  ar  
 33  18  33  1   
 34  18  34  1   
 35  19  22  ar  
 36  19  23  ar  
@<TRIPOS>SUBSTRUCTURE
  1 ****  13 GROUP 4 **** **** 0

# MOE 2024.06 (io_trps.svl 2023.06)
