@<TRIPOS>MOLECULE
NONAME
52 54 1 0 0 
SMALL
USER_CHARGES


@<TRIPOS>ATOM
  1 O       -1.1420    -0.3690     0.9750 O.2   1 <1>  -0.5700 
  2 C       -2.0220    -1.2030     0.9550 C.2   1 <1>   0.6900 
  3 N       -3.3170    -0.9040     0.5800 N.am  1 <1>  -0.4200 
  4 N       -1.7150    -2.4860     1.3120 N.am  1 <1>  -0.5390 
  5 C       -4.2710    -1.9060     0.5330 C.2   1 <1>   0.6160 
  6 C       -3.6650     0.4960     0.2010 C.3   1 <1>   0.0600 
  7 C       -2.6420    -3.5080     1.3120 C.2   1 <1>  -0.0410 
  8 O       -5.4010    -1.6640     0.1370 O.2   1 <1>  -0.5700 
  9 C       -3.9100    -3.2420     0.9280 C.2   1 <1>  -0.1240 
 10 C       -4.9950    -4.3150     0.9070 C.3   1 <1>  -0.0220 
 11 C       -5.4970    -4.5540    -0.5260 C.3   1 <1>   0.3430 
 12 N       -6.9430    -4.9090    -0.5620 N.4   1 <1>  -0.9590 
 13 C       -7.3430    -5.5830    -1.8380 C.3   1 <1>   0.3430 
 14 C       -7.8450    -3.7680    -0.2330 C.3   1 <1>   0.3430 
 15 C       -8.6700    -6.3530    -1.6590 C.3   1 <1>   0.2090 
 16 C       -8.8680    -4.2220     0.8130 C.3   1 <1>  -0.1600 
 17 N       -9.0330    -6.4690    -0.2060 N.pl3 1 <1>  -0.8380 
 18 C       -9.8170    -5.3290     0.3410 C.3   1 <1>   0.2090 
 19 C       -9.3320    -7.7390     0.2870 C.ar  1 <1>   0.1000 
 20 C      -10.4330    -8.4950    -0.1360 C.ar  1 <1>  -0.1430 
 21 C       -8.4830    -8.2730     1.2490 C.ar  1 <1>  -0.1500 
 22 C      -10.6400    -9.7570     0.3990 C.ar  1 <1>  -0.1500 
 23 C      -11.4310    -7.9850    -1.1680 C.3   1 <1>  -0.0970 
 24 C       -8.6990    -9.5300     1.7780 C.ar  1 <1>  -0.1500 
 25 C       -9.7800   -10.2770     1.3500 C.ar  1 <1>  -0.1500 
 26 H       -0.7390    -2.6170     1.5910 H     1 <1>   0.3700 
 27 H       -3.0720     1.1930     0.7680 H     1 <1>   0.0800 
 28 H       -4.7030     0.6950     0.4000 H     1 <1>   0.0800 
 29 H       -3.4710     0.6430    -0.8460 H     1 <1>   0.0800 
 30 H       -2.2990    -4.4830     1.6280 H     1 <1>   0.1500 
 31 H       -5.7940    -3.9860     1.5470 H     1 <1>   0.0800 
 32 H       -4.6130    -5.2390     1.3040 H     1 <1>   0.0800 
 33 H       -4.9100    -5.3400    -0.9720 H     1 <1>   0.0800 
 34 H       -5.3480    -3.6610    -1.1120 H     1 <1>   0.0800 
 35 H       -7.1890    -5.6380     0.1380 H     1 <1>   0.4500 
 36 H       -6.5850    -6.2970    -2.1160 H     1 <1>   0.0800 
 37 H       -7.4330    -4.8680    -2.6380 H     1 <1>   0.0800 
 38 H       -8.3470    -3.4160    -1.1200 H     1 <1>   0.0800 
 39 H       -7.2740    -2.9490     0.1720 H     1 <1>   0.0800 
 40 H       -8.5660    -7.3350    -2.0890 H     1 <1>   0.0800 
 41 H       -9.4550    -5.8490    -2.1960 H     1 <1>   0.0800 
 42 H       -9.4640    -3.3720     1.0930 H     1 <1>   0.0800 
 43 H       -8.3590    -4.5490     1.7010 H     1 <1>   0.0800 
 44 H      -10.4870    -4.9480    -0.4110 H     1 <1>   0.0800 
 45 H      -10.4150    -5.6680     1.1720 H     1 <1>   0.0800 
 46 H       -7.6450    -7.6960     1.5870 H     1 <1>   0.1500 
 47 H      -11.4780   -10.3520     0.0810 H     1 <1>   0.1500 
 48 H      -11.7240    -6.9780    -0.9430 H     1 <1>   0.0800 
 49 H      -12.3190    -8.5920    -1.1730 H     1 <1>   0.0800 
 50 H      -10.9960    -8.0180    -2.1490 H     1 <1>   0.0800 
 51 H       -8.0310    -9.9300     2.5220 H     1 <1>   0.1500 
 52 H       -9.9540   -11.2580     1.7570 H     1 <1>   0.1500 
@<TRIPOS>BOND
  1   1   2  2   
  2   2   3  am  
  3   2   4  am  
  4   3   5  am  
  5   3   6  1   
  6   4   7  1   
  7   4  26  1   
  8   5   8  2   
  9   5   9  1   
 10   6  27  1   
 11   6  28  1   
 12   6  29  1   
 13   7   9  2   
 14   7  30  1   
 15   9  10  1   
 16  10  11  1   
 17  10  31  1   
 18  10  32  1   
 19  11  12  1   
 20  11  33  1   
 21  11  34  1   
 22  12  13  1   
 23  12  14  1   
 24  12  35  1   
 25  13  15  1   
 26  13  36  1   
 27  13  37  1   
 28  14  16  1   
 29  14  38  1   
 30  14  39  1   
 31  15  17  1   
 32  15  40  1   
 33  15  41  1   
 34  16  18  1   
 35  16  42  1   
 36  16  43  1   
 37  17  18  1   
 38  17  19  1   
 39  18  44  1   
 40  18  45  1   
 41  19  20  ar  
 42  19  21  ar  
 43  20  22  ar  
 44  20  23  1   
 45  21  24  ar  
 46  21  46  1   
 47  22  25  ar  
 48  22  47  1   
 49  23  48  1   
 50  23  49  1   
 51  23  50  1   
 52  24  25  ar  
 53  24  51  1   
 54  25  52  1   
@<TRIPOS>SUBSTRUCTURE
  1 ****  12 GROUP 4 **** **** 0

# MOE 2024.06 (io_trps.svl 2023.06)
