@<TRIPOS>MOLECULE
NONAME
43 44 1 0 0 
SMALL
USER_CHARGES


@<TRIPOS>ATOM
  1 CL      -1.6240    -2.4010     1.4520 Cl    1 <1>  -0.1770 
  2 C       -2.1580    -1.1180     0.3920 C.ar  1 <1>   0.1770 
  3 C       -3.4700    -0.6670     0.4710 C.ar  1 <1>  -0.1440 
  4 C       -1.2510    -0.5870    -0.5120 C.ar  1 <1>  -0.1500 
  5 C       -3.8760     0.3540    -0.3800 C.ar  1 <1>  -0.1500 
  6 C       -4.4190    -1.2870     1.4740 C.3   1 <1>   0.4870 
  7 C       -1.6580     0.4250    -1.3650 C.ar  1 <1>  -0.1500 
  8 C       -2.9630     0.8750    -1.2800 C.ar  1 <1>   0.1900 
  9 N       -5.1270    -2.4100     0.8130 N.4   1 <1>  -0.9590 
 10 F       -3.3530     1.8280    -2.0800 F     1 <1>  -0.1900 
 11 C       -6.2670    -1.9930    -0.0680 C.3   1 <1>   0.3430 
 12 C       -5.6220    -3.4630     1.7300 C.3   1 <1>   0.3430 
 13 C       -7.3900    -3.0170     0.1620 C.3   1 <1>   0.2000 
 14 C       -6.7650    -4.1520     0.9840 C.3   1 <1>  -0.0800 
 15 O       -8.3960    -2.4290     0.9190 O.3   1 <1>  -0.6800 
 16 C       -6.3300    -5.3830     0.1390 C.3   1 <1>  -0.0550 
 17 S       -5.1830    -5.1450    -1.2330 S.o2  1 <1>   1.3330 
 18 O       -4.8790    -6.4220    -1.8260 O.2   1 <1>  -0.6500 
 19 O       -5.6890    -4.0590    -2.0390 O.2   1 <1>  -0.6500 
 20 N       -3.7550    -4.5620    -0.5160 N.am  1 <1>  -0.8490 
 21 C       -2.8610    -4.0030    -1.5480 C.3   1 <1>   0.1160 
 22 C       -3.0040    -5.6230     0.1810 C.3   1 <1>   0.1160 
 23 H       -0.2410    -0.9580    -0.5450 H     1 <1>   0.1500 
 24 H       -4.8730     0.7570    -0.3620 H     1 <1>   0.1500 
 25 H       -5.1240    -0.5520     1.8280 H     1 <1>   0.0800 
 26 H       -3.8570    -1.6510     2.3180 H     1 <1>   0.0800 
 27 H       -0.9810     0.8620    -2.0800 H     1 <1>   0.1500 
 28 H       -4.4300    -2.8890     0.2010 H     1 <1>   0.4500 
 29 H       -6.6210    -1.0050     0.1780 H     1 <1>   0.0800 
 30 H       -5.9560    -2.0060    -1.1000 H     1 <1>   0.0800 
 31 H       -4.8370    -4.1560     1.9920 H     1 <1>   0.0800 
 32 H       -6.0070    -3.0080     2.6290 H     1 <1>   0.0800 
 33 H       -7.8320    -3.3460    -0.7640 H     1 <1>   0.0800 
 34 H       -7.4780    -4.5200     1.7020 H     1 <1>   0.0800 
 35 H       -8.1270    -2.2050     1.8300 H     1 <1>   0.4000 
 36 H       -7.2240    -5.8180    -0.2680 H     1 <1>   0.0800 
 37 H       -5.9200    -6.1210     0.8010 H     1 <1>   0.0800 
 38 H       -1.9340    -3.6720    -1.1120 H     1 <1>   0.0800 
 39 H       -3.3250    -3.1600    -2.0340 H     1 <1>   0.0800 
 40 H       -2.6420    -4.7470    -2.2980 H     1 <1>   0.0800 
 41 H       -2.1240    -5.2130     0.6480 H     1 <1>   0.0800 
 42 H       -2.6960    -6.3910    -0.5120 H     1 <1>   0.0800 
 43 H       -3.6090    -6.0790     0.9460 H     1 <1>   0.0800 
@<TRIPOS>BOND
  1   1   2  1   
  2   2   3  ar  
  3   2   4  ar  
  4   3   5  ar  
  5   3   6  1   
  6   4   7  ar  
  7   4  23  1   
  8   5   8  ar  
  9   5  24  1   
 10   6   9  1   
 11   6  25  1   
 12   6  26  1   
 13   7   8  ar  
 14   7  27  1   
 15   8  10  1   
 16   9  11  1   
 17   9  12  1   
 18   9  28  1   
 19  11  13  1   
 20  11  29  1   
 21  11  30  1   
 22  12  14  1   
 23  12  31  1   
 24  12  32  1   
 25  13  14  1   
 26  13  15  1   
 27  13  33  1   
 28  14  16  1   
 29  14  34  1   
 30  15  35  1   
 31  16  17  1   
 32  16  36  1   
 33  16  37  1   
 34  17  18  2   
 35  17  19  2   
 36  17  20  am  
 37  20  21  1   
 38  20  22  1   
 39  21  38  1   
 40  21  39  1   
 41  21  40  1   
 42  22  41  1   
 43  22  42  1   
 44  22  43  1   
@<TRIPOS>SUBSTRUCTURE
  1 ****   9 GROUP 4 **** **** 0

# MOE 2024.06 (io_trps.svl 2023.06)
