@<TRIPOS>MOLECULE
NONAME
43 46 1 0 0 
SMALL
USER_CHARGES


@<TRIPOS>ATOM
  1 O       -0.8400    -0.1360    -1.5310 O.3   1 <1>  -0.2800 
  2 C       -1.6060    -1.1280    -1.1320 C.2   1 <1>  -0.0100 
  3 C       -1.4440     0.9900    -1.2170 C.2   1 <1>  -0.0100 
  4 C       -2.7350    -0.6570    -0.5560 C.2   1 <1>  -0.1810 
  5 C       -2.6230     0.7430    -0.6080 C.2   1 <1>  -0.1500 
  6 C       -3.8720    -1.4680     0.0200 C.3   1 <1>   0.5240 
  7 N       -4.9520    -1.5110    -0.9990 N.4   1 <1>  -0.9590 
  8 C       -5.8100    -0.2720    -1.0060 C.3   1 <1>   0.3430 
  9 C       -5.7560    -2.7770    -0.9120 C.3   1 <1>   0.3430 
 10 C       -6.7160    -0.1150     0.2400 C.3   1 <1>   0.1440 
 11 C       -7.0860    -2.6070    -0.1630 C.3   1 <1>  -0.1600 
 12 C       -7.9470     0.6150    -0.2580 C.ar  1 <1>   0.1670 
 13 C       -7.0670    -1.4800     0.8820 C.3   1 <1>  -0.1600 
 14 C       -6.1510     0.8710     1.3010 C.3   1 <1>  -0.1600 
 15 N       -8.8380     0.1030    -1.0740 N.ar  1 <1>  -0.6200 
 16 C       -8.0110     1.8930     0.2080 C.ar  1 <1>  -0.1430 
 17 C       -6.8390     2.2340     1.0890 C.3   1 <1>  -0.0170 
 18 C       -9.8330     0.9260    -1.3840 C.ar  1 <1>   0.4770 
 19 C       -9.0790     2.6620    -0.1820 C.ar  1 <1>   0.1600 
 20 N      -10.0030     2.1790    -0.9860 N.ar  1 <1>  -0.6200 
 21 C      -10.8950     0.3790    -2.3060 C.3   1 <1>  -0.0970 
 22 H       -1.2600    -2.1340    -1.3030 H     1 <1>   0.1500 
 23 H       -0.9580     1.9210    -1.4610 H     1 <1>   0.1500 
 24 H       -3.3210     1.4710    -0.2370 H     1 <1>   0.1500 
 25 H       -4.2230    -1.0410     0.9440 H     1 <1>   0.0800 
 26 H       -3.5160    -2.4660     0.2190 H     1 <1>   0.0800 
 27 H       -4.4490    -1.5260    -1.8970 H     1 <1>   0.4500 
 28 H       -6.4570    -0.3230    -1.8680 H     1 <1>   0.0800 
 29 H       -5.2030     0.6100    -1.1220 H     1 <1>   0.0800 
 30 H       -5.1720    -3.5390    -0.4230 H     1 <1>   0.0800 
 31 H       -5.9750    -3.1320    -1.9070 H     1 <1>   0.0800 
 32 H       -7.3420    -3.5380     0.3120 H     1 <1>   0.0800 
 33 H       -7.8630    -2.4100    -0.8830 H     1 <1>   0.0800 
 34 H       -8.0280    -1.4150     1.3650 H     1 <1>   0.0800 
 35 H       -6.3450    -1.7310     1.6390 H     1 <1>   0.0800 
 36 H       -5.0820     0.9660     1.2610 H     1 <1>   0.0800 
 37 H       -6.4180     0.5310     2.2870 H     1 <1>   0.0800 
 38 H       -6.1880     2.9240     0.5790 H     1 <1>   0.0800 
 39 H       -7.1620     2.6640     2.0220 H     1 <1>   0.0800 
 40 H       -9.1820     3.6780     0.1610 H     1 <1>   0.1500 
 41 H      -10.8970    -0.6950    -2.2820 H     1 <1>   0.0800 
 42 H      -10.7030     0.7120    -3.3080 H     1 <1>   0.0800 
 43 H      -11.8620     0.7330    -1.9980 H     1 <1>   0.0800 
@<TRIPOS>BOND
  1   1   2  1   
  2   1   3  1   
  3   2   4  2   
  4   2  22  1   
  5   3   5  2   
  6   3  23  1   
  7   4   5  1   
  8   4   6  1   
  9   5  24  1   
 10   6   7  1   
 11   6  25  1   
 12   6  26  1   
 13   7   8  1   
 14   7   9  1   
 15   7  27  1   
 16   8  10  1   
 17   8  28  1   
 18   8  29  1   
 19   9  11  1   
 20   9  30  1   
 21   9  31  1   
 22  10  12  1   
 23  10  13  1   
 24  10  14  1   
 25  11  13  1   
 26  11  32  1   
 27  11  33  1   
 28  12  15  ar  
 29  12  16  ar  
 30  13  34  1   
 31  13  35  1   
 32  14  17  1   
 33  14  36  1   
 34  14  37  1   
 35  15  18  ar  
 36  16  17  1   
 37  16  19  ar  
 38  17  38  1   
 39  17  39  1   
 40  18  20  ar  
 41  18  21  1   
 42  19  20  ar  
 43  19  40  1   
 44  21  41  1   
 45  21  42  1   
 46  21  43  1   
@<TRIPOS>SUBSTRUCTURE
  1 ****   8 GROUP 4 **** **** 0

# MOE 2024.06 (io_trps.svl 2023.06)
