@<TRIPOS>MOLECULE
NONAME
41 42 1 0 0 
SMALL
USER_CHARGES


@<TRIPOS>ATOM
  1 O        3.7080    -1.1960    -0.6460 O.2   1 <1>  -0.5700 
  2 C        2.8070    -1.4180     0.1220 C.2   1 <1>   0.5690 
  3 N        2.0770    -0.4340     0.7090 N.am  1 <1>  -0.4930 
  4 C        2.4760    -2.8610     0.4580 C.3   1 <1>  -0.0990 
  5 C        2.1450     0.9670     0.6140 C.2   1 <1>   0.3520 
  6 C        1.0360    -3.2450     0.0790 C.3   1 <1>  -0.1600 
  7 N        1.3190     1.6730     1.2820 N.2   1 <1>  -0.4100 
  8 C        2.9850     1.8360    -0.1060 C.2   1 <1>   0.3520 
  9 C        0.7620    -4.7250     0.3450 C.3   1 <1>   0.1200 
 10 O        1.6380     2.8960     0.9850 O.3   1 <1>   0.2420 
 11 N        2.6290     3.0340     0.1600 N.2   1 <1>  -0.4100 
 12 N        4.0390     1.4950    -0.9730 N.am  1 <1>  -0.4930 
 13 O       -0.5750    -4.9500     0.0590 O.3   1 <1>  -0.5600 
 14 C        4.9070     2.2350    -1.7080 C.2   1 <1>   0.5690 
 15 C       -0.9800    -6.2760     0.2070 C.3   1 <1>   0.2630 
 16 O        5.7330     1.6840    -2.3880 O.2   1 <1>  -0.5700 
 17 C        4.8810     3.7460    -1.7070 C.3   1 <1>  -0.1790 
 18 C       -2.4600    -6.3860    -0.1290 C.ar  1 <1>  -0.1440 
 19 C       -2.9010    -7.2980    -1.0770 C.ar  1 <1>  -0.1500 
 20 C       -3.3860    -5.5820     0.5180 C.ar  1 <1>  -0.1500 
 21 C       -4.2500    -7.4050    -1.3710 C.ar  1 <1>  -0.1500 
 22 C       -4.7350    -5.6880     0.2260 C.ar  1 <1>  -0.1500 
 23 C       -5.1680    -6.6010    -0.7190 C.ar  1 <1>  -0.1500 
 24 H        1.3230    -0.7390     1.3220 H     1 <1>   0.3700 
 25 H        2.6350    -3.0150     1.5100 H     1 <1>   0.0800 
 26 H        3.1640    -3.4960    -0.0730 H     1 <1>   0.0800 
 27 H        0.8780    -3.0480    -0.9680 H     1 <1>   0.0800 
 28 H        0.3360    -2.6590     0.6470 H     1 <1>   0.0800 
 29 H        0.9400    -4.9710     1.3780 H     1 <1>   0.0800 
 30 H        1.3670    -5.3460    -0.2960 H     1 <1>   0.0800 
 31 H        4.1880     0.4830    -1.0820 H     1 <1>   0.3700 
 32 H       -0.8130    -6.5770     1.2270 H     1 <1>   0.0800 
 33 H       -0.3950    -6.8890    -0.4550 H     1 <1>   0.0800 
 34 H        3.9310     4.0950    -2.0660 H     1 <1>   0.0800 
 35 H        5.6540     4.1240    -2.3500 H     1 <1>   0.0800 
 36 H        5.0480     4.1140    -0.7120 H     1 <1>   0.0800 
 37 H       -2.1990    -7.9280    -1.5930 H     1 <1>   0.1500 
 38 H       -3.0520    -4.8660     1.2480 H     1 <1>   0.1500 
 39 H       -4.5840    -8.1140    -2.1080 H     1 <1>   0.1500 
 40 H       -5.4450    -5.0590     0.7320 H     1 <1>   0.1500 
 41 H       -6.2150    -6.6840    -0.9480 H     1 <1>   0.1500 
@<TRIPOS>BOND
  1   1   2  2   
  2   2   3  am  
  3   2   4  1   
  4   3   5  1   
  5   3  24  1   
  6   4   6  1   
  7   4  25  1   
  8   4  26  1   
  9   5   7  2   
 10   5   8  1   
 11   6   9  1   
 12   6  27  1   
 13   6  28  1   
 14   7  10  1   
 15   8  11  2   
 16   8  12  1   
 17   9  13  1   
 18   9  29  1   
 19   9  30  1   
 20  10  11  1   
 21  12  14  am  
 22  12  31  1   
 23  13  15  1   
 24  14  16  2   
 25  14  17  1   
 26  15  18  1   
 27  15  32  1   
 28  15  33  1   
 29  17  34  1   
 30  17  35  1   
 31  17  36  1   
 32  18  19  ar  
 33  18  20  ar  
 34  19  21  ar  
 35  19  37  1   
 36  20  22  ar  
 37  20  38  1   
 38  21  23  ar  
 39  21  39  1   
 40  22  23  ar  
 41  22  40  1   
 42  23  41  1   
@<TRIPOS>SUBSTRUCTURE
  1 ****   6 GROUP 4 **** **** 0

# MOE 2024.06 (io_trps.svl 2023.06)
