@<TRIPOS>MOLECULE
NONAME
50 53 1 0 0 
SMALL
USER_CHARGES


@<TRIPOS>ATOM
  1 S       -0.0580    -0.1470    -1.0450 S.3   1 <1>  -0.0800 
  2 C       -1.4970     0.8080    -0.7120 C.2   1 <1>   0.4620 
  3 C        0.9280     1.2170    -0.6120 C.2   1 <1>  -0.1100 
  4 N       -1.2280     1.9980    -0.3220 N.2   1 <1>  -0.5650 
  5 N       -2.7540     0.2530    -0.8740 N.pl3 1 <1>  -0.8220 
  6 C        0.1390     2.2520    -0.2580 C.2   1 <1>   0.1730 
  7 C       -3.0150    -1.1960    -1.0790 C.3   1 <1>   0.2090 
  8 C       -3.9700     1.0960    -0.6940 C.3   1 <1>   0.2090 
  9 C        0.5940     3.5630     0.1720 C.ar  1 <1>   0.0540 
 10 C       -3.8480    -1.7570     0.1020 C.3   1 <1>   0.4230 
 11 C       -4.7640     0.5550     0.4980 C.3   1 <1>  -0.1600 
 12 C       -0.2080     4.6980     0.0110 C.ar  1 <1>  -0.1500 
 13 C        1.8520     3.7320     0.7590 C.ar  1 <1>  -0.1500 
 14 N       -4.0630    -3.2690     0.0520 N.4   1 <1>  -0.9590 
 15 C       -5.1540    -0.9440     0.3540 C.3   1 <1>   0.0000 
 16 C        0.2210     5.9510     0.4130 C.ar  1 <1>  -0.1500 
 17 C        2.2980     4.9780     1.1660 C.ar  1 <1>  -0.1500 
 18 C       -5.1770    -3.7590     0.9280 C.3   1 <1>   0.3430 
 19 C       -4.2080    -3.8550    -1.3220 C.3   1 <1>   0.2630 
 20 C       -5.8040    -1.4140     1.6890 C.3   1 <1>  -0.1600 
 21 C       -6.1420    -1.1350    -0.8320 C.3   1 <1>   0.1200 
 22 C        1.4720     6.0680     0.9840 C.ar  1 <1>   0.1900 
 23 C       -5.3830    -2.8310     2.1230 C.3   1 <1>  -0.1600 
 24 O       -7.2200    -0.2700    -0.7470 O.3   1 <1>  -0.6800 
 25 F        1.8860     7.2460     1.3650 F     1 <1>  -0.1900 
 26 H        1.9940     1.1050    -0.6710 H     1 <1>   0.1500 
 27 H       -3.5400    -1.3110    -2.0110 H     1 <1>   0.0800 
 28 H       -2.0940    -1.7420    -1.1430 H     1 <1>   0.0800 
 29 H       -3.7030     2.1230    -0.5100 H     1 <1>   0.0800 
 30 H       -4.5650     1.0740    -1.5920 H     1 <1>   0.0800 
 31 H       -3.2390    -1.5710     0.9720 H     1 <1>   0.0800 
 32 H       -4.1540     0.6970     1.3740 H     1 <1>   0.0800 
 33 H       -5.6400     1.1650     0.6310 H     1 <1>   0.0800 
 34 H       -1.1810     4.5920    -0.4370 H     1 <1>   0.1500 
 35 H        2.4900     2.8790     0.9060 H     1 <1>   0.1500 
 36 H       -3.2010    -3.6670     0.4540 H     1 <1>   0.4500 
 37 H       -0.3990     6.8200     0.2870 H     1 <1>   0.1500 
 38 H        3.2660     5.1060     1.6170 H     1 <1>   0.1500 
 39 H       -6.0960    -3.7970     0.3650 H     1 <1>   0.0800 
 40 H       -4.9600    -4.7570     1.2740 H     1 <1>   0.0800 
 41 H       -5.0760    -3.4500    -1.8170 H     1 <1>   0.0800 
 42 H       -4.3190    -4.9260    -1.2610 H     1 <1>   0.0800 
 43 H       -3.3380    -3.6410    -1.9210 H     1 <1>   0.0800 
 44 H       -5.5460    -0.7440     2.4930 H     1 <1>   0.0800 
 45 H       -6.8770    -1.3780     1.6090 H     1 <1>   0.0800 
 46 H       -6.5370    -2.1340    -0.8610 H     1 <1>   0.0800 
 47 H       -5.6670    -0.9310    -1.7750 H     1 <1>   0.0800 
 48 H       -6.1430    -3.2420     2.7650 H     1 <1>   0.0800 
 49 H       -4.4740    -2.7890     2.6990 H     1 <1>   0.0800 
 50 H       -7.7460    -0.4090     0.0660 H     1 <1>   0.4000 
@<TRIPOS>BOND
  1   1   2  1   
  2   1   3  1   
  3   2   4  2   
  4   2   5  1   
  5   3   6  2   
  6   3  26  1   
  7   4   6  1   
  8   5   7  1   
  9   5   8  1   
 10   6   9  1   
 11   7  10  1   
 12   7  27  1   
 13   7  28  1   
 14   8  11  1   
 15   8  29  1   
 16   8  30  1   
 17   9  12  ar  
 18   9  13  ar  
 19  10  14  1   
 20  10  15  1   
 21  10  31  1   
 22  11  15  1   
 23  11  32  1   
 24  11  33  1   
 25  12  16  ar  
 26  12  34  1   
 27  13  17  ar  
 28  13  35  1   
 29  14  18  1   
 30  14  19  1   
 31  14  36  1   
 32  15  20  1   
 33  15  21  1   
 34  16  22  ar  
 35  16  37  1   
 36  17  22  ar  
 37  17  38  1   
 38  18  23  1   
 39  18  39  1   
 40  18  40  1   
 41  19  41  1   
 42  19  42  1   
 43  19  43  1   
 44  20  23  1   
 45  20  44  1   
 46  20  45  1   
 47  21  24  1   
 48  21  46  1   
 49  21  47  1   
 50  22  25  1   
 51  23  48  1   
 52  23  49  1   
 53  24  50  1   
@<TRIPOS>SUBSTRUCTURE
  1 ****   2 GROUP 4 **** **** 0

# MOE 2024.06 (io_trps.svl 2023.06)
