@<TRIPOS>MOLECULE
NONAME
47 50 1 0 0 
SMALL
USER_CHARGES


@<TRIPOS>ATOM
  1 S       -0.7380    -0.1510    -0.6820 S.3   1 <1>  -0.0800 
  2 C        0.8290    -0.3780     0.0760 C.2   1 <1>   0.1980 
  3 C       -1.3210     0.5880     0.7790 C.2   1 <1>  -0.1100 
  4 N        0.8840     0.0590     1.2770 N.2   1 <1>  -0.5650 
  5 C        1.9150    -1.0530    -0.7770 C.3   1 <1>   0.4000 
  6 C       -0.3260     0.6040     1.6770 C.2   1 <1>   0.0770 
  7 N        1.6450    -2.5010    -0.9080 N.am  1 <1>  -0.6600 
  8 C        3.2910    -1.0390    -0.1090 C.3   1 <1>  -0.1600 
  9 C        0.9180    -3.0310    -1.9370 C.2   1 <1>   0.5690 
 10 C        2.3490    -3.2690     0.1410 C.3   1 <1>   0.1400 
 11 C        3.3000    -2.2710     0.8000 C.3   1 <1>  -0.1600 
 12 O        0.5460    -2.3400    -2.8580 O.2   1 <1>  -0.5700 
 13 C        0.5490    -4.5250    -1.9680 C.3   1 <1>   0.1710 
 14 N       -0.0140    -5.0840    -0.7050 N.3   1 <1>  -0.8100 
 15 C       -1.2300    -4.3390    -0.2890 C.3   1 <1>   0.1100 
 16 C       -0.3310    -6.5220    -0.8590 C.3   1 <1>   0.1100 
 17 C       -1.8400    -4.9030     1.0060 C.3   1 <1>   0.2090 
 18 C       -0.9280    -7.1300     0.4250 C.3   1 <1>   0.2090 
 19 N       -2.1350    -6.3610     0.8550 N.pl3 1 <1>  -0.8380 
 20 C       -3.4130    -6.8590     0.7200 C.ar  1 <1>   0.7200 
 21 N       -3.5460    -8.1850     0.6810 N.ar  1 <1>  -0.6200 
 22 N       -4.4090    -5.9760     0.6360 N.ar  1 <1>  -0.6200 
 23 C       -4.7660    -8.6480     0.5580 C.ar  1 <1>   0.1600 
 24 C       -5.6170    -6.4670     0.5120 C.ar  1 <1>   0.1600 
 25 C       -5.8550    -7.8180     0.4680 C.ar  1 <1>  -0.1500 
 26 H       -2.3390     0.9290     0.8050 H     1 <1>   0.1500 
 27 H        1.9580    -0.5800    -1.7430 H     1 <1>   0.0800 
 28 H       -0.3890     1.0010     2.6760 H     1 <1>   0.1500 
 29 H        3.4720    -0.1270     0.4310 H     1 <1>   0.0800 
 30 H        4.0420    -1.1440    -0.8720 H     1 <1>   0.0800 
 31 H        2.8940    -4.0830    -0.3060 H     1 <1>   0.0800 
 32 H        1.6430    -3.6570     0.8560 H     1 <1>   0.0800 
 33 H        2.9110    -2.0100     1.7700 H     1 <1>   0.0800 
 34 H        4.2880    -2.6790     0.9220 H     1 <1>   0.0800 
 35 H        1.4390    -5.0700    -2.2240 H     1 <1>   0.0800 
 36 H       -0.1610    -4.6700    -2.7630 H     1 <1>   0.0800 
 37 H       -1.9740    -4.3820    -1.0670 H     1 <1>   0.0800 
 38 H       -0.9840    -3.3050    -0.1210 H     1 <1>   0.0800 
 39 H        0.5670    -7.0600    -1.1100 H     1 <1>   0.0800 
 40 H       -1.0380    -6.6580    -1.6590 H     1 <1>   0.0800 
 41 H       -2.7250    -4.3460     1.2590 H     1 <1>   0.0800 
 42 H       -1.1380    -4.7690     1.8090 H     1 <1>   0.0800 
 43 H       -0.1920    -7.0950     1.2090 H     1 <1>   0.0800 
 44 H       -1.1620    -8.1640     0.2470 H     1 <1>   0.0800 
 45 H       -4.8990    -9.7160     0.5290 H     1 <1>   0.1500 
 46 H       -6.4380    -5.7730     0.4430 H     1 <1>   0.1500 
 47 H       -6.8500    -8.2080     0.3670 H     1 <1>   0.1500 
@<TRIPOS>BOND
  1   1   2  1   
  2   1   3  1   
  3   2   4  2   
  4   2   5  1   
  5   3   6  2   
  6   3  26  1   
  7   4   6  1   
  8   5   7  1   
  9   5   8  1   
 10   5  27  1   
 11   6  28  1   
 12   7   9  am  
 13   7  10  1   
 14   8  11  1   
 15   8  29  1   
 16   8  30  1   
 17   9  12  2   
 18   9  13  1   
 19  10  11  1   
 20  10  31  1   
 21  10  32  1   
 22  11  33  1   
 23  11  34  1   
 24  13  14  1   
 25  13  35  1   
 26  13  36  1   
 27  14  15  1   
 28  14  16  1   
 29  15  17  1   
 30  15  37  1   
 31  15  38  1   
 32  16  18  1   
 33  16  39  1   
 34  16  40  1   
 35  17  19  1   
 36  17  41  1   
 37  17  42  1   
 38  18  19  1   
 39  18  43  1   
 40  18  44  1   
 41  19  20  1   
 42  20  21  ar  
 43  20  22  ar  
 44  21  23  ar  
 45  22  24  ar  
 46  23  25  ar  
 47  23  45  1   
 48  24  25  ar  
 49  24  46  1   
 50  25  47  1   
@<TRIPOS>SUBSTRUCTURE
  1 ****  15 GROUP 4 **** **** 0

# MOE 2024.06 (io_trps.svl 2023.06)
