@<TRIPOS>MOLECULE
NONAME
58 61 1 0 0 
SMALL
USER_CHARGES


@<TRIPOS>ATOM
  1 O        1.3730    -0.0430    -0.8500 O.3   1 <1>  -0.6800 
  2 C        0.7670    -0.7010     0.2160 C.3   1 <1>   0.1200 
  3 C        1.6420    -1.8370     0.8390 C.3   1 <1>   0.0000 
  4 C        2.3370    -2.8050    -0.1650 C.3   1 <1>   0.4230 
  5 C        2.7400    -1.2230     1.7500 C.3   1 <1>  -0.1600 
  6 C        0.7010    -2.7070     1.7220 C.3   1 <1>  -0.1600 
  7 N        1.3650    -3.4580    -1.1440 N.4   1 <1>  -0.9590 
  8 C        3.6790    -2.2500    -0.7540 C.3   1 <1>   0.3430 
  9 C        3.8850    -0.4840     1.0370 C.3   1 <1>   0.3430 
 10 C        0.1230    -3.9400     0.9880 C.3   1 <1>  -0.1600 
 11 C        0.0230    -3.7620    -0.5310 C.3   1 <1>   0.3430 
 12 C        1.1510    -2.7240    -2.4370 C.3   1 <1>   0.2630 
 13 N        3.9510    -0.8140    -0.4200 N.4   1 <1>  -0.9590 
 14 C        5.1770    -0.2560    -1.0450 C.3   1 <1>   0.5230 
 15 C        5.0940     1.2400    -0.8700 C.2   1 <1>  -0.3320 
 16 N        4.3000     2.0310    -1.6620 N.pl3 1 <1>   0.0330 
 17 C        5.7330     2.0210     0.0390 C.2   1 <1>  -0.1810 
 18 C        4.4110     3.3210    -1.2260 C.ar  1 <1>  -0.1520 
 19 C        5.3030     3.3510    -0.1620 C.ar  1 <1>   0.0000 
 20 C        6.7400     1.6480     1.1120 C.3   1 <1>  -0.0590 
 21 C        3.7970     4.4900    -1.6820 C.ar  1 <1>  -0.1500 
 22 C        5.5870     4.5690     0.4640 C.ar  1 <1>  -0.1500 
 23 C        4.0860     5.6790    -1.0530 C.ar  1 <1>  -0.1500 
 24 C        4.9820     5.7240     0.0230 C.ar  1 <1>  -0.1440 
 25 C        5.2690     7.0610     0.6830 C.3   1 <1>  -0.0960 
 26 H        0.8430     0.7590    -1.0770 H     1 <1>   0.4000 
 27 H        0.5380     0.0370     0.9680 H     1 <1>   0.0800 
 28 H       -0.1710    -1.0870    -0.1450 H     1 <1>   0.0800 
 29 H        2.6710    -3.6150     0.4620 H     1 <1>   0.0800 
 30 H        3.1990    -2.0040     2.3330 H     1 <1>   0.0800 
 31 H        2.2960    -0.5480     2.4620 H     1 <1>   0.0800 
 32 H        1.2200    -3.0720     2.5930 H     1 <1>   0.0800 
 33 H       -0.1100    -2.1040     2.0970 H     1 <1>   0.0800 
 34 H        1.7600    -4.3810    -1.3860 H     1 <1>   0.4500 
 35 H        3.6750    -2.3740    -1.8230 H     1 <1>   0.0800 
 36 H        4.4850    -2.8470    -0.3600 H     1 <1>   0.0800 
 37 H        4.8200    -0.7270     1.5160 H     1 <1>   0.0800 
 38 H        3.7360     0.5810     1.1450 H     1 <1>   0.0800 
 39 H       -0.8570    -4.1530     1.3810 H     1 <1>   0.0800 
 40 H        0.7290    -4.8060     1.1940 H     1 <1>   0.0800 
 41 H       -0.6610    -2.9540    -0.7350 H     1 <1>   0.0800 
 42 H       -0.3900    -4.6540    -0.9750 H     1 <1>   0.0800 
 43 H        0.6830    -1.7710    -2.2590 H     1 <1>   0.0800 
 44 H        0.5090    -3.2970    -3.0870 H     1 <1>   0.0800 
 45 H        2.0860    -2.5620    -2.9470 H     1 <1>   0.0800 
 46 H        3.1630    -0.2630    -0.8120 H     1 <1>   0.4500 
 47 H        6.0570    -0.6380    -0.5530 H     1 <1>   0.0800 
 48 H        5.2270    -0.5010    -2.0930 H     1 <1>   0.0800 
 49 H        3.7510     1.7680    -2.4880 H     1 <1>   0.2700 
 50 H        7.6540     2.1930     0.9490 H     1 <1>   0.0800 
 51 H        6.9640     0.5990     1.0970 H     1 <1>   0.0800 
 52 H        6.3580     1.9120     2.0820 H     1 <1>   0.0800 
 53 H        3.1130     4.4600    -2.5100 H     1 <1>   0.1500 
 54 H        6.2800     4.5830     1.2850 H     1 <1>   0.1500 
 55 H        3.6230     6.5900    -1.3880 H     1 <1>   0.1500 
 56 H        5.6830     7.7430    -0.0380 H     1 <1>   0.0800 
 57 H        5.9710     6.9480     1.4900 H     1 <1>   0.0800 
 58 H        4.3590     7.4770     1.0760 H     1 <1>   0.0800 
@<TRIPOS>BOND
  1   1   2  1   
  2   1  26  1   
  3   2   3  1   
  4   2  27  1   
  5   2  28  1   
  6   3   4  1   
  7   3   5  1   
  8   3   6  1   
  9   4   7  1   
 10   4   8  1   
 11   4  29  1   
 12   5   9  1   
 13   5  30  1   
 14   5  31  1   
 15   6  10  1   
 16   6  32  1   
 17   6  33  1   
 18   7  11  1   
 19   7  12  1   
 20   7  34  1   
 21   8  13  1   
 22   8  35  1   
 23   8  36  1   
 24   9  13  1   
 25   9  37  1   
 26   9  38  1   
 27  10  11  1   
 28  10  39  1   
 29  10  40  1   
 30  11  41  1   
 31  11  42  1   
 32  12  43  1   
 33  12  44  1   
 34  12  45  1   
 35  13  14  1   
 36  13  46  1   
 37  14  15  1   
 38  14  47  1   
 39  14  48  1   
 40  15  16  1   
 41  15  17  2   
 42  16  18  1   
 43  16  49  1   
 44  17  19  1   
 45  17  20  1   
 46  18  19  ar  
 47  18  21  ar  
 48  19  22  ar  
 49  20  50  1   
 50  20  51  1   
 51  20  52  1   
 52  21  23  ar  
 53  21  53  1   
 54  22  24  ar  
 55  22  54  1   
 56  23  24  ar  
 57  23  55  1   
 58  24  25  1   
 59  25  56  1   
 60  25  57  1   
 61  25  58  1   
@<TRIPOS>SUBSTRUCTURE
  1 ****  13 GROUP 4 **** **** 0

# MOE 2024.06 (io_trps.svl 2023.06)
