@<TRIPOS>MOLECULE
NONAME
50 51 1 0 0 
SMALL
USER_CHARGES


@<TRIPOS>ATOM
  1 F       -0.6600    -0.1600     0.3070 F     1 <1>  -0.1900 
  2 C       -1.9020     0.2510     0.3520 C.ar  1 <1>   0.1900 
  3 C       -2.3110     1.4490    -0.2440 C.ar  1 <1>   0.0830 
  4 C       -2.7930    -0.5640     1.0240 C.ar  1 <1>  -0.1500 
  5 O       -1.5310     2.3340    -0.9290 O.3   1 <1>  -0.3630 
  6 C       -3.6490     1.7920    -0.1420 C.ar  1 <1>  -0.1500 
  7 C       -4.1220    -0.1910     1.1070 C.ar  1 <1>  -0.1500 
  8 C       -0.1430     2.1590    -1.1060 C.3   1 <1>   0.0400 
  9 C       -4.5810     0.9910     0.5210 C.ar  1 <1>   0.0530 
 10 C       -5.9650     1.3850     0.5910 C.2   1 <1>   0.0870 
 11 O       -6.2900     2.6490     0.6970 O.3   1 <1>  -0.0190 
 12 C       -7.1270     0.6850     0.5430 C.2   1 <1>  -0.0860 
 13 N       -7.5830     2.8420     0.7290 N.2   1 <1>  -0.4100 
 14 C       -8.1110     1.6710     0.6460 C.2   1 <1>   0.3720 
 15 C       -7.3730    -0.7110     0.3760 C.2   1 <1>   0.7160 
 16 N       -9.4940     1.4280     0.6520 N.pl3 1 <1>  -0.8210 
 17 O       -7.1950    -1.4690     1.3150 O.2   1 <1>  -0.5700 
 18 N       -7.8160    -1.2290    -0.8260 N.am  1 <1>  -0.6600 
 19 C       -9.9900     0.7740     1.8930 C.3   1 <1>   0.1290 
 20 C      -10.3490     2.5790     0.2480 C.3   1 <1>   0.1290 
 21 C       -8.1540    -2.6700    -0.9650 C.3   1 <1>   0.1400 
 22 C       -8.1830    -0.3660    -1.9850 C.3   1 <1>   0.0600 
 23 C       -9.5880    -2.9090    -0.5000 C.3   1 <1>  -0.0990 
 24 C       -9.8750    -4.3890    -0.4910 C.2   1 <1>   0.5690 
 25 O      -10.3210    -4.9020    -1.4880 O.2   1 <1>  -0.5700 
 26 N       -9.6040    -5.0920     0.6380 N.am  1 <1>  -0.7300 
 27 C       -9.8240    -6.5490     0.8110 C.3   1 <1>   0.0600 
 28 H       -2.4490    -1.4770     1.4760 H     1 <1>   0.1500 
 29 H       -3.9750     2.7110    -0.5970 H     1 <1>   0.1500 
 30 H       -4.8090    -0.8230     1.6410 H     1 <1>   0.1500 
 31 H        0.2320     3.0000    -1.6620 H     1 <1>   0.0800 
 32 H        0.0280     1.2520    -1.6590 H     1 <1>   0.0800 
 33 H        0.3320     2.1200    -0.1420 H     1 <1>   0.0800 
 34 H       -9.3380    -0.0310     2.1840 H     1 <1>   0.0800 
 35 H      -10.9750     0.3740     1.7260 H     1 <1>   0.0800 
 36 H      -10.0300     1.4920     2.6950 H     1 <1>   0.0800 
 37 H       -9.9660     3.0170    -0.6580 H     1 <1>   0.0800 
 38 H      -10.3500     3.3280     1.0220 H     1 <1>   0.0800 
 39 H      -11.3560     2.2450     0.0720 H     1 <1>   0.0800 
 40 H       -7.4760    -3.2570    -0.3680 H     1 <1>   0.0800 
 41 H       -8.0410    -2.9820    -1.9900 H     1 <1>   0.0800 
 42 H       -7.5830     0.5270    -2.0020 H     1 <1>   0.0800 
 43 H       -9.2200    -0.0860    -1.9110 H     1 <1>   0.0800 
 44 H       -8.0250    -0.8960    -2.9090 H     1 <1>   0.0800 
 45 H      -10.2770    -2.4240    -1.1660 H     1 <1>   0.0800 
 46 H       -9.7270    -2.5170     0.4900 H     1 <1>   0.0800 
 47 H       -9.2000    -4.6020     1.4410 H     1 <1>   0.3700 
 48 H      -10.2480    -6.9730    -0.0840 H     1 <1>   0.0800 
 49 H      -10.5000    -6.7210     1.6310 H     1 <1>   0.0800 
 50 H       -8.8860    -7.0370     1.0140 H     1 <1>   0.0800 
@<TRIPOS>BOND
  1   1   2  1   
  2   2   3  ar  
  3   2   4  ar  
  4   3   5  1   
  5   3   6  ar  
  6   4   7  ar  
  7   4  28  1   
  8   5   8  1   
  9   6   9  ar  
 10   6  29  1   
 11   7   9  ar  
 12   7  30  1   
 13   8  31  1   
 14   8  32  1   
 15   8  33  1   
 16   9  10  1   
 17  10  11  1   
 18  10  12  2   
 19  11  13  1   
 20  12  14  1   
 21  12  15  1   
 22  13  14  2   
 23  14  16  1   
 24  15  17  2   
 25  15  18  am  
 26  16  19  1   
 27  16  20  1   
 28  18  21  1   
 29  18  22  1   
 30  19  34  1   
 31  19  35  1   
 32  19  36  1   
 33  20  37  1   
 34  20  38  1   
 35  20  39  1   
 36  21  23  1   
 37  21  40  1   
 38  21  41  1   
 39  22  42  1   
 40  22  43  1   
 41  22  44  1   
 42  23  24  1   
 43  23  45  1   
 44  23  46  1   
 45  24  25  2   
 46  24  26  am  
 47  26  27  1   
 48  26  47  1   
 49  27  48  1   
 50  27  49  1   
 51  27  50  1   
@<TRIPOS>SUBSTRUCTURE
  1 ****  15 GROUP 4 **** **** 0

# MOE 2024.06 (io_trps.svl 2023.06)
