@<TRIPOS>MOLECULE
NONAME
48 50 1 0 0 
SMALL
USER_CHARGES


@<TRIPOS>ATOM
  1 S        1.2280     2.3800    -0.0750 S.o2  1 <1>   1.3330 
  2 O        0.5530     3.6460    -0.2550 O.2   1 <1>  -0.6500 
  3 O        0.5840     1.1640    -0.5220 O.2   1 <1>  -0.6500 
  4 N        1.5420     2.2090     1.5860 N.am  1 <1>  -0.8490 
  5 C        2.8550     2.4510    -0.8250 C.3   1 <1>  -0.0550 
  6 C        0.3790     1.6870     2.3070 C.3   1 <1>   0.1160 
  7 C        1.9990     3.4530     2.2160 C.3   1 <1>   0.1160 
  8 C        3.6590     1.1350    -0.7460 C.3   1 <1>  -0.0800 
  9 C        4.9610     1.1410    -1.5330 C.3   1 <1>   0.2200 
 10 C        4.1170     0.7410     0.6630 C.3   1 <1>   0.1200 
 11 N        5.6730     2.4270    -1.3580 N.am  1 <1>  -0.7300 
 12 C        5.7320     0.0470    -0.8090 C.3   1 <1>   0.1200 
 13 O        5.4000     0.1980     0.5380 O.3   1 <1>  -0.5600 
 14 C        5.7080     3.4420    -2.2570 C.2   1 <1>   0.5690 
 15 O        5.1600     3.3550    -3.3290 O.2   1 <1>  -0.5700 
 16 C        6.4430     4.7200    -1.8930 C.3   1 <1>   0.0820 
 17 C        6.1300     5.1730    -0.4730 C.2   1 <1>  -0.1810 
 18 C        4.8680     5.6500    -0.0520 C.ar  1 <1>   0.0000 
 19 C        6.9590     5.2040     0.5970 C.2   1 <1>  -0.3020 
 20 C        4.9960     5.9600     1.2980 C.ar  1 <1>  -0.1520 
 21 C        3.6380     5.8430    -0.6910 C.ar  1 <1>  -0.1500 
 22 N        6.2830     5.6820     1.6840 N.pl3 1 <1>   0.0330 
 23 C        3.9170     6.4720     2.0230 C.ar  1 <1>  -0.1500 
 24 C        2.5730     6.3340     0.0270 C.ar  1 <1>  -0.1500 
 25 C        2.7130     6.6550     1.3830 C.ar  1 <1>  -0.1500 
 26 H        2.7370     2.7070    -1.8600 H     1 <1>   0.0800 
 27 H        3.4170     3.2360    -0.3650 H     1 <1>   0.0800 
 28 H        0.6090     1.5700     3.3520 H     1 <1>   0.0800 
 29 H        0.1030     0.7230     1.9130 H     1 <1>   0.0800 
 30 H       -0.4590     2.3570     2.2000 H     1 <1>   0.0800 
 31 H        2.2350     3.2790     3.2510 H     1 <1>   0.0800 
 32 H        1.2360     4.2110     2.1520 H     1 <1>   0.0800 
 33 H        2.8860     3.8150     1.7260 H     1 <1>   0.0800 
 34 H        3.0460     0.3360    -1.1260 H     1 <1>   0.0800 
 35 H        4.8210     0.9230    -2.5790 H     1 <1>   0.0800 
 36 H        3.4650     0.0070     1.1060 H     1 <1>   0.0800 
 37 H        4.1930     1.5960     1.3120 H     1 <1>   0.0800 
 38 H        6.0620     2.5730    -0.4210 H     1 <1>   0.3700 
 39 H        6.7970     0.1320    -0.9340 H     1 <1>   0.0800 
 40 H        5.4000    -0.9270    -1.1230 H     1 <1>   0.0800 
 41 H        7.4970     4.5470    -1.9950 H     1 <1>   0.0800 
 42 H        6.1640     5.4960    -2.5820 H     1 <1>   0.0800 
 43 H        7.9960     4.9190     0.6570 H     1 <1>   0.1500 
 44 H        3.5400     5.6040    -1.7350 H     1 <1>   0.1500 
 45 H        6.6640     5.8320     2.6230 H     1 <1>   0.2700 
 46 H        4.0350     6.7190     3.0640 H     1 <1>   0.1500 
 47 H        1.6170     6.4750    -0.4500 H     1 <1>   0.1500 
 48 H        1.8640     7.0490     1.9140 H     1 <1>   0.1500 
@<TRIPOS>BOND
  1   1   2  2   
  2   1   3  2   
  3   1   4  am  
  4   1   5  1   
  5   4   6  1   
  6   4   7  1   
  7   5   8  1   
  8   5  26  1   
  9   5  27  1   
 10   6  28  1   
 11   6  29  1   
 12   6  30  1   
 13   7  31  1   
 14   7  32  1   
 15   7  33  1   
 16   8   9  1   
 17   8  10  1   
 18   8  34  1   
 19   9  11  1   
 20   9  12  1   
 21   9  35  1   
 22  10  13  1   
 23  10  36  1   
 24  10  37  1   
 25  11  14  am  
 26  11  38  1   
 27  12  13  1   
 28  12  39  1   
 29  12  40  1   
 30  14  15  2   
 31  14  16  1   
 32  16  17  1   
 33  16  41  1   
 34  16  42  1   
 35  17  18  1   
 36  17  19  2   
 37  18  20  ar  
 38  18  21  ar  
 39  19  22  1   
 40  19  43  1   
 41  20  22  1   
 42  20  23  ar  
 43  21  24  ar  
 44  21  44  1   
 45  22  45  1   
 46  23  25  ar  
 47  23  46  1   
 48  24  25  ar  
 49  24  47  1   
 50  25  48  1   
@<TRIPOS>SUBSTRUCTURE
  1 ****   5 GROUP 4 **** **** 0

# MOE 2024.06 (io_trps.svl 2023.06)
