@<TRIPOS>MOLECULE
NONAME
49 52 1 0 0 
SMALL
USER_CHARGES


@<TRIPOS>ATOM
  1 O        0.0110     1.1170    -2.5340 O.2   1 <1>  -0.5700 
  2 C        0.3530     1.8160    -1.6140 C.2   1 <1>   0.5690 
  3 N       -0.4720     1.9870    -0.5500 N.am  1 <1>  -0.7300 
  4 C        1.7250     2.5000    -1.6510 C.3   1 <1>   0.2010 
  5 C       -0.1950     2.8850     0.6020 C.3   1 <1>   0.1400 
  6 N        1.9150     3.5440    -0.5780 N.am  1 <1>  -0.6600 
  7 C        1.3090     3.1830     0.7420 C.3   1 <1>   0.1400 
  8 C        2.4710     4.7740    -0.8600 C.2   1 <1>   0.7160 
  9 O        2.9620     4.9510    -1.9590 O.2   1 <1>  -0.5700 
 10 C        2.5110     5.8310     0.0980 C.2   1 <1>  -0.0860 
 11 C        1.3990     6.5150     0.6050 C.2   1 <1>   0.3720 
 12 C        3.5680     6.4140     0.7260 C.2   1 <1>   0.0870 
 13 N        1.7640     7.3950     1.4690 N.2   1 <1>  -0.4100 
 14 N        0.0620     6.2710     0.2380 N.pl3 1 <1>  -0.8210 
 15 O        3.0660     7.3240     1.5230 O.3   1 <1>  -0.0190 
 16 C        4.9990     6.2100     0.6780 C.ar  1 <1>   0.0530 
 17 C       -0.2190     6.3210    -1.2240 C.3   1 <1>   0.2090 
 18 C       -1.0180     7.0090     0.9600 C.3   1 <1>   0.2090 
 19 C        5.5800     5.0750     0.1070 C.ar  1 <1>  -0.1500 
 20 C        5.8710     7.1590     1.2180 C.ar  1 <1>  -0.1500 
 21 C       -1.6340     6.8640    -1.3570 C.3   1 <1>  -0.1600 
 22 C       -1.8220     7.7230    -0.1170 C.3   1 <1>  -0.1600 
 23 C        6.9510     4.8940     0.0730 C.ar  1 <1>  -0.1500 
 24 C        7.2410     6.9860     1.1910 C.ar  1 <1>  -0.1500 
 25 C        7.7960     5.8550     0.6190 C.ar  1 <1>   0.0830 
 26 O        9.1460     5.7580     0.6280 O.3   1 <1>  -0.3630 
 27 C        9.8120     4.6620     0.0420 C.3   1 <1>   0.0400 
 28 H       -1.3910     1.5420    -0.6040 H     1 <1>   0.3700 
 29 H        1.8440     2.9380    -2.6250 H     1 <1>   0.0800 
 30 H        2.4800     1.7440    -1.5370 H     1 <1>   0.0800 
 31 H       -0.5510     2.4260     1.5080 H     1 <1>   0.0800 
 32 H       -0.7330     3.8070     0.4650 H     1 <1>   0.0800 
 33 H        1.8040     2.3050     1.1210 H     1 <1>   0.0800 
 34 H        1.4480     3.9660     1.4650 H     1 <1>   0.0800 
 35 H       -0.1420     5.3410    -1.6630 H     1 <1>   0.0800 
 36 H        0.4790     6.9860    -1.7070 H     1 <1>   0.0800 
 37 H       -0.6420     7.7130     1.6830 H     1 <1>   0.0800 
 38 H       -1.6400     6.2930     1.4690 H     1 <1>   0.0800 
 39 H        4.9610     4.3110    -0.3210 H     1 <1>   0.1500 
 40 H        5.4720     8.0520     1.6670 H     1 <1>   0.1500 
 41 H       -2.3270     6.0410    -1.3450 H     1 <1>   0.0800 
 42 H       -1.7630     7.4210    -2.2680 H     1 <1>   0.0800 
 43 H       -1.3960     8.6980    -0.2770 H     1 <1>   0.0800 
 44 H       -2.8560     7.8310     0.1600 H     1 <1>   0.0800 
 45 H        7.3430     4.0040    -0.3800 H     1 <1>   0.1500 
 46 H        7.8930     7.7300     1.6120 H     1 <1>   0.1500 
 47 H       10.8700     4.8120     0.1610 H     1 <1>   0.0800 
 48 H        9.5640     4.6220    -1.0040 H     1 <1>   0.0800 
 49 H        9.5120     3.7610     0.5460 H     1 <1>   0.0800 
@<TRIPOS>BOND
  1   1   2  2   
  2   2   3  am  
  3   2   4  1   
  4   3   5  1   
  5   3  28  1   
  6   4   6  1   
  7   4  29  1   
  8   4  30  1   
  9   5   7  1   
 10   5  31  1   
 11   5  32  1   
 12   6   7  1   
 13   6   8  am  
 14   7  33  1   
 15   7  34  1   
 16   8   9  2   
 17   8  10  1   
 18  10  11  1   
 19  10  12  2   
 20  11  13  2   
 21  11  14  1   
 22  12  15  1   
 23  12  16  1   
 24  13  15  1   
 25  14  17  1   
 26  14  18  1   
 27  16  19  ar  
 28  16  20  ar  
 29  17  21  1   
 30  17  35  1   
 31  17  36  1   
 32  18  22  1   
 33  18  37  1   
 34  18  38  1   
 35  19  23  ar  
 36  19  39  1   
 37  20  24  ar  
 38  20  40  1   
 39  21  22  1   
 40  21  41  1   
 41  21  42  1   
 42  22  43  1   
 43  22  44  1   
 44  23  25  ar  
 45  23  45  1   
 46  24  25  ar  
 47  24  46  1   
 48  25  26  1   
 49  26  27  1   
 50  27  47  1   
 51  27  48  1   
 52  27  49  1   
@<TRIPOS>SUBSTRUCTURE
  1 ****  10 GROUP 4 **** **** 0

# MOE 2024.06 (io_trps.svl 2023.06)
