@<TRIPOS>MOLECULE
NONAME
49 52 1 0 0 
SMALL
USER_CHARGES


@<TRIPOS>ATOM
  1 F       -0.2250    -1.8980     2.0030 F     1 <1>  -0.1900 
  2 C       -0.2680    -2.1110     0.7160 C.ar  1 <1>   0.1900 
  3 C       -1.3600    -1.6490    -0.0130 C.ar  1 <1>   0.0860 
  4 C        0.8020    -2.7780     0.1440 C.ar  1 <1>  -0.1500 
  5 C       -1.3030    -1.8940    -1.3830 C.ar  1 <1>   0.1900 
  6 C       -2.4700    -0.9670     0.5980 C.2   1 <1>   0.5440 
  7 C        0.8100    -3.0040    -1.2230 C.ar  1 <1>  -0.1500 
  8 F       -2.2800    -1.4850    -2.1450 F     1 <1>  -0.1900 
  9 C       -0.2510    -2.5550    -1.9940 C.ar  1 <1>  -0.1500 
 10 O       -3.2450    -1.6060     1.2840 O.2   1 <1>  -0.5700 
 11 N       -2.6740     0.3850     0.4130 N.am  1 <1>  -0.6600 
 12 C       -3.9840     1.0330     0.7810 C.3   1 <1>   0.2200 
 13 C       -1.5360     1.3020     0.0920 C.3   1 <1>   0.1400 
 14 C       -3.9990     2.5860     0.6190 C.3   1 <1>   0.1380 
 15 C       -5.2040     0.3520     0.1310 C.3   1 <1>  -0.1600 
 16 C       -1.4630     2.5030     1.0520 C.3   1 <1>  -0.1600 
 17 C       -3.8400     3.1460    -0.8310 C.2   1 <1>  -0.2760 
 18 C       -5.3530     3.0870     1.2070 C.3   1 <1>   0.1200 
 19 C       -2.8250     3.0810     1.4950 C.3   1 <1>  -0.1600 
 20 C       -6.3970     1.3100     0.0470 C.3   1 <1>   0.1200 
 21 C       -3.8210     2.4350    -1.9690 C.2   1 <1>  -0.2880 
 22 C       -3.6610     4.6650    -0.9560 C.3   1 <1>  -0.0220 
 23 O       -6.3820     2.1310     1.1720 O.3   1 <1>  -0.5600 
 24 C       -3.6390     3.0280    -3.3600 C.3   1 <1>   0.2580 
 25 C       -3.9210     5.1440    -2.3900 C.3   1 <1>   0.1200 
 26 O       -3.2000     4.3510    -3.2800 O.3   1 <1>  -0.5600 
 27 H        1.6150    -3.1140     0.7640 H     1 <1>   0.1500 
 28 H        1.6350    -3.5230    -1.6830 H     1 <1>   0.1500 
 29 H       -0.2660    -2.7180    -3.0570 H     1 <1>   0.1500 
 30 H       -4.1050     0.8570     1.8380 H     1 <1>   0.0800 
 31 H       -0.5990     0.7760     0.1370 H     1 <1>   0.0800 
 32 H       -1.6470     1.6540    -0.9170 H     1 <1>   0.0800 
 33 H       -5.4950    -0.4820     0.7430 H     1 <1>   0.0800 
 34 H       -4.9780    -0.0360    -0.8420 H     1 <1>   0.0800 
 35 H       -0.9090     2.2100     1.9270 H     1 <1>   0.0800 
 36 H       -0.8930     3.2750     0.5660 H     1 <1>   0.0800 
 37 H       -5.7150     3.9500     0.6820 H     1 <1>   0.0800 
 38 H       -5.2330     3.3580     2.2410 H     1 <1>   0.0800 
 39 H       -2.7790     4.1540     1.5240 H     1 <1>   0.0800 
 40 H       -2.9990     2.7580     2.5070 H     1 <1>   0.0800 
 41 H       -7.3230     0.7630     0.0420 H     1 <1>   0.0800 
 42 H       -6.3490     1.9300    -0.8320 H     1 <1>   0.0800 
 43 H       -3.9170     1.3690    -2.0180 H     1 <1>   0.1500 
 44 H       -2.6540     4.9310    -0.6900 H     1 <1>   0.0800 
 45 H       -4.3230     5.2020    -0.3050 H     1 <1>   0.0800 
 46 H       -4.5650     3.0070    -3.9090 H     1 <1>   0.0800 
 47 H       -2.8930     2.4780    -3.9070 H     1 <1>   0.0800 
 48 H       -3.5970     6.1620    -2.5140 H     1 <1>   0.0800 
 49 H       -4.9670     5.0730    -2.6380 H     1 <1>   0.0800 
@<TRIPOS>BOND
  1   1   2  1   
  2   2   3  ar  
  3   2   4  ar  
  4   3   5  ar  
  5   3   6  1   
  6   4   7  ar  
  7   4  27  1   
  8   5   8  1   
  9   5   9  ar  
 10   6  10  2   
 11   6  11  am  
 12   7   9  ar  
 13   7  28  1   
 14   9  29  1   
 15  11  12  1   
 16  11  13  1   
 17  12  14  1   
 18  12  15  1   
 19  12  30  1   
 20  13  16  1   
 21  13  31  1   
 22  13  32  1   
 23  14  17  1   
 24  14  18  1   
 25  14  19  1   
 26  15  20  1   
 27  15  33  1   
 28  15  34  1   
 29  16  19  1   
 30  16  35  1   
 31  16  36  1   
 32  17  21  2   
 33  17  22  1   
 34  18  23  1   
 35  18  37  1   
 36  18  38  1   
 37  19  39  1   
 38  19  40  1   
 39  20  23  1   
 40  20  41  1   
 41  20  42  1   
 42  21  24  1   
 43  21  43  1   
 44  22  25  1   
 45  22  44  1   
 46  22  45  1   
 47  24  26  1   
 48  24  46  1   
 49  24  47  1   
 50  25  26  1   
 51  25  48  1   
 52  25  49  1   
@<TRIPOS>SUBSTRUCTURE
  1 ****  11 GROUP 4 **** **** 0

# MOE 2024.06 (io_trps.svl 2023.06)
