@<TRIPOS>MOLECULE
NONAME
53 55 1 0 0 
SMALL
USER_CHARGES


@<TRIPOS>ATOM
  1 S        0.4980     0.1760     0.8670 S.o2  1 <1>   1.2040 
  2 O       -0.2910    -0.2710    -0.2590 O.2   1 <1>  -0.6500 
  3 O        0.6710    -0.6820     2.0170 O.2   1 <1>  -0.6500 
  4 C        2.1120     0.7480     0.2860 C.ar  1 <1>  -0.0090 
  5 C       -0.2400     1.6890     1.4510 C.3   1 <1>  -0.1350 
  6 C        2.3100     1.1170    -1.0380 C.ar  1 <1>  -0.1500 
  7 C        3.1860     0.8620     1.1580 C.ar  1 <1>  -0.1500 
  8 C        3.5350     1.5860    -1.4780 C.ar  1 <1>  -0.1500 
  9 C        4.4140     1.3310     0.7260 C.ar  1 <1>  -0.1500 
 10 C        4.6020     1.6990    -0.5970 C.ar  1 <1>  -0.1430 
 11 C        5.9630     2.2240    -1.0420 C.3   1 <1>   0.4330 
 12 N        5.8010     3.6440    -1.3890 N.pl3 1 <1>  -0.8690 
 13 C        6.5100     1.4870    -2.2590 C.3   1 <1>  -0.2400 
 14 C        6.5950     4.6710    -1.0270 C.ar  1 <1>   0.4100 
 15 N        7.7100     4.3700    -0.3960 N.ar  1 <1>  -0.6200 
 16 C        6.2250     6.0060    -1.3300 C.ar  1 <1>  -0.1430 
 17 C        8.5130     5.3600    -0.0490 C.ar  1 <1>   0.7710 
 18 C        7.0890     7.0010    -0.9760 C.ar  1 <1>   0.2180 
 19 C        4.8830     6.2560    -2.0290 C.3   1 <1>  -0.0970 
 20 N        8.2210     6.6380    -0.3290 N.ar  1 <1>  -0.1790 
 21 N        9.6680     5.0800     0.6030 N.pl3 1 <1>  -0.8380 
 22 C        6.9030     8.4910    -1.2360 C.3   1 <1>  -0.0970 
 23 C       10.0680     3.6760     0.9040 C.3   1 <1>   0.2090 
 24 C       10.6860     6.0230     1.1410 C.3   1 <1>   0.2090 
 25 C       11.4910     3.7710     1.4360 C.3   1 <1>  -0.1600 
 26 C       11.5850     5.1720     2.0270 C.3   1 <1>  -0.1600 
 27 H       -1.2250     1.4930     1.8290 H     1 <1>   0.0800 
 28 H       -0.3160     2.4010     0.6530 H     1 <1>   0.0800 
 29 H        0.3490     2.1130     2.2410 H     1 <1>   0.0800 
 30 H        1.4940     1.0300    -1.7380 H     1 <1>   0.1500 
 31 H        3.0640     0.5760     2.1900 H     1 <1>   0.1500 
 32 H        3.6480     1.8590    -2.5120 H     1 <1>   0.1500 
 33 H        5.2240     1.4090     1.4320 H     1 <1>   0.1500 
 34 H        6.6640     2.1180    -0.2310 H     1 <1>   0.0800 
 35 H        4.9120     3.8190    -1.8550 H     1 <1>   0.4000 
 36 H        5.8790     1.6260    -3.1160 H     1 <1>   0.0800 
 37 H        6.5750     0.4360    -2.0440 H     1 <1>   0.0800 
 38 H        7.4960     1.8500    -2.4850 H     1 <1>   0.0800 
 39 H        4.0960     5.7320    -1.5130 H     1 <1>   0.0800 
 40 H        4.9250     5.8980    -3.0430 H     1 <1>   0.0800 
 41 H        4.6050     7.2920    -2.0460 H     1 <1>   0.0800 
 42 H        8.9120     7.3110    -0.0280 H     1 <1>   0.4570 
 43 H        6.2900     8.6670    -2.1010 H     1 <1>   0.0800 
 44 H        7.8490     8.9680    -1.4210 H     1 <1>   0.0800 
 45 H        6.4390     8.9590    -0.3850 H     1 <1>   0.0800 
 46 H       10.0220     3.0560     0.0230 H     1 <1>   0.0800 
 47 H        9.4130     3.2730     1.6590 H     1 <1>   0.0800 
 48 H       10.2360     6.8170     1.7130 H     1 <1>   0.0800 
 49 H       11.2650     6.4290     0.3270 H     1 <1>   0.0800 
 50 H       12.1800     3.6690     0.6150 H     1 <1>   0.0800 
 51 H       11.6980     3.0040     2.1610 H     1 <1>   0.0800 
 52 H       11.1940     5.1710     3.0300 H     1 <1>   0.0800 
 53 H       12.5960     5.5400     2.0480 H     1 <1>   0.0800 
@<TRIPOS>BOND
  1   1   2  2   
  2   1   3  2   
  3   1   4  1   
  4   1   5  1   
  5   4   6  ar  
  6   4   7  ar  
  7   5  27  1   
  8   5  28  1   
  9   5  29  1   
 10   6   8  ar  
 11   6  30  1   
 12   7   9  ar  
 13   7  31  1   
 14   8  10  ar  
 15   8  32  1   
 16   9  10  ar  
 17   9  33  1   
 18  10  11  1   
 19  11  12  1   
 20  11  13  1   
 21  11  34  1   
 22  12  14  1   
 23  12  35  1   
 24  13  36  1   
 25  13  37  1   
 26  13  38  1   
 27  14  15  ar  
 28  14  16  ar  
 29  15  17  ar  
 30  16  18  ar  
 31  16  19  1   
 32  17  20  ar  
 33  17  21  1   
 34  18  20  ar  
 35  18  22  1   
 36  19  39  1   
 37  19  40  1   
 38  19  41  1   
 39  20  42  1   
 40  21  23  1   
 41  21  24  1   
 42  22  43  1   
 43  22  44  1   
 44  22  45  1   
 45  23  25  1   
 46  23  46  1   
 47  23  47  1   
 48  24  26  1   
 49  24  48  1   
 50  24  49  1   
 51  25  26  1   
 52  25  50  1   
 53  25  51  1   
 54  26  52  1   
 55  26  53  1   
@<TRIPOS>SUBSTRUCTURE
  1 ****  12 GROUP 4 **** **** 0

# MOE 2024.06 (io_trps.svl 2023.06)
