@<TRIPOS>MOLECULE
NONAME
46 48 1 0 0 
SMALL
USER_CHARGES


@<TRIPOS>ATOM
  1 O       -2.0270     0.4420    -2.1600 O.2   1 <1>  -0.5700 
  2 C       -1.9480     0.6670    -0.9780 C.2   1 <1>   0.5690 
  3 N       -1.9070    -0.3290    -0.0620 N.am  1 <1>  -0.7300 
  4 C       -1.8950     2.0990    -0.4980 C.3   1 <1>  -0.0990 
  5 C       -1.9110    -1.7760    -0.3810 C.3   1 <1>   0.2200 
  6 C       -0.4670     2.6500    -0.5670 C.3   1 <1>  -0.0160 
  7 C       -3.2610    -2.4080    -0.0660 C.3   1 <1>  -0.0800 
  8 C       -1.0260    -2.4990     0.6240 C.3   1 <1>   0.1200 
  9 C       -0.4220     4.0790    -0.0500 C.ar  1 <1>  -0.1440 
 10 C       -3.1560    -2.7220     1.4310 C.3   1 <1>   0.1200 
 11 C       -4.4990    -1.5810    -0.4580 C.3   1 <1>  -0.0160 
 12 O       -1.8050    -2.6050     1.7750 O.3   1 <1>  -0.5600 
 13 C       -0.7150     5.1350    -0.9020 C.ar  1 <1>  -0.1500 
 14 C       -0.0920     4.3400     1.2720 C.ar  1 <1>  -0.1500 
 15 C       -5.7780    -2.3570    -0.1820 C.ar  1 <1>  -0.1440 
 16 C       -0.6780     6.4380    -0.4380 C.ar  1 <1>  -0.1500 
 17 C       -0.0530     5.6420     1.7410 C.ar  1 <1>  -0.1500 
 18 C       -6.2490    -3.3110    -1.0600 C.ar  1 <1>  -0.1500 
 19 C       -6.5320    -2.1500     0.9550 C.ar  1 <1>  -0.1500 
 20 C       -0.3470     6.6880     0.8810 C.ar  1 <1>   0.0820 
 21 C       -7.4150    -3.9980    -0.7640 C.ar  1 <1>   0.1600 
 22 C       -7.6840    -2.8920     1.1570 C.ar  1 <1>   0.1600 
 23 O       -0.3120     7.9560     1.3200 O.3   1 <1>  -0.5330 
 24 N       -8.1430    -3.8130     0.3250 N.ar  1 <1>  -0.6200 
 25 H       -1.8620    -0.1290     0.9400 H     1 <1>   0.3700 
 26 H       -2.5390     2.6930    -1.1210 H     1 <1>   0.0800 
 27 H       -2.2610     2.1580     0.5090 H     1 <1>   0.0800 
 28 H       -1.5990    -1.9430    -1.3990 H     1 <1>   0.0800 
 29 H       -0.1200     2.6230    -1.5860 H     1 <1>   0.0800 
 30 H        0.1910     2.0310     0.0170 H     1 <1>   0.0800 
 31 H       -3.3100    -3.3480    -0.5870 H     1 <1>   0.0800 
 32 H       -0.1180    -1.9650     0.8440 H     1 <1>   0.0800 
 33 H       -0.7950    -3.4950     0.2860 H     1 <1>   0.0800 
 34 H       -3.4890    -3.7220     1.6520 H     1 <1>   0.0800 
 35 H       -3.7060    -2.0150     2.0280 H     1 <1>   0.0800 
 36 H       -4.4480    -1.3370    -1.5050 H     1 <1>   0.0800 
 37 H       -4.5220    -0.6540     0.0870 H     1 <1>   0.0800 
 38 H       -0.9740     4.9460    -1.9300 H     1 <1>   0.1500 
 39 H        0.1370     3.5300     1.9420 H     1 <1>   0.1500 
 40 H       -0.9040     7.2610    -1.0920 H     1 <1>   0.1500 
 41 H        0.2050     5.8340     2.7660 H     1 <1>   0.1500 
 42 H       -5.7220    -3.5270    -1.9720 H     1 <1>   0.1500 
 43 H       -6.2370    -1.4210     1.6870 H     1 <1>   0.1500 
 44 H       -7.7670    -4.7390    -1.4610 H     1 <1>   0.1500 
 45 H       -8.2600    -2.7180     2.0500 H     1 <1>   0.1500 
 46 H       -0.0600     8.0290     2.2570 H     1 <1>   0.4500 
@<TRIPOS>BOND
  1   1   2  2   
  2   2   3  am  
  3   2   4  1   
  4   3   5  1   
  5   3  25  1   
  6   4   6  1   
  7   4  26  1   
  8   4  27  1   
  9   5   7  1   
 10   5   8  1   
 11   5  28  1   
 12   6   9  1   
 13   6  29  1   
 14   6  30  1   
 15   7  10  1   
 16   7  11  1   
 17   7  31  1   
 18   8  12  1   
 19   8  32  1   
 20   8  33  1   
 21   9  13  ar  
 22   9  14  ar  
 23  10  12  1   
 24  10  34  1   
 25  10  35  1   
 26  11  15  1   
 27  11  36  1   
 28  11  37  1   
 29  13  16  ar  
 30  13  38  1   
 31  14  17  ar  
 32  14  39  1   
 33  15  18  ar  
 34  15  19  ar  
 35  16  20  ar  
 36  16  40  1   
 37  17  20  ar  
 38  17  41  1   
 39  18  21  ar  
 40  18  42  1   
 41  19  22  ar  
 42  19  43  1   
 43  20  23  1   
 44  21  24  ar  
 45  21  44  1   
 46  22  24  ar  
 47  22  45  1   
 48  23  46  1   
@<TRIPOS>SUBSTRUCTURE
  1 ****   3 GROUP 4 **** **** 0

# MOE 2024.06 (io_trps.svl 2023.06)
