@<TRIPOS>MOLECULE
NONAME
37 39 1 0 0 
SMALL
USER_CHARGES


@<TRIPOS>ATOM
  1 O       -0.2870     1.7250    -1.3310 O.3   1 <1>  -0.3630 
  2 C        0.1950     2.4130    -0.2650 C.ar  1 <1>   0.0830 
  3 C       -1.6940     1.6260    -1.4430 C.3   1 <1>   0.1200 
  4 C       -0.6230     2.7270     0.8210 C.ar  1 <1>   0.0820 
  5 C        1.5200     2.8100    -0.2690 C.ar  1 <1>  -0.1500 
  6 C       -2.3180     1.3440    -0.0700 C.3   1 <1>   0.1200 
  7 O       -1.9220     2.3320     0.8620 O.3   1 <1>  -0.3630 
  8 C       -0.1100     3.4510     1.8820 C.ar  1 <1>  -0.1500 
  9 C        2.0440     3.5300     0.7990 C.ar  1 <1>  -0.1430 
 10 C        1.2170     3.8510     1.8690 C.ar  1 <1>  -0.1500 
 11 C        3.5010     3.9780     0.8060 C.3   1 <1>   0.4330 
 12 N        3.7250     4.8300    -0.3620 N.pl3 1 <1>  -0.8690 
 13 C        4.4590     2.7930     0.7340 C.3   1 <1>  -0.2400 
 14 C        4.2340     6.0820    -0.2390 C.ar  1 <1>   0.4100 
 15 N        3.5250     7.0260    -0.8080 N.ar  1 <1>  -0.6200 
 16 C        5.4080     6.3630     0.4310 C.ar  1 <1>  -0.1500 
 17 C        3.9990     8.2500    -0.6860 C.ar  1 <1>   0.4770 
 18 C        5.8030     7.6700     0.4910 C.ar  1 <1>   0.1600 
 19 N        5.1010     8.6380    -0.0650 N.ar  1 <1>  -0.6200 
 20 C        3.1840     9.3390    -1.3420 C.3   1 <1>  -0.0970 
 21 H       -1.9160     0.8340    -2.1350 H     1 <1>   0.0800 
 22 H       -2.0640     2.5550    -1.8380 H     1 <1>   0.0800 
 23 H        2.1320     2.5540    -1.1150 H     1 <1>   0.1500 
 24 H       -1.9930     0.3870     0.2990 H     1 <1>   0.0800 
 25 H       -3.3920     1.3550    -0.1270 H     1 <1>   0.0800 
 26 H       -0.7500     3.6970     2.7100 H     1 <1>   0.1500 
 27 H        1.5990     4.4160     2.7010 H     1 <1>   0.1500 
 28 H        3.6990     4.5400     1.7040 H     1 <1>   0.0800 
 29 H        2.8810     4.8440    -0.9400 H     1 <1>   0.4000 
 30 H        4.3190     2.2480    -0.1810 H     1 <1>   0.0800 
 31 H        4.2750     2.1310     1.5600 H     1 <1>   0.0800 
 32 H        5.4750     3.1360     0.7870 H     1 <1>   0.0800 
 33 H        5.9830     5.5770     0.8760 H     1 <1>   0.1500 
 34 H        6.7120     7.9420     1.0010 H     1 <1>   0.1500 
 35 H        2.1390     9.1660    -1.1660 H     1 <1>   0.0800 
 36 H        3.3710     9.3320    -2.3980 H     1 <1>   0.0800 
 37 H        3.4510    10.2990    -0.9420 H     1 <1>   0.0800 
@<TRIPOS>BOND
  1   1   2  1   
  2   1   3  1   
  3   2   4  ar  
  4   2   5  ar  
  5   3   6  1   
  6   3  21  1   
  7   3  22  1   
  8   4   7  1   
  9   4   8  ar  
 10   5   9  ar  
 11   5  23  1   
 12   6   7  1   
 13   6  24  1   
 14   6  25  1   
 15   8  10  ar  
 16   8  26  1   
 17   9  10  ar  
 18   9  11  1   
 19  10  27  1   
 20  11  12  1   
 21  11  13  1   
 22  11  28  1   
 23  12  14  1   
 24  12  29  1   
 25  13  30  1   
 26  13  31  1   
 27  13  32  1   
 28  14  15  ar  
 29  14  16  ar  
 30  15  17  ar  
 31  16  18  ar  
 32  16  33  1   
 33  17  19  ar  
 34  17  20  1   
 35  18  19  ar  
 36  18  34  1   
 37  20  35  1   
 38  20  36  1   
 39  20  37  1   
@<TRIPOS>SUBSTRUCTURE
  1 ****   9 GROUP 4 **** **** 0

# MOE 2024.06 (io_trps.svl 2023.06)
