@<TRIPOS>MOLECULE
NONAME
48 50 1 0 0 
SMALL
USER_CHARGES


@<TRIPOS>ATOM
  1 O        0.8770    -0.0640     1.4000 O.2   1 <1>  -0.5700 
  2 C        1.9430    -0.0050     0.8300 C.2   1 <1>   0.7150 
  3 N        2.5470    -1.2050     0.6270 N.am  1 <1>  -0.7300 
  4 C        2.4660     1.2670     0.4220 C.2   1 <1>  -0.2370 
  5 C        3.9410    -1.6140     0.3000 C.3   1 <1>   0.1400 
  6 N        3.4780     1.4850    -0.4500 N.pl3 1 <1>   0.3140 
  7 C        2.0520     2.5050     0.7960 C.2   1 <1>  -0.1500 
  8 C        4.8910    -0.4820    -0.1200 C.3   1 <1>   0.2000 
  9 N        3.7240     2.7850    -0.6380 N.2   1 <1>  -0.7070 
 10 C        4.2880     0.4750    -1.1440 C.3   1 <1>   0.0960 
 11 C        2.8520     3.4250     0.1250 C.2   1 <1>   0.2030 
 12 O        6.0290    -1.0590    -0.6700 O.3   1 <1>  -0.6800 
 13 C        2.7440     4.8710     0.2490 C.2   1 <1>   0.7160 
 14 O        1.9280     5.3980     0.9860 O.2   1 <1>  -0.5700 
 15 N        3.5860     5.6620    -0.4800 N.am  1 <1>  -0.7300 
 16 C        3.6830     7.1330    -0.4430 C.3   1 <1>   0.1400 
 17 C        5.1030     7.5200    -0.0380 C.3   1 <1>  -0.1600 
 18 C        5.2670     9.0460     0.0190 C.3   1 <1>  -0.0170 
 19 C        6.6780     9.5500     0.3390 C.ar  1 <1>  -0.1430 
 20 C        6.9440    10.9140     0.2190 C.ar  1 <1>   0.0820 
 21 C        7.6990     8.7000     0.7510 C.ar  1 <1>  -0.1500 
 22 O        5.9240    11.7250    -0.1750 O.3   1 <1>  -0.3620 
 23 C        8.2180    11.4030     0.5010 C.ar  1 <1>  -0.1500 
 24 C        8.9620     9.1920     1.0310 C.ar  1 <1>  -0.1500 
 25 C        6.0860    13.1200    -0.3000 C.3   1 <1>   0.0400 
 26 C        9.2220    10.5430     0.9050 C.ar  1 <1>  -0.1500 
 27 H        1.9630    -1.9700     0.9740 H     1 <1>   0.3700 
 28 H        3.8850    -2.3330    -0.4990 H     1 <1>   0.0800 
 29 H        4.3610    -2.1070     1.1600 H     1 <1>   0.0800 
 30 H        1.2570     2.7550     1.4780 H     1 <1>   0.1500 
 31 H        5.2180     0.0670     0.7480 H     1 <1>   0.0800 
 32 H        5.0720     0.9900    -1.6690 H     1 <1>   0.0800 
 33 H        3.6650    -0.0460    -1.8470 H     1 <1>   0.0800 
 34 H        5.8310    -1.5430    -1.4960 H     1 <1>   0.4000 
 35 H        4.2480     5.1570    -1.0760 H     1 <1>   0.3700 
 36 H        2.9750     7.5310     0.2660 H     1 <1>   0.0800 
 37 H        3.4490     7.5270    -1.4170 H     1 <1>   0.0800 
 38 H        5.7980     7.1180    -0.7540 H     1 <1>   0.0800 
 39 H        5.3100     7.1040     0.9330 H     1 <1>   0.0800 
 40 H        4.5930     9.4440     0.7580 H     1 <1>   0.0800 
 41 H        4.9760     9.4520    -0.9340 H     1 <1>   0.0800 
 42 H        7.5370     7.6450     0.8630 H     1 <1>   0.1500 
 43 H        8.4490    12.4460     0.4140 H     1 <1>   0.1500 
 44 H        9.7410     8.5210     1.3470 H     1 <1>   0.1500 
 45 H        5.1460    13.5390    -0.6100 H     1 <1>   0.0800 
 46 H        6.8380    13.3190    -1.0430 H     1 <1>   0.0800 
 47 H        6.3690    13.5250     0.6560 H     1 <1>   0.0800 
 48 H       10.2040    10.9240     1.1230 H     1 <1>   0.1500 
@<TRIPOS>BOND
  1   1   2  2   
  2   2   3  am  
  3   2   4  1   
  4   3   5  1   
  5   3  27  1   
  6   4   6  1   
  7   4   7  2   
  8   5   8  1   
  9   5  28  1   
 10   5  29  1   
 11   6   9  1   
 12   6  10  1   
 13   7  11  1   
 14   7  30  1   
 15   8  10  1   
 16   8  12  1   
 17   8  31  1   
 18   9  11  2   
 19  10  32  1   
 20  10  33  1   
 21  11  13  1   
 22  12  34  1   
 23  13  14  2   
 24  13  15  am  
 25  15  16  1   
 26  15  35  1   
 27  16  17  1   
 28  16  36  1   
 29  16  37  1   
 30  17  18  1   
 31  17  38  1   
 32  17  39  1   
 33  18  19  1   
 34  18  40  1   
 35  18  41  1   
 36  19  20  ar  
 37  19  21  ar  
 38  20  22  1   
 39  20  23  ar  
 40  21  24  ar  
 41  21  42  1   
 42  22  25  1   
 43  23  26  ar  
 44  23  43  1   
 45  24  26  ar  
 46  24  44  1   
 47  25  45  1   
 48  25  46  1   
 49  25  47  1   
 50  26  48  1   
@<TRIPOS>SUBSTRUCTURE
  1 ****  15 GROUP 4 **** **** 0

# MOE 2024.06 (io_trps.svl 2023.06)
