@<TRIPOS>MOLECULE
NONAME
51 54 1 0 0 
SMALL
USER_CHARGES


@<TRIPOS>ATOM
  1 O       -0.1500    -0.0200    -1.1560 O.3   1 <1>  -0.3630 
  2 C        1.1420     0.3850    -1.0370 C.ar  1 <1>   0.0820 
  3 C       -0.7970    -0.6860    -0.0850 C.3   1 <1>   0.2580 
  4 C        2.0050    -0.2330    -0.1290 C.ar  1 <1>   0.0280 
  5 C        1.5880     1.4130    -1.8500 C.ar  1 <1>  -0.1500 
  6 C        0.1750    -1.5790     0.6870 C.2   1 <1>  -0.2760 
  7 C        1.4900    -1.3150     0.6640 C.2   1 <1>  -0.1780 
  8 C        3.3210     0.2100    -0.0460 C.ar  1 <1>  -0.1500 
  9 C        2.8990     1.8430    -1.7570 C.ar  1 <1>  -0.1500 
 10 C       -0.4490    -2.7130     1.4700 C.3   1 <1>   0.4810 
 11 C        3.7700     1.2480    -0.8570 C.ar  1 <1>   0.0820 
 12 N       -0.8590    -3.7770     0.5130 N.4   1 <1>  -0.9590 
 13 O        5.0380     1.7350    -0.8300 O.3   1 <1>  -0.3620 
 14 C       -1.4840    -4.9220     1.2530 C.3   1 <1>   0.3430 
 15 C        0.3440    -4.3280    -0.1990 C.3   1 <1>   0.3430 
 16 C        6.0000     1.2250     0.0670 C.3   1 <1>   0.0400 
 17 C       -0.3960    -5.9910     1.3610 C.3   1 <1>   0.2000 
 18 C        0.3600    -5.8410     0.0420 C.3   1 <1>  -0.0800 
 19 O        0.4650    -5.6340     2.3940 O.3   1 <1>  -0.6800 
 20 C       -0.3120    -6.5920    -1.1260 C.3   1 <1>  -0.0170 
 21 C       -0.4920    -8.0660    -0.8040 C.ar  1 <1>  -0.1430 
 22 C        0.5870    -8.9150    -0.6550 C.ar  1 <1>  -0.1500 
 23 C       -1.7410    -8.6340    -0.6420 C.ar  1 <1>  -0.1500 
 24 C        0.3730   -10.2470    -0.3400 C.ar  1 <1>   0.1600 
 25 C       -1.8460    -9.9800    -0.3280 C.ar  1 <1>   0.1600 
 26 N       -0.8180   -10.7940    -0.1640 N.ar  1 <1>  -0.6200 
 27 H       -1.2110     0.0670     0.5630 H     1 <1>   0.0800 
 28 H       -1.6000    -1.2540    -0.5180 H     1 <1>   0.0800 
 29 H        0.9120     1.8710    -2.5480 H     1 <1>   0.1500 
 30 H        2.2190    -1.8820     1.2180 H     1 <1>   0.1500 
 31 H        3.9780    -0.2650     0.6550 H     1 <1>   0.1500 
 32 H        3.2570     2.6420    -2.3820 H     1 <1>   0.1500 
 33 H       -1.2960    -2.3550     2.0320 H     1 <1>   0.0800 
 34 H        0.2730    -3.1150     2.1640 H     1 <1>   0.0800 
 35 H       -1.5140    -3.3780    -0.1670 H     1 <1>   0.4500 
 36 H       -1.8430    -4.6370     2.2280 H     1 <1>   0.0800 
 37 H       -2.3030    -5.3180     0.6760 H     1 <1>   0.0800 
 38 H        0.3190    -4.0960    -1.2520 H     1 <1>   0.0800 
 39 H        1.2410    -3.9040     0.2230 H     1 <1>   0.0800 
 40 H        6.9150     1.7690    -0.0820 H     1 <1>   0.0800 
 41 H        6.1560     0.1820    -0.1450 H     1 <1>   0.0800 
 42 H        5.6500     1.3680     1.0740 H     1 <1>   0.0800 
 43 H       -0.7880    -6.9750     1.5590 H     1 <1>   0.0800 
 44 H        1.3720    -6.1950     0.1360 H     1 <1>   0.0800 
 45 H        1.0300    -6.3940     2.6540 H     1 <1>   0.4000 
 46 H        0.2990    -6.5060    -2.0090 H     1 <1>   0.0800 
 47 H       -1.2690    -6.1580    -1.3590 H     1 <1>   0.0800 
 48 H        1.5940    -8.5630    -0.7820 H     1 <1>   0.1500 
 49 H       -2.6390    -8.0570    -0.7580 H     1 <1>   0.1500 
 50 H        1.2250   -10.8970    -0.2270 H     1 <1>   0.1500 
 51 H       -2.8260   -10.4100    -0.2050 H     1 <1>   0.1500 
@<TRIPOS>BOND
  1   1   2  1   
  2   1   3  1   
  3   2   4  ar  
  4   2   5  ar  
  5   3   6  1   
  6   3  27  1   
  7   3  28  1   
  8   4   7  1   
  9   4   8  ar  
 10   5   9  ar  
 11   5  29  1   
 12   6   7  2   
 13   6  10  1   
 14   7  30  1   
 15   8  11  ar  
 16   8  31  1   
 17   9  11  ar  
 18   9  32  1   
 19  10  12  1   
 20  10  33  1   
 21  10  34  1   
 22  11  13  1   
 23  12  14  1   
 24  12  15  1   
 25  12  35  1   
 26  13  16  1   
 27  14  17  1   
 28  14  36  1   
 29  14  37  1   
 30  15  18  1   
 31  15  38  1   
 32  15  39  1   
 33  16  40  1   
 34  16  41  1   
 35  16  42  1   
 36  17  18  1   
 37  17  19  1   
 38  17  43  1   
 39  18  20  1   
 40  18  44  1   
 41  19  45  1   
 42  20  21  1   
 43  20  46  1   
 44  20  47  1   
 45  21  22  ar  
 46  21  23  ar  
 47  22  24  ar  
 48  22  48  1   
 49  23  25  ar  
 50  23  49  1   
 51  24  26  ar  
 52  24  50  1   
 53  25  26  ar  
 54  25  51  1   
@<TRIPOS>SUBSTRUCTURE
  1 ****  15 GROUP 4 **** **** 0

# MOE 2024.06 (io_trps.svl 2023.06)
