@<TRIPOS>MOLECULE
NONAME
54 56 1 0 0 
SMALL
USER_CHARGES


@<TRIPOS>ATOM
  1 S       -0.6100     0.6440     1.1550 S.o2  1 <1>   1.4470 
  2 O       -1.1190     1.8440     1.7830 O.2   1 <1>  -0.6500 
  3 O       -0.5720    -0.5890     1.9150 O.2   1 <1>  -0.6500 
  4 N       -1.5420     0.3700    -0.2380 N.am  1 <1>  -0.8490 
  5 C        1.0320     0.9910     0.4660 C.ar  1 <1>  -0.0090 
  6 C       -2.9820     0.4170     0.0130 C.3   1 <1>   0.1960 
  7 C       -1.3030    -0.9350    -0.8510 C.3   1 <1>   0.1960 
  8 C        2.1520     0.2720     0.8660 C.ar  1 <1>  -0.1500 
  9 C        1.2090     1.9870    -0.4850 C.ar  1 <1>  -0.1500 
 10 C       -3.3750    -0.9980     0.4400 C.3   1 <1>  -0.0800 
 11 C       -2.4160    -1.8830    -0.3770 C.3   1 <1>  -0.0800 
 12 C        3.4100     0.5230     0.3410 C.ar  1 <1>  -0.1430 
 13 C        2.4560     2.2570    -1.0210 C.ar  1 <1>  -0.1500 
 14 C       -4.8820    -1.3680     0.3420 C.3   1 <1>   0.2800 
 15 C       -3.1100    -2.5750    -1.5620 C.3   1 <1>  -0.1600 
 16 C        3.5680     1.5260    -0.6120 C.ar  1 <1>   0.0830 
 17 C        4.5930    -0.3060     0.8300 C.3   1 <1>  -0.0160 
 18 O       -5.4500    -0.7480    -0.7550 O.3   1 <1>  -0.6800 
 19 C       -5.0240    -2.8870     0.1350 C.3   1 <1>  -0.1600 
 20 C       -5.7020    -0.9430     1.5820 C.3   1 <1>  -0.1600 
 21 C       -4.3070    -3.4320    -1.1180 C.3   1 <1>  -0.1600 
 22 O        4.8140     1.7530    -1.1030 O.3   1 <1>  -0.3620 
 23 C        5.2840     0.3870     2.0070 C.3   1 <1>  -0.2400 
 24 C       -5.7220     0.5600     1.9070 C.3   1 <1>  -0.2400 
 25 C        5.0780     2.7890    -2.0220 C.3   1 <1>   0.0400 
 26 H       -3.2380     1.1610     0.7450 H     1 <1>   0.0800 
 27 H       -3.4710     0.6740    -0.9120 H     1 <1>   0.0800 
 28 H       -1.3540    -0.8170    -1.9210 H     1 <1>   0.0800 
 29 H       -0.3280    -1.3220    -0.6040 H     1 <1>   0.0800 
 30 H        2.0340    -0.5000     1.6080 H     1 <1>   0.1500 
 31 H        0.3540     2.5570    -0.8070 H     1 <1>   0.1500 
 32 H       -3.0930    -1.1100     1.4710 H     1 <1>   0.0800 
 33 H       -1.9910    -2.6350     0.2650 H     1 <1>   0.0800 
 34 H        2.5380     3.0370    -1.7520 H     1 <1>   0.1500 
 35 H       -3.4690    -1.8180    -2.2400 H     1 <1>   0.0800 
 36 H       -2.4080    -3.1870    -2.1010 H     1 <1>   0.0800 
 37 H        4.2530    -1.2790     1.1390 H     1 <1>   0.0800 
 38 H        5.2980    -0.4530     0.0310 H     1 <1>   0.0800 
 39 H       -6.3790    -1.0290    -0.8360 H     1 <1>   0.4000 
 40 H       -4.5960    -3.3720     0.9950 H     1 <1>   0.0800 
 41 H       -6.0620    -3.1700     0.1060 H     1 <1>   0.0800 
 42 H       -6.7170    -1.2730     1.4530 H     1 <1>   0.0800 
 43 H       -5.3170    -1.4630     2.4430 H     1 <1>   0.0800 
 44 H       -3.9740    -4.4360    -0.9140 H     1 <1>   0.0800 
 45 H       -5.0060    -3.4850    -1.9350 H     1 <1>   0.0800 
 46 H        4.5930     0.5210     2.8190 H     1 <1>   0.0800 
 47 H        5.6490     1.3510     1.7000 H     1 <1>   0.0800 
 48 H        6.1150    -0.2040     2.3490 H     1 <1>   0.0800 
 49 H       -5.9830     1.1400     1.0390 H     1 <1>   0.0800 
 50 H       -4.7650     0.8850     2.2730 H     1 <1>   0.0800 
 51 H       -6.4490     0.7560     2.6760 H     1 <1>   0.0800 
 52 H        6.1310     2.7820    -2.2380 H     1 <1>   0.0800 
 53 H        4.8020     3.7280    -1.5770 H     1 <1>   0.0800 
 54 H        4.5190     2.6070    -2.9230 H     1 <1>   0.0800 
@<TRIPOS>BOND
  1   1   2  2   
  2   1   3  2   
  3   1   4  am  
  4   1   5  1   
  5   4   6  1   
  6   4   7  1   
  7   5   8  ar  
  8   5   9  ar  
  9   6  10  1   
 10   6  26  1   
 11   6  27  1   
 12   7  11  1   
 13   7  28  1   
 14   7  29  1   
 15   8  12  ar  
 16   8  30  1   
 17   9  13  ar  
 18   9  31  1   
 19  10  11  1   
 20  10  14  1   
 21  10  32  1   
 22  11  15  1   
 23  11  33  1   
 24  12  16  ar  
 25  12  17  1   
 26  13  16  ar  
 27  13  34  1   
 28  14  18  1   
 29  14  19  1   
 30  14  20  1   
 31  15  21  1   
 32  15  35  1   
 33  15  36  1   
 34  16  22  1   
 35  17  23  1   
 36  17  37  1   
 37  17  38  1   
 38  18  39  1   
 39  19  21  1   
 40  19  40  1   
 41  19  41  1   
 42  20  24  1   
 43  20  42  1   
 44  20  43  1   
 45  21  44  1   
 46  21  45  1   
 47  22  25  1   
 48  23  46  1   
 49  23  47  1   
 50  23  48  1   
 51  24  49  1   
 52  24  50  1   
 53  24  51  1   
 54  25  52  1   
 55  25  53  1   
 56  25  54  1   
@<TRIPOS>SUBSTRUCTURE
  1 ****   4 GROUP 4 **** **** 0

# MOE 2024.06 (io_trps.svl 2023.06)
