@<TRIPOS>MOLECULE
NONAME
32 33 1 0 0 
SMALL
USER_CHARGES


@<TRIPOS>ATOM
  1 S       -0.4890     1.6680    -1.7720 S.3   1 <1>  -0.3320 
  2 C       -0.0170     2.6010    -0.3210 C.ar  1 <1>   0.7220 
  3 C       -2.0220     0.7590    -1.2820 C.3   1 <1>  -0.0100 
  4 N        1.0710     3.3270    -0.4690 N.ar  1 <1>  -0.6200 
  5 N       -0.8070     2.4620     0.7330 N.ar  1 <1>  -0.6200 
  6 C        1.4300     4.0150     0.5950 C.ar  1 <1>   0.4100 
  7 C       -0.4310     3.1690     1.7790 C.ar  1 <1>   0.1600 
  8 N        2.5690     4.7860     0.5070 N.pl3 1 <1>  -0.8380 
  9 C        0.6830     3.9630     1.7580 C.ar  1 <1>  -0.1500 
 10 C        3.0600     5.2220    -0.8360 C.3   1 <1>   0.3900 
 11 C        3.5770     4.8140     1.6050 C.3   1 <1>   0.1290 
 12 C        3.8800     6.4990    -0.7270 C.2   1 <1>  -0.1810 
 13 C        3.4970     7.7560    -0.4110 C.2   1 <1>  -0.3320 
 14 C        5.2500     6.5920    -0.9490 C.2   1 <1>   0.1390 
 15 N        4.6090     8.5210    -0.4550 N.pl3 1 <1>   0.3000 
 16 C        2.1170     8.2820    -0.0580 C.3   1 <1>  -0.0600 
 17 N        5.6970     7.8000    -0.7870 N.2   1 <1>  -0.7070 
 18 H       -2.3450     0.1800    -2.1280 H     1 <1>   0.0800 
 19 H       -2.7630     1.4880    -1.0060 H     1 <1>   0.0800 
 20 H       -1.7770     0.1250    -0.4490 H     1 <1>   0.0800 
 21 H       -1.0340     3.1060     2.6690 H     1 <1>   0.1500 
 22 H        0.9730     4.5410     2.6120 H     1 <1>   0.1500 
 23 H        2.2210     5.4040    -1.4850 H     1 <1>   0.0800 
 24 H        3.6520     4.4350    -1.2690 H     1 <1>   0.0800 
 25 H        3.2890     4.1570     2.4070 H     1 <1>   0.0800 
 26 H        3.6690     5.8170     1.9840 H     1 <1>   0.0800 
 27 H        4.5350     4.4930     1.2330 H     1 <1>   0.0800 
 28 H        5.8810     5.7640    -1.2250 H     1 <1>   0.1500 
 29 H        4.6590     9.5290    -0.2650 H     1 <1>   0.2700 
 30 H        1.4020     7.4780    -0.0560 H     1 <1>   0.0800 
 31 H        1.8030     9.0180    -0.7760 H     1 <1>   0.0800 
 32 H        2.1280     8.7260     0.9210 H     1 <1>   0.0800 
@<TRIPOS>BOND
  1   1   2  1   
  2   1   3  1   
  3   2   4  ar  
  4   2   5  ar  
  5   3  18  1   
  6   3  19  1   
  7   3  20  1   
  8   4   6  ar  
  9   5   7  ar  
 10   6   8  1   
 11   6   9  ar  
 12   7   9  ar  
 13   7  21  1   
 14   8  10  1   
 15   8  11  1   
 16   9  22  1   
 17  10  12  1   
 18  10  23  1   
 19  10  24  1   
 20  11  25  1   
 21  11  26  1   
 22  11  27  1   
 23  12  13  2   
 24  12  14  1   
 25  13  15  1   
 26  13  16  1   
 27  14  17  2   
 28  14  28  1   
 29  15  17  1   
 30  15  29  1   
 31  16  30  1   
 32  16  31  1   
 33  16  32  1   
@<TRIPOS>SUBSTRUCTURE
  1 ****   8 GROUP 4 **** **** 0

# MOE 2024.06 (io_trps.svl 2023.06)
