@<TRIPOS>MOLECULE
NONAME
51 53 1 0 0 
SMALL
USER_CHARGES


@<TRIPOS>ATOM
  1 O        0.0050     1.0740    -1.8470 O.2   1 <1>  -0.5700 
  2 C       -0.1110     2.2560    -1.6240 C.2   1 <1>   0.5690 
  3 N       -0.9880     2.7450    -0.6920 N.am  1 <1>  -0.6600 
  4 C        0.7490     3.2310    -2.4270 C.3   1 <1>   0.1810 
  5 C       -1.1210     4.2190    -0.4390 C.3   1 <1>   0.3640 
  6 C       -1.8270     1.8500     0.1580 C.3   1 <1>   0.0600 
  7 O        0.9640     4.4380    -1.7410 O.3   1 <1>  -0.5600 
  8 C       -2.5930     4.6350    -0.5660 C.ar  1 <1>  -0.1430 
  9 C       -0.2330     5.0960    -1.3600 C.3   1 <1>   0.2610 
 10 C       -3.2590     5.3520     0.4290 C.ar  1 <1>  -0.1430 
 11 C       -3.2840     4.2840    -1.7210 C.ar  1 <1>  -0.1500 
 12 C        0.0410     6.4400    -0.6680 C.2   1 <1>   0.5690 
 13 C       -4.5890     5.7000     0.2460 C.ar  1 <1>  -0.1500 
 14 C       -2.5830     5.7830     1.7240 C.3   1 <1>  -0.0960 
 15 C       -4.6100     4.6350    -1.8940 C.ar  1 <1>  -0.1500 
 16 O       -0.6000     7.3920    -1.0500 O.2   1 <1>  -0.5700 
 17 N        0.9370     6.5710     0.3720 N.am  1 <1>  -0.6600 
 18 C       -5.2640     5.3460    -0.9070 C.ar  1 <1>  -0.1500 
 19 C        1.1480     7.8950     1.0480 C.3   1 <1>   0.1400 
 20 C        1.9100     5.5120     0.7850 C.3   1 <1>   0.1400 
 21 C        2.6470     8.2030     1.3150 C.3   1 <1>   0.2800 
 22 C        2.6720     5.9070     2.0600 C.3   1 <1>   0.1200 
 23 O        3.3370     7.1310     1.9030 O.3   1 <1>  -0.5600 
 24 C        3.3840     8.5170     0.0100 C.3   1 <1>  -0.2400 
 25 C        2.7880     9.3750     2.2850 C.3   1 <1>  -0.2400 
 26 H        0.2740     3.4470    -3.3670 H     1 <1>   0.0800 
 27 H        1.7090     2.7860    -2.6160 H     1 <1>   0.0800 
 28 H       -0.7960     4.3820     0.5700 H     1 <1>   0.0800 
 29 H       -1.7060     2.1090     1.1950 H     1 <1>   0.0800 
 30 H       -1.5420     0.8210     0.0250 H     1 <1>   0.0800 
 31 H       -2.8640     1.9550    -0.1120 H     1 <1>   0.0800 
 32 H       -0.7730     5.3100    -2.2650 H     1 <1>   0.0800 
 33 H       -2.7930     3.7250    -2.4980 H     1 <1>   0.1500 
 34 H       -5.1140     6.2560     1.0020 H     1 <1>   0.1500 
 35 H       -3.2740     6.2980     2.3660 H     1 <1>   0.0800 
 36 H       -1.7690     6.4520     1.5140 H     1 <1>   0.0800 
 37 H       -2.2140     4.9250     2.2570 H     1 <1>   0.0800 
 38 H       -5.1300     4.3560    -2.7930 H     1 <1>   0.1500 
 39 H       -6.2950     5.6240    -1.0360 H     1 <1>   0.1500 
 40 H        0.7330     8.6900     0.4530 H     1 <1>   0.0800 
 41 H        0.6180     7.8900     1.9830 H     1 <1>   0.0800 
 42 H        1.3960     4.5840     0.9570 H     1 <1>   0.0800 
 43 H        2.6230     5.3570    -0.0060 H     1 <1>   0.0800 
 44 H        3.4120     5.1650     2.2970 H     1 <1>   0.0800 
 45 H        1.9960     5.9940     2.8930 H     1 <1>   0.0800 
 46 H        2.9470     9.3760    -0.4660 H     1 <1>   0.0800 
 47 H        3.3150     7.6870    -0.6690 H     1 <1>   0.0800 
 48 H        4.4200     8.7240     0.2070 H     1 <1>   0.0800 
 49 H        2.3230    10.2540     1.8770 H     1 <1>   0.0800 
 50 H        3.8280     9.5890     2.4600 H     1 <1>   0.0800 
 51 H        2.3180     9.1420     3.2220 H     1 <1>   0.0800 
@<TRIPOS>BOND
  1   1   2  2   
  2   2   3  am  
  3   2   4  1   
  4   3   5  1   
  5   3   6  1   
  6   4   7  1   
  7   4  26  1   
  8   4  27  1   
  9   5   8  1   
 10   5   9  1   
 11   5  28  1   
 12   6  29  1   
 13   6  30  1   
 14   6  31  1   
 15   7   9  1   
 16   8  10  ar  
 17   8  11  ar  
 18   9  12  1   
 19   9  32  1   
 20  10  13  ar  
 21  10  14  1   
 22  11  15  ar  
 23  11  33  1   
 24  12  16  2   
 25  12  17  am  
 26  13  18  ar  
 27  13  34  1   
 28  14  35  1   
 29  14  36  1   
 30  14  37  1   
 31  15  18  ar  
 32  15  38  1   
 33  17  19  1   
 34  17  20  1   
 35  18  39  1   
 36  19  21  1   
 37  19  40  1   
 38  19  41  1   
 39  20  22  1   
 40  20  42  1   
 41  20  43  1   
 42  21  23  1   
 43  21  24  1   
 44  21  25  1   
 45  22  23  1   
 46  22  44  1   
 47  22  45  1   
 48  24  46  1   
 49  24  47  1   
 50  24  48  1   
 51  25  49  1   
 52  25  50  1   
 53  25  51  1   
@<TRIPOS>SUBSTRUCTURE
  1 ****   9 GROUP 4 **** **** 0

# MOE 2024.06 (io_trps.svl 2023.06)
