@<TRIPOS>MOLECULE
NONAME
44 46 1 0 0 
SMALL
USER_CHARGES


@<TRIPOS>ATOM
  1 F        0.1300    -1.8910    -1.8880 F     1 <1>  -0.3400 
  2 C       -1.1230    -1.5240    -2.1260 C.3   1 <1>   0.8800 
  3 F       -1.0710    -0.2420    -2.4560 F     1 <1>  -0.3400 
  4 O       -1.8640    -1.6350    -0.9320 O.3   1 <1>  -0.3630 
  5 C       -2.2050    -2.8400    -0.4120 C.ar  1 <1>   0.0830 
  6 C       -1.8590    -4.0660    -0.9750 C.ar  1 <1>  -0.1500 
  7 C       -2.9420    -2.8180     0.7610 C.ar  1 <1>  -0.1500 
  8 C       -2.2500    -5.2450    -0.3620 C.ar  1 <1>  -0.1500 
  9 C       -3.3310    -3.9950     1.3730 C.ar  1 <1>  -0.1500 
 10 C       -2.9870    -5.2180     0.8150 C.ar  1 <1>  -0.1440 
 11 C       -3.4090    -6.5090     1.4900 C.3   1 <1>   0.4870 
 12 N       -4.4770    -7.1390     0.6770 N.4   1 <1>  -0.9590 
 13 C       -5.7240    -6.3200     0.5190 C.3   1 <1>   0.3430 
 14 C       -4.8990    -8.4900     1.1100 C.3   1 <1>   0.3430 
 15 C       -6.8940    -7.3190     0.5870 C.3   1 <1>   0.2000 
 16 C       -6.2400    -8.6900     0.4000 C.3   1 <1>  -0.0800 
 17 O       -7.4860    -7.2700     1.8440 O.3   1 <1>  -0.6800 
 18 C       -6.1120    -9.0180    -1.1140 C.3   1 <1>  -0.0170 
 19 C       -4.7810    -9.6330    -1.5280 C.ar  1 <1>   0.1670 
 20 N       -3.7560    -8.7940    -1.6450 N.ar  1 <1>  -0.6200 
 21 C       -4.6900   -11.0030    -1.7680 C.ar  1 <1>   0.1600 
 22 C       -2.6550    -9.4180    -2.0450 C.ar  1 <1>   0.1600 
 23 N       -3.5830   -11.6210    -2.1350 N.ar  1 <1>  -0.6200 
 24 C       -2.5710   -10.7850    -2.2790 C.ar  1 <1>   0.1600 
 25 H       -1.5360    -2.0950    -2.9370 H     1 <1>   0.0800 
 26 H       -1.2790    -4.1280    -1.8770 H     1 <1>   0.1500 
 27 H       -3.2030    -1.8670     1.1940 H     1 <1>   0.1500 
 28 H       -1.9660    -6.1820    -0.8110 H     1 <1>   0.1500 
 29 H       -3.8950    -3.9390     2.2890 H     1 <1>   0.1500 
 30 H       -3.7670    -6.3040     2.4850 H     1 <1>   0.0800 
 31 H       -2.5590    -7.1690     1.5600 H     1 <1>   0.0800 
 32 H       -4.0840    -7.2850    -0.2750 H     1 <1>   0.4500 
 33 H       -5.8200    -5.5820     1.2980 H     1 <1>   0.0800 
 34 H       -5.7090    -5.8240    -0.4380 H     1 <1>   0.0800 
 35 H       -4.1760    -9.2430     0.8370 H     1 <1>   0.0800 
 36 H       -5.0450    -8.5090     2.1780 H     1 <1>   0.0800 
 37 H       -7.6610    -7.1020    -0.1390 H     1 <1>   0.0800 
 38 H       -6.8070    -9.4710     0.8790 H     1 <1>   0.0800 
 39 H       -6.8750    -7.4770     2.5770 H     1 <1>   0.4000 
 40 H       -6.2400    -8.1300    -1.7080 H     1 <1>   0.0800 
 41 H       -6.9150    -9.6790    -1.3930 H     1 <1>   0.0800 
 42 H       -5.5670   -11.6180    -1.6530 H     1 <1>   0.1500 
 43 H       -1.7700    -8.8250    -2.1980 H     1 <1>   0.1500 
 44 H       -1.6310   -11.2030    -2.5980 H     1 <1>   0.1500 
@<TRIPOS>BOND
  1   1   2  1   
  2   2   3  1   
  3   2   4  1   
  4   2  25  1   
  5   4   5  1   
  6   5   6  ar  
  7   5   7  ar  
  8   6   8  ar  
  9   6  26  1   
 10   7   9  ar  
 11   7  27  1   
 12   8  10  ar  
 13   8  28  1   
 14   9  10  ar  
 15   9  29  1   
 16  10  11  1   
 17  11  12  1   
 18  11  30  1   
 19  11  31  1   
 20  12  13  1   
 21  12  14  1   
 22  12  32  1   
 23  13  15  1   
 24  13  33  1   
 25  13  34  1   
 26  14  16  1   
 27  14  35  1   
 28  14  36  1   
 29  15  16  1   
 30  15  17  1   
 31  15  37  1   
 32  16  18  1   
 33  16  38  1   
 34  17  39  1   
 35  18  19  1   
 36  18  40  1   
 37  18  41  1   
 38  19  20  ar  
 39  19  21  ar  
 40  20  22  ar  
 41  21  23  ar  
 42  21  42  1   
 43  22  24  ar  
 44  22  43  1   
 45  23  24  ar  
 46  24  44  1   
@<TRIPOS>SUBSTRUCTURE
  1 ****  12 GROUP 4 **** **** 0

# MOE 2024.06 (io_trps.svl 2023.06)
