@<TRIPOS>MOLECULE
NONAME
40 42 1 0 0 
SMALL
USER_CHARGES


@<TRIPOS>ATOM
  1 S        0.9800     0.8350     0.4210 S.3   1 <1>  -0.0800 
  2 C        2.4010     0.4250    -0.5480 C.2   1 <1>  -0.0450 
  3 C        0.3560    -0.7980     0.3330 C.2   1 <1>  -0.1400 
  4 C        3.3770     1.4410    -0.8430 C.2   1 <1>   0.7150 
  5 C        2.3300    -0.8880    -0.8830 C.2   1 <1>  -0.1500 
  6 C        1.1840    -1.5750    -0.3880 C.2   1 <1>  -0.1500 
  7 C       -0.9530    -1.0850     1.0370 C.3   1 <1>  -0.0600 
  8 O        4.3670     1.2020    -1.5130 O.2   1 <1>  -0.5700 
  9 N        3.3000     2.7060    -0.3220 N.am  1 <1>  -0.6600 
 10 C        3.7440     2.8840     1.1030 C.3   1 <1>   0.2200 
 11 C        3.3670     3.8670    -1.2620 C.3   1 <1>   0.1400 
 12 C        3.1680     4.1480     1.7580 C.3   1 <1>   0.1200 
 13 C        5.2920     2.8620     1.2090 C.3   1 <1>   0.3430 
 14 C        4.3650     4.9710    -0.8630 C.3   1 <1>  -0.0800 
 15 O        3.9910     5.2490     1.5080 O.3   1 <1>  -0.5600 
 16 N        5.9790     3.1150    -0.1080 N.4   1 <1>  -0.9590 
 17 C        3.8260     5.8560     0.2720 C.3   1 <1>   0.1200 
 18 C        5.8200     4.5150    -0.6150 C.3   1 <1>   0.3430 
 19 C        7.4100     2.7050    -0.0670 C.3   1 <1>   0.2630 
 20 H        3.0650    -1.4040    -1.4780 H     1 <1>   0.1500 
 21 H        1.0320    -2.6210    -0.5960 H     1 <1>   0.1500 
 22 H       -1.2280    -2.1160     0.9040 H     1 <1>   0.0800 
 23 H       -1.7310    -0.4630     0.6320 H     1 <1>   0.0800 
 24 H       -0.8570    -0.8840     2.0890 H     1 <1>   0.0800 
 25 H        3.3660     2.0520     1.6720 H     1 <1>   0.0800 
 26 H        3.6250     3.5090    -2.2450 H     1 <1>   0.0800 
 27 H        2.3800     4.2930    -1.3400 H     1 <1>   0.0800 
 28 H        3.1530     4.0170     2.8260 H     1 <1>   0.0800 
 29 H        2.1610     4.3490     1.4310 H     1 <1>   0.0800 
 30 H        5.5800     1.8890     1.5710 H     1 <1>   0.0800 
 31 H        5.6140     3.5850     1.9410 H     1 <1>   0.0800 
 32 H        4.4100     5.6310    -1.7100 H     1 <1>   0.0800 
 33 H        5.4830     2.4940    -0.7860 H     1 <1>   0.4500 
 34 H        2.7850     6.0980     0.1340 H     1 <1>   0.0800 
 35 H        4.3780     6.7810     0.3060 H     1 <1>   0.0800 
 36 H        6.2840     5.2010     0.0760 H     1 <1>   0.0800 
 37 H        6.3500     4.5930    -1.5500 H     1 <1>   0.0800 
 38 H        7.9530     3.3100     0.6400 H     1 <1>   0.0800 
 39 H        7.8580     2.8190    -1.0410 H     1 <1>   0.0800 
 40 H        7.4920     1.6700     0.2250 H     1 <1>   0.0800 
@<TRIPOS>BOND
  1   1   2  1   
  2   1   3  1   
  3   2   4  1   
  4   2   5  2   
  5   3   6  2   
  6   3   7  1   
  7   4   8  2   
  8   4   9  am  
  9   5   6  1   
 10   5  20  1   
 11   6  21  1   
 12   7  22  1   
 13   7  23  1   
 14   7  24  1   
 15   9  10  1   
 16   9  11  1   
 17  10  12  1   
 18  10  13  1   
 19  10  25  1   
 20  11  14  1   
 21  11  26  1   
 22  11  27  1   
 23  12  15  1   
 24  12  28  1   
 25  12  29  1   
 26  13  16  1   
 27  13  30  1   
 28  13  31  1   
 29  14  17  1   
 30  14  18  1   
 31  14  32  1   
 32  15  17  1   
 33  16  18  1   
 34  16  19  1   
 35  16  33  1   
 36  17  34  1   
 37  17  35  1   
 38  18  36  1   
 39  18  37  1   
 40  19  38  1   
 41  19  39  1   
 42  19  40  1   
@<TRIPOS>SUBSTRUCTURE
  1 ****   9 GROUP 4 **** **** 0

# MOE 2024.06 (io_trps.svl 2023.06)
