@<TRIPOS>MOLECULE
NONAME
43 45 1 0 0 
SMALL
USER_CHARGES


@<TRIPOS>ATOM
  1 O       -0.6580    -0.2390     0.2560 O.3   1 <1>  -0.6800 
  2 C        0.5970    -0.6270    -0.1930 C.3   1 <1>   0.2000 
  3 C        1.0340    -1.8350     0.6460 C.3   1 <1>  -0.0800 
  4 C        1.5780     0.5050     0.1520 C.3   1 <1>   0.3430 
  5 C        1.7450    -1.1740     1.8280 C.3   1 <1>   0.3430 
  6 C        1.9360    -2.8320    -0.1270 C.3   1 <1>   0.0210 
  7 N        2.4740    -0.0430     1.2130 N.4   1 <1>  -0.9590 
  8 C        3.3720    -2.3800    -0.3660 C.2   1 <1>   0.1080 
  9 C        3.0950     0.9500     2.1140 C.3   1 <1>   0.4860 
 10 N        3.6860    -1.3140    -1.0390 N.2   1 <1>  -0.7070 
 11 C        4.4980    -3.0350     0.1200 C.2   1 <1>  -0.1500 
 12 C        4.2510     1.5610     1.3610 C.ar  1 <1>  -0.1440 
 13 N        5.0390    -1.2850    -1.0370 N.pl3 1 <1>   0.3000 
 14 C        5.5450    -2.3050    -0.3180 C.2   1 <1>  -0.3320 
 15 C        4.1620     2.7930     0.7560 C.ar  1 <1>   0.1600 
 16 C        5.4400     0.8830     1.2250 C.ar  1 <1>   0.1600 
 17 C        7.0330    -2.5260    -0.1070 C.3   1 <1>  -0.0600 
 18 N        5.1550     3.2980     0.0630 N.ar  1 <1>  -0.6200 
 19 N        6.4420     1.3610     0.5230 N.ar  1 <1>  -0.6200 
 20 C        6.2460     2.5550    -0.0130 C.ar  1 <1>   0.4770 
 21 C        7.3900     3.1390    -0.8070 C.3   1 <1>  -0.0970 
 22 H       -1.3640    -0.7980    -0.1340 H     1 <1>   0.4000 
 23 H        0.5470    -0.8160    -1.2520 H     1 <1>   0.0800 
 24 H        0.1750    -2.3820     0.9950 H     1 <1>   0.0800 
 25 H        1.0290     1.3620     0.5060 H     1 <1>   0.0800 
 26 H        2.1590     0.7740    -0.7150 H     1 <1>   0.0800 
 27 H        2.4130    -1.8590     2.3260 H     1 <1>   0.0800 
 28 H        1.0120    -0.8010     2.5260 H     1 <1>   0.0800 
 29 H        1.4900    -3.0580    -1.0800 H     1 <1>   0.0800 
 30 H        1.9710    -3.7560     0.4230 H     1 <1>   0.0800 
 31 H        3.2330    -0.4830     0.6480 H     1 <1>   0.4500 
 32 H        2.3780     1.7020     2.4010 H     1 <1>   0.0800 
 33 H        3.4660     0.4650     3.0020 H     1 <1>   0.0800 
 34 H        4.5130    -3.9360     0.7100 H     1 <1>   0.1500 
 35 H        5.5890    -0.5530    -1.5110 H     1 <1>   0.2700 
 36 H        3.2630     3.3830     0.8290 H     1 <1>   0.1500 
 37 H        5.5790    -0.0810     1.6870 H     1 <1>   0.1500 
 38 H        7.1980    -3.3860     0.5170 H     1 <1>   0.0800 
 39 H        7.4770    -1.6670     0.3650 H     1 <1>   0.0800 
 40 H        7.5200    -2.6930    -1.0510 H     1 <1>   0.0800 
 41 H        7.6170     4.1220    -0.4380 H     1 <1>   0.0800 
 42 H        7.1110     3.2080    -1.8410 H     1 <1>   0.0800 
 43 H        8.2670     2.5250    -0.7180 H     1 <1>   0.0800 
@<TRIPOS>BOND
  1   1   2  1   
  2   1  22  1   
  3   2   3  1   
  4   2   4  1   
  5   2  23  1   
  6   3   5  1   
  7   3   6  1   
  8   3  24  1   
  9   4   7  1   
 10   4  25  1   
 11   4  26  1   
 12   5   7  1   
 13   5  27  1   
 14   5  28  1   
 15   6   8  1   
 16   6  29  1   
 17   6  30  1   
 18   7   9  1   
 19   7  31  1   
 20   8  10  2   
 21   8  11  1   
 22   9  12  1   
 23   9  32  1   
 24   9  33  1   
 25  10  13  1   
 26  11  14  2   
 27  11  34  1   
 28  12  15  ar  
 29  12  16  ar  
 30  13  14  1   
 31  13  35  1   
 32  14  17  1   
 33  15  18  ar  
 34  15  36  1   
 35  16  19  ar  
 36  16  37  1   
 37  17  38  1   
 38  17  39  1   
 39  17  40  1   
 40  18  20  ar  
 41  19  20  ar  
 42  20  21  1   
 43  21  41  1   
 44  21  42  1   
 45  21  43  1   
@<TRIPOS>SUBSTRUCTURE
  1 ****   7 GROUP 4 **** **** 0

# MOE 2024.06 (io_trps.svl 2023.06)
