@<TRIPOS>MOLECULE
NONAME
40 41 1 0 0 
SMALL
USER_CHARGES


@<TRIPOS>ATOM
  1 S       -0.0760    -0.0340     0.1750 S.o2  1 <1>   1.3330 
  2 O       -0.6740     1.2820     0.1770 O.2   1 <1>  -0.6500 
  3 O       -0.0630    -0.8130     1.3930 O.2   1 <1>  -0.6500 
  4 N       -0.8470    -0.9630    -1.0200 N.am  1 <1>  -0.8490 
  5 C        1.5880     0.1260    -0.4740 C.3   1 <1>  -0.0550 
  6 C       -2.2820    -0.6780    -1.1060 C.3   1 <1>   0.1160 
  7 C       -0.6340    -2.4060    -0.8620 C.3   1 <1>   0.1160 
  8 C        2.5150     0.9990     0.3970 C.3   1 <1>  -0.0800 
  9 C        3.8230     1.2850    -0.3200 C.3   1 <1>   0.2200 
 10 C        3.0080     0.2480     1.6340 C.3   1 <1>   0.1200 
 11 N        4.4330     2.5080     0.2440 N.am  1 <1>  -0.7300 
 12 C        4.6700     0.0660     0.0440 C.3   1 <1>   0.1200 
 13 O        4.1420    -0.4570     1.2290 O.3   1 <1>  -0.5600 
 14 C        4.6580     3.6820    -0.4130 C.2   1 <1>   0.7160 
 15 O        4.3160     3.7660    -1.5790 O.2   1 <1>  -0.5700 
 16 C        5.2980     4.7810     0.2920 C.2   1 <1>   0.1410 
 17 N        5.7130     4.6790     1.5960 N.2   1 <1>  -0.5650 
 18 C        5.6020     6.0340    -0.1300 C.2   1 <1>  -0.0400 
 19 C        6.2150     5.8310     1.8460 C.2   1 <1>   0.3280 
 20 O        6.1720     6.6740     0.8460 O.3   1 <1>  -0.2800 
 21 C        5.4080     6.7650    -1.4460 C.3   1 <1>  -0.0600 
 22 H        2.0210    -0.8480    -0.5930 H     1 <1>   0.0800 
 23 H        1.5160     0.5720    -1.4470 H     1 <1>   0.0800 
 24 H       -2.7350    -1.2720    -1.8810 H     1 <1>   0.0800 
 25 H       -2.4390     0.3610    -1.3440 H     1 <1>   0.0800 
 26 H       -2.7630    -0.8930    -0.1660 H     1 <1>   0.0800 
 27 H       -1.0630    -2.9360    -1.6950 H     1 <1>   0.0800 
 28 H       -1.0910    -2.7570     0.0500 H     1 <1>   0.0800 
 29 H        0.4190    -2.6260    -0.8250 H     1 <1>   0.0800 
 30 H        2.0020     1.9100     0.6590 H     1 <1>   0.0800 
 31 H        3.7070     1.3850    -1.3870 H     1 <1>   0.0800 
 32 H        2.2920    -0.4430     2.0430 H     1 <1>   0.0800 
 33 H        3.3110     0.9390     2.4020 H     1 <1>   0.0800 
 34 H        4.7560     2.4610     1.2150 H     1 <1>   0.3700 
 35 H        5.7070     0.3130     0.1910 H     1 <1>   0.0800 
 36 H        4.5810    -0.6960    -0.7100 H     1 <1>   0.0800 
 37 H        6.6540     6.1550     2.7750 H     1 <1>   0.1500 
 38 H        4.9320     6.1370    -2.1750 H     1 <1>   0.0800 
 39 H        6.3620     7.0760    -1.8300 H     1 <1>   0.0800 
 40 H        4.7960     7.6340    -1.2890 H     1 <1>   0.0800 
@<TRIPOS>BOND
  1   1   2  2   
  2   1   3  2   
  3   1   4  am  
  4   1   5  1   
  5   4   6  1   
  6   4   7  1   
  7   5   8  1   
  8   5  22  1   
  9   5  23  1   
 10   6  24  1   
 11   6  25  1   
 12   6  26  1   
 13   7  27  1   
 14   7  28  1   
 15   7  29  1   
 16   8   9  1   
 17   8  10  1   
 18   8  30  1   
 19   9  11  1   
 20   9  12  1   
 21   9  31  1   
 22  10  13  1   
 23  10  32  1   
 24  10  33  1   
 25  11  14  am  
 26  11  34  1   
 27  12  13  1   
 28  12  35  1   
 29  12  36  1   
 30  14  15  2   
 31  14  16  1   
 32  16  17  1   
 33  16  18  2   
 34  17  19  2   
 35  18  20  1   
 36  18  21  1   
 37  19  20  1   
 38  19  37  1   
 39  21  38  1   
 40  21  39  1   
 41  21  40  1   
@<TRIPOS>SUBSTRUCTURE
  1 ****   8 GROUP 4 **** **** 0

# MOE 2024.06 (io_trps.svl 2023.06)
