@<TRIPOS>MOLECULE
NONAME
46 47 1 0 0 
SMALL
USER_CHARGES


@<TRIPOS>ATOM
  1 O       -0.0160     0.4320     1.0310 O.2   1 <1>  -0.5700 
  2 C        0.0610     1.4150     0.3210 C.2   1 <1>   0.7800 
  3 O       -1.0330     2.0010    -0.1700 O.3   1 <1>  -0.4300 
  4 N        1.2650     1.9610    -0.0090 N.am  1 <1>  -0.6600 
  5 C       -2.3740     1.6030     0.0150 C.3   1 <1>   0.2800 
  6 C        2.5240     1.2710     0.4280 C.3   1 <1>   0.4250 
  7 C        1.4430     3.0270    -1.0260 C.3   1 <1>   0.1400 
  8 C       -2.7540     1.6870     1.4980 C.3   1 <1>  -0.2400 
  9 C       -3.2020     2.6160    -0.7760 C.3   1 <1>  -0.2400 
 10 C       -2.5970     0.2030    -0.5690 C.3   1 <1>  -0.2400 
 11 C        3.6930     2.2590     0.5750 C.ar  1 <1>  -0.1440 
 12 C        2.9030     0.0920    -0.4920 C.2   1 <1>   0.6590 
 13 C        2.3150     4.1350    -0.4420 C.3   1 <1>  -0.0170 
 14 C        3.6010     3.5870     0.1600 C.ar  1 <1>  -0.1440 
 15 C        4.8810     1.8090     1.1430 C.ar  1 <1>  -0.1500 
 16 O        2.7550     0.1120    -1.6920 O.2   1 <1>  -0.5700 
 17 O        3.4200    -0.9730     0.1180 O.3   1 <1>  -0.4300 
 18 C        4.6870     4.4350     0.3080 C.ar  1 <1>  -0.1500 
 19 C        5.9640     2.6560     1.2890 C.ar  1 <1>  -0.1500 
 20 C        3.7910    -2.1250    -0.6010 C.3   1 <1>   0.1200 
 21 C        5.8620     3.9700     0.8670 C.ar  1 <1>   0.0820 
 22 C        4.3530    -3.1390     0.3890 C.3   1 <1>  -0.2400 
 23 O        6.9030     4.8060     0.9990 O.3   1 <1>  -0.5320 
 24 H        2.3490     0.8540     1.4040 H     1 <1>   0.0800 
 25 H        0.4960     3.4360    -1.3320 H     1 <1>   0.0800 
 26 H        1.9240     2.6080    -1.8950 H     1 <1>   0.0800 
 27 H       -2.5160     2.6590     1.8900 H     1 <1>   0.0800 
 28 H       -2.2410     0.9390     2.0730 H     1 <1>   0.0800 
 29 H       -3.8090     1.5200     1.6160 H     1 <1>   0.0800 
 30 H       -3.0390     3.6090    -0.3960 H     1 <1>   0.0800 
 31 H       -4.2500     2.3890    -0.6920 H     1 <1>   0.0800 
 32 H       -2.9320     2.5880    -1.8160 H     1 <1>   0.0800 
 33 H       -2.0860    -0.5450     0.0080 H     1 <1>   0.0800 
 34 H       -2.2500     0.1620    -1.5860 H     1 <1>   0.0800 
 35 H       -3.6440    -0.0380    -0.5560 H     1 <1>   0.0800 
 36 H        1.7620     4.6530     0.3200 H     1 <1>   0.0800 
 37 H        2.5470     4.8410    -1.2200 H     1 <1>   0.0800 
 38 H        4.9710     0.7890     1.4780 H     1 <1>   0.1500 
 39 H        4.6330     5.4610    -0.0050 H     1 <1>   0.1500 
 40 H        6.8740     2.2920     1.7280 H     1 <1>   0.1500 
 41 H        4.5300    -1.8480    -1.3350 H     1 <1>   0.0800 
 42 H        2.9160    -2.5120    -1.0980 H     1 <1>   0.0800 
 43 H        5.2190    -2.7370     0.8830 H     1 <1>   0.0800 
 44 H        4.6410    -4.0340    -0.1330 H     1 <1>   0.0800 
 45 H        3.6070    -3.3950     1.1200 H     1 <1>   0.0800 
 46 H        7.6820     4.3860     1.4020 H     1 <1>   0.4500 
@<TRIPOS>BOND
  1   1   2  2   
  2   2   3  1   
  3   2   4  am  
  4   3   5  1   
  5   4   6  1   
  6   4   7  1   
  7   5   8  1   
  8   5   9  1   
  9   5  10  1   
 10   6  11  1   
 11   6  12  1   
 12   6  24  1   
 13   7  13  1   
 14   7  25  1   
 15   7  26  1   
 16   8  27  1   
 17   8  28  1   
 18   8  29  1   
 19   9  30  1   
 20   9  31  1   
 21   9  32  1   
 22  10  33  1   
 23  10  34  1   
 24  10  35  1   
 25  11  14  ar  
 26  11  15  ar  
 27  12  16  2   
 28  12  17  1   
 29  13  14  1   
 30  13  36  1   
 31  13  37  1   
 32  14  18  ar  
 33  15  19  ar  
 34  15  38  1   
 35  17  20  1   
 36  18  21  ar  
 37  18  39  1   
 38  19  21  ar  
 39  19  40  1   
 40  20  22  1   
 41  20  41  1   
 42  20  42  1   
 43  21  23  1   
 44  22  43  1   
 45  22  44  1   
 46  22  45  1   
 47  23  46  1   
@<TRIPOS>SUBSTRUCTURE
  1 ****   6 GROUP 4 **** **** 0

# MOE 2024.06 (io_trps.svl 2023.06)
