@<TRIPOS>MOLECULE
NONAME
48 50 1 0 0 
SMALL
USER_CHARGES


@<TRIPOS>ATOM
  1 O        1.1320     0.7530    -0.9990 O.2   1 <1>  -0.5700 
  2 C        1.0780    -0.3850    -0.6000 C.2   1 <1>   0.5690 
  3 N        2.1100    -1.1340    -0.1100 N.am  1 <1>  -0.4770 
  4 C       -0.2130    -1.1590    -0.5920 C.3   1 <1>  -0.0990 
  5 C        3.4670    -0.7730    -0.0100 C.ar  1 <1>   0.1170 
  6 C        1.6410    -2.4750     0.2940 C.3   1 <1>   0.1400 
  7 C        0.2320    -2.5970    -0.2970 C.3   1 <1>  -0.1600 
  8 C        4.0760    -0.0020    -0.9940 C.ar  1 <1>  -0.1500 
  9 C        4.2420    -1.1790     1.0720 C.ar  1 <1>  -0.1500 
 10 C        5.4080     0.3540    -0.9030 C.ar  1 <1>  -0.1500 
 11 C        5.5760    -0.8260     1.1690 C.ar  1 <1>  -0.1500 
 12 C        6.1710    -0.0550     0.1810 C.ar  1 <1>  -0.1430 
 13 C        7.6280     0.3490     0.2860 C.3   1 <1>   0.3530 
 14 N        7.6740     1.8150     0.4610 N.pl3 1 <1>  -0.8690 
 15 C        8.4860     2.7800     0.0260 C.ar  1 <1>   0.7710 
 16 N        8.0980     4.0110     0.2730 N.ar  1 <1>  -0.6200 
 17 N        9.6270     2.4870    -0.6200 N.ar  1 <1>  -0.1790 
 18 C        8.8590     5.0070    -0.1460 C.ar  1 <1>   0.4100 
 19 C       10.4490     3.4740    -1.0530 C.ar  1 <1>   0.2110 
 20 N        8.4290     6.2780     0.0960 N.pl3 1 <1>  -0.8380 
 21 C       10.0720     4.7540    -0.8190 C.ar  1 <1>  -0.1500 
 22 C        8.9200     7.4890    -0.6170 C.3   1 <1>   0.2090 
 23 C        7.2810     6.5610     1.0170 C.3   1 <1>   0.1290 
 24 C        9.9960     8.1680     0.2250 C.3   1 <1>  -0.2400 
 25 H       -0.7120    -1.0780    -1.5400 H     1 <1>   0.0800 
 26 H       -0.8420    -0.7760     0.1910 H     1 <1>   0.0800 
 27 H        1.6040    -2.5280     1.3690 H     1 <1>   0.0800 
 28 H        2.2960    -3.2380    -0.0890 H     1 <1>   0.0800 
 29 H        0.2880    -3.1540    -1.2160 H     1 <1>   0.0800 
 30 H       -0.4400    -3.1020     0.3750 H     1 <1>   0.0800 
 31 H        3.4960     0.3270    -1.8380 H     1 <1>   0.1500 
 32 H        3.7970    -1.7680     1.8520 H     1 <1>   0.1500 
 33 H        5.8380     0.9590    -1.6820 H     1 <1>   0.1500 
 34 H        6.1410    -1.1540     2.0240 H     1 <1>   0.1500 
 35 H        8.1470     0.0480    -0.6080 H     1 <1>   0.0800 
 36 H        8.0830    -0.1320     1.1360 H     1 <1>   0.0800 
 37 H        6.8230     2.1640     0.9220 H     1 <1>   0.4000 
 38 H        9.8390     1.5050    -0.7480 H     1 <1>   0.4570 
 39 H       11.3650     3.2180    -1.5610 H     1 <1>   0.1500 
 40 H       10.6880     5.5760    -1.1280 H     1 <1>   0.1500 
 41 H        8.1000     8.1700    -0.7800 H     1 <1>   0.0800 
 42 H        9.3120     7.2240    -1.5840 H     1 <1>   0.0800 
 43 H        7.2120     5.8110     1.7860 H     1 <1>   0.0800 
 44 H        6.3610     6.5700     0.4570 H     1 <1>   0.0800 
 45 H        7.4100     7.5150     1.4960 H     1 <1>   0.0800 
 46 H        9.5880     8.4870     1.1670 H     1 <1>   0.0800 
 47 H       10.3670     9.0330    -0.2930 H     1 <1>   0.0800 
 48 H       10.8160     7.4980     0.4060 H     1 <1>   0.0800 
@<TRIPOS>BOND
  1   1   2  2   
  2   2   3  am  
  3   2   4  1   
  4   3   5  1   
  5   3   6  1   
  6   4   7  1   
  7   4  25  1   
  8   4  26  1   
  9   5   8  ar  
 10   5   9  ar  
 11   6   7  1   
 12   6  27  1   
 13   6  28  1   
 14   7  29  1   
 15   7  30  1   
 16   8  10  ar  
 17   8  31  1   
 18   9  11  ar  
 19   9  32  1   
 20  10  12  ar  
 21  10  33  1   
 22  11  12  ar  
 23  11  34  1   
 24  12  13  1   
 25  13  14  1   
 26  13  35  1   
 27  13  36  1   
 28  14  15  1   
 29  14  37  1   
 30  15  16  ar  
 31  15  17  ar  
 32  16  18  ar  
 33  17  19  ar  
 34  17  38  1   
 35  18  20  1   
 36  18  21  ar  
 37  19  21  ar  
 38  19  39  1   
 39  20  22  1   
 40  20  23  1   
 41  21  40  1   
 42  22  24  1   
 43  22  41  1   
 44  22  42  1   
 45  23  43  1   
 46  23  44  1   
 47  23  45  1   
 48  24  46  1   
 49  24  47  1   
 50  24  48  1   
@<TRIPOS>SUBSTRUCTURE
  1 ****  10 GROUP 4 **** **** 0

# MOE 2024.06 (io_trps.svl 2023.06)
