@<TRIPOS>MOLECULE
NONAME
42 44 1 0 0 
SMALL
USER_CHARGES


@<TRIPOS>ATOM
  1 CL       0.9990    -1.6650    -2.8690 Cl    1 <1>  -0.1770 
  2 C        1.0440    -2.8790    -1.6150 C.ar  1 <1>   0.1770 
  3 C       -0.1310    -3.5020    -1.2350 C.ar  1 <1>  -0.1500 
  4 C        2.2530    -3.1900    -1.0200 C.ar  1 <1>  -0.1500 
  5 C       -0.1070    -4.4660    -0.2370 C.ar  1 <1>  -0.1440 
  6 C        2.2840    -4.1580    -0.0310 C.ar  1 <1>  -0.1500 
  7 C        1.1120    -4.7990     0.3450 C.ar  1 <1>   0.0830 
  8 C       -1.3990    -5.1140     0.2350 C.3   1 <1>   0.2540 
  9 O        1.1850    -5.7640     1.2810 O.3   1 <1>  -0.3630 
 10 N       -1.4320    -6.5520    -0.0820 N.3   1 <1>  -0.8100 
 11 C        0.8660    -7.0690     0.8400 C.3   1 <1>   0.1200 
 12 C       -0.6440    -7.3410     0.8930 C.3   1 <1>   0.1100 
 13 C       -2.8430    -7.0240    -0.1440 C.3   1 <1>   0.2910 
 14 C       -3.0270    -8.4780    -0.5910 C.2   1 <1>   0.3350 
 15 N       -3.1610    -8.8610    -1.8000 N.2   1 <1>  -0.4100 
 16 N       -3.0910    -9.4760     0.2870 N.2   1 <1>  -0.5650 
 17 O       -3.3040   -10.1510    -1.7800 O.3   1 <1>  -0.0190 
 18 C       -3.2500   -10.4570    -0.5070 C.2   1 <1>   0.2980 
 19 C       -3.3860   -11.9110    -0.0940 C.3   1 <1>   0.0200 
 20 C       -2.0350   -12.6520    -0.0500 C.3   1 <1>  -0.0800 
 21 C       -1.3630   -12.7200    -1.4300 C.3   1 <1>  -0.2400 
 22 C       -2.2270   -14.0740     0.4950 C.3   1 <1>  -0.2400 
 23 H       -1.0500    -3.2260    -1.7190 H     1 <1>   0.1500 
 24 H        3.1500    -2.6850    -1.3290 H     1 <1>   0.1500 
 25 H        3.2080    -4.4250     0.4480 H     1 <1>   0.1500 
 26 H       -2.2190    -4.6170    -0.2540 H     1 <1>   0.0800 
 27 H       -1.5110    -4.9650     1.2960 H     1 <1>   0.0800 
 28 H        1.3760    -7.7540     1.4920 H     1 <1>   0.0800 
 29 H        1.2390    -7.2030    -0.1610 H     1 <1>   0.0800 
 30 H       -0.7660    -8.3870     0.6750 H     1 <1>   0.0800 
 31 H       -1.0040    -7.1750     1.8930 H     1 <1>   0.0800 
 32 H       -3.3800    -6.4120    -0.8470 H     1 <1>   0.0800 
 33 H       -3.3070    -6.9040     0.8190 H     1 <1>   0.0800 
 34 H       -4.0600   -12.4060    -0.7700 H     1 <1>   0.0800 
 35 H       -3.8300   -11.9340     0.8850 H     1 <1>   0.0800 
 36 H       -1.3810   -12.1200     0.6200 H     1 <1>   0.0800 
 37 H       -2.0070   -13.1990    -2.1460 H     1 <1>   0.0800 
 38 H       -0.4450   -13.2770    -1.3700 H     1 <1>   0.0800 
 39 H       -1.1240   -11.7330    -1.7870 H     1 <1>   0.0800 
 40 H       -2.8720   -14.6450    -0.1480 H     1 <1>   0.0800 
 41 H       -2.6610   -14.0430     1.4800 H     1 <1>   0.0800 
 42 H       -1.2790   -14.5780     0.5640 H     1 <1>   0.0800 
@<TRIPOS>BOND
  1   1   2  1   
  2   2   3  ar  
  3   2   4  ar  
  4   3   5  ar  
  5   3  23  1   
  6   4   6  ar  
  7   4  24  1   
  8   5   7  ar  
  9   5   8  1   
 10   6   7  ar  
 11   6  25  1   
 12   7   9  1   
 13   8  10  1   
 14   8  26  1   
 15   8  27  1   
 16   9  11  1   
 17  10  12  1   
 18  10  13  1   
 19  11  12  1   
 20  11  28  1   
 21  11  29  1   
 22  12  30  1   
 23  12  31  1   
 24  13  14  1   
 25  13  32  1   
 26  13  33  1   
 27  14  15  2   
 28  14  16  1   
 29  15  17  1   
 30  16  18  2   
 31  17  18  1   
 32  18  19  1   
 33  19  20  1   
 34  19  34  1   
 35  19  35  1   
 36  20  21  1   
 37  20  22  1   
 38  20  36  1   
 39  21  37  1   
 40  21  38  1   
 41  21  39  1   
 42  22  40  1   
 43  22  41  1   
 44  22  42  1   
@<TRIPOS>SUBSTRUCTURE
  1 ****  10 GROUP 4 **** **** 0

# MOE 2024.06 (io_trps.svl 2023.06)
