@<TRIPOS>MOLECULE
NONAME
52 54 1 0 0 
SMALL
USER_CHARGES


@<TRIPOS>ATOM
  1 O       -1.2840    -0.2720    -1.5780 O.2   1 <1>  -0.5700 
  2 C       -1.8090     0.1930    -0.5850 C.2   1 <1>   0.7800 
  3 O       -1.6210     1.4770    -0.2780 O.3   1 <1>  -0.4300 
  4 N       -2.6070    -0.5560     0.2470 N.am  1 <1>  -0.6600 
  5 C       -0.8020     2.3000    -1.0780 C.3   1 <1>   0.1200 
  6 C       -3.2610     0.0020     1.4580 C.3   1 <1>   0.1400 
  7 C       -2.8060    -2.0100     0.0180 C.3   1 <1>   0.1400 
  8 C       -0.7920     3.6970    -0.4650 C.3   1 <1>  -0.2400 
  9 C       -4.7630    -0.2780     1.3840 C.3   1 <1>  -0.1600 
 10 C       -4.3040    -2.3020    -0.0690 C.3   1 <1>  -0.1600 
 11 C       -5.0210    -1.7740     1.1830 C.3   1 <1>   0.4230 
 12 N       -6.4900    -2.0270     1.1470 N.4   1 <1>  -0.9590 
 13 C       -7.2530    -1.4750    -0.0130 C.3   1 <1>   0.3430 
 14 C       -6.8670    -3.4720     1.2570 C.3   1 <1>   0.3430 
 15 C       -8.5290    -2.3170    -0.0560 C.3   1 <1>   0.2000 
 16 C       -8.0220    -3.7190     0.2710 C.3   1 <1>  -0.0800 
 17 O       -9.3550    -1.9030     0.9830 O.3   1 <1>  -0.6800 
 18 C       -7.5520    -4.4530    -1.0040 C.3   1 <1>  -0.0170 
 19 C       -7.0000    -5.8360    -0.6970 C.ar  1 <1>   0.1670 
 20 N       -5.7400    -5.8840    -0.2920 N.ar  1 <1>  -0.6200 
 21 C       -7.8110    -6.9500    -0.8540 C.ar  1 <1>  -0.1500 
 22 C       -5.2660    -7.0970    -0.0430 C.ar  1 <1>   0.1600 
 23 C       -7.3060    -8.2040    -0.5820 C.ar  1 <1>  -0.1500 
 24 C       -5.9940    -8.2670    -0.1680 C.ar  1 <1>  -0.1500 
 25 H        0.1890     1.8790    -1.0970 H     1 <1>   0.0800 
 26 H       -1.2070     2.3190    -2.0760 H     1 <1>   0.0800 
 27 H       -2.8330    -0.4610     2.3310 H     1 <1>   0.0800 
 28 H       -3.0960     1.0640     1.5330 H     1 <1>   0.0800 
 29 H       -2.3240    -2.3240    -0.8940 H     1 <1>   0.0800 
 30 H       -2.3600    -2.5590     0.8300 H     1 <1>   0.0800 
 31 H       -0.3950     3.6600     0.5340 H     1 <1>   0.0800 
 32 H       -1.7880     4.1000    -0.4430 H     1 <1>   0.0800 
 33 H       -0.1720     4.3470    -1.0550 H     1 <1>   0.0800 
 34 H       -5.1690     0.2930     0.5690 H     1 <1>   0.0800 
 35 H       -5.2180     0.0550     2.2990 H     1 <1>   0.0800 
 36 H       -4.4330    -3.3640    -0.1620 H     1 <1>   0.0800 
 37 H       -4.6740    -1.8300    -0.9600 H     1 <1>   0.0800 
 38 H       -4.6100    -2.2910     2.0350 H     1 <1>   0.0800 
 39 H       -6.9170    -1.5770     1.9690 H     1 <1>   0.4500 
 40 H       -7.4780    -0.4290     0.1100 H     1 <1>   0.0800 
 41 H       -6.7030    -1.6210    -0.9260 H     1 <1>   0.0800 
 42 H       -6.0250    -4.1040     1.0420 H     1 <1>   0.0800 
 43 H       -7.1990    -3.6820     2.2610 H     1 <1>   0.0800 
 44 H       -9.0620    -2.2320    -0.9890 H     1 <1>   0.0800 
 45 H       -8.7890    -4.3150     0.7370 H     1 <1>   0.0800 
 46 H      -10.2490    -2.3010     0.9120 H     1 <1>   0.4000 
 47 H       -6.7890    -3.8900    -1.5120 H     1 <1>   0.0800 
 48 H       -8.3800    -4.5520    -1.6840 H     1 <1>   0.0800 
 49 H       -8.8280    -6.8500    -1.1870 H     1 <1>   0.1500 
 50 H       -4.2400    -7.1660     0.2770 H     1 <1>   0.1500 
 51 H       -7.9050    -9.0920    -0.6930 H     1 <1>   0.1500 
 52 H       -5.5370    -9.2150     0.0550 H     1 <1>   0.1500 
@<TRIPOS>BOND
  1   1   2  2   
  2   2   3  1   
  3   2   4  am  
  4   3   5  1   
  5   4   6  1   
  6   4   7  1   
  7   5   8  1   
  8   5  25  1   
  9   5  26  1   
 10   6   9  1   
 11   6  27  1   
 12   6  28  1   
 13   7  10  1   
 14   7  29  1   
 15   7  30  1   
 16   8  31  1   
 17   8  32  1   
 18   8  33  1   
 19   9  11  1   
 20   9  34  1   
 21   9  35  1   
 22  10  11  1   
 23  10  36  1   
 24  10  37  1   
 25  11  12  1   
 26  11  38  1   
 27  12  13  1   
 28  12  14  1   
 29  12  39  1   
 30  13  15  1   
 31  13  40  1   
 32  13  41  1   
 33  14  16  1   
 34  14  42  1   
 35  14  43  1   
 36  15  16  1   
 37  15  17  1   
 38  15  44  1   
 39  16  18  1   
 40  16  45  1   
 41  17  46  1   
 42  18  19  1   
 43  18  47  1   
 44  18  48  1   
 45  19  20  ar  
 46  19  21  ar  
 47  20  22  ar  
 48  21  23  ar  
 49  21  49  1   
 50  22  24  ar  
 51  22  50  1   
 52  23  24  ar  
 53  23  51  1   
 54  24  52  1   
@<TRIPOS>SUBSTRUCTURE
  1 ****  10 GROUP 4 **** **** 0

# MOE 2024.06 (io_trps.svl 2023.06)
