@<TRIPOS>MOLECULE
NONAME
47 49 1 0 0 
SMALL
USER_CHARGES


@<TRIPOS>ATOM
  1 O       -0.2180     0.2070     0.9610 O.2   1 <1>  -0.5700 
  2 C       -1.2520     0.8360     0.7930 C.2   1 <1>   0.5440 
  3 N       -2.4350     0.2040     1.1450 N.am  1 <1>  -0.6600 
  4 C       -1.1860     2.1940     0.2510 C.ar  1 <1>   0.3960 
  5 C       -2.5990    -1.2690     0.9690 C.3   1 <1>   0.1400 
  6 C       -3.7570     0.9000     1.2280 C.3   1 <1>   0.1400 
  7 N       -2.1390     2.6300    -0.5780 N.ar  1 <1>  -0.6200 
  8 C       -0.1090     3.0030     0.6250 C.ar  1 <1>   0.1600 
  9 C       -3.5480    -1.5630    -0.2100 C.3   1 <1>   0.3440 
 10 C       -4.6270     0.5290     0.0040 C.3   1 <1>   0.2000 
 11 C       -1.9820     3.9030    -0.9440 C.ar  1 <1>   0.1390 
 12 N        0.0850     4.2700     0.2520 N.ar  1 <1>  -0.6200 
 13 O       -4.7610    -0.8750    -0.0450 O.3   1 <1>  -0.5600 
 14 C       -3.8210    -3.0610    -0.3190 C.ar  1 <1>  -0.1440 
 15 C       -6.0370     1.1910    -0.0220 C.3   1 <1>   0.0000 
 16 O       -2.8730     4.3930    -1.6690 O.3   1 <1>  -0.8290 
 17 C       -0.8800     4.6860    -0.5340 C.ar  1 <1>   0.1600 
 18 C       -3.0200    -3.8470    -1.1360 C.ar  1 <1>  -0.1500 
 19 C       -4.8490    -3.6620     0.3940 C.ar  1 <1>  -0.1500 
 20 C       -5.9090     2.7260    -0.0280 C.3   1 <1>  -0.2400 
 21 C       -6.9020     0.7720     1.1810 C.3   1 <1>  -0.2400 
 22 C       -6.7690     0.7820    -1.3130 C.3   1 <1>  -0.2400 
 23 C       -3.2410    -5.2100    -1.2360 C.ar  1 <1>  -0.1500 
 24 C       -5.0720    -5.0250     0.2950 C.ar  1 <1>  -0.1500 
 25 C       -4.2670    -5.8000    -0.5200 C.ar  1 <1>  -0.1500 
 26 H       -1.6490    -1.7360     0.7810 H     1 <1>   0.0800 
 27 H       -3.0050    -1.6940     1.8690 H     1 <1>   0.0800 
 28 H       -4.2560     0.5930     2.1280 H     1 <1>   0.0800 
 29 H       -3.6210     1.9640     1.2840 H     1 <1>   0.0800 
 30 H        0.6330     2.5790     1.2750 H     1 <1>   0.1500 
 31 H       -3.0990    -1.2160    -1.1250 H     1 <1>   0.0800 
 32 H       -4.1060     0.8420    -0.8860 H     1 <1>   0.0800 
 33 H       -0.8570     5.6920    -0.9070 H     1 <1>   0.1500 
 34 H       -2.2180    -3.3990    -1.6980 H     1 <1>   0.1500 
 35 H       -5.4820    -3.0640     1.0270 H     1 <1>   0.1500 
 36 H       -6.8660     3.1910    -0.1820 H     1 <1>   0.0800 
 37 H       -5.2480     3.0460    -0.8190 H     1 <1>   0.0800 
 38 H       -5.5090     3.0930     0.8990 H     1 <1>   0.0800 
 39 H       -7.8850     1.1990     1.1020 H     1 <1>   0.0800 
 40 H       -6.4670     1.1060     2.1050 H     1 <1>   0.0800 
 41 H       -6.9990    -0.2990     1.2160 H     1 <1>   0.0800 
 42 H       -7.7320     1.2560    -1.3750 H     1 <1>   0.0800 
 43 H       -6.9120    -0.2840    -1.3480 H     1 <1>   0.0800 
 44 H       -6.1920     1.0730    -2.1740 H     1 <1>   0.0800 
 45 H       -2.6140    -5.8100    -1.8720 H     1 <1>   0.1500 
 46 H       -5.8730    -5.4790     0.8520 H     1 <1>   0.1500 
 47 H       -4.4390    -6.8590    -0.5980 H     1 <1>   0.1500 
@<TRIPOS>BOND
  1   1   2  2   
  2   2   3  am  
  3   2   4  1   
  4   3   5  1   
  5   3   6  1   
  6   4   7  ar  
  7   4   8  ar  
  8   5   9  1   
  9   5  26  1   
 10   5  27  1   
 11   6  10  1   
 12   6  28  1   
 13   6  29  1   
 14   7  11  ar  
 15   8  12  ar  
 16   8  30  1   
 17   9  13  1   
 18   9  14  1   
 19   9  31  1   
 20  10  13  1   
 21  10  15  1   
 22  10  32  1   
 23  11  16  1   
 24  11  17  ar  
 25  12  17  ar  
 26  14  18  ar  
 27  14  19  ar  
 28  15  20  1   
 29  15  21  1   
 30  15  22  1   
 31  17  33  1   
 32  18  23  ar  
 33  18  34  1   
 34  19  24  ar  
 35  19  35  1   
 36  20  36  1   
 37  20  37  1   
 38  20  38  1   
 39  21  39  1   
 40  21  40  1   
 41  21  41  1   
 42  22  42  1   
 43  22  43  1   
 44  22  44  1   
 45  23  25  ar  
 46  23  45  1   
 47  24  25  ar  
 48  24  46  1   
 49  25  47  1   
@<TRIPOS>SUBSTRUCTURE
  1 ****  10 GROUP 4 **** **** 0

# MOE 2024.06 (io_trps.svl 2023.06)
