@<TRIPOS>MOLECULE
NONAME
48 50 1 0 0 
SMALL
USER_CHARGES


@<TRIPOS>ATOM
  1 O        2.3150     5.4940    -2.1910 O.co2 1 <1>  -0.9000 
  2 C        1.0980     5.3210    -2.3970 C.2   1 <1>   0.9790 
  3 O        0.7080     4.9700    -3.5190 O.co2 1 <1>  -0.9000 
  4 C        0.1690     5.6320    -1.3260 C.ar  1 <1>  -0.1790 
  5 C        0.6220     5.6710    -0.0120 C.ar  1 <1>  -0.1500 
  6 C       -1.1700     5.9520    -1.5510 C.ar  1 <1>  -0.1500 
  7 C       -0.1730     6.1350     1.0160 C.ar  1 <1>   0.0830 
  8 C       -2.0000     6.3430    -0.5140 C.ar  1 <1>  -0.1500 
  9 O        0.4560     6.3160     2.1990 O.3   1 <1>  -0.3630 
 10 C       -1.5050     6.4480     0.7750 C.ar  1 <1>  -0.1500 
 11 C       -0.0420     7.2160     3.1650 C.3   1 <1>   0.1200 
 12 C        1.1520     7.8570     3.8810 C.3   1 <1>   0.2090 
 13 N        1.8360     8.9310     3.0920 N.pl3 1 <1>  -0.8690 
 14 C        2.3680     9.0370     1.8640 C.ar  1 <1>   0.7710 
 15 N        3.0040    10.1700     1.6420 N.ar  1 <1>  -0.6200 
 16 N        2.2630     8.0680     0.9390 N.ar  1 <1>  -0.1790 
 17 C        3.5740    10.3480     0.4630 C.ar  1 <1>   0.4100 
 18 C        2.8100     8.2170    -0.2920 C.ar  1 <1>   0.2110 
 19 N        4.2570    11.5090     0.2640 N.pl3 1 <1>  -0.8380 
 20 C        3.4740     9.3690    -0.5470 C.ar  1 <1>  -0.1500 
 21 C        5.4320    11.6560    -0.6600 C.3   1 <1>   0.2090 
 22 C        3.9680    12.7570     1.0370 C.3   1 <1>   0.2090 
 23 C        5.2040    12.8170    -1.6430 C.3   1 <1>   0.2000 
 24 C        3.7090    13.9160     0.0650 C.3   1 <1>  -0.1600 
 25 O        6.3450    13.0210    -2.4000 O.3   1 <1>  -0.6800 
 26 C        4.8740    14.1250    -0.9160 C.3   1 <1>  -0.1600 
 27 H        1.6290     5.3450     0.1870 H     1 <1>   0.1500 
 28 H       -1.5460     5.8920    -2.5600 H     1 <1>   0.1500 
 29 H       -3.0310     6.5730    -0.7190 H     1 <1>   0.1500 
 30 H       -2.1610     6.7650     1.5640 H     1 <1>   0.1500 
 31 H       -0.6440     6.6510     3.8550 H     1 <1>   0.0800 
 32 H       -0.6400     7.9790     2.6980 H     1 <1>   0.0800 
 33 H        1.8620     7.0960     4.1630 H     1 <1>   0.0800 
 34 H        0.7860     8.3030     4.7910 H     1 <1>   0.0800 
 35 H        2.0340     9.7670     3.6530 H     1 <1>   0.4000 
 36 H        1.7070     7.2440     1.1840 H     1 <1>   0.4570 
 37 H        2.6990     7.4360    -1.0240 H     1 <1>   0.1500 
 38 H        3.9070     9.5430    -1.5120 H     1 <1>   0.1500 
 39 H        5.6150    10.7510    -1.2080 H     1 <1>   0.0800 
 40 H        6.3030    11.8650    -0.0640 H     1 <1>   0.0800 
 41 H        4.8090    12.9850     1.6690 H     1 <1>   0.0800 
 42 H        3.1030    12.6320     1.6660 H     1 <1>   0.0800 
 43 H        4.4100    12.5540    -2.3210 H     1 <1>   0.0800 
 44 H        3.5460    14.8180     0.6280 H     1 <1>   0.0800 
 45 H        2.8060    13.7070    -0.4830 H     1 <1>   0.0800 
 46 H        7.0320    13.4680    -1.8700 H     1 <1>   0.4000 
 47 H        4.6060    14.8800    -1.6350 H     1 <1>   0.0800 
 48 H        5.7340    14.4620    -0.3630 H     1 <1>   0.0800 
@<TRIPOS>BOND
  1   1   2  ar  
  2   2   3  ar  
  3   2   4  1   
  4   4   5  ar  
  5   4   6  ar  
  6   5   7  ar  
  7   5  27  1   
  8   6   8  ar  
  9   6  28  1   
 10   7   9  1   
 11   7  10  ar  
 12   8  10  ar  
 13   8  29  1   
 14   9  11  1   
 15  10  30  1   
 16  11  12  1   
 17  11  31  1   
 18  11  32  1   
 19  12  13  1   
 20  12  33  1   
 21  12  34  1   
 22  13  14  1   
 23  13  35  1   
 24  14  15  ar  
 25  14  16  ar  
 26  15  17  ar  
 27  16  18  ar  
 28  16  36  1   
 29  17  19  1   
 30  17  20  ar  
 31  18  20  ar  
 32  18  37  1   
 33  19  21  1   
 34  19  22  1   
 35  20  38  1   
 36  21  23  1   
 37  21  39  1   
 38  21  40  1   
 39  22  24  1   
 40  22  41  1   
 41  22  42  1   
 42  23  25  1   
 43  23  26  1   
 44  23  43  1   
 45  24  26  1   
 46  24  44  1   
 47  24  45  1   
 48  25  46  1   
 49  26  47  1   
 50  26  48  1   
@<TRIPOS>SUBSTRUCTURE
  1 ****  18 GROUP 4 **** **** 0

# MOE 2024.06 (io_trps.svl 2023.06)
