@<TRIPOS>MOLECULE
NONAME
42 43 1 0 0 
SMALL
USER_CHARGES


@<TRIPOS>ATOM
  1 O        1.6810     1.3540     1.4950 O.3   1 <1>  -0.6800 
  2 C        1.3820     1.3290     0.1420 C.3   1 <1>   0.2000 
  3 C        2.4130     0.4420    -0.5660 C.3   1 <1>  -0.0800 
  4 C        1.4260     2.7720    -0.3850 C.3   1 <1>  -0.1600 
  5 C        3.8360     0.9920    -0.3790 C.3   1 <1>   0.3430 
  6 C        2.3450    -1.0120    -0.0840 C.3   1 <1>   0.1200 
  7 C        2.7370     3.1340    -1.1010 C.3   1 <1>   0.3430 
  8 N        3.9260     2.4910    -0.4610 N.4   1 <1>  -0.9590 
  9 O        3.3630    -1.7150    -0.7060 O.3   1 <1>  -0.6800 
 10 C        4.2100     3.0660     0.8850 C.3   1 <1>   0.4860 
 11 C        4.5730     4.5260     0.7130 C.ar  1 <1>  -0.1440 
 12 C        3.6750     5.5150     1.0840 C.ar  1 <1>  -0.1500 
 13 C        5.7980     4.8890     0.1770 C.ar  1 <1>  -0.1500 
 14 C        3.9800     6.8550     0.9090 C.ar  1 <1>  -0.1440 
 15 C        6.1080     6.2240     0.0010 C.ar  1 <1>  -0.1500 
 16 C        5.2060     7.2130     0.3600 C.ar  1 <1>  -0.1440 
 17 C        2.9650     7.9100     1.3300 C.3   1 <1>  -0.0970 
 18 C        5.5880     8.6720     0.1480 C.3   1 <1>  -0.0970 
 19 H        0.8920     1.6110     2.0170 H     1 <1>   0.4000 
 20 H        0.3910     0.9160     0.0350 H     1 <1>   0.0800 
 21 H        2.1840     0.4330    -1.6170 H     1 <1>   0.0800 
 22 H        0.6360     2.8940    -1.1040 H     1 <1>   0.0800 
 23 H        1.2300     3.4740     0.4050 H     1 <1>   0.0800 
 24 H        4.4710     0.5430    -1.1270 H     1 <1>   0.0800 
 25 H        4.1980     0.6650     0.5820 H     1 <1>   0.0800 
 26 H        1.4040    -1.4640    -0.3500 H     1 <1>   0.0800 
 27 H        2.4900    -1.0820     0.9820 H     1 <1>   0.0800 
 28 H        2.8570     4.2060    -1.1230 H     1 <1>   0.0800 
 29 H        2.6740     2.7940    -2.1220 H     1 <1>   0.0800 
 30 H        4.7450     2.7360    -1.0310 H     1 <1>   0.4500 
 31 H        3.3080    -2.6710    -0.4940 H     1 <1>   0.4000 
 32 H        3.3490     2.9710     1.5260 H     1 <1>   0.0800 
 33 H        5.0340     2.5460     1.3450 H     1 <1>   0.0800 
 34 H        2.7270     5.2470     1.5170 H     1 <1>   0.1500 
 35 H        6.5250     4.1470    -0.1040 H     1 <1>   0.1500 
 36 H        7.0630     6.4930    -0.4170 H     1 <1>   0.1500 
 37 H        2.0800     7.4590     1.7410 H     1 <1>   0.0800 
 38 H        2.6770     8.5050     0.4820 H     1 <1>   0.0800 
 39 H        3.3910     8.5530     2.0780 H     1 <1>   0.0800 
 40 H        6.5640     8.7570    -0.2940 H     1 <1>   0.0800 
 41 H        5.6010     9.1900     1.0900 H     1 <1>   0.0800 
 42 H        4.8810     9.1490    -0.5050 H     1 <1>   0.0800 
@<TRIPOS>BOND
  1   1   2  1   
  2   1  19  1   
  3   2   3  1   
  4   2   4  1   
  5   2  20  1   
  6   3   5  1   
  7   3   6  1   
  8   3  21  1   
  9   4   7  1   
 10   4  22  1   
 11   4  23  1   
 12   5   8  1   
 13   5  24  1   
 14   5  25  1   
 15   6   9  1   
 16   6  26  1   
 17   6  27  1   
 18   7   8  1   
 19   7  28  1   
 20   7  29  1   
 21   8  10  1   
 22   8  30  1   
 23   9  31  1   
 24  10  11  1   
 25  10  32  1   
 26  10  33  1   
 27  11  12  ar  
 28  11  13  ar  
 29  12  14  ar  
 30  12  34  1   
 31  13  15  ar  
 32  13  35  1   
 33  14  16  ar  
 34  14  17  1   
 35  15  16  ar  
 36  15  36  1   
 37  16  18  1   
 38  17  37  1   
 39  17  38  1   
 40  17  39  1   
 41  18  40  1   
 42  18  41  1   
 43  18  42  1   
@<TRIPOS>SUBSTRUCTURE
  1 ****  10 GROUP 4 **** **** 0

# MOE 2024.06 (io_trps.svl 2023.06)
