@<TRIPOS>MOLECULE
NONAME
53 56 1 0 0 
SMALL
USER_CHARGES


@<TRIPOS>ATOM
  1 S        0.6840    -0.1900     2.0210 S.3   1 <1>  -0.0800 
  2 C        1.3730    -0.9840     0.6170 C.2   1 <1>  -0.1400 
  3 C        1.1490     1.3880     1.4180 C.2   1 <1>  -0.1100 
  4 C        1.8960    -0.0710    -0.2260 C.2   1 <1>  -0.1500 
  5 C        1.2930    -2.5010     0.5830 C.3   1 <1>   0.5230 
  6 C        1.7760     1.2890     0.2260 C.2   1 <1>  -0.1810 
  7 N       -0.1250    -2.9190     0.7040 N.4   1 <1>  -0.9590 
  8 C        2.3610     2.4140    -0.6210 C.3   1 <1>   0.5240 
  9 C       -1.0180    -2.5050    -0.4070 C.3   1 <1>   0.3430 
 10 C       -0.3280    -4.3860     0.8700 C.3   1 <1>   0.3430 
 11 N        2.0090     3.7430    -0.0600 N.4   1 <1>  -0.9590 
 12 C       -2.2620    -3.3670    -0.1960 C.3   1 <1>   0.2000 
 13 C       -1.6900    -4.7220     0.2310 C.3   1 <1>  -0.0800 
 14 C        0.5880     4.1220    -0.2630 C.3   1 <1>   0.3430 
 15 C        2.8110     4.8530    -0.6270 C.3   1 <1>   0.3430 
 16 O       -2.9610    -2.8400     0.8830 O.3   1 <1>  -0.6800 
 17 C       -1.5460    -5.6790    -0.9720 C.3   1 <1>  -0.0170 
 18 C        0.5690     5.6300    -0.0590 C.3   1 <1>  -0.1600 
 19 C        2.0070     6.1030    -0.2950 C.3   1 <1>  -0.1600 
 20 C       -1.0180    -7.0470    -0.5630 C.ar  1 <1>   0.1670 
 21 N        0.2680    -7.1100    -0.2520 N.ar  1 <1>  -0.6200 
 22 C       -1.8720    -8.1490    -0.5340 C.ar  1 <1>   0.1600 
 23 C        0.6400    -8.3400     0.0750 C.ar  1 <1>   0.1600 
 24 N       -1.5030    -9.3710    -0.1950 N.ar  1 <1>  -0.6200 
 25 C       -0.2180    -9.4330     0.1030 C.ar  1 <1>   0.1600 
 26 H        0.8960     2.2210     2.0510 H     1 <1>   0.1500 
 27 H        2.3820    -0.3040    -1.1610 H     1 <1>   0.1500 
 28 H        1.8610    -2.9000     1.4070 H     1 <1>   0.0800 
 29 H        1.7150    -2.8740    -0.3350 H     1 <1>   0.0800 
 30 H       -0.5240    -2.4640     1.5410 H     1 <1>   0.4500 
 31 H        1.9940     2.3370    -1.6320 H     1 <1>   0.0800 
 32 H        3.4340     2.3030    -0.6440 H     1 <1>   0.0800 
 33 H       -1.2570    -1.4550    -0.3650 H     1 <1>   0.0800 
 34 H       -0.5660    -2.7420    -1.3560 H     1 <1>   0.0800 
 35 H        0.4610    -4.9210     0.3690 H     1 <1>   0.0800 
 36 H       -0.3210    -4.6550     1.9140 H     1 <1>   0.0800 
 37 H        2.1890     3.7150     0.9510 H     1 <1>   0.4500 
 38 H       -2.9100    -3.3960    -1.0560 H     1 <1>   0.0800 
 39 H       -2.3270    -5.1960     0.9590 H     1 <1>   0.0800 
 40 H        0.2880     3.8940    -1.2740 H     1 <1>   0.0800 
 41 H       -0.0680     3.6160     0.4280 H     1 <1>   0.0800 
 42 H        3.8020     4.8930    -0.2040 H     1 <1>   0.0800 
 43 H        2.8800     4.7480    -1.6980 H     1 <1>   0.0800 
 44 H       -3.8410    -3.2620     0.9850 H     1 <1>   0.4000 
 45 H       -0.8790    -5.2630    -1.7080 H     1 <1>   0.0800 
 46 H       -2.5050    -5.8020    -1.4450 H     1 <1>   0.0800 
 47 H       -0.1220     6.0930    -0.7420 H     1 <1>   0.0800 
 48 H        0.2590     5.8590     0.9460 H     1 <1>   0.0800 
 49 H        2.4010     6.5660     0.5940 H     1 <1>   0.0800 
 50 H        2.0670     6.8140    -1.1020 H     1 <1>   0.0800 
 51 H       -2.9060    -8.0200    -0.8010 H     1 <1>   0.1500 
 52 H        1.6730    -8.4950     0.3320 H     1 <1>   0.1500 
 53 H        0.1760   -10.3950     0.3840 H     1 <1>   0.1500 
@<TRIPOS>BOND
  1   1   2  1   
  2   1   3  1   
  3   2   4  2   
  4   2   5  1   
  5   3   6  2   
  6   3  26  1   
  7   4   6  1   
  8   4  27  1   
  9   5   7  1   
 10   5  28  1   
 11   5  29  1   
 12   6   8  1   
 13   7   9  1   
 14   7  10  1   
 15   7  30  1   
 16   8  11  1   
 17   8  31  1   
 18   8  32  1   
 19   9  12  1   
 20   9  33  1   
 21   9  34  1   
 22  10  13  1   
 23  10  35  1   
 24  10  36  1   
 25  11  14  1   
 26  11  15  1   
 27  11  37  1   
 28  12  13  1   
 29  12  16  1   
 30  12  38  1   
 31  13  17  1   
 32  13  39  1   
 33  14  18  1   
 34  14  40  1   
 35  14  41  1   
 36  15  19  1   
 37  15  42  1   
 38  15  43  1   
 39  16  44  1   
 40  17  20  1   
 41  17  45  1   
 42  17  46  1   
 43  18  19  1   
 44  18  47  1   
 45  18  48  1   
 46  19  49  1   
 47  19  50  1   
 48  20  21  ar  
 49  20  22  ar  
 50  21  23  ar  
 51  22  24  ar  
 52  22  51  1   
 53  23  25  ar  
 54  23  52  1   
 55  24  25  ar  
 56  25  53  1   
@<TRIPOS>SUBSTRUCTURE
  1 ****   7 GROUP 4 **** **** 0

# MOE 2024.06 (io_trps.svl 2023.06)
