@<TRIPOS>MOLECULE
NONAME
48 50 1 0 0 
SMALL
USER_CHARGES


@<TRIPOS>ATOM
  1 S       -0.8920     0.2390     0.8000 S.3   1 <1>  -0.0800 
  2 C        0.6940     0.9800     0.9650 C.2   1 <1>   0.0600 
  3 C       -1.6350     1.4490     1.8350 C.2   1 <1>  -0.1400 
  4 C        1.7900     0.3740     0.2800 C.1   1 <1>  -0.0200 
  5 C        0.6030     2.0650     1.7620 C.2   1 <1>  -0.1500 
  6 C       -0.7110     2.3330     2.2560 C.2   1 <1>  -0.1500 
  7 C       -3.1230     1.3190     2.0770 C.3   1 <1>   0.5230 
  8 C        2.7080    -0.1310    -0.2870 C.1   1 <1>  -0.2000 
  9 N       -3.8140     1.3940     0.7670 N.4   1 <1>  -0.9590 
 10 C        3.8580    -0.7640    -0.9850 C.3   1 <1>   0.3200 
 11 C       -5.2440     0.9730     0.8810 C.3   1 <1>   0.3430 
 12 C       -3.6790     2.7400     0.1400 C.3   1 <1>   0.3430 
 13 O        4.4100     0.1850    -1.8170 O.3   1 <1>  -0.6800 
 14 C       -5.9280     0.9120    -0.5030 C.3   1 <1>   0.0000 
 15 C       -4.3060     2.7260    -1.2550 C.3   1 <1>  -0.1600 
 16 C       -7.4050     0.5290    -0.3180 C.3   1 <1>   0.2000 
 17 C       -5.7740     2.2690    -1.2200 C.3   1 <1>  -0.1600 
 18 C       -5.3810    -0.2610    -1.3330 C.3   1 <1>  -0.1600 
 19 O       -7.8970     1.0940     0.8590 O.3   1 <1>  -0.5600 
 20 C       -7.4430    -1.0030    -0.2500 C.3   1 <1>  -0.1600 
 21 C       -6.0960    -1.5000    -0.7910 C.3   1 <1>  -0.1600 
 22 C       -9.2890     1.1130     0.9600 C.3   1 <1>   0.0400 
 23 H        1.4360     2.6950     2.0260 H     1 <1>   0.1500 
 24 H       -0.8830     3.1770     2.9040 H     1 <1>   0.1500 
 25 H       -3.4660     2.1070     2.7280 H     1 <1>   0.0800 
 26 H       -3.3220     0.3700     2.5480 H     1 <1>   0.0800 
 27 H       -3.3350     0.7240     0.1510 H     1 <1>   0.4500 
 28 H        3.5330    -1.5970    -1.5840 H     1 <1>   0.0800 
 29 H        4.6130    -1.0860    -0.2880 H     1 <1>   0.0800 
 30 H       -5.3140     0.0040     1.3480 H     1 <1>   0.0800 
 31 H       -5.7770     1.6770     1.4990 H     1 <1>   0.0800 
 32 H       -4.1780     3.4770     0.7490 H     1 <1>   0.0800 
 33 H       -2.6380     3.0110     0.0620 H     1 <1>   0.0800 
 34 H        3.6910     0.6860    -2.2460 H     1 <1>   0.4000 
 35 H       -4.2560     3.7180    -1.6690 H     1 <1>   0.0800 
 36 H       -3.7310     2.0840    -1.9000 H     1 <1>   0.0800 
 37 H       -7.9840     0.8820    -1.1570 H     1 <1>   0.0800 
 38 H       -6.1610     2.2090    -2.2230 H     1 <1>   0.0800 
 39 H       -6.3570     3.0080    -0.6960 H     1 <1>   0.0800 
 40 H       -5.6630    -0.1330    -2.3660 H     1 <1>   0.0800 
 41 H       -4.3120    -0.3680    -1.2890 H     1 <1>   0.0800 
 42 H       -7.5820    -1.3450     0.7610 H     1 <1>   0.0800 
 43 H       -8.2480    -1.3720    -0.8610 H     1 <1>   0.0800 
 44 H       -5.5240    -1.9380     0.0090 H     1 <1>   0.0800 
 45 H       -6.2300    -2.2420    -1.5620 H     1 <1>   0.0800 
 46 H       -9.5530     1.5690     1.8980 H     1 <1>   0.0800 
 47 H       -9.6680     0.1060     0.9300 H     1 <1>   0.0800 
 48 H       -9.6980     1.6940     0.1500 H     1 <1>   0.0800 
@<TRIPOS>BOND
  1   1   2  1   
  2   1   3  1   
  3   2   4  1   
  4   2   5  2   
  5   3   6  2   
  6   3   7  1   
  7   4   8  3   
  8   5   6  1   
  9   5  23  1   
 10   6  24  1   
 11   7   9  1   
 12   7  25  1   
 13   7  26  1   
 14   8  10  1   
 15   9  11  1   
 16   9  12  1   
 17   9  27  1   
 18  10  13  1   
 19  10  28  1   
 20  10  29  1   
 21  11  14  1   
 22  11  30  1   
 23  11  31  1   
 24  12  15  1   
 25  12  32  1   
 26  12  33  1   
 27  13  34  1   
 28  14  16  1   
 29  14  17  1   
 30  14  18  1   
 31  15  17  1   
 32  15  35  1   
 33  15  36  1   
 34  16  19  1   
 35  16  20  1   
 36  16  37  1   
 37  17  38  1   
 38  17  39  1   
 39  18  21  1   
 40  18  40  1   
 41  18  41  1   
 42  19  22  1   
 43  20  21  1   
 44  20  42  1   
 45  20  43  1   
 46  21  44  1   
 47  21  45  1   
 48  22  46  1   
 49  22  47  1   
 50  22  48  1   
@<TRIPOS>SUBSTRUCTURE
  1 ****   9 GROUP 4 **** **** 0

# MOE 2024.06 (io_trps.svl 2023.06)
