@<TRIPOS>MOLECULE
NONAME
44 47 1 0 0 
SMALL
USER_CHARGES


@<TRIPOS>ATOM
  1 S       -0.3820    -0.1270    -0.4300 S.3   1 <1>  -0.0800 
  2 C       -0.3810     1.6050    -0.1790 C.2   1 <1>  -0.1400 
  3 C        1.3700    -0.1660    -0.3010 C.2   1 <1>  -0.1100 
  4 C        0.8560     2.0850    -0.0030 C.2   1 <1>  -0.1810 
  5 C       -1.6420     2.4260    -0.1720 C.3   1 <1>   0.0200 
  6 C        1.8660     1.0680    -0.0790 C.2   1 <1>  -0.1500 
  7 C        1.0990     3.5760     0.2570 C.3   1 <1>   0.4610 
  8 C       -1.2280     3.8880    -0.4000 C.3   1 <1>   0.1200 
  9 O       -0.1380     4.2480     0.4170 O.3   1 <1>  -0.5600 
 10 C        1.8450     4.2160    -0.9260 C.3   1 <1>  -0.1600 
 11 C        1.8410     3.7750     1.5930 C.3   1 <1>  -0.1600 
 12 C        2.4610     5.5520    -0.5220 C.3   1 <1>   0.1400 
 13 C        3.3180     4.1300     1.4160 C.3   1 <1>   0.1400 
 14 N        3.4640     5.3490     0.5650 N.am  1 <1>  -0.6600 
 15 C        4.4950     6.2400     0.7850 C.2   1 <1>   0.5440 
 16 O        5.3310     5.9860     1.6320 O.2   1 <1>  -0.5700 
 17 C        4.5810     7.4850     0.0550 C.ar  1 <1>   0.0860 
 18 C        5.2600     7.5550    -1.1590 C.ar  1 <1>   0.1900 
 19 C        3.9870     8.6660     0.5190 C.ar  1 <1>  -0.1430 
 20 F        5.8170     6.4780    -1.6420 F     1 <1>  -0.1900 
 21 C        5.3670     8.7150    -1.9000 C.ar  1 <1>  -0.1500 
 22 C        4.0850     9.8380    -0.2190 C.ar  1 <1>  -0.1500 
 23 C        3.2310     8.6740     1.8420 C.3   1 <1>  -0.0970 
 24 C        4.7710     9.8680    -1.4230 C.ar  1 <1>  -0.1500 
 25 H        1.8500    -1.1220    -0.4070 H     1 <1>   0.1500 
 26 H       -2.1440     2.3220     0.7730 H     1 <1>   0.0800 
 27 H       -2.3040     2.1060    -0.9560 H     1 <1>   0.0800 
 28 H        2.9080     1.3040     0.0360 H     1 <1>   0.1500 
 29 H       -2.0460     4.5450    -0.1640 H     1 <1>   0.0800 
 30 H       -0.9520     4.0390    -1.4280 H     1 <1>   0.0800 
 31 H        1.1860     4.3480    -1.7610 H     1 <1>   0.0800 
 32 H        2.6370     3.5670    -1.2520 H     1 <1>   0.0800 
 33 H        1.7630     2.8840     2.1890 H     1 <1>   0.0800 
 34 H        1.3820     4.5720     2.1510 H     1 <1>   0.0800 
 35 H        1.6890     6.2190    -0.1720 H     1 <1>   0.0800 
 36 H        2.9330     5.9960    -1.3810 H     1 <1>   0.0800 
 37 H        3.8470     3.3160     0.9520 H     1 <1>   0.0800 
 38 H        3.7580     4.3020     2.3850 H     1 <1>   0.0800 
 39 H        5.9050     8.7130    -2.8310 H     1 <1>   0.1500 
 40 H        3.6290    10.7440     0.1420 H     1 <1>   0.1500 
 41 H        2.4020     7.9890     1.7990 H     1 <1>   0.0800 
 42 H        2.8520     9.6540     2.0690 H     1 <1>   0.0800 
 43 H        3.8870     8.3700     2.6390 H     1 <1>   0.0800 
 44 H        4.8400    10.7850    -1.9820 H     1 <1>   0.1500 
@<TRIPOS>BOND
  1   1   2  1   
  2   1   3  1   
  3   2   4  2   
  4   2   5  1   
  5   3   6  2   
  6   3  25  1   
  7   4   6  1   
  8   4   7  1   
  9   5   8  1   
 10   5  26  1   
 11   5  27  1   
 12   6  28  1   
 13   7   9  1   
 14   7  10  1   
 15   7  11  1   
 16   8   9  1   
 17   8  29  1   
 18   8  30  1   
 19  10  12  1   
 20  10  31  1   
 21  10  32  1   
 22  11  13  1   
 23  11  33  1   
 24  11  34  1   
 25  12  14  1   
 26  12  35  1   
 27  12  36  1   
 28  13  14  1   
 29  13  37  1   
 30  13  38  1   
 31  14  15  am  
 32  15  16  2   
 33  15  17  1   
 34  17  18  ar  
 35  17  19  ar  
 36  18  20  1   
 37  18  21  ar  
 38  19  22  ar  
 39  19  23  1   
 40  21  24  ar  
 41  21  39  1   
 42  22  24  ar  
 43  22  40  1   
 44  23  41  1   
 45  23  42  1   
 46  23  43  1   
 47  24  44  1   
@<TRIPOS>SUBSTRUCTURE
  1 ****  12 GROUP 4 **** **** 0

# MOE 2024.06 (io_trps.svl 2023.06)
