@<TRIPOS>MOLECULE
NONAME
44 47 1 0 0 
SMALL
USER_CHARGES


@<TRIPOS>ATOM
  1 O        2.4870    -0.6720     2.5530 O.2   1 <1>  -0.5700 
  2 C        2.3620    -1.0180     1.3880 C.2   1 <1>   0.5440 
  3 N        2.7290    -0.0940     0.4140 N.am  1 <1>  -0.6600 
  4 C        1.8580    -2.3610     1.0980 C.ar  1 <1>   0.3960 
  5 C        2.9430     1.3380     0.8070 C.3   1 <1>   0.1400 
  6 C        3.1620    -0.5330    -0.9520 C.3   1 <1>   0.1400 
  7 N        1.1300    -2.6120     0.0280 N.ar  1 <1>  -0.6200 
  8 C        2.1820    -3.3910     2.0220 C.ar  1 <1>   0.1600 
  9 C        4.4340     1.7550     0.9100 C.3   1 <1>   0.4230 
 10 C        4.5430    -0.0080    -1.4030 C.3   1 <1>  -0.0800 
 11 C        0.7240    -3.8990    -0.1040 C.ar  1 <1>   0.3100 
 12 N        1.8250    -4.6340     1.9230 N.ar  1 <1>  -0.6200 
 13 N        4.9980     2.2660    -0.3930 N.4   1 <1>  -0.9590 
 14 C        5.3700     0.6730     1.5140 C.3   1 <1>   0.1200 
 15 C        5.7420    -0.5250    -0.5770 C.3   1 <1>   0.1200 
 16 C        4.5390     1.5090    -1.5960 C.3   1 <1>   0.3430 
 17 C        1.0710    -4.9070     0.8300 C.ar  1 <1>   0.3100 
 18 C       -0.0680    -4.2550    -1.2090 C.ar  1 <1>  -0.1500 
 19 C        4.7460     3.7300    -0.5660 C.3   1 <1>   0.2630 
 20 O        5.4820    -0.5280     0.7900 O.3   1 <1>  -0.5600 
 21 C        0.6180    -6.2160     0.6150 C.ar  1 <1>  -0.1500 
 22 C       -0.4980    -5.5430    -1.3960 C.ar  1 <1>  -0.1500 
 23 C       -0.1500    -6.5350    -0.4750 C.ar  1 <1>  -0.1500 
 24 H        2.4210     1.9770     0.1190 H     1 <1>   0.0800 
 25 H        2.4910     1.5110     1.7680 H     1 <1>   0.0800 
 26 H        3.2110    -1.6070    -0.9870 H     1 <1>   0.0800 
 27 H        2.4070    -0.2310    -1.6590 H     1 <1>   0.0800 
 28 H        2.7770    -3.1080     2.8730 H     1 <1>   0.1500 
 29 H        4.4590     2.5770     1.6050 H     1 <1>   0.0800 
 30 H        4.6800    -0.4080    -2.3920 H     1 <1>   0.0800 
 31 H        6.0150     2.1200    -0.3220 H     1 <1>   0.4500 
 32 H        4.9980     0.4020     2.4870 H     1 <1>   0.0800 
 33 H        6.3610     1.0690     1.6460 H     1 <1>   0.0800 
 34 H        6.6420     0.0340    -0.7640 H     1 <1>   0.0800 
 35 H        5.9310    -1.5510    -0.8440 H     1 <1>   0.0800 
 36 H        3.5410     1.8180    -1.8640 H     1 <1>   0.0800 
 37 H        5.1860     1.7520    -2.4240 H     1 <1>   0.0800 
 38 H       -0.3290    -3.4810    -1.9080 H     1 <1>   0.1500 
 39 H        3.6870     3.9230    -0.6360 H     1 <1>   0.0800 
 40 H        5.2210     4.0880    -1.4660 H     1 <1>   0.0800 
 41 H        5.1420     4.2810     0.2710 H     1 <1>   0.0800 
 42 H        0.8950    -6.9650     1.3350 H     1 <1>   0.1500 
 43 H       -1.1040    -5.8040    -2.2470 H     1 <1>   0.1500 
 44 H       -0.4930    -7.5440    -0.6320 H     1 <1>   0.1500 
@<TRIPOS>BOND
  1   1   2  2   
  2   2   3  am  
  3   2   4  1   
  4   3   5  1   
  5   3   6  1   
  6   4   7  ar  
  7   4   8  ar  
  8   5   9  1   
  9   5  24  1   
 10   5  25  1   
 11   6  10  1   
 12   6  26  1   
 13   6  27  1   
 14   7  11  ar  
 15   8  12  ar  
 16   8  28  1   
 17   9  13  1   
 18   9  14  1   
 19   9  29  1   
 20  10  15  1   
 21  10  16  1   
 22  10  30  1   
 23  11  17  ar  
 24  11  18  ar  
 25  12  17  ar  
 26  13  16  1   
 27  13  19  1   
 28  13  31  1   
 29  14  20  1   
 30  14  32  1   
 31  14  33  1   
 32  15  20  1   
 33  15  34  1   
 34  15  35  1   
 35  16  36  1   
 36  16  37  1   
 37  17  21  ar  
 38  18  22  ar  
 39  18  38  1   
 40  19  39  1   
 41  19  40  1   
 42  19  41  1   
 43  21  23  ar  
 44  21  42  1   
 45  22  23  ar  
 46  22  43  1   
 47  23  44  1   
@<TRIPOS>SUBSTRUCTURE
  1 ****   2 GROUP 4 **** **** 0

# MOE 2024.06 (io_trps.svl 2023.06)
