@<TRIPOS>MOLECULE
NONAME
48 50 1 0 0 
SMALL
USER_CHARGES


@<TRIPOS>ATOM
  1 O       -1.1250     1.9650    -1.2900 O.2   1 <1>  -0.5700 
  2 C       -0.7720     3.0210    -0.8190 C.2   1 <1>   0.5690 
  3 N       -1.5630     3.7490     0.0280 N.am  1 <1>  -0.6600 
  4 C        0.6010     3.5650    -1.2130 C.3   1 <1>   0.1810 
  5 C       -1.1250     5.0860     0.5520 C.3   1 <1>   0.3640 
  6 C       -2.8790     3.2470     0.5200 C.3   1 <1>   0.0600 
  7 O        1.1240     4.4440    -0.2490 O.3   1 <1>  -0.5600 
  8 C       -2.2130     6.1470     0.2820 C.ar  1 <1>  -0.1440 
  9 C        0.2760     5.5410     0.0540 C.3   1 <1>   0.2610 
 10 C       -2.7800     6.4130    -0.9700 C.ar  1 <1>  -0.1440 
 11 C       -2.6690     6.8660     1.3820 C.ar  1 <1>  -0.1500 
 12 C        0.9750     6.4620     1.0630 C.2   1 <1>   0.5690 
 13 C       -3.7920     7.3570    -1.0770 C.ar  1 <1>  -0.1500 
 14 C       -2.3620     5.7080    -2.2560 C.3   1 <1>  -0.0960 
 15 C       -3.6680     7.8130     1.2620 C.ar  1 <1>  -0.1500 
 16 O        0.3430     7.0880     1.8850 O.2   1 <1>  -0.5700 
 17 N        2.3210     6.6300     0.9490 N.am  1 <1>  -0.7300 
 18 C       -4.2370     8.0560     0.0290 C.ar  1 <1>  -0.1500 
 19 C        3.0440     7.8460     1.3890 C.3   1 <1>   0.1400 
 20 C        3.1430     8.8520     0.2300 C.3   1 <1>   0.0200 
 21 C        1.8350     8.9850    -0.5390 C.2   1 <1>   0.0060 
 22 N        1.6720     8.6590    -1.7730 N.2   1 <1>  -0.3380 
 23 N        0.6830     9.3990     0.0050 N.pl3 1 <1>   0.0330 
 24 N        0.3760     8.8470    -2.0670 N.2   1 <1>  -0.3380 
 25 C       -0.1920     9.2780    -0.9890 C.2   1 <1>   0.2700 
 26 N       -1.5340     9.5490    -0.8790 N.pl3 1 <1>  -0.8840 
 27 H        0.5330     4.0830    -2.1520 H     1 <1>   0.0800 
 28 H        1.2890     2.7470    -1.3160 H     1 <1>   0.0800 
 29 H       -1.0400     4.9660     1.6180 H     1 <1>   0.0800 
 30 H       -2.9100     3.2920     1.5940 H     1 <1>   0.0800 
 31 H       -3.0360     2.2270     0.2140 H     1 <1>   0.0800 
 32 H       -3.6750     3.8510     0.1190 H     1 <1>   0.0800 
 33 H        0.1630     6.1130    -0.8460 H     1 <1>   0.0800 
 34 H       -2.2460     6.6920     2.3570 H     1 <1>   0.1500 
 35 H       -4.2480     7.5580    -2.0310 H     1 <1>   0.1500 
 36 H       -2.8050     6.1790    -3.1150 H     1 <1>   0.0800 
 37 H       -2.6870     4.6830    -2.2410 H     1 <1>   0.0800 
 38 H       -1.2990     5.7430    -2.3890 H     1 <1>   0.0800 
 39 H       -4.0040     8.3560     2.1290 H     1 <1>   0.1500 
 40 H        2.7920     6.0460     0.2500 H     1 <1>   0.3700 
 41 H       -5.0220     8.7860    -0.0700 H     1 <1>   0.1500 
 42 H        2.5140     8.2960     2.2110 H     1 <1>   0.0800 
 43 H        4.0280     7.5770     1.7340 H     1 <1>   0.0800 
 44 H        3.9100     8.5240    -0.4490 H     1 <1>   0.0800 
 45 H        3.4390     9.8130     0.6090 H     1 <1>   0.0800 
 46 H        0.4640     9.6380     0.9720 H     1 <1>   0.2700 
 47 H       -1.9690     9.5480    -1.8050 H     1 <1>   0.4000 
 48 H       -2.0400     8.8490    -0.3150 H     1 <1>   0.4000 
@<TRIPOS>BOND
  1   1   2  2   
  2   2   3  am  
  3   2   4  1   
  4   3   5  1   
  5   3   6  1   
  6   4   7  1   
  7   4  27  1   
  8   4  28  1   
  9   5   8  1   
 10   5   9  1   
 11   5  29  1   
 12   6  30  1   
 13   6  31  1   
 14   6  32  1   
 15   7   9  1   
 16   8  10  ar  
 17   8  11  ar  
 18   9  12  1   
 19   9  33  1   
 20  10  13  ar  
 21  10  14  1   
 22  11  15  ar  
 23  11  34  1   
 24  12  16  2   
 25  12  17  am  
 26  13  18  ar  
 27  13  35  1   
 28  14  36  1   
 29  14  37  1   
 30  14  38  1   
 31  15  18  ar  
 32  15  39  1   
 33  17  19  1   
 34  17  40  1   
 35  18  41  1   
 36  19  20  1   
 37  19  42  1   
 38  19  43  1   
 39  20  21  1   
 40  20  44  1   
 41  20  45  1   
 42  21  22  2   
 43  21  23  1   
 44  22  24  1   
 45  23  25  1   
 46  23  46  1   
 47  24  25  2   
 48  25  26  1   
 49  26  47  1   
 50  26  48  1   
@<TRIPOS>SUBSTRUCTURE
  1 ****   9 GROUP 4 **** **** 0

# MOE 2024.06 (io_trps.svl 2023.06)
