@<TRIPOS>MOLECULE
NONAME
55 57 1 0 0 
SMALL
USER_CHARGES


@<TRIPOS>ATOM
  1 O       -0.0080     0.4830     0.0690 O.2   1 <1>  -0.5700 
  2 C       -1.0800     0.7930    -0.4080 C.2   1 <1>   0.5690 
  3 N       -2.1740    -0.0370    -0.3010 N.am  1 <1>  -0.6600 
  4 C       -1.1640     2.1500    -1.1460 C.3   1 <1>   0.2810 
  5 C       -3.4990     0.2640    -0.9280 C.3   1 <1>   0.1400 
  6 C       -2.0740    -1.3060     0.4840 C.3   1 <1>   0.1400 
  7 N       -0.2990     3.1730    -0.5060 N.am  1 <1>  -0.7300 
  8 C       -0.7210     2.0260    -2.6060 C.3   1 <1>  -0.2400 
  9 C       -4.3070    -1.0180    -1.1150 C.3   1 <1>  -0.1600 
 10 C       -3.3930    -1.6100     1.1980 C.3   1 <1>  -0.1600 
 11 C       -0.6490     4.4590    -0.2890 C.2   1 <1>   0.5690 
 12 C       -4.6030    -1.6810     0.2400 C.3   1 <1>   0.4240 
 13 O       -1.6910     4.9180    -0.6840 O.2   1 <1>  -0.5700 
 14 C        0.3050     5.3350     0.4770 C.3   1 <1>  -0.1790 
 15 O       -5.6210    -0.8880     0.7990 O.3   1 <1>  -0.5600 
 16 C       -5.0720    -3.1380     0.0290 C.ar  1 <1>  -0.1430 
 17 C       -6.3930    -1.4660     1.8050 C.3   1 <1>   0.1200 
 18 C       -6.3150    -3.5670     0.4740 C.ar  1 <1>  -0.1430 
 19 C       -4.2460    -4.0600    -0.6000 C.ar  1 <1>  -0.1500 
 20 C       -7.2240    -2.5920     1.1960 C.3   1 <1>  -0.0170 
 21 C       -6.7240    -4.8750     0.2680 C.ar  1 <1>  -0.1500 
 22 C       -4.6310    -5.3740    -0.8050 C.ar  1 <1>   0.0820 
 23 C       -5.9020    -5.7930    -0.3790 C.ar  1 <1>   0.0820 
 24 O       -3.6900    -6.1420    -1.4270 O.3   1 <1>  -0.3630 
 25 O       -6.3200    -7.0730    -0.6100 O.3   1 <1>  -0.3620 
 26 C       -3.6620    -7.5460    -1.3010 C.3   1 <1>   0.0400 
 27 C       -7.6690    -7.4590    -0.4570 C.3   1 <1>   0.0400 
 28 H       -2.1780     2.5040    -1.1150 H     1 <1>   0.0800 
 29 H       -4.0430     0.9460    -0.2950 H     1 <1>   0.0800 
 30 H       -3.3570     0.7280    -1.8880 H     1 <1>   0.0800 
 31 H       -1.8180    -2.1100    -0.1840 H     1 <1>   0.0800 
 32 H       -1.2890    -1.2260     1.2180 H     1 <1>   0.0800 
 33 H        0.5460     2.7740    -0.0880 H     1 <1>   0.3700 
 34 H        0.3010     1.6960    -2.6570 H     1 <1>   0.0800 
 35 H       -0.8190     2.9750    -3.1010 H     1 <1>   0.0800 
 36 H       -1.3360     1.3080    -3.1170 H     1 <1>   0.0800 
 37 H       -3.7500    -1.6750    -1.7550 H     1 <1>   0.0800 
 38 H       -5.2360    -0.8040    -1.6110 H     1 <1>   0.0800 
 39 H       -3.5480    -0.8360     1.9290 H     1 <1>   0.0800 
 40 H       -3.2950    -2.5400     1.7270 H     1 <1>   0.0800 
 41 H        1.2530     5.3650    -0.0260 H     1 <1>   0.0800 
 42 H        0.4350     4.9460     1.4690 H     1 <1>   0.0800 
 43 H       -0.0900     6.3320     0.5410 H     1 <1>   0.0800 
 44 H       -5.7450    -1.8360     2.5800 H     1 <1>   0.0800 
 45 H       -7.0320    -0.7020     2.2110 H     1 <1>   0.0800 
 46 H       -3.2710    -3.7720    -0.9450 H     1 <1>   0.1500 
 47 H       -7.7640    -3.0940     1.9780 H     1 <1>   0.0800 
 48 H       -7.9350    -2.1780     0.5040 H     1 <1>   0.0800 
 49 H       -7.6940    -5.1600     0.6230 H     1 <1>   0.1500 
 50 H       -2.7000    -7.8930    -1.6300 H     1 <1>   0.0800 
 51 H       -4.4320    -7.9650    -1.9230 H     1 <1>   0.0800 
 52 H       -3.8170    -7.8090    -0.2700 H     1 <1>   0.0800 
 53 H       -7.7680    -8.4690    -0.8130 H     1 <1>   0.0800 
 54 H       -8.2890    -6.8030    -1.0420 H     1 <1>   0.0800 
 55 H       -7.9300    -7.4140     0.5850 H     1 <1>   0.0800 
@<TRIPOS>BOND
  1   1   2  2   
  2   2   3  am  
  3   2   4  1   
  4   3   5  1   
  5   3   6  1   
  6   4   7  1   
  7   4   8  1   
  8   4  28  1   
  9   5   9  1   
 10   5  29  1   
 11   5  30  1   
 12   6  10  1   
 13   6  31  1   
 14   6  32  1   
 15   7  11  am  
 16   7  33  1   
 17   8  34  1   
 18   8  35  1   
 19   8  36  1   
 20   9  12  1   
 21   9  37  1   
 22   9  38  1   
 23  10  12  1   
 24  10  39  1   
 25  10  40  1   
 26  11  13  2   
 27  11  14  1   
 28  12  15  1   
 29  12  16  1   
 30  14  41  1   
 31  14  42  1   
 32  14  43  1   
 33  15  17  1   
 34  16  18  ar  
 35  16  19  ar  
 36  17  20  1   
 37  17  44  1   
 38  17  45  1   
 39  18  20  1   
 40  18  21  ar  
 41  19  22  ar  
 42  19  46  1   
 43  20  47  1   
 44  20  48  1   
 45  21  23  ar  
 46  21  49  1   
 47  22  23  ar  
 48  22  24  1   
 49  23  25  1   
 50  24  26  1   
 51  25  27  1   
 52  26  50  1   
 53  26  51  1   
 54  26  52  1   
 55  27  53  1   
 56  27  54  1   
 57  27  55  1   
@<TRIPOS>SUBSTRUCTURE
  1 ****  12 GROUP 4 **** **** 0

# MOE 2024.06 (io_trps.svl 2023.06)
