@<TRIPOS>MOLECULE
NONAME
33 34 1 0 0 
SMALL
USER_CHARGES


@<TRIPOS>ATOM
  1 S       -0.2890    -0.0650    -0.4980 S.3   1 <1>  -0.0800 
  2 C       -1.3540    -0.9890     0.5070 C.2   1 <1>   0.4420 
  3 C       -0.5110     1.2560     0.6020 C.2   1 <1>   0.1980 
  4 N       -1.7680    -0.3190     1.5210 N.2   1 <1>  -0.3380 
  5 N       -1.6090    -2.2810     0.0970 N.am  1 <1>  -0.4940 
  6 N       -1.2850     0.9600     1.5680 N.2   1 <1>  -0.3380 
  7 C        0.2080     2.5730     0.3320 C.3   1 <1>   0.3800 
  8 C       -2.3910    -3.2520     0.6710 C.2   1 <1>   0.5440 
  9 O        0.0550     2.9210    -1.0150 O.3   1 <1>  -0.5600 
 10 C        1.7050     2.4720     0.6370 C.3   1 <1>  -0.2400 
 11 O       -2.9750    -3.0450     1.7110 O.2   1 <1>  -0.5700 
 12 C       -2.5010    -4.5290     0.0040 C.ar  1 <1>   0.0860 
 13 C        0.0440     4.2880    -1.2850 C.3   1 <1>   0.0400 
 14 C       -3.7280    -5.0470    -0.4310 C.ar  1 <1>   0.1670 
 15 C       -1.3630    -5.2900    -0.2400 C.ar  1 <1>  -0.1500 
 16 N       -3.8750    -6.1980    -1.0680 N.ar  1 <1>  -0.6200 
 17 C       -5.0210    -4.2840    -0.1900 C.3   1 <1>  -0.0970 
 18 C       -1.5100    -6.4900    -0.8970 C.ar  1 <1>  -0.1500 
 19 C       -2.7730    -6.8940    -1.2860 C.ar  1 <1>   0.1600 
 20 H       -1.1780    -2.5340    -0.7870 H     1 <1>   0.3700 
 21 H       -0.2480     3.3330     0.9450 H     1 <1>   0.0800 
 22 H        2.1700     1.7580    -0.0180 H     1 <1>   0.0800 
 23 H        1.8420     2.1470     1.6530 H     1 <1>   0.0800 
 24 H        2.1810     3.4280     0.5220 H     1 <1>   0.0800 
 25 H       -0.0760     4.4170    -2.3470 H     1 <1>   0.0800 
 26 H        0.9750     4.7280    -0.9730 H     1 <1>   0.0800 
 27 H       -0.7850     4.7460    -0.7720 H     1 <1>   0.0800 
 28 H       -0.3940    -4.9540     0.0860 H     1 <1>   0.1500 
 29 H       -4.9020    -3.2430    -0.4260 H     1 <1>   0.0800 
 30 H       -5.3070    -4.3780     0.8420 H     1 <1>   0.0800 
 31 H       -5.8120    -4.6810    -0.8010 H     1 <1>   0.0800 
 32 H       -0.6580    -7.1140    -1.1040 H     1 <1>   0.1500 
 33 H       -2.8840    -7.8350    -1.8000 H     1 <1>   0.1500 
@<TRIPOS>BOND
  1   1   2  1   
  2   1   3  1   
  3   2   4  2   
  4   2   5  1   
  5   3   6  2   
  6   3   7  1   
  7   4   6  1   
  8   5   8  am  
  9   5  20  1   
 10   7   9  1   
 11   7  10  1   
 12   7  21  1   
 13   8  11  2   
 14   8  12  1   
 15   9  13  1   
 16  10  22  1   
 17  10  23  1   
 18  10  24  1   
 19  12  14  ar  
 20  12  15  ar  
 21  13  25  1   
 22  13  26  1   
 23  13  27  1   
 24  14  16  ar  
 25  14  17  1   
 26  15  18  ar  
 27  15  28  1   
 28  16  19  ar  
 29  17  29  1   
 30  17  30  1   
 31  17  31  1   
 32  18  19  ar  
 33  18  32  1   
 34  19  33  1   
@<TRIPOS>SUBSTRUCTURE
  1 ****   5 GROUP 4 **** **** 0

# MOE 2024.06 (io_trps.svl 2023.06)
