@<TRIPOS>MOLECULE
NONAME
41 42 1 0 0 
SMALL
USER_CHARGES


@<TRIPOS>ATOM
  1 F       -0.7580     1.2870    -3.2290 F     1 <1>  -0.3400 
  2 C       -1.3770     0.9230    -2.1130 C.3   1 <1>   1.0200 
  3 F       -2.5990     0.5480    -2.4670 F     1 <1>  -0.3400 
  4 F       -0.7630    -0.1730    -1.6820 F     1 <1>  -0.3400 
  5 C       -1.4150     2.0500    -1.0390 C.3   1 <1>   0.1100 
  6 N       -0.1280     2.7110    -0.6270 N.3   1 <1>  -0.8100 
  7 C       -0.3510     3.8770     0.2550 C.3   1 <1>   0.1100 
  8 C        0.8600     1.7600    -0.0400 C.3   1 <1>   0.1100 
  9 C        0.9450     4.6890     0.4910 C.3   1 <1>   0.3430 
 10 C        2.0320     2.4400     0.7090 C.3   1 <1>   0.3430 
 11 N        2.1790     3.8680     0.2970 N.4   1 <1>  -0.9590 
 12 C        3.4630     4.4840     0.8180 C.3   1 <1>   0.4600 
 13 C        3.5280     5.9190     0.2990 C.ar  1 <1>  -0.1430 
 14 C        4.7140     3.6380     0.4700 C.2   1 <1>   0.9060 
 15 C        3.3120     6.9790     1.1670 C.ar  1 <1>  -0.1500 
 16 C        3.7790     6.1820    -1.0400 C.ar  1 <1>  -0.1500 
 17 O        5.5490     3.4120     1.3500 O.co2 1 <1>  -0.9000 
 18 O        4.7340     3.0690    -0.6340 O.co2 1 <1>  -0.9000 
 19 C        3.3260     8.2810     0.6980 C.ar  1 <1>  -0.1500 
 20 C        3.7920     7.4850    -1.5070 C.ar  1 <1>  -0.1500 
 21 C        3.5600     8.5410    -0.6410 C.ar  1 <1>  -0.1430 
 22 C        3.5800     9.9690    -1.1540 C.3   1 <1>  -0.0970 
 23 H       -1.8950     1.6430    -0.1670 H     1 <1>   0.0800 
 24 H       -2.0640     2.8100    -1.4350 H     1 <1>   0.0800 
 25 H       -0.7330     3.5410     1.2040 H     1 <1>   0.0800 
 26 H       -1.0870     4.5320    -0.1800 H     1 <1>   0.0800 
 27 H        1.2810     1.1670    -0.8350 H     1 <1>   0.0800 
 28 H        0.3700     1.0850     0.6410 H     1 <1>   0.0800 
 29 H        0.9270     5.0960     1.4880 H     1 <1>   0.0800 
 30 H        0.9700     5.5200    -0.1950 H     1 <1>   0.0800 
 31 H        2.9400     1.8950     0.5000 H     1 <1>   0.0800 
 32 H        1.8560     2.3880     1.7700 H     1 <1>   0.0800 
 33 H        2.3500     3.8000    -0.7200 H     1 <1>   0.4500 
 34 H        3.4240     4.5160     1.8910 H     1 <1>   0.0800 
 35 H        3.1360     6.8030     2.2140 H     1 <1>   0.1500 
 36 H        3.9730     5.3740    -1.7290 H     1 <1>   0.1500 
 37 H        3.1590     9.0950     1.3820 H     1 <1>   0.1500 
 38 H        3.9930     7.6710    -2.5470 H     1 <1>   0.1500 
 39 H        2.9040    10.5830    -0.5860 H     1 <1>   0.0800 
 40 H        3.2810    10.0030    -2.1870 H     1 <1>   0.0800 
 41 H        4.5730    10.3720    -1.0670 H     1 <1>   0.0800 
@<TRIPOS>BOND
  1   1   2  1   
  2   2   3  1   
  3   2   4  1   
  4   2   5  1   
  5   5   6  1   
  6   5  23  1   
  7   5  24  1   
  8   6   7  1   
  9   6   8  1   
 10   7   9  1   
 11   7  25  1   
 12   7  26  1   
 13   8  10  1   
 14   8  27  1   
 15   8  28  1   
 16   9  11  1   
 17   9  29  1   
 18   9  30  1   
 19  10  11  1   
 20  10  31  1   
 21  10  32  1   
 22  11  12  1   
 23  11  33  1   
 24  12  13  1   
 25  12  14  1   
 26  12  34  1   
 27  13  15  ar  
 28  13  16  ar  
 29  14  17  ar  
 30  14  18  ar  
 31  15  19  ar  
 32  15  35  1   
 33  16  20  ar  
 34  16  36  1   
 35  19  21  ar  
 36  19  37  1   
 37  20  21  ar  
 38  20  38  1   
 39  21  22  1   
 40  22  39  1   
 41  22  40  1   
 42  22  41  1   
@<TRIPOS>SUBSTRUCTURE
  1 ****  11 GROUP 4 **** **** 0

# MOE 2024.06 (io_trps.svl 2023.06)
