@<TRIPOS>MOLECULE
NONAME
29 29 1 0 0 
SMALL
USER_CHARGES


@<TRIPOS>ATOM
  1 O        0.3410    -0.2690     0.5100 O.2   1 <1>  -0.5700 
  2 C        0.3750    -1.3520    -0.0170 C.2   1 <1>   0.6590 
  3 O       -0.6790    -1.8800    -0.6260 O.3   1 <1>  -0.4300 
  4 C        1.6240    -2.1930     0.0150 C.3   1 <1>  -0.0990 
  5 C       -1.9020    -1.1810    -0.7270 C.3   1 <1>   0.0400 
  6 C        2.7410    -1.5040    -0.7570 C.3   1 <1>   0.3440 
  7 O        2.4160    -1.4840    -2.0970 O.3   1 <1>  -0.6800 
  8 C        4.0730    -2.2290    -0.6090 C.ar  1 <1>  -0.1440 
  9 C        5.1020    -1.6450     0.1170 C.ar  1 <1>  -0.1500 
 10 C        4.2810    -3.4740    -1.1890 C.ar  1 <1>  -0.1500 
 11 C        6.3180    -2.2890     0.2630 C.ar  1 <1>  -0.1500 
 12 C        5.4960    -4.1200    -1.0450 C.ar  1 <1>  -0.1500 
 13 C        6.5220    -3.5360    -0.3210 C.ar  1 <1>   0.0820 
 14 O        7.6810    -4.2350    -0.2290 O.3   1 <1>  -0.3630 
 15 C        8.7890    -3.7290     0.4820 C.3   1 <1>   0.0400 
 16 H        1.4310    -3.1670    -0.3930 H     1 <1>   0.0800 
 17 H        1.9220    -2.3080     1.0400 H     1 <1>   0.0800 
 18 H       -2.6040    -1.7970    -1.2590 H     1 <1>   0.0800 
 19 H       -1.7320    -0.2630    -1.2640 H     1 <1>   0.0800 
 20 H       -2.2650    -0.9700     0.2640 H     1 <1>   0.0800 
 21 H        2.8400    -0.4810    -0.4310 H     1 <1>   0.0800 
 22 H        3.2250    -1.2850    -2.6080 H     1 <1>   0.4000 
 23 H        4.9610    -0.6820     0.5760 H     1 <1>   0.1500 
 24 H        3.4970    -3.9440    -1.7580 H     1 <1>   0.1500 
 25 H        7.0910    -1.8090     0.8310 H     1 <1>   0.1500 
 26 H        5.6570    -5.0830    -1.4950 H     1 <1>   0.1500 
 27 H        9.5840    -4.4500     0.4170 H     1 <1>   0.0800 
 28 H        8.5080    -3.5880     1.5110 H     1 <1>   0.0800 
 29 H        9.0980    -2.8020     0.0340 H     1 <1>   0.0800 
@<TRIPOS>BOND
  1   1   2  2   
  2   2   3  1   
  3   2   4  1   
  4   3   5  1   
  5   4   6  1   
  6   4  16  1   
  7   4  17  1   
  8   5  18  1   
  9   5  19  1   
 10   5  20  1   
 11   6   7  1   
 12   6   8  1   
 13   6  21  1   
 14   7  22  1   
 15   8   9  ar  
 16   8  10  ar  
 17   9  11  ar  
 18   9  23  1   
 19  10  12  ar  
 20  10  24  1   
 21  11  13  ar  
 22  11  25  1   
 23  12  13  ar  
 24  12  26  1   
 25  13  14  1   
 26  14  15  1   
 27  15  27  1   
 28  15  28  1   
 29  15  29  1   
@<TRIPOS>SUBSTRUCTURE
  1 ****   8 GROUP 4 **** **** 0

# MOE 2024.06 (io_trps.svl 2023.06)
