@<TRIPOS>MOLECULE
NONAME
51 53 1 0 0 
SMALL
USER_CHARGES


@<TRIPOS>ATOM
  1 O        0.6490     0.3780     0.2820 O.2   1 <1>  -0.5700 
  2 C        1.8250     0.0710     0.3910 C.2   1 <1>   0.7150 
  3 N        2.6960     1.0210     0.8980 N.am  1 <1>  -0.6600 
  4 C        2.2290    -1.2600    -0.0230 C.2   1 <1>   0.0550 
  5 C        4.0790     0.7390     1.3850 C.3   1 <1>   0.1400 
  6 C        2.3110     2.4500     1.0070 C.3   1 <1>   0.1400 
  7 O        3.4830    -1.5700    -0.3540 O.3   1 <1>  -0.2800 
  8 C        1.4650    -2.3770    -0.1820 C.2   1 <1>  -0.1500 
  9 C        5.1400     1.1750     0.3650 C.3   1 <1>   0.1400 
 10 C        2.5780     3.1860    -0.3100 C.3   1 <1>  -0.1600 
 11 C        3.5340    -2.8340    -0.7050 C.2   1 <1>  -0.0100 
 12 C        2.3100    -3.3960    -0.6200 C.2   1 <1>  -0.1500 
 13 N        5.0220     2.6260    -0.0030 N.am  1 <1>  -0.6600 
 14 C        3.9320     2.8990    -0.9870 C.3   1 <1>   0.1400 
 15 C        5.8930     3.5360     0.5510 C.2   1 <1>   0.5690 
 16 O        6.5420     3.2400     1.5280 O.2   1 <1>  -0.5700 
 17 C        6.1350     4.9460    -0.0100 C.3   1 <1>  -0.0190 
 18 C        4.9440     5.9130     0.1390 C.3   1 <1>  -0.1600 
 19 C        6.7160     4.9430    -1.4450 C.3   1 <1>  -0.1600 
 20 C        5.3430     7.3660    -0.1880 C.3   1 <1>   0.2000 
 21 C        6.4710     6.2610    -2.2070 C.3   1 <1>  -0.1600 
 22 O        4.1940     8.0270    -0.6610 O.3   1 <1>  -0.5600 
 23 C        6.4690     7.4600    -1.2540 C.3   1 <1>   0.2000 
 24 C        3.3430     8.5170     0.3280 C.3   1 <1>   0.0400 
 25 O        6.2890     8.6020    -2.0080 O.3   1 <1>  -0.6800 
 26 H        4.2510     1.2650     2.3080 H     1 <1>   0.0800 
 27 H        4.1940    -0.3080     1.6000 H     1 <1>   0.0800 
 28 H        1.2680     2.5350     1.2650 H     1 <1>   0.0800 
 29 H        2.8760     2.9150     1.7970 H     1 <1>   0.0800 
 30 H        0.4060    -2.4660    -0.0110 H     1 <1>   0.1500 
 31 H        5.0540     0.5700    -0.5190 H     1 <1>   0.0800 
 32 H        6.1140     0.9820     0.7810 H     1 <1>   0.0800 
 33 H        1.7970     2.9340    -1.0050 H     1 <1>   0.0800 
 34 H        2.4840     4.2370    -0.1230 H     1 <1>   0.0800 
 35 H        4.4770    -3.2600    -1.0040 H     1 <1>   0.1500 
 36 H        2.0160    -4.4080    -0.8370 H     1 <1>   0.1500 
 37 H        4.1930     3.7170    -1.6310 H     1 <1>   0.0800 
 38 H        3.8190     2.0340    -1.6180 H     1 <1>   0.0800 
 39 H        6.9090     5.3610     0.6150 H     1 <1>   0.0800 
 40 H        4.5620     5.8610     1.1430 H     1 <1>   0.0800 
 41 H        4.1690     5.6230    -0.5420 H     1 <1>   0.0800 
 42 H        7.7770     4.7710    -1.3730 H     1 <1>   0.0800 
 43 H        6.3130     4.1320    -2.0240 H     1 <1>   0.0800 
 44 H        5.6920     7.8650     0.7010 H     1 <1>   0.0800 
 45 H        5.5140     6.2120    -2.6980 H     1 <1>   0.0800 
 46 H        7.2310     6.3910    -2.9570 H     1 <1>   0.0800 
 47 H        7.4300     7.5310    -0.7740 H     1 <1>   0.0800 
 48 H        2.5130     9.0010    -0.1550 H     1 <1>   0.0800 
 49 H        3.8750     9.2320     0.9320 H     1 <1>   0.0800 
 50 H        2.9840     7.7030     0.9320 H     1 <1>   0.0800 
 51 H        5.3230     8.7910    -1.9720 H     1 <1>   0.4000 
@<TRIPOS>BOND
  1   1   2  2   
  2   2   3  am  
  3   2   4  1   
  4   3   5  1   
  5   3   6  1   
  6   4   7  1   
  7   4   8  2   
  8   5   9  1   
  9   5  26  1   
 10   5  27  1   
 11   6  10  1   
 12   6  28  1   
 13   6  29  1   
 14   7  11  1   
 15   8  12  1   
 16   8  30  1   
 17   9  13  1   
 18   9  31  1   
 19   9  32  1   
 20  10  14  1   
 21  10  33  1   
 22  10  34  1   
 23  11  12  2   
 24  11  35  1   
 25  12  36  1   
 26  13  14  1   
 27  13  15  am  
 28  14  37  1   
 29  14  38  1   
 30  15  16  2   
 31  15  17  1   
 32  17  18  1   
 33  17  19  1   
 34  17  39  1   
 35  18  20  1   
 36  18  40  1   
 37  18  41  1   
 38  19  21  1   
 39  19  42  1   
 40  19  43  1   
 41  20  22  1   
 42  20  23  1   
 43  20  44  1   
 44  21  23  1   
 45  21  45  1   
 46  21  46  1   
 47  22  24  1   
 48  23  25  1   
 49  23  47  1   
 50  24  48  1   
 51  24  49  1   
 52  24  50  1   
 53  25  51  1   
@<TRIPOS>SUBSTRUCTURE
  1 ****  14 GROUP 4 **** **** 0

# MOE 2024.06 (io_trps.svl 2023.06)
