@<TRIPOS>MOLECULE
NONAME
55 58 1 0 0 
SMALL
USER_CHARGES


@<TRIPOS>ATOM
  1 O        4.8730    -0.8250    -0.6020 O.2   1 <1>  -0.5700 
  2 C        3.7480    -0.6880    -0.1520 C.2   1 <1>   0.7160 
  3 N        2.8500    -0.0180    -0.9510 N.am  1 <1>  -0.6600 
  4 C        3.4330    -1.0760     1.2000 C.2   1 <1>  -0.0860 
  5 C        2.9000    -0.1380    -2.4480 C.3   1 <1>   0.1400 
  6 C        2.1490     1.1830    -0.4280 C.3   1 <1>   0.1400 
  7 C        2.2700    -1.5140     1.7610 C.2   1 <1>  -0.0400 
  8 C        4.3460    -1.0590     2.2740 C.2   1 <1>  -0.1500 
  9 C        4.0440     0.6810    -3.0930 C.3   1 <1>   0.3430 
 10 C        3.1190     2.3720    -0.3550 C.3   1 <1>  -0.1600 
 11 O        2.4200    -1.7280     3.0440 O.3   1 <1>  -0.2800 
 12 C        0.9050    -1.7980     1.1660 C.3   1 <1>  -0.0600 
 13 C        3.6650    -1.4610     3.3640 C.2   1 <1>  -0.0400 
 14 N        4.7020     1.5880    -2.1030 N.4   1 <1>  -0.9590 
 15 C        3.8320     2.7220    -1.6660 C.3   1 <1>   0.3430 
 16 C        4.1010    -1.6420     4.8010 C.3   1 <1>  -0.0600 
 17 C        6.0900     1.9670    -2.4740 C.3   1 <1>   0.4860 
 18 C        6.7600     2.5620    -1.2580 C.ar  1 <1>  -0.1440 
 19 C        7.0460     3.9030    -1.1830 C.ar  1 <1>   0.1600 
 20 C        7.0930     1.7920    -0.1690 C.ar  1 <1>   0.1600 
 21 N        7.5690     4.4410    -0.1140 N.ar  1 <1>  -0.6200 
 22 N        7.6180     2.3100     0.9130 N.ar  1 <1>  -0.6200 
 23 C        7.8270     3.6350     0.9270 C.ar  1 <1>   0.6200 
 24 C        8.3780     4.2230     2.1480 C.ar  1 <1>   0.3100 
 25 N        7.7870     5.3010     2.6960 N.ar  1 <1>  -0.6200 
 26 C        9.5090     3.6450     2.7300 C.ar  1 <1>  -0.1500 
 27 C        8.3300     5.7910     3.7950 C.ar  1 <1>   0.1600 
 28 C       10.0640     4.1650     3.8780 C.ar  1 <1>  -0.1500 
 29 C        9.4500     5.2710     4.4180 C.ar  1 <1>  -0.1500 
 30 H        1.9580     0.1720    -2.8660 H     1 <1>   0.0800 
 31 H        3.0310    -1.1750    -2.7110 H     1 <1>   0.0800 
 32 H        1.7620     0.9790     0.5570 H     1 <1>   0.0800 
 33 H        1.3110     1.4210    -1.0610 H     1 <1>   0.0800 
 34 H        5.3810    -0.7740     2.2010 H     1 <1>   0.1500 
 35 H        3.6680     1.2420    -3.9330 H     1 <1>   0.0800 
 36 H        4.7720    -0.0200    -3.4690 H     1 <1>   0.0800 
 37 H        3.8500     2.1980     0.4170 H     1 <1>   0.0800 
 38 H        2.5560     3.2350    -0.0450 H     1 <1>   0.0800 
 39 H        0.9090    -1.6600     0.1010 H     1 <1>   0.0800 
 40 H        0.1740    -1.1440     1.6060 H     1 <1>   0.0800 
 41 H        0.6290    -2.8150     1.3790 H     1 <1>   0.0800 
 42 H        4.7980     0.9700    -1.2730 H     1 <1>   0.4500 
 43 H        4.4320     3.6020    -1.5000 H     1 <1>   0.0800 
 44 H        3.1080     2.9530    -2.4310 H     1 <1>   0.0800 
 45 H        5.1410    -1.3920     4.9090 H     1 <1>   0.0800 
 46 H        3.9520    -2.6630     5.0980 H     1 <1>   0.0800 
 47 H        3.5180    -1.0030     5.4390 H     1 <1>   0.0800 
 48 H        6.0800     2.6790    -3.2840 H     1 <1>   0.0800 
 49 H        6.6390     1.0940    -2.7890 H     1 <1>   0.0800 
 50 H        6.8370     4.5630    -2.0090 H     1 <1>   0.1500 
 51 H        6.9220     0.7270    -0.1710 H     1 <1>   0.1500 
 52 H        9.9500     2.7800     2.2690 H     1 <1>   0.1500 
 53 H        7.8560     6.6570     4.2250 H     1 <1>   0.1500 
 54 H       10.9370     3.7270     4.3320 H     1 <1>   0.1500 
 55 H        9.8310     5.7290     5.3130 H     1 <1>   0.1500 
@<TRIPOS>BOND
  1   1   2  2   
  2   2   3  am  
  3   2   4  1   
  4   3   5  1   
  5   3   6  1   
  6   4   7  2   
  7   4   8  1   
  8   5   9  1   
  9   5  30  1   
 10   5  31  1   
 11   6  10  1   
 12   6  32  1   
 13   6  33  1   
 14   7  11  1   
 15   7  12  1   
 16   8  13  2   
 17   8  34  1   
 18   9  14  1   
 19   9  35  1   
 20   9  36  1   
 21  10  15  1   
 22  10  37  1   
 23  10  38  1   
 24  11  13  1   
 25  12  39  1   
 26  12  40  1   
 27  12  41  1   
 28  13  16  1   
 29  14  15  1   
 30  14  17  1   
 31  14  42  1   
 32  15  43  1   
 33  15  44  1   
 34  16  45  1   
 35  16  46  1   
 36  16  47  1   
 37  17  18  1   
 38  17  48  1   
 39  17  49  1   
 40  18  19  ar  
 41  18  20  ar  
 42  19  21  ar  
 43  19  50  1   
 44  20  22  ar  
 45  20  51  1   
 46  21  23  ar  
 47  22  23  ar  
 48  23  24  1   
 49  24  25  ar  
 50  24  26  ar  
 51  25  27  ar  
 52  26  28  ar  
 53  26  52  1   
 54  27  29  ar  
 55  27  53  1   
 56  28  29  ar  
 57  28  54  1   
 58  29  55  1   
@<TRIPOS>SUBSTRUCTURE
  1 ****  20 GROUP 4 **** **** 0

# MOE 2024.06 (io_trps.svl 2023.06)
