@<TRIPOS>MOLECULE
NONAME
38 40 1 0 0 
SMALL
USER_CHARGES


@<TRIPOS>ATOM
  1 S        0.5990     0.3330    -0.2500 S.3   1 <1>  -0.0800 
  2 C        0.2740     2.0570    -0.4960 C.2   1 <1>  -0.0450 
  3 C       -1.0620    -0.0190     0.1560 C.2   1 <1>  -0.1100 
  4 C        1.4070     2.8690    -0.8730 C.2   1 <1>   0.5940 
  5 C       -1.0560     2.2590    -0.2720 C.2   1 <1>  -0.1500 
  6 C       -1.8000     1.1010     0.0970 C.2   1 <1>  -0.1500 
  7 O        2.3610     2.3840    -1.4320 O.2   1 <1>  -0.5700 
  8 C        1.5280     4.3670    -0.5740 C.3   1 <1>  -0.0190 
  9 C        2.5970     4.5510     0.5140 C.3   1 <1>   0.2090 
 10 C        0.2330     5.1270    -0.2080 C.3   1 <1>  -0.1600 
 11 N        2.8020     6.0030     0.8000 N.pl3 1 <1>  -0.8380 
 12 C        0.5280     6.6040     0.0940 C.3   1 <1>  -0.1600 
 13 C        3.9960     6.6380     0.5300 C.ar  1 <1>   0.7200 
 14 C        1.5780     6.7490     1.1970 C.3   1 <1>   0.2090 
 15 N        3.9340     7.9270     0.2040 N.ar  1 <1>  -0.6200 
 16 N        5.1020     5.8980     0.6210 N.ar  1 <1>  -0.6200 
 17 C        5.0700     8.5320    -0.0580 C.ar  1 <1>   0.3930 
 18 C        6.2350     6.5110     0.3580 C.ar  1 <1>   0.1600 
 19 O        4.9300     9.8390    -0.3830 O.3   1 <1>  -0.3630 
 20 C        6.2710     7.8350     0.0110 C.ar  1 <1>   0.1900 
 21 C        5.9930    10.7000    -0.7260 C.3   1 <1>   0.0400 
 22 F        7.4420     8.3780    -0.2370 F     1 <1>  -0.1900 
 23 H       -1.3130    -1.0370     0.3960 H     1 <1>   0.1500 
 24 H       -1.5780     3.1920    -0.3640 H     1 <1>   0.1500 
 25 H       -2.8560     1.1570     0.2990 H     1 <1>   0.1500 
 26 H        1.9220     4.8170    -1.4690 H     1 <1>   0.0800 
 27 H        3.5150     4.0920     0.1860 H     1 <1>   0.0800 
 28 H        2.2910     4.0580     1.4210 H     1 <1>   0.0800 
 29 H       -0.2080     4.6890     0.6700 H     1 <1>   0.0800 
 30 H       -0.4660     5.0710    -1.0240 H     1 <1>   0.0800 
 31 H       -0.3750     7.1010     0.4010 H     1 <1>   0.0800 
 32 H        0.8910     7.0980    -0.7900 H     1 <1>   0.0800 
 33 H        1.7910     7.7900     1.3690 H     1 <1>   0.0800 
 34 H        1.2040     6.3360     2.1180 H     1 <1>   0.0800 
 35 H        7.1490     5.9470     0.4200 H     1 <1>   0.1500 
 36 H        5.5800    11.6680    -0.9450 H     1 <1>   0.0800 
 37 H        6.4920    10.3130    -1.5970 H     1 <1>   0.0800 
 38 H        6.6690    10.7730     0.1080 H     1 <1>   0.0800 
@<TRIPOS>BOND
  1   1   2  1   
  2   1   3  1   
  3   2   4  1   
  4   2   5  2   
  5   3   6  2   
  6   3  23  1   
  7   4   7  2   
  8   4   8  1   
  9   5   6  1   
 10   5  24  1   
 11   6  25  1   
 12   8   9  1   
 13   8  10  1   
 14   8  26  1   
 15   9  11  1   
 16   9  27  1   
 17   9  28  1   
 18  10  12  1   
 19  10  29  1   
 20  10  30  1   
 21  11  13  1   
 22  11  14  1   
 23  12  14  1   
 24  12  31  1   
 25  12  32  1   
 26  13  15  ar  
 27  13  16  ar  
 28  14  33  1   
 29  14  34  1   
 30  15  17  ar  
 31  16  18  ar  
 32  17  19  1   
 33  17  20  ar  
 34  18  20  ar  
 35  18  35  1   
 36  19  21  1   
 37  20  22  1   
 38  21  36  1   
 39  21  37  1   
 40  21  38  1   
@<TRIPOS>SUBSTRUCTURE
  1 ****   9 GROUP 4 **** **** 0

# MOE 2024.06 (io_trps.svl 2023.06)
