@<TRIPOS>MOLECULE
NONAME
53 56 1 0 0 
SMALL
USER_CHARGES


@<TRIPOS>ATOM
  1 O       -1.0580     1.4240     2.1990 O.2   1 <1>  -0.5700 
  2 C       -1.5620     1.3620     1.1020 C.2   1 <1>   0.5690 
  3 N       -1.8500     0.1410     0.5240 N.am  1 <1>  -0.6600 
  4 C       -1.8260     2.7100     0.4310 C.3   1 <1>   0.2370 
  5 C       -2.3690    -0.0570    -0.8730 C.3   1 <1>   0.1400 
  6 C       -1.7780    -1.1060     1.3350 C.3   1 <1>   0.1400 
  7 N       -1.1620     2.7470    -0.8910 N.pl3 1 <1>   0.3140 
  8 C       -3.3210     3.1020     0.4070 C.3   1 <1>  -0.2400 
  9 C       -3.1410    -1.3730    -1.0250 C.3   1 <1>  -0.1600 
 10 C       -3.1810    -1.7070     1.4880 C.3   1 <1>  -0.1600 
 11 N       -1.7540     3.0000    -2.0430 N.2   1 <1>  -0.4180 
 12 C        0.1110     2.5130    -1.1520 C.2   1 <1>   0.0360 
 13 C       -4.0310    -1.6530     0.1940 C.3   1 <1>   0.4240 
 14 N       -0.8460     2.9110    -2.9470 N.2   1 <1>   0.0000 
 15 N        0.3280     2.6060    -2.4070 N.2   1 <1>  -0.3380 
 16 O       -4.8860    -0.5360     0.2750 O.3   1 <1>  -0.5600 
 17 C       -4.8240    -2.9620    -0.0240 C.ar  1 <1>  -0.1440 
 18 C       -6.0870    -0.6930     0.9660 C.3   1 <1>   0.1200 
 19 C       -6.2120    -2.9680    -0.0260 C.ar  1 <1>  -0.1440 
 20 C       -4.1560    -4.1670    -0.2200 C.ar  1 <1>  -0.1500 
 21 C       -6.9690    -1.6750     0.2010 C.3   1 <1>  -0.0170 
 22 C       -6.9080    -4.1460    -0.2360 C.ar  1 <1>  -0.1500 
 23 C       -4.8430    -5.3620    -0.4210 C.ar  1 <1>   0.0820 
 24 C       -6.2450    -5.3420    -0.4450 C.ar  1 <1>   0.0820 
 25 O       -4.1760    -6.5440    -0.5760 O.3   1 <1>  -0.3630 
 26 O       -7.0520    -6.4210    -0.6520 O.3   1 <1>  -0.3630 
 27 C       -2.8170    -6.6880    -0.2290 C.3   1 <1>   0.0400 
 28 C       -6.6680    -7.4510    -1.5360 C.3   1 <1>   0.0400 
 29 H       -1.3260     3.4500     1.0290 H     1 <1>   0.0800 
 30 H       -3.0360     0.7430    -1.1320 H     1 <1>   0.0800 
 31 H       -1.5470    -0.0390    -1.5690 H     1 <1>   0.0800 
 32 H       -1.1290    -1.8040     0.8350 H     1 <1>   0.0800 
 33 H       -1.3600    -0.9180     2.3100 H     1 <1>   0.0800 
 34 H       -3.9090     2.4030    -0.1590 H     1 <1>   0.0800 
 35 H       -3.4420     4.0850    -0.0130 H     1 <1>   0.0800 
 36 H       -3.7020     3.1150     1.4120 H     1 <1>   0.0800 
 37 H       -2.4370    -2.1720    -1.1650 H     1 <1>   0.0800 
 38 H       -3.7500    -1.3340    -1.9100 H     1 <1>   0.0800 
 39 H       -3.6870    -1.1950     2.2850 H     1 <1>   0.0800 
 40 H       -3.0610    -2.7250     1.8060 H     1 <1>   0.0800 
 41 H        0.8440     2.2740    -0.4030 H     1 <1>   0.1500 
 42 H       -5.8820    -1.0530     1.9590 H     1 <1>   0.0800 
 43 H       -6.5610     0.2700     1.0290 H     1 <1>   0.0800 
 44 H       -3.0850    -4.1620    -0.2140 H     1 <1>   0.1500 
 45 H       -7.8640    -1.8620     0.7660 H     1 <1>   0.0800 
 46 H       -7.2470    -1.2460    -0.7440 H     1 <1>   0.0800 
 47 H       -7.9830    -4.1490    -0.2440 H     1 <1>   0.1500 
 48 H       -2.5640    -7.7310    -0.3000 H     1 <1>   0.0800 
 49 H       -2.6750    -6.3470     0.7810 H     1 <1>   0.0800 
 50 H       -2.2170    -6.1220    -0.9190 H     1 <1>   0.0800 
 51 H       -7.5540    -7.9720    -1.8480 H     1 <1>   0.0800 
 52 H       -6.0130    -8.1270    -1.0170 H     1 <1>   0.0800 
 53 H       -6.1730    -7.0180    -2.3870 H     1 <1>   0.0800 
@<TRIPOS>BOND
  1   1   2  2   
  2   2   3  am  
  3   2   4  1   
  4   3   5  1   
  5   3   6  1   
  6   4   7  1   
  7   4   8  1   
  8   4  29  1   
  9   5   9  1   
 10   5  30  1   
 11   5  31  1   
 12   6  10  1   
 13   6  32  1   
 14   6  33  1   
 15   7  11  1   
 16   7  12  1   
 17   8  34  1   
 18   8  35  1   
 19   8  36  1   
 20   9  13  1   
 21   9  37  1   
 22   9  38  1   
 23  10  13  1   
 24  10  39  1   
 25  10  40  1   
 26  11  14  2   
 27  12  15  2   
 28  12  41  1   
 29  13  16  1   
 30  13  17  1   
 31  14  15  1   
 32  16  18  1   
 33  17  19  ar  
 34  17  20  ar  
 35  18  21  1   
 36  18  42  1   
 37  18  43  1   
 38  19  21  1   
 39  19  22  ar  
 40  20  23  ar  
 41  20  44  1   
 42  21  45  1   
 43  21  46  1   
 44  22  24  ar  
 45  22  47  1   
 46  23  24  ar  
 47  23  25  1   
 48  24  26  1   
 49  25  27  1   
 50  26  28  1   
 51  27  48  1   
 52  27  49  1   
 53  27  50  1   
 54  28  51  1   
 55  28  52  1   
 56  28  53  1   
@<TRIPOS>SUBSTRUCTURE
  1 ****  13 GROUP 4 **** **** 0

# MOE 2024.06 (io_trps.svl 2023.06)
