@<TRIPOS>MOLECULE
NONAME
40 42 1 0 0 
SMALL
USER_CHARGES


@<TRIPOS>ATOM
  1 O        0.5810     1.0470    -1.8880 O.2   1 <1>  -0.5760 
  2 C        0.1470     0.1370    -1.2310 C.2   1 <1>   0.8490 
  3 N        0.7970    -0.3300    -0.1410 N.pl3 1 <1>  -0.7340 
  4 C       -1.1760    -0.5720    -1.5570 C.3   1 <1>   0.1620 
  5 C        1.9090     0.0890     0.4350 C.cat 1 <1>   1.0680 
  6 N       -1.3400    -1.7740    -0.6830 N.3   1 <1>  -0.8140 
  7 N        2.6830     1.0580    -0.0120 N.pl3 1 <1>  -0.7050 
  8 N        2.4100    -0.4060     1.5650 N.pl3 1 <1>  -0.7680 
  9 C       -0.7250    -2.9940    -1.2330 C.3   1 <1>   0.2450 
 10 C       -2.7040    -2.0320    -0.1890 C.3   1 <1>   0.1000 
 11 C        3.7400     1.2050     0.8540 C.2   1 <1>   0.1910 
 12 C        3.5720     0.2970     1.8340 C.2   1 <1>   0.1910 
 13 C        1.8730    -1.4890     2.4370 C.3   1 <1>   0.2660 
 14 C       -0.0080    -3.6800    -0.0920 C.ar  1 <1>  -0.1530 
 15 C       -2.6880    -2.8240     1.1330 C.3   1 <1>   0.1100 
 16 C       -0.7400    -4.1900     0.9740 C.ar  1 <1>   0.0730 
 17 C        1.3720    -3.8250    -0.1030 C.ar  1 <1>  -0.1590 
 18 O       -2.0900    -4.1010     1.0030 O.3   1 <1>  -0.3700 
 19 C       -0.0970    -4.8360     2.0170 C.ar  1 <1>  -0.1590 
 20 C        2.0130    -4.4730     0.9400 C.ar  1 <1>  -0.1590 
 21 C        1.2790    -4.9750     2.0020 C.ar  1 <1>  -0.1590 
 22 H        0.3140    -1.1460     0.2480 H     1 <1>   0.4430 
 23 H       -1.2030    -0.8500    -2.5960 H     1 <1>   0.0700 
 24 H       -1.9730     0.1260    -1.3750 H     1 <1>   0.0700 
 25 H        2.4600     1.5750    -0.8700 H     1 <1>   0.4430 
 26 H       -0.0180    -2.7530    -2.0080 H     1 <1>   0.0700 
 27 H       -1.4710    -3.6500    -1.6530 H     1 <1>   0.0700 
 28 H       -3.2840    -2.5600    -0.9270 H     1 <1>   0.0700 
 29 H       -3.1980    -1.0950     0.0040 H     1 <1>   0.0700 
 30 H        4.5230     1.9350     0.7160 H     1 <1>   0.1410 
 31 H        4.1920     0.1050     2.6970 H     1 <1>   0.1410 
 32 H        0.9730    -1.9120     2.0240 H     1 <1>   0.0700 
 33 H        1.6490    -1.0950     3.4130 H     1 <1>   0.0700 
 34 H        2.6050    -2.2720     2.5400 H     1 <1>   0.0700 
 35 H       -3.6980    -2.9850     1.4640 H     1 <1>   0.0700 
 36 H       -2.1630    -2.2790     1.8970 H     1 <1>   0.0700 
 37 H        1.9540    -3.4550    -0.9280 H     1 <1>   0.1410 
 38 H       -0.6800    -5.2370     2.8270 H     1 <1>   0.1410 
 39 H        3.0820    -4.5990     0.9210 H     1 <1>   0.1410 
 40 H        1.7750    -5.4880     2.8090 H     1 <1>   0.1410 
@<TRIPOS>BOND
  1   1   2  2   
  2   2   3  1   
  3   2   4  1   
  4   3   5  ar  
  5   3  22  1   
  6   4   6  1   
  7   4  23  1   
  8   4  24  1   
  9   5   7  ar  
 10   5   8  ar  
 11   6   9  1   
 12   6  10  1   
 13   7  11  1   
 14   7  25  1   
 15   8  12  1   
 16   8  13  1   
 17   9  14  1   
 18   9  26  1   
 19   9  27  1   
 20  10  15  1   
 21  10  28  1   
 22  10  29  1   
 23  11  12  2   
 24  11  30  1   
 25  12  31  1   
 26  13  32  1   
 27  13  33  1   
 28  13  34  1   
 29  14  16  ar  
 30  14  17  ar  
 31  15  18  1   
 32  15  35  1   
 33  15  36  1   
 34  16  18  1   
 35  16  19  ar  
 36  17  20  ar  
 37  17  37  1   
 38  19  21  ar  
 39  19  38  1   
 40  20  21  ar  
 41  20  39  1   
 42  21  40  1   
@<TRIPOS>SUBSTRUCTURE
  1 ****   3 GROUP 4 **** **** 0

# MOE 2024.06 (io_trps.svl 2023.06)
