@<TRIPOS>MOLECULE
NONAME
51 52 1 0 0 
SMALL
USER_CHARGES


@<TRIPOS>ATOM
  1 S        0.0760    -0.0700     0.7450 S.o2  1 <1>   1.3330 
  2 O       -0.9450    -1.0700     0.9600 O.2   1 <1>  -0.6500 
  3 O        1.0040     0.2470     1.8070 O.2   1 <1>  -0.6500 
  4 N        0.9790    -0.5420    -0.6150 N.am  1 <1>  -0.8490 
  5 C       -0.7000     1.4560     0.2090 C.3   1 <1>  -0.0550 
  6 C        2.1520    -1.3420    -0.2480 C.3   1 <1>   0.1160 
  7 C        0.1840    -1.2600    -1.6180 C.3   1 <1>   0.1160 
  8 C        0.2930     2.5460    -0.2530 C.3   1 <1>  -0.0800 
  9 C       -0.3710     3.7620    -0.9040 C.3   1 <1>   0.2000 
 10 C        1.1560     3.1380     0.8710 C.3   1 <1>   0.1400 
 11 O       -1.4670     4.1420    -0.1450 O.3   1 <1>  -0.6800 
 12 C        0.6880     4.8570    -0.7930 C.3   1 <1>   0.1400 
 13 N        1.3870     4.5530     0.4800 N.am  1 <1>  -0.6600 
 14 C        2.0910     5.4270     1.2590 C.2   1 <1>   0.5690 
 15 O        2.5270     5.0950     2.3350 O.2   1 <1>  -0.5700 
 16 C        2.3220     6.8480     0.7670 C.3   1 <1>  -0.0990 
 17 C        3.3780     7.6180     1.5750 C.3   1 <1>  -0.0170 
 18 C        3.5830     9.0050     0.9860 C.ar  1 <1>  -0.1430 
 19 C        4.5620     9.2240     0.0300 C.ar  1 <1>  -0.1500 
 20 C        2.7880    10.0640     1.3980 C.ar  1 <1>  -0.1500 
 21 C        4.7480    10.4850    -0.5120 C.ar  1 <1>  -0.1500 
 22 C        2.9710    11.3240     0.8590 C.ar  1 <1>  -0.1500 
 23 C        3.9480    11.5460    -0.0970 C.ar  1 <1>   0.0820 
 24 O        4.0620    12.8110    -0.5750 O.3   1 <1>  -0.3630 
 25 C        5.0450    13.1490    -1.5280 C.3   1 <1>   0.0400 
 26 H       -1.3640     1.2360    -0.6030 H     1 <1>   0.0800 
 27 H       -1.2990     1.8390     1.0130 H     1 <1>   0.0800 
 28 H        2.7080    -1.6180    -1.1270 H     1 <1>   0.0800 
 29 H        1.8480    -2.2350     0.2740 H     1 <1>   0.0800 
 30 H        2.8020    -0.7720     0.3950 H     1 <1>   0.0800 
 31 H        0.7820    -1.4560    -2.4920 H     1 <1>   0.0800 
 32 H       -0.6650    -0.6680    -1.9130 H     1 <1>   0.0800 
 33 H       -0.1700    -2.1960    -1.2190 H     1 <1>   0.0800 
 34 H        0.9620     2.1180    -0.9800 H     1 <1>   0.0800 
 35 H       -0.6960     3.5870    -1.9160 H     1 <1>   0.0800 
 36 H        2.0920     2.6140     0.9710 H     1 <1>   0.0800 
 37 H        0.6390     3.1140     1.8160 H     1 <1>   0.0800 
 38 H       -1.1510     4.4510     0.7290 H     1 <1>   0.4000 
 39 H        0.2440     5.8380    -0.7940 H     1 <1>   0.0800 
 40 H        1.3890     4.7730    -1.6060 H     1 <1>   0.0800 
 41 H        2.6390     6.8100    -0.2580 H     1 <1>   0.0800 
 42 H        1.3900     7.3790     0.8140 H     1 <1>   0.0800 
 43 H        4.3080     7.0760     1.5650 H     1 <1>   0.0800 
 44 H        3.0630     7.7020     2.6010 H     1 <1>   0.0800 
 45 H        5.1860     8.4110    -0.2970 H     1 <1>   0.1500 
 46 H        2.0250     9.9110     2.1410 H     1 <1>   0.1500 
 47 H        5.5150    10.6200    -1.2500 H     1 <1>   0.1500 
 48 H        2.3560    12.1470     1.1770 H     1 <1>   0.1500 
 49 H        4.9520    14.1980    -1.7450 H     1 <1>   0.0800 
 50 H        4.8760    12.5740    -2.4210 H     1 <1>   0.0800 
 51 H        6.0170    12.9460    -1.1140 H     1 <1>   0.0800 
@<TRIPOS>BOND
  1   1   2  2   
  2   1   3  2   
  3   1   4  am  
  4   1   5  1   
  5   4   6  1   
  6   4   7  1   
  7   5   8  1   
  8   5  26  1   
  9   5  27  1   
 10   6  28  1   
 11   6  29  1   
 12   6  30  1   
 13   7  31  1   
 14   7  32  1   
 15   7  33  1   
 16   8   9  1   
 17   8  10  1   
 18   8  34  1   
 19   9  11  1   
 20   9  12  1   
 21   9  35  1   
 22  10  13  1   
 23  10  36  1   
 24  10  37  1   
 25  11  38  1   
 26  12  13  1   
 27  12  39  1   
 28  12  40  1   
 29  13  14  am  
 30  14  15  2   
 31  14  16  1   
 32  16  17  1   
 33  16  41  1   
 34  16  42  1   
 35  17  18  1   
 36  17  43  1   
 37  17  44  1   
 38  18  19  ar  
 39  18  20  ar  
 40  19  21  ar  
 41  19  45  1   
 42  20  22  ar  
 43  20  46  1   
 44  21  23  ar  
 45  21  47  1   
 46  22  23  ar  
 47  22  48  1   
 48  23  24  1   
 49  24  25  1   
 50  25  49  1   
 51  25  50  1   
 52  25  51  1   
@<TRIPOS>SUBSTRUCTURE
  1 ****  13 GROUP 4 **** **** 0

# MOE 2024.06 (io_trps.svl 2023.06)
