@<TRIPOS>MOLECULE
NONAME
50 53 1 0 0 
SMALL
USER_CHARGES


@<TRIPOS>ATOM
  1 O       -0.1230     0.8280     0.8420 O.2   1 <1>  -0.5700 
  2 C       -0.1230     2.0330     0.8160 C.2   1 <1>   0.5690 
  3 N       -1.2660     2.7260     1.0070 N.am  1 <1>  -0.7300 
  4 C        1.1730     2.7930     0.5230 C.3   1 <1>   0.1810 
  5 C       -1.3460     4.2080     0.9750 C.3   1 <1>   0.3640 
  6 O        1.1090     4.1560     0.8810 O.3   1 <1>  -0.5600 
  7 C       -2.5470     4.6090     0.1190 C.ar  1 <1>  -0.1440 
  8 C       -0.0440     4.8460     0.4210 C.3   1 <1>   0.2610 
  9 C       -3.3980     5.6130     0.5560 C.ar  1 <1>  -0.1500 
 10 C       -2.8020     3.9960    -1.1020 C.ar  1 <1>  -0.1500 
 11 C        0.0540     6.3470     0.7560 C.2   1 <1>   0.5690 
 12 C       -4.4840     5.9990    -0.2090 C.ar  1 <1>  -0.1500 
 13 C       -3.8890     4.3810    -1.8690 C.ar  1 <1>  -0.1500 
 14 O       -0.6420     6.7860     1.6470 O.2   1 <1>  -0.5700 
 15 N        0.9070     7.1780     0.0570 N.am  1 <1>  -0.6600 
 16 C       -4.7310     5.3840    -1.4230 C.ar  1 <1>  -0.1500 
 17 C        1.0030     8.6290     0.3840 C.3   1 <1>   0.1400 
 18 C        1.8980     6.7170    -0.9580 C.3   1 <1>   0.1400 
 19 C        2.4160     8.9550     0.8760 C.3   1 <1>  -0.1600 
 20 C        3.3120     7.0320    -0.4710 C.3   1 <1>  -0.1600 
 21 C        3.4790     8.5260    -0.1450 C.3   1 <1>   0.1000 
 22 C        4.8830     8.8460     0.3680 C.2   1 <1>   0.0060 
 23 N        5.6660     8.0000     0.9510 N.2   1 <1>  -0.3380 
 24 N        5.4630    10.0490     0.2690 N.pl3 1 <1>   0.0480 
 25 N        6.7950     8.6430     1.2510 N.2   1 <1>  -0.3380 
 26 C        6.6530     9.8530     0.8390 C.2   1 <1>   0.0360 
 27 C        4.9530    11.3030    -0.3190 C.3   1 <1>   0.0160 
 28 H       -2.1310     2.2180     1.1930 H     1 <1>   0.3700 
 29 H        1.3970     2.7290    -0.5260 H     1 <1>   0.0800 
 30 H        1.9790     2.3490     1.0770 H     1 <1>   0.0800 
 31 H       -1.5010     4.5440     1.9860 H     1 <1>   0.0800 
 32 H       -0.0670     4.7540    -0.6480 H     1 <1>   0.0800 
 33 H       -3.2180     6.1090     1.4970 H     1 <1>   0.1500 
 34 H       -2.1610     3.2120    -1.4660 H     1 <1>   0.1500 
 35 H       -5.1370     6.7810     0.1400 H     1 <1>   0.1500 
 36 H       -4.0800     3.9000    -2.8120 H     1 <1>   0.1500 
 37 H       -5.5750     5.6840    -2.0180 H     1 <1>   0.1500 
 38 H        0.7760     9.2010    -0.4990 H     1 <1>   0.0800 
 39 H        0.2890     8.9010     1.1430 H     1 <1>   0.0800 
 40 H        1.8210     5.6610    -1.1360 H     1 <1>   0.0800 
 41 H        1.7080     7.2260    -1.8880 H     1 <1>   0.0800 
 42 H        2.4880    10.0100     1.0660 H     1 <1>   0.0800 
 43 H        2.5860     8.4440     1.8090 H     1 <1>   0.0800 
 44 H        3.5120     6.4410     0.4070 H     1 <1>   0.0800 
 45 H        4.0250     6.7470    -1.2230 H     1 <1>   0.0800 
 46 H        3.3210     9.0750    -1.0570 H     1 <1>   0.0800 
 47 H        7.3960    10.6220     0.9360 H     1 <1>   0.1500 
 48 H        5.7170    12.0580    -0.2770 H     1 <1>   0.0800 
 49 H        4.0960    11.6350     0.2370 H     1 <1>   0.0800 
 50 H        4.6790    11.1310    -1.3430 H     1 <1>   0.0800 
@<TRIPOS>BOND
  1   1   2  2   
  2   2   3  am  
  3   2   4  1   
  4   3   5  1   
  5   3  28  1   
  6   4   6  1   
  7   4  29  1   
  8   4  30  1   
  9   5   7  1   
 10   5   8  1   
 11   5  31  1   
 12   6   8  1   
 13   7   9  ar  
 14   7  10  ar  
 15   8  11  1   
 16   8  32  1   
 17   9  12  ar  
 18   9  33  1   
 19  10  13  ar  
 20  10  34  1   
 21  11  14  2   
 22  11  15  am  
 23  12  16  ar  
 24  12  35  1   
 25  13  16  ar  
 26  13  36  1   
 27  15  17  1   
 28  15  18  1   
 29  16  37  1   
 30  17  19  1   
 31  17  38  1   
 32  17  39  1   
 33  18  20  1   
 34  18  40  1   
 35  18  41  1   
 36  19  21  1   
 37  19  42  1   
 38  19  43  1   
 39  20  21  1   
 40  20  44  1   
 41  20  45  1   
 42  21  22  1   
 43  21  46  1   
 44  22  23  2   
 45  22  24  1   
 46  23  25  1   
 47  24  26  1   
 48  24  27  1   
 49  25  26  2   
 50  26  47  1   
 51  27  48  1   
 52  27  49  1   
 53  27  50  1   
@<TRIPOS>SUBSTRUCTURE
  1 ****  15 GROUP 4 **** **** 0

# MOE 2024.06 (io_trps.svl 2023.06)
