@<TRIPOS>MOLECULE
NONAME
17 16 1 0 0 
SMALL
USER_CHARGES


@<TRIPOS>ATOM
  1 S       -0.1700     0.0930     0.6000 S.o2  1 <1>   1.9550 
  2 O       -0.5780    -0.2450     1.9090 O.2   1 <1>  -0.7240 
  3 N        0.3370     1.6670     0.5890 N.am  1 <1>  -0.9650 
  4 C       -1.4380    -0.0410    -0.6180 C.3   1 <1>  -0.1520 
  5 C        1.2120    -0.8350     0.0170 C.3   1 <1>  -0.2330 
  6 C       -2.7220     0.6540    -0.1870 C.3   1 <1>   0.1200 
  7 O       -3.6100     0.4650    -1.2180 O.3   1 <1>  -0.6800 
  8 H        1.1050     1.7270     1.2580 H     1 <1>   0.3600 
  9 H       -0.4080     2.2150     1.0200 H     1 <1>   0.3600 
 10 H       -1.6560    -1.0790    -0.7830 H     1 <1>   0.0800 
 11 H       -1.0970     0.3900    -1.5400 H     1 <1>   0.0800 
 12 H        2.0410    -0.7210     0.6880 H     1 <1>   0.0800 
 13 H        1.5070    -0.4950    -0.9570 H     1 <1>   0.0800 
 14 H        0.9610    -1.8770    -0.0390 H     1 <1>   0.0800 
 15 H       -2.5870     1.7150    -0.0510 H     1 <1>   0.0800 
 16 H       -3.1400     0.2140     0.7060 H     1 <1>   0.0800 
 17 H       -4.4900     0.8560    -1.0270 H     1 <1>   0.4000 
@<TRIPOS>BOND
  1   1   2  2   
  2   1   3  am  
  3   1   4  1   
  4   1   5  1   
  5   3   8  1   
  6   3   9  1   
  7   4   6  1   
  8   4  10  1   
  9   4  11  1   
 10   5  12  1   
 11   5  13  1   
 12   5  14  1   
 13   6   7  1   
 14   6  15  1   
 15   6  16  1   
 16   7  17  1   
@<TRIPOS>SUBSTRUCTURE
  1 ****   4 GROUP 4 **** **** 0

# MOE 2024.06 (io_trps.svl 2023.06)
