@<TRIPOS>MOLECULE
NONAME
48 50 1 0 0 
SMALL
USER_CHARGES


@<TRIPOS>ATOM
  1 O       -1.7310     0.8650    -1.9530 O.2   1 <1>  -0.5700 
  2 C       -1.8470     1.0800    -0.7720 C.2   1 <1>   0.5690 
  3 N       -2.1600     0.1020     0.1090 N.am  1 <1>  -0.7300 
  4 C       -1.6270     2.4820    -0.2520 C.3   1 <1>  -0.0990 
  5 C       -2.3720    -1.3180    -0.2450 C.3   1 <1>   0.2200 
  6 C       -0.1380     2.7460    -0.0060 C.3   1 <1>  -0.0160 
  7 C       -3.8510    -1.6460    -0.1310 C.3   1 <1>  -0.0800 
  8 C       -1.7740    -2.2060     0.8390 C.3   1 <1>   0.1200 
  9 C        0.0700     4.1580     0.5300 C.ar  1 <1>  -0.1440 
 10 C       -4.0040    -1.9600     1.3630 C.3   1 <1>   0.1200 
 11 C       -4.2340    -2.8420    -1.0220 C.3   1 <1>  -0.0160 
 12 O       -2.7280    -2.2580     1.8570 O.3   1 <1>  -0.5600 
 13 C        0.3010     5.2500    -0.3040 C.ar  1 <1>  -0.1440 
 14 C        0.0190     4.3490     1.9030 C.ar  1 <1>  -0.1500 
 15 C       -5.7190    -3.1560    -0.9260 C.ar  1 <1>  -0.1440 
 16 C        0.4760     6.5080     0.2530 C.ar  1 <1>  -0.1500 
 17 C        0.3720     5.1110    -1.8200 C.3   1 <1>  -0.0970 
 18 C        0.1940     5.6070     2.4500 C.ar  1 <1>  -0.1500 
 19 C       -6.6690    -2.3650    -1.5410 C.ar  1 <1>  -0.1500 
 20 C       -6.1970    -4.2450    -0.2240 C.ar  1 <1>  -0.1500 
 21 C        0.4230     6.6890     1.6230 C.ar  1 <1>  -0.1500 
 22 C       -8.0100    -2.6880    -1.4230 C.ar  1 <1>   0.1600 
 23 C       -7.5610    -4.4790    -0.1670 C.ar  1 <1>   0.1600 
 24 N       -8.4790    -3.7250    -0.7490 N.ar  1 <1>  -0.6200 
 25 H       -2.2630     0.3050     1.1060 H     1 <1>   0.3700 
 26 H       -2.0040     3.1790    -0.9770 H     1 <1>   0.0800 
 27 H       -2.1790     2.6220     0.6580 H     1 <1>   0.0800 
 28 H       -1.9610    -1.5280    -1.2190 H     1 <1>   0.0800 
 29 H        0.4140     2.5980    -0.9170 H     1 <1>   0.0800 
 30 H        0.2390     2.0340     0.7070 H     1 <1>   0.0800 
 31 H       -4.4570    -0.8020    -0.4100 H     1 <1>   0.0800 
 32 H       -0.8480    -1.8210     1.2280 H     1 <1>   0.0800 
 33 H       -1.6290    -3.2080     0.4750 H     1 <1>   0.0800 
 34 H       -4.6540    -2.7940     1.5550 H     1 <1>   0.0800 
 35 H       -4.3650    -1.0980     1.8980 H     1 <1>   0.0800 
 36 H       -3.6630    -3.7120    -0.7470 H     1 <1>   0.0800 
 37 H       -3.9990    -2.6120    -2.0470 H     1 <1>   0.0800 
 38 H       -0.1570     3.5160     2.5600 H     1 <1>   0.1500 
 39 H        0.6560     7.3600    -0.3780 H     1 <1>   0.1500 
 40 H        0.4410     6.0740    -2.2930 H     1 <1>   0.0800 
 41 H       -0.5060     4.6190    -2.1940 H     1 <1>   0.0800 
 42 H        1.2400     4.5390    -2.0940 H     1 <1>   0.0800 
 43 H        0.1530     5.7430     3.5170 H     1 <1>   0.1500 
 44 H       -6.3780    -1.5020    -2.1120 H     1 <1>   0.1500 
 45 H       -5.5230    -4.9130     0.2810 H     1 <1>   0.1500 
 46 H        0.5600     7.6700     2.0430 H     1 <1>   0.1500 
 47 H       -8.7360    -2.0590    -1.9100 H     1 <1>   0.1500 
 48 H       -7.9150    -5.3320     0.3860 H     1 <1>   0.1500 
@<TRIPOS>BOND
  1   1   2  2   
  2   2   3  am  
  3   2   4  1   
  4   3   5  1   
  5   3  25  1   
  6   4   6  1   
  7   4  26  1   
  8   4  27  1   
  9   5   7  1   
 10   5   8  1   
 11   5  28  1   
 12   6   9  1   
 13   6  29  1   
 14   6  30  1   
 15   7  10  1   
 16   7  11  1   
 17   7  31  1   
 18   8  12  1   
 19   8  32  1   
 20   8  33  1   
 21   9  13  ar  
 22   9  14  ar  
 23  10  12  1   
 24  10  34  1   
 25  10  35  1   
 26  11  15  1   
 27  11  36  1   
 28  11  37  1   
 29  13  16  ar  
 30  13  17  1   
 31  14  18  ar  
 32  14  38  1   
 33  15  19  ar  
 34  15  20  ar  
 35  16  21  ar  
 36  16  39  1   
 37  17  40  1   
 38  17  41  1   
 39  17  42  1   
 40  18  21  ar  
 41  18  43  1   
 42  19  22  ar  
 43  19  44  1   
 44  20  23  ar  
 45  20  45  1   
 46  21  46  1   
 47  22  24  ar  
 48  22  47  1   
 49  23  24  ar  
 50  23  48  1   
@<TRIPOS>SUBSTRUCTURE
  1 ****   3 GROUP 4 **** **** 0

# MOE 2024.06 (io_trps.svl 2023.06)
