@<TRIPOS>MOLECULE
NONAME
53 56 1 0 0 
SMALL
USER_CHARGES


@<TRIPOS>ATOM
  1 O       -1.5430     0.0530     2.5120 O.2   1 <1>  -0.5700 
  2 C       -1.7050     0.7450     1.5330 C.2   1 <1>   0.5690 
  3 N       -2.1170     0.2180     0.3360 N.am  1 <1>  -0.6600 
  4 C       -1.4220     2.2490     1.6820 C.3   1 <1>   0.1710 
  5 C       -2.1940    -1.2700     0.1530 C.3   1 <1>   0.3640 
  6 C       -2.4540     1.0680    -0.8510 C.3   1 <1>   0.1400 
  7 N       -0.3730     2.7870     0.7710 N.3   1 <1>  -0.8100 
  8 C       -0.8540    -1.8500    -0.3290 C.ar  1 <1>  -0.1440 
  9 C       -3.3550    -1.7120    -0.7940 C.3   1 <1>   0.2000 
 10 C       -2.9280     0.2400    -2.0530 C.3   1 <1>   0.1200 
 11 C       -0.2560     4.2490     0.9030 C.3   1 <1>   0.2540 
 12 C        0.9310     2.1480     1.0130 C.3   1 <1>   0.1100 
 13 C        0.1250    -1.1050    -0.9790 C.ar  1 <1>  -0.1500 
 14 C       -0.6110    -3.1970    -0.0960 C.ar  1 <1>  -0.1500 
 15 O       -3.8660    -0.6940    -1.6250 O.3   1 <1>  -0.5600 
 16 C       -4.5440    -2.2660     0.0000 C.3   1 <1>   0.1200 
 17 C        0.8840     4.8170     0.0610 C.ar  1 <1>  -0.1440 
 18 C        1.8990     2.5110    -0.1160 C.3   1 <1>  -0.0170 
 19 C        1.3050    -1.6960    -1.3970 C.ar  1 <1>  -0.1500 
 20 C        0.5680    -3.7910    -0.5110 C.ar  1 <1>  -0.1500 
 21 O       -4.2110    -3.4910     0.5730 O.3   1 <1>  -0.6800 
 22 C        1.9110     4.0050    -0.4060 C.ar  1 <1>  -0.1440 
 23 C        0.9030     6.1730    -0.2290 C.ar  1 <1>  -0.1500 
 24 C        1.5270    -3.0400    -1.1650 C.ar  1 <1>  -0.1500 
 25 C        2.9420     4.5540    -1.1520 C.ar  1 <1>  -0.1500 
 26 C        1.9330     6.7180    -0.9750 C.ar  1 <1>  -0.1500 
 27 C        2.9540     5.9080    -1.4360 C.ar  1 <1>  -0.1500 
 28 H       -1.1350     2.4340     2.7020 H     1 <1>   0.0800 
 29 H       -2.3450     2.7710     1.5050 H     1 <1>   0.0800 
 30 H       -2.3780    -1.7150     1.1150 H     1 <1>   0.0800 
 31 H       -3.2340     1.7560    -0.5780 H     1 <1>   0.0800 
 32 H       -1.5940     1.6430    -1.1460 H     1 <1>   0.0800 
 33 H       -3.0000    -2.4860    -1.4500 H     1 <1>   0.0800 
 34 H       -2.1090    -0.2750    -2.5250 H     1 <1>   0.0800 
 35 H       -3.4000     0.8780    -2.7800 H     1 <1>   0.0800 
 36 H       -1.1820     4.7030     0.5920 H     1 <1>   0.0800 
 37 H       -0.0810     4.5070     1.9340 H     1 <1>   0.0800 
 38 H        1.3300     2.4790     1.9580 H     1 <1>   0.0800 
 39 H        0.8280     1.0770     1.0470 H     1 <1>   0.0800 
 40 H       -0.0130    -0.0570    -1.1640 H     1 <1>   0.1500 
 41 H       -1.3440    -3.7950     0.4200 H     1 <1>   0.1500 
 42 H       -5.3930    -2.4190    -0.6440 H     1 <1>   0.0800 
 43 H       -4.8100    -1.5880     0.7920 H     1 <1>   0.0800 
 44 H        2.8860     2.1810     0.1500 H     1 <1>   0.0800 
 45 H        1.6020     1.9880    -1.0060 H     1 <1>   0.0800 
 46 H        2.0510    -1.1070    -1.9000 H     1 <1>   0.1500 
 47 H        0.7390    -4.8360    -0.3220 H     1 <1>   0.1500 
 48 H       -4.2380    -4.2030    -0.0950 H     1 <1>   0.4000 
 49 H        0.1150     6.8130     0.1260 H     1 <1>   0.1500 
 50 H        2.4440    -3.5010    -1.4890 H     1 <1>   0.1500 
 51 H        3.7360     3.9280    -1.5170 H     1 <1>   0.1500 
 52 H        1.9410     7.7710    -1.1960 H     1 <1>   0.1500 
 53 H        3.7570     6.3300    -2.0160 H     1 <1>   0.1500 
@<TRIPOS>BOND
  1   1   2  2   
  2   2   3  am  
  3   2   4  1   
  4   3   5  1   
  5   3   6  1   
  6   4   7  1   
  7   4  28  1   
  8   4  29  1   
  9   5   8  1   
 10   5   9  1   
 11   5  30  1   
 12   6  10  1   
 13   6  31  1   
 14   6  32  1   
 15   7  11  1   
 16   7  12  1   
 17   8  13  ar  
 18   8  14  ar  
 19   9  15  1   
 20   9  16  1   
 21   9  33  1   
 22  10  15  1   
 23  10  34  1   
 24  10  35  1   
 25  11  17  1   
 26  11  36  1   
 27  11  37  1   
 28  12  18  1   
 29  12  38  1   
 30  12  39  1   
 31  13  19  ar  
 32  13  40  1   
 33  14  20  ar  
 34  14  41  1   
 35  16  21  1   
 36  16  42  1   
 37  16  43  1   
 38  17  22  ar  
 39  17  23  ar  
 40  18  22  1   
 41  18  44  1   
 42  18  45  1   
 43  19  24  ar  
 44  19  46  1   
 45  20  24  ar  
 46  20  47  1   
 47  21  48  1   
 48  22  25  ar  
 49  23  26  ar  
 50  23  49  1   
 51  24  50  1   
 52  25  27  ar  
 53  25  51  1   
 54  26  27  ar  
 55  26  52  1   
 56  27  53  1   
@<TRIPOS>SUBSTRUCTURE
  1 ****   3 GROUP 4 **** **** 0

# MOE 2024.06 (io_trps.svl 2023.06)
