@<TRIPOS>MOLECULE
NONAME
56 57 1 0 0 
SMALL
USER_CHARGES


@<TRIPOS>ATOM
  1 S        1.6930    -0.5060    -0.8730 S.o2  1 <1>   1.3330 
  2 O        2.6010    -0.7870     0.2180 O.2   1 <1>  -0.6500 
  3 O        1.9200    -1.1140    -2.1630 O.2   1 <1>  -0.6500 
  4 N        0.1310    -0.9580    -0.3800 N.am  1 <1>  -0.8490 
  5 C        1.5570     1.2760    -1.0860 C.3   1 <1>  -0.0550 
  6 C        0.1390    -2.1620     0.4570 C.3   1 <1>   0.1160 
  7 C       -0.8030    -1.1420    -1.4970 C.3   1 <1>   0.1160 
  8 C        1.6440     2.1550     0.1820 C.3   1 <1>  -0.0800 
  9 C        3.0280     2.1430     0.8380 C.3   1 <1>   0.2200 
 10 C        0.6900     1.8180     1.3330 C.3   1 <1>   0.1200 
 11 N        3.6160     3.4970     0.7540 N.am  1 <1>  -0.7300 
 12 C        2.7240     1.7720     2.2880 C.3   1 <1>   0.1200 
 13 O        1.3970     2.1390     2.4850 O.3   1 <1>  -0.5600 
 14 C        4.2840     3.9850    -0.3230 C.2   1 <1>   0.7150 
 15 O        4.4410     3.2540    -1.2820 O.2   1 <1>  -0.5700 
 16 C        4.7440     5.3420    -0.3030 C.2   1 <1>  -0.2370 
 17 N        5.6180     5.8980    -1.1870 N.pl3 1 <1>   0.3140 
 18 C        4.4290     6.3460     0.5640 C.2   1 <1>  -0.1500 
 19 N        5.8550     7.1910    -0.9110 N.2   1 <1>  -0.7070 
 20 C        6.3160     5.2640    -2.3330 C.3   1 <1>   0.0960 
 21 C        5.1370     7.4510     0.1360 C.2   1 <1>   0.1080 
 22 C        7.5080     4.4190    -1.8640 C.3   1 <1>  -0.2400 
 23 C        5.1060     8.8210     0.7920 C.3   1 <1>   0.0210 
 24 C        3.7400     9.5200     0.6450 C.3   1 <1>  -0.0800 
 25 C        3.3950     9.7840    -0.8270 C.3   1 <1>  -0.2400 
 26 C        3.7300    10.8430     1.4220 C.3   1 <1>  -0.2400 
 27 H        2.3470     1.5910    -1.7420 H     1 <1>   0.0800 
 28 H        0.6360     1.4920    -1.5890 H     1 <1>   0.0800 
 29 H       -0.8630    -2.4170     0.7570 H     1 <1>   0.0800 
 30 H        0.7210    -1.9900     1.3470 H     1 <1>   0.0800 
 31 H        0.5700    -2.9900    -0.0820 H     1 <1>   0.0800 
 32 H       -1.7950    -1.3320    -1.1230 H     1 <1>   0.0800 
 33 H       -0.4970    -1.9720    -2.1130 H     1 <1>   0.0800 
 34 H       -0.8360    -0.2550    -2.1070 H     1 <1>   0.0800 
 35 H        1.4100     3.1600    -0.1240 H     1 <1>   0.0800 
 36 H        3.7060     1.4300     0.4000 H     1 <1>   0.0800 
 37 H        0.4520     0.7730     1.3900 H     1 <1>   0.0800 
 38 H       -0.2160     2.3980     1.3030 H     1 <1>   0.0800 
 39 H        3.3610     4.1340     1.5080 H     1 <1>   0.3700 
 40 H        3.3530     2.2800     2.9970 H     1 <1>   0.0800 
 41 H        2.7960     0.7060     2.4280 H     1 <1>   0.0800 
 42 H        3.7680     6.3200     1.4100 H     1 <1>   0.1500 
 43 H        5.6170     4.6650    -2.8850 H     1 <1>   0.0800 
 44 H        6.6660     6.0470    -2.9810 H     1 <1>   0.0800 
 45 H        7.1740     3.6110    -1.2380 H     1 <1>   0.0800 
 46 H        8.2030     5.0320    -1.3180 H     1 <1>   0.0800 
 47 H        8.0130     4.0010    -2.7160 H     1 <1>   0.0800 
 48 H        5.3400     8.6980     1.8330 H     1 <1>   0.0800 
 49 H        5.8750     9.4320     0.3540 H     1 <1>   0.0800 
 50 H        2.9810     8.8790     1.0620 H     1 <1>   0.0800 
 51 H        4.1430    10.4060    -1.2860 H     1 <1>   0.0800 
 52 H        2.4410    10.2730    -0.9090 H     1 <1>   0.0800 
 53 H        3.3450     8.8580    -1.3740 H     1 <1>   0.0800 
 54 H        4.4740    11.5160     1.0320 H     1 <1>   0.0800 
 55 H        3.9350    10.6690     2.4630 H     1 <1>   0.0800 
 56 H        2.7670    11.3150     1.3420 H     1 <1>   0.0800 
@<TRIPOS>BOND
  1   1   2  2   
  2   1   3  2   
  3   1   4  am  
  4   1   5  1   
  5   4   6  1   
  6   4   7  1   
  7   5   8  1   
  8   5  27  1   
  9   5  28  1   
 10   6  29  1   
 11   6  30  1   
 12   6  31  1   
 13   7  32  1   
 14   7  33  1   
 15   7  34  1   
 16   8   9  1   
 17   8  10  1   
 18   8  35  1   
 19   9  11  1   
 20   9  12  1   
 21   9  36  1   
 22  10  13  1   
 23  10  37  1   
 24  10  38  1   
 25  11  14  am  
 26  11  39  1   
 27  12  13  1   
 28  12  40  1   
 29  12  41  1   
 30  14  15  2   
 31  14  16  1   
 32  16  17  1   
 33  16  18  2   
 34  17  19  1   
 35  17  20  1   
 36  18  21  1   
 37  18  42  1   
 38  19  21  2   
 39  20  22  1   
 40  20  43  1   
 41  20  44  1   
 42  21  23  1   
 43  22  45  1   
 44  22  46  1   
 45  22  47  1   
 46  23  24  1   
 47  23  48  1   
 48  23  49  1   
 49  24  25  1   
 50  24  26  1   
 51  24  50  1   
 52  25  51  1   
 53  25  52  1   
 54  25  53  1   
 55  26  54  1   
 56  26  55  1   
 57  26  56  1   
@<TRIPOS>SUBSTRUCTURE
  1 ****  11 GROUP 4 **** **** 0

# MOE 2024.06 (io_trps.svl 2023.06)
