@<TRIPOS>MOLECULE
NONAME
34 35 1 0 0 
SMALL
USER_CHARGES


@<TRIPOS>ATOM
  1 N       -0.0390     0.0620    -0.7750 N.ar  1 <1>  -0.6200 
  2 C       -1.0610     0.5660    -0.1170 C.ar  1 <1>   0.4100 
  3 C        0.9000     0.9270    -1.1070 C.ar  1 <1>   0.4700 
  4 N       -2.0720    -0.2780     0.2570 N.pl3 1 <1>  -0.8690 
  5 C       -1.1200     1.9100     0.1930 C.ar  1 <1>  -0.1500 
  6 N        0.9450     2.2260    -0.8660 N.ar  1 <1>  -0.6200 
  7 C       -2.1880    -1.6740    -0.2070 C.3   1 <1>   0.2090 
  8 C       -0.0860     2.7180    -0.2030 C.ar  1 <1>   0.1670 
  9 C       -3.5840    -2.1870     0.1280 C.3   1 <1>  -0.1600 
 10 C       -0.0740     4.2160     0.1000 C.3   1 <1>   0.0630 
 11 C       -3.7740    -3.6380    -0.3370 C.3   1 <1>   0.0080 
 12 C       -0.0660     4.4810     1.6120 C.3   1 <1>  -0.2400 
 13 C       -1.2560     4.9320    -0.5670 C.3   1 <1>  -0.2400 
 14 C       -5.1660    -4.1300    -0.0210 C.2   1 <1>   0.5700 
 15 N       -5.4630    -4.7670     1.0530 N.2   1 <1>  -0.6190 
 16 N       -6.1750    -3.9410    -0.7980 N.2   1 <1>  -0.6190 
 17 N       -6.7260    -5.0020     0.9600 N.2   1 <1>  -0.2500 
 18 N       -7.1590    -4.5000    -0.1640 N.2   1 <1>  -0.2500 
 19 H        1.7400     0.5220    -1.6440 H     1 <1>   0.1500 
 20 H       -2.9360     0.1200     0.6280 H     1 <1>   0.4000 
 21 H       -1.9610     2.2940     0.7330 H     1 <1>   0.1500 
 22 H       -1.4380    -2.2720     0.2830 H     1 <1>   0.0800 
 23 H       -2.0220    -1.7130    -1.2710 H     1 <1>   0.0800 
 24 H       -4.3230    -1.5740    -0.3570 H     1 <1>   0.0800 
 25 H       -3.7430    -2.1450     1.1920 H     1 <1>   0.0800 
 26 H        0.8330     4.6300    -0.3090 H     1 <1>   0.0800 
 27 H       -3.0700    -4.2840     0.1530 H     1 <1>   0.0800 
 28 H       -3.6290    -3.7120    -1.3990 H     1 <1>   0.0800 
 29 H       -0.9710     4.1250     2.0710 H     1 <1>   0.0800 
 30 H        0.0270     5.5350     1.8050 H     1 <1>   0.0800 
 31 H        0.7700     3.9760     2.0640 H     1 <1>   0.0800 
 32 H       -2.1920     4.5890    -0.1650 H     1 <1>   0.0800 
 33 H       -1.2460     4.7410    -1.6260 H     1 <1>   0.0800 
 34 H       -1.1830     5.9940    -0.4130 H     1 <1>   0.0800 
@<TRIPOS>BOND
  1   1   2  ar  
  2   1   3  ar  
  3   2   4  1   
  4   2   5  ar  
  5   3   6  ar  
  6   3  19  1   
  7   4   7  1   
  8   4  20  1   
  9   5   8  ar  
 10   5  21  1   
 11   6   8  ar  
 12   7   9  1   
 13   7  22  1   
 14   7  23  1   
 15   8  10  1   
 16   9  11  1   
 17   9  24  1   
 18   9  25  1   
 19  10  12  1   
 20  10  13  1   
 21  10  26  1   
 22  11  14  1   
 23  11  27  1   
 24  11  28  1   
 25  12  29  1   
 26  12  30  1   
 27  12  31  1   
 28  13  32  1   
 29  13  33  1   
 30  13  34  1   
 31  14  15  1   
 32  14  16  2   
 33  15  17  1   
 34  16  18  1   
 35  17  18  2   
@<TRIPOS>SUBSTRUCTURE
  1 ****   4 GROUP 4 **** **** 0

# MOE 2024.06 (io_trps.svl 2023.06)
