@<TRIPOS>MOLECULE
NONAME
48 50 1 0 0 
SMALL
USER_CHARGES


@<TRIPOS>ATOM
  1 S       -0.5700     0.1640    -0.2970 S.3   1 <1>  -0.0800 
  2 C       -0.9440     1.7290    -0.9730 C.2   1 <1>   0.4620 
  3 C       -2.2830    -0.2170    -0.1990 C.2   1 <1>  -0.0450 
  4 N       -2.1960     1.9530    -1.1100 N.2   1 <1>  -0.5650 
  5 N        0.0640     2.5670    -1.2940 N.pl3 1 <1>  -0.8840 
  6 C       -2.6530    -1.5070     0.3290 C.2   1 <1>   0.7150 
  7 C       -2.9250     0.8770    -0.6770 C.2   1 <1>   0.0770 
  8 O       -1.8520    -2.1010     1.0320 O.2   1 <1>  -0.5700 
  9 N       -3.8690    -2.1320     0.0960 N.am  1 <1>  -0.6600 
 10 C       -4.0860    -3.5630     0.5000 C.3   1 <1>   0.1400 
 11 C       -5.0670    -1.5320    -0.5490 C.3   1 <1>   0.1400 
 12 C       -4.9170    -3.6860     1.7880 C.3   1 <1>   0.1400 
 13 C       -5.9460    -0.7920     0.4730 C.3   1 <1>  -0.1600 
 14 N       -6.2200    -2.9470     1.7010 N.am  1 <1>  -0.6600 
 15 C       -6.0770    -1.4720     1.8430 C.3   1 <1>   0.1400 
 16 C       -7.4500    -3.5150     1.4450 C.2   1 <1>   0.5690 
 17 O       -8.4480    -2.8270     1.4380 O.2   1 <1>  -0.5700 
 18 C       -7.6080    -5.0260     1.1940 C.3   1 <1>   0.2610 
 19 O       -6.6920    -5.4900     0.2090 O.3   1 <1>  -0.2170 
 20 C       -8.9660    -5.4970     0.6580 C.3   1 <1>  -0.0990 
 21 N       -7.2630    -6.2810    -0.6760 N.2   1 <1>  -0.5130 
 22 C       -8.5030    -6.3360    -0.4950 C.2   1 <1>   0.3280 
 23 C       -9.4940    -7.1480    -1.3290 C.3   1 <1>  -0.0190 
 24 C      -10.5360    -6.2500    -2.0120 C.3   1 <1>  -0.2400 
 25 C      -10.1890    -8.2330    -0.4940 C.3   1 <1>  -0.2400 
 26 H       -0.1380     3.4870    -1.6860 H     1 <1>   0.4000 
 27 H        1.0460     2.3310    -1.1520 H     1 <1>   0.4000 
 28 H       -3.9910     0.9800    -0.7430 H     1 <1>   0.1500 
 29 H       -3.1420    -4.0570     0.6510 H     1 <1>   0.0800 
 30 H       -4.5820    -4.0900    -0.2960 H     1 <1>   0.0800 
 31 H       -5.6560    -2.3210    -0.9880 H     1 <1>   0.0800 
 32 H       -4.7810    -0.8850    -1.3580 H     1 <1>   0.0800 
 33 H       -4.3390    -3.2960     2.6080 H     1 <1>   0.0800 
 34 H       -5.0880    -4.7260     1.9970 H     1 <1>   0.0800 
 35 H       -6.9300    -0.6840     0.0530 H     1 <1>   0.0800 
 36 H       -5.5690     0.2000     0.6300 H     1 <1>   0.0800 
 37 H       -6.9300    -1.0710     2.3660 H     1 <1>   0.0800 
 38 H       -5.2040    -1.2540     2.4350 H     1 <1>   0.0800 
 39 H       -7.3780    -5.5540     2.1010 H     1 <1>   0.0800 
 40 H       -9.5780    -4.6880     0.3070 H     1 <1>   0.0800 
 41 H       -9.4930    -6.0690     1.3970 H     1 <1>   0.0800 
 42 H       -8.9270    -7.6400    -2.1020 H     1 <1>   0.0800 
 43 H      -11.1630    -5.7650    -1.2850 H     1 <1>   0.0800 
 44 H      -11.1590    -6.8340    -2.6660 H     1 <1>   0.0800 
 45 H      -10.0420    -5.4960    -2.6000 H     1 <1>   0.0800 
 46 H      -10.8140    -7.7960     0.2640 H     1 <1>   0.0800 
 47 H       -9.4530    -8.8590    -0.0190 H     1 <1>   0.0800 
 48 H      -10.8010    -8.8520    -1.1270 H     1 <1>   0.0800 
@<TRIPOS>BOND
  1   1   2  1   
  2   1   3  1   
  3   2   4  2   
  4   2   5  1   
  5   3   6  1   
  6   3   7  2   
  7   4   7  1   
  8   5  26  1   
  9   5  27  1   
 10   6   8  2   
 11   6   9  am  
 12   7  28  1   
 13   9  10  1   
 14   9  11  1   
 15  10  12  1   
 16  10  29  1   
 17  10  30  1   
 18  11  13  1   
 19  11  31  1   
 20  11  32  1   
 21  12  14  1   
 22  12  33  1   
 23  12  34  1   
 24  13  15  1   
 25  13  35  1   
 26  13  36  1   
 27  14  15  1   
 28  14  16  am  
 29  15  37  1   
 30  15  38  1   
 31  16  17  2   
 32  16  18  1   
 33  18  19  1   
 34  18  20  1   
 35  18  39  1   
 36  19  21  1   
 37  20  22  1   
 38  20  40  1   
 39  20  41  1   
 40  21  22  2   
 41  22  23  1   
 42  23  24  1   
 43  23  25  1   
 44  23  42  1   
 45  24  43  1   
 46  24  44  1   
 47  24  45  1   
 48  25  46  1   
 49  25  47  1   
 50  25  48  1   
@<TRIPOS>SUBSTRUCTURE
  1 ****  11 GROUP 4 **** **** 0

# MOE 2024.06 (io_trps.svl 2023.06)
