@<TRIPOS>MOLECULE
NONAME
59 62 1 0 0 
SMALL
USER_CHARGES


@<TRIPOS>ATOM
  1 O       -4.0750     2.3500    -1.0140 O.2   1 <1>  -0.5700 
  2 C       -3.4670     1.4300    -0.5190 C.2   1 <1>   0.5690 
  3 N       -3.6880     0.1370    -0.9310 N.am  1 <1>  -0.6600 
  4 C       -2.4570     1.8000     0.5560 C.3   1 <1>  -0.0990 
  5 C       -3.0540    -1.0750    -0.2880 C.3   1 <1>   0.3640 
  6 C       -4.7380    -0.0920    -1.9710 C.3   1 <1>   0.1400 
  7 C       -1.1920     2.3920    -0.0790 C.3   1 <1>   0.0210 
  8 C       -1.5400    -1.0420    -0.5170 C.ar  1 <1>  -0.1440 
  9 C       -3.5940    -2.4710    -0.7380 C.3   1 <1>   0.2000 
 10 C       -4.7200    -1.5060    -2.5480 C.3   1 <1>   0.1200 
 11 C       -0.0150     2.4880     0.8790 C.2   1 <1>  -0.1810 
 12 C       -0.6780    -1.2350     0.5540 C.ar  1 <1>  -0.1500 
 13 C       -1.0050    -0.8180    -1.7790 C.ar  1 <1>  -0.1500 
 14 O       -4.7680    -2.4170    -1.5020 O.3   1 <1>  -0.5600 
 15 C       -3.9000    -3.3890     0.4550 C.3   1 <1>   0.1200 
 16 C        1.2020     3.1190     0.5340 C.ar  1 <1>   0.0000 
 17 C        0.1240     2.0030     2.1380 C.2   1 <1>  -0.3020 
 18 C        0.6950    -1.1890     0.3870 C.ar  1 <1>   0.0820 
 19 C        0.3660    -0.7560    -1.9580 C.ar  1 <1>  -0.1500 
 20 O       -2.7870    -3.5370     1.2770 O.3   1 <1>  -0.6800 
 21 C        2.0500     2.9710     1.6260 C.ar  1 <1>  -0.1520 
 22 C        1.6590     3.7890    -0.6060 C.ar  1 <1>  -0.1500 
 23 N        1.3740     2.2880     2.6030 N.pl3 1 <1>   0.0330 
 24 O        1.4500    -1.4190     1.4950 O.3   1 <1>  -0.3630 
 25 C        1.2210    -0.9160    -0.8810 C.ar  1 <1>   0.0820 
 26 C        3.3530     3.4750     1.5990 C.ar  1 <1>  -0.1500 
 27 C        2.9410     4.2860    -0.6330 C.ar  1 <1>  -0.1500 
 28 C        2.5150    -2.3400     1.3980 C.3   1 <1>   0.0400 
 29 O        2.5470    -0.7740    -1.1090 O.3   1 <1>  -0.3630 
 30 C        3.7900     4.1280     0.4700 C.ar  1 <1>  -0.1500 
 31 C        3.0940     0.4520    -0.6730 C.3   1 <1>   0.0400 
 32 H       -2.8970     2.5360     1.2030 H     1 <1>   0.0800 
 33 H       -2.2140     0.9550     1.1630 H     1 <1>   0.0800 
 34 H       -3.2330    -0.9940     0.7700 H     1 <1>   0.0800 
 35 H       -5.7040     0.0930    -1.5320 H     1 <1>   0.0800 
 36 H       -4.6060     0.6150    -2.7720 H     1 <1>   0.0800 
 37 H       -1.4200     3.3730    -0.4600 H     1 <1>   0.0800 
 38 H       -0.8880     1.7850    -0.9110 H     1 <1>   0.0800 
 39 H       -2.8560    -2.9550    -1.3520 H     1 <1>   0.0800 
 40 H       -3.8370    -1.6810    -3.1380 H     1 <1>   0.0800 
 41 H       -5.5880    -1.6640    -3.1640 H     1 <1>   0.0800 
 42 H       -1.0620    -1.4240     1.5410 H     1 <1>   0.1500 
 43 H       -1.6530    -0.6730    -2.6250 H     1 <1>   0.1500 
 44 H       -4.1960    -4.3650     0.1120 H     1 <1>   0.0800 
 45 H       -4.6900    -2.9660     1.0510 H     1 <1>   0.0800 
 46 H       -0.5820     1.4570     2.7360 H     1 <1>   0.1500 
 47 H        0.7810    -0.5690    -2.9320 H     1 <1>   0.1500 
 48 H       -2.0780    -4.0380     0.8250 H     1 <1>   0.4000 
 49 H        0.9970     3.9040    -1.4450 H     1 <1>   0.1500 
 50 H        1.7600     2.0180     3.5130 H     1 <1>   0.2700 
 51 H        3.9960     3.3510     2.4520 H     1 <1>   0.1500 
 52 H        3.3040     4.8030    -1.5040 H     1 <1>   0.1500 
 53 H        2.7450    -2.6920     2.3870 H     1 <1>   0.0800 
 54 H        3.3720    -1.8450     0.9800 H     1 <1>   0.0800 
 55 H        2.2140    -3.1630     0.7740 H     1 <1>   0.0800 
 56 H        4.7880     4.5270     0.4240 H     1 <1>   0.1500 
 57 H        4.1510     0.4410    -0.8630 H     1 <1>   0.0800 
 58 H        2.9080     0.5690     0.3800 H     1 <1>   0.0800 
 59 H        2.6280     1.2520    -1.2190 H     1 <1>   0.0800 
@<TRIPOS>BOND
  1   1   2  2   
  2   2   3  am  
  3   2   4  1   
  4   3   5  1   
  5   3   6  1   
  6   4   7  1   
  7   4  32  1   
  8   4  33  1   
  9   5   8  1   
 10   5   9  1   
 11   5  34  1   
 12   6  10  1   
 13   6  35  1   
 14   6  36  1   
 15   7  11  1   
 16   7  37  1   
 17   7  38  1   
 18   8  12  ar  
 19   8  13  ar  
 20   9  14  1   
 21   9  15  1   
 22   9  39  1   
 23  10  14  1   
 24  10  40  1   
 25  10  41  1   
 26  11  16  1   
 27  11  17  2   
 28  12  18  ar  
 29  12  42  1   
 30  13  19  ar  
 31  13  43  1   
 32  15  20  1   
 33  15  44  1   
 34  15  45  1   
 35  16  21  ar  
 36  16  22  ar  
 37  17  23  1   
 38  17  46  1   
 39  18  24  1   
 40  18  25  ar  
 41  19  25  ar  
 42  19  47  1   
 43  20  48  1   
 44  21  23  1   
 45  21  26  ar  
 46  22  27  ar  
 47  22  49  1   
 48  23  50  1   
 49  24  28  1   
 50  25  29  1   
 51  26  30  ar  
 52  26  51  1   
 53  27  30  ar  
 54  27  52  1   
 55  28  53  1   
 56  28  54  1   
 57  28  55  1   
 58  29  31  1   
 59  30  56  1   
 60  31  57  1   
 61  31  58  1   
 62  31  59  1   
@<TRIPOS>SUBSTRUCTURE
  1 ****  12 GROUP 4 **** **** 0

# MOE 2024.06 (io_trps.svl 2023.06)
