@<TRIPOS>MOLECULE
NONAME
53 54 1 0 0 
SMALL
USER_CHARGES


@<TRIPOS>ATOM
  1 S        0.6570     0.6670    -1.2290 S.o2  1 <1>   1.3330 
  2 O        0.1090     1.5170    -2.2620 O.2   1 <1>  -0.6500 
  3 O        0.7720    -0.7560    -1.4600 O.2   1 <1>  -0.6500 
  4 N       -0.2990     0.8900     0.1590 N.am  1 <1>  -0.8490 
  5 C        2.2700     1.2830    -0.7430 C.3   1 <1>  -0.0550 
  6 C       -0.8020     2.2610     0.3000 C.3   1 <1>   0.1160 
  7 C       -1.4190    -0.0550     0.2140 C.3   1 <1>   0.1160 
  8 C        2.9870     0.4160     0.3150 C.3   1 <1>  -0.0800 
  9 C        4.4240     0.8210     0.6060 C.3   1 <1>   0.2200 
 10 C        2.3470     0.4190     1.7100 C.3   1 <1>   0.1200 
 11 N        4.5440     2.2940     0.7260 N.am  1 <1>  -0.7300 
 12 C        4.6110     0.2040     1.9840 C.3   1 <1>   0.1200 
 13 O        3.3960     0.4160     2.6370 O.3   1 <1>  -0.5600 
 14 C        5.0230     3.1320    -0.2400 C.2   1 <1>   0.5440 
 15 O        5.3120     2.6450    -1.3150 O.2   1 <1>  -0.5700 
 16 C        5.1690     4.5590     0.0050 C.ar  1 <1>   0.0860 
 17 C        5.9680     5.3470    -0.8250 C.ar  1 <1>  -0.1500 
 18 C        4.5260     5.2060     1.0630 C.ar  1 <1>  -0.1500 
 19 C        6.1260     6.7030    -0.6090 C.ar  1 <1>  -0.1500 
 20 C        4.6810     6.5630     1.2840 C.ar  1 <1>  -0.1500 
 21 C        5.4840     7.3220     0.4500 C.ar  1 <1>  -0.1440 
 22 C        5.6550     8.8140     0.6900 C.3   1 <1>  -0.0170 
 23 C        4.5850     9.6060    -0.0690 C.3   1 <1>  -0.1600 
 24 C        4.7380    11.1160     0.1540 C.3   1 <1>  -0.1600 
 25 C        3.6640    11.8960    -0.6100 C.3   1 <1>  -0.2400 
 26 H        2.8930     1.3160    -1.6170 H     1 <1>   0.0800 
 27 H        2.1730     2.2890    -0.3870 H     1 <1>   0.0800 
 28 H       -1.3230     2.3690     1.2370 H     1 <1>   0.0800 
 29 H       -1.4780     2.5010    -0.5050 H     1 <1>   0.0800 
 30 H        0.0150     2.9620     0.2840 H     1 <1>   0.0800 
 31 H       -1.9990     0.1040     1.1060 H     1 <1>   0.0800 
 32 H       -1.0480    -1.0660     0.2310 H     1 <1>   0.0800 
 33 H       -2.0530     0.0660    -0.6490 H     1 <1>   0.0800 
 34 H        2.9990    -0.6020    -0.0340 H     1 <1>   0.0800 
 35 H        5.1240     0.4350    -0.1170 H     1 <1>   0.0800 
 36 H        1.7330    -0.4510     1.8690 H     1 <1>   0.0800 
 37 H        1.7670     1.3090     1.8820 H     1 <1>   0.0800 
 38 H        4.3100     2.6480     1.6550 H     1 <1>   0.3700 
 39 H        5.4110     0.6570     2.5430 H     1 <1>   0.0800 
 40 H        4.7670    -0.8580     1.9110 H     1 <1>   0.0800 
 41 H        6.4740     4.8830    -1.6540 H     1 <1>   0.1500 
 42 H        3.8890     4.6500     1.7250 H     1 <1>   0.1500 
 43 H        6.7510     7.2770    -1.2710 H     1 <1>   0.1500 
 44 H        4.1710     7.0310     2.1080 H     1 <1>   0.1500 
 45 H        5.5820     9.0200     1.7430 H     1 <1>   0.0800 
 46 H        6.6340     9.1200     0.3640 H     1 <1>   0.0800 
 47 H        4.6650     9.3880    -1.1210 H     1 <1>   0.0800 
 48 H        3.6110     9.2900     0.2610 H     1 <1>   0.0800 
 49 H        4.6550    11.3390     1.2050 H     1 <1>   0.0800 
 50 H        5.7110    11.4360    -0.1800 H     1 <1>   0.0800 
 51 H        2.6820    11.6100    -0.2760 H     1 <1>   0.0800 
 52 H        3.7410    11.7060    -1.6660 H     1 <1>   0.0800 
 53 H        3.7880    12.9520    -0.4430 H     1 <1>   0.0800 
@<TRIPOS>BOND
  1   1   2  2   
  2   1   3  2   
  3   1   4  am  
  4   1   5  1   
  5   4   6  1   
  6   4   7  1   
  7   5   8  1   
  8   5  26  1   
  9   5  27  1   
 10   6  28  1   
 11   6  29  1   
 12   6  30  1   
 13   7  31  1   
 14   7  32  1   
 15   7  33  1   
 16   8   9  1   
 17   8  10  1   
 18   8  34  1   
 19   9  11  1   
 20   9  12  1   
 21   9  35  1   
 22  10  13  1   
 23  10  36  1   
 24  10  37  1   
 25  11  14  am  
 26  11  38  1   
 27  12  13  1   
 28  12  39  1   
 29  12  40  1   
 30  14  15  2   
 31  14  16  1   
 32  16  17  ar  
 33  16  18  ar  
 34  17  19  ar  
 35  17  41  1   
 36  18  20  ar  
 37  18  42  1   
 38  19  21  ar  
 39  19  43  1   
 40  20  21  ar  
 41  20  44  1   
 42  21  22  1   
 43  22  23  1   
 44  22  45  1   
 45  22  46  1   
 46  23  24  1   
 47  23  47  1   
 48  23  48  1   
 49  24  25  1   
 50  24  49  1   
 51  24  50  1   
 52  25  51  1   
 53  25  52  1   
 54  25  53  1   
@<TRIPOS>SUBSTRUCTURE
  1 ****  14 GROUP 4 **** **** 0

# MOE 2024.06 (io_trps.svl 2023.06)
