@<TRIPOS>MOLECULE
NONAME
48 50 1 0 0 
SMALL
USER_CHARGES


@<TRIPOS>ATOM
  1 CL       0.9430     4.0280     2.9090 Cl    1 <1>  -0.1770 
  2 C        0.4620     3.3930     1.3530 C.ar  1 <1>   0.1770 
  3 C        1.2890     2.5360     0.6340 C.ar  1 <1>  -0.1440 
  4 C       -0.7830     3.7630     0.8780 C.ar  1 <1>  -0.1500 
  5 C        0.8150     2.0310    -0.5720 C.ar  1 <1>  -0.1500 
  6 C        2.6770     2.1450     1.1440 C.3   1 <1>   0.3640 
  7 C       -1.2320     3.2640    -0.3310 C.ar  1 <1>  -0.1500 
  8 C       -0.4320     2.3950    -1.0520 C.ar  1 <1>  -0.1500 
  9 N        2.6650     0.6790     1.3710 N.am  1 <1>  -0.7300 
 10 C        3.8030     2.5540     0.1500 C.3   1 <1>   0.2610 
 11 C        3.6880    -0.1380     1.0400 C.2   1 <1>   0.5690 
 12 O        5.0030     1.8460     0.4290 O.3   1 <1>  -0.5600 
 13 C        4.0560     4.0740     0.1380 C.2   1 <1>   0.5690 
 14 O        3.6350    -1.3170     1.2790 O.2   1 <1>  -0.5700 
 15 C        4.9080     0.4420     0.3190 C.3   1 <1>   0.1810 
 16 O        3.4690     4.7660     0.9390 O.2   1 <1>  -0.5700 
 17 N        4.9210     4.6380    -0.7780 N.am  1 <1>  -0.6600 
 18 C        5.2110     6.1070    -0.7520 C.3   1 <1>   0.1400 
 19 C        5.5590     3.8540    -1.8740 C.3   1 <1>   0.0600 
 20 C        6.5280     6.4700    -0.0150 C.3   1 <1>   0.0000 
 21 C        6.5830     8.0010     0.2890 C.3   1 <1>   0.0000 
 22 C        6.4960     6.2430     1.5290 C.3   1 <1>   0.0000 
 23 C        7.7760     5.9010    -0.7250 C.3   1 <1>   0.1200 
 24 C        5.9580     7.6910     1.6760 C.3   1 <1>   0.0000 
 25 O        8.9630     6.3410    -0.1570 O.3   1 <1>  -0.6800 
 26 H       -1.3930     4.4340     1.4560 H     1 <1>   0.1500 
 27 H        1.4100     1.3430    -1.1480 H     1 <1>   0.1500 
 28 H        2.8820     2.6180     2.0870 H     1 <1>   0.0800 
 29 H       -2.2000     3.5490    -0.7080 H     1 <1>   0.1500 
 30 H       -0.7840     1.9980    -1.9900 H     1 <1>   0.1500 
 31 H        1.8650     0.2900     1.8720 H     1 <1>   0.3700 
 32 H        3.4990     2.2780    -0.8410 H     1 <1>   0.0800 
 33 H        4.8620     0.1850    -0.7230 H     1 <1>   0.0800 
 34 H        5.8020     0.0210     0.7410 H     1 <1>   0.0800 
 35 H        5.2580     6.4740    -1.7620 H     1 <1>   0.0800 
 36 H        4.3870     6.6170    -0.2840 H     1 <1>   0.0800 
 37 H        6.0350     4.5090    -2.5840 H     1 <1>   0.0800 
 38 H        4.8180     3.2750    -2.3960 H     1 <1>   0.0800 
 39 H        6.3000     3.1900    -1.4610 H     1 <1>   0.0800 
 40 H        7.5760     8.4040     0.3850 H     1 <1>   0.0000 
 41 H        5.9510     8.6020    -0.3400 H     1 <1>   0.0000 
 42 H        5.8090     5.4920     1.8690 H     1 <1>   0.0000 
 43 H        7.4700     6.1370     1.9740 H     1 <1>   0.0000 
 44 H        7.7830     6.1930    -1.7610 H     1 <1>   0.0800 
 45 H        7.7790     4.8270    -0.6630 H     1 <1>   0.0800 
 46 H        4.8830     7.7390     1.6730 H     1 <1>   0.0000 
 47 H        6.4070     8.2380     2.4850 H     1 <1>   0.0000 
 48 H        8.9640     7.3140    -0.0700 H     1 <1>   0.4000 
@<TRIPOS>BOND
  1   1   2  1   
  2   2   3  ar  
  3   2   4  ar  
  4   3   5  ar  
  5   3   6  1   
  6   4   7  ar  
  7   4  26  1   
  8   5   8  ar  
  9   5  27  1   
 10   6   9  1   
 11   6  10  1   
 12   6  28  1   
 13   7   8  ar  
 14   7  29  1   
 15   8  30  1   
 16   9  11  am  
 17   9  31  1   
 18  10  12  1   
 19  10  13  1   
 20  10  32  1   
 21  11  14  2   
 22  11  15  1   
 23  12  15  1   
 24  13  16  2   
 25  13  17  am  
 26  15  33  1   
 27  15  34  1   
 28  17  18  1   
 29  17  19  1   
 30  18  20  1   
 31  18  35  1   
 32  18  36  1   
 33  19  37  1   
 34  19  38  1   
 35  19  39  1   
 36  20  21  1   
 37  20  22  1   
 38  20  23  1   
 39  21  24  1   
 40  21  40  1   
 41  21  41  1   
 42  22  24  1   
 43  22  42  1   
 44  22  43  1   
 45  23  25  1   
 46  23  44  1   
 47  23  45  1   
 48  24  46  1   
 49  24  47  1   
 50  25  48  1   
@<TRIPOS>SUBSTRUCTURE
  1 ****  13 GROUP 4 **** **** 0

# MOE 2024.06 (io_trps.svl 2023.06)
