@<TRIPOS>MOLECULE
NONAME
48 49 1 0 0 
SMALL
USER_CHARGES


@<TRIPOS>ATOM
  1 O        1.2020    -0.1230     2.3700 O.2   1 <1>  -0.5700 
  2 C        1.3040    -0.6590     1.2930 C.2   1 <1>   0.5690 
  3 N        1.5950    -0.0130     0.1250 N.am  1 <1>  -0.5470 
  4 C        1.0980    -2.1720     1.1970 C.3   1 <1>   0.1710 
  5 C        1.8460     1.3280    -0.2010 C.ar  1 <1>   0.1170 
  6 N        0.6710    -2.6420    -0.1640 N.3   1 <1>  -0.8100 
  7 C        1.9550     2.3400     0.7480 C.ar  1 <1>  -0.1500 
  8 C        1.9960     1.6640    -1.5420 C.ar  1 <1>  -0.1500 
  9 C        0.9780    -4.0710    -0.4250 C.3   1 <1>   0.1100 
 10 C       -0.7120    -2.2660    -0.5020 C.3   1 <1>   0.1100 
 11 C        2.2030     3.6460     0.3680 C.ar  1 <1>  -0.1500 
 12 C        2.2440     2.9690    -1.9270 C.ar  1 <1>  -0.1500 
 13 C       -0.1900    -5.0780    -0.1880 C.3   1 <1>   0.0000 
 14 C       -1.7470    -3.0700     0.2990 C.3   1 <1>  -0.1600 
 15 C        2.3480     3.9640    -0.9710 C.ar  1 <1>  -0.1500 
 16 C       -1.2210    -4.4300     0.7770 C.3   1 <1>   0.2000 
 17 C       -0.8880    -5.4060    -1.5380 C.3   1 <1>   0.1200 
 18 C        0.3730    -6.4070     0.4000 C.3   1 <1>  -0.1600 
 19 O       -2.3080    -5.2600     1.0070 O.3   1 <1>  -0.6800 
 20 O       -0.0210    -5.9950    -2.4520 O.3   1 <1>  -0.6800 
 21 C        0.9090    -6.3450     1.8450 C.3   1 <1>  -0.1600 
 22 C        1.5740    -7.6680     2.2340 C.3   1 <1>  -0.2400 
 23 H        1.5640    -0.6650    -0.6630 H     1 <1>   0.3700 
 24 H        0.3830    -2.4630     1.9430 H     1 <1>   0.0800 
 25 H        2.0390    -2.6260     1.4530 H     1 <1>   0.0800 
 26 H        1.8490     2.1150     1.7930 H     1 <1>   0.1500 
 27 H        1.9170     0.9000    -2.2930 H     1 <1>   0.1500 
 28 H        1.3100    -4.1460    -1.4440 H     1 <1>   0.0800 
 29 H        1.8300    -4.3520     0.1670 H     1 <1>   0.0800 
 30 H       -0.8660    -1.2120    -0.3360 H     1 <1>   0.0800 
 31 H       -0.8600    -2.4410    -1.5540 H     1 <1>   0.0800 
 32 H        2.2840     4.4150     1.1160 H     1 <1>   0.1500 
 33 H        2.3570     3.2140    -2.9690 H     1 <1>   0.1500 
 34 H       -2.6210    -3.1930    -0.3160 H     1 <1>   0.0800 
 35 H       -2.0380    -2.4970     1.1610 H     1 <1>   0.0800 
 36 H        2.5410     4.9810    -1.2660 H     1 <1>   0.1500 
 37 H       -0.7500    -4.2800     1.7310 H     1 <1>   0.0800 
 38 H       -1.2970    -4.5260    -2.0010 H     1 <1>   0.0800 
 39 H       -1.6890    -6.1070    -1.3790 H     1 <1>   0.0800 
 40 H       -0.4040    -7.1520     0.3740 H     1 <1>   0.0800 
 41 H        1.1610    -6.7620    -0.2420 H     1 <1>   0.0800 
 42 H       -2.8020    -5.4220     0.1830 H     1 <1>   0.4000 
 43 H        0.6590    -5.3620    -2.7520 H     1 <1>   0.4000 
 44 H        1.6260    -5.5520     1.9580 H     1 <1>   0.0800 
 45 H        0.0970    -6.1630     2.5280 H     1 <1>   0.0800 
 46 H        2.4120    -7.8740     1.5900 H     1 <1>   0.0800 
 47 H        0.8700    -8.4780     2.1570 H     1 <1>   0.0800 
 48 H        1.9270    -7.6180     3.2490 H     1 <1>   0.0800 
@<TRIPOS>BOND
  1   1   2  2   
  2   2   3  am  
  3   2   4  1   
  4   3   5  1   
  5   3  23  1   
  6   4   6  1   
  7   4  24  1   
  8   4  25  1   
  9   5   7  ar  
 10   5   8  ar  
 11   6   9  1   
 12   6  10  1   
 13   7  11  ar  
 14   7  26  1   
 15   8  12  ar  
 16   8  27  1   
 17   9  13  1   
 18   9  28  1   
 19   9  29  1   
 20  10  14  1   
 21  10  30  1   
 22  10  31  1   
 23  11  15  ar  
 24  11  32  1   
 25  12  15  ar  
 26  12  33  1   
 27  13  16  1   
 28  13  17  1   
 29  13  18  1   
 30  14  16  1   
 31  14  34  1   
 32  14  35  1   
 33  15  36  1   
 34  16  19  1   
 35  16  37  1   
 36  17  20  1   
 37  17  38  1   
 38  17  39  1   
 39  18  21  1   
 40  18  40  1   
 41  18  41  1   
 42  19  42  1   
 43  20  43  1   
 44  21  22  1   
 45  21  44  1   
 46  21  45  1   
 47  22  46  1   
 48  22  47  1   
 49  22  48  1   
@<TRIPOS>SUBSTRUCTURE
  1 ****   6 GROUP 4 **** **** 0

# MOE 2024.06 (io_trps.svl 2023.06)
