@<TRIPOS>MOLECULE
NONAME
47 49 1 0 0 
SMALL
USER_CHARGES


@<TRIPOS>ATOM
  1 O       -0.4340     2.0400     0.3930 O.2   1 <1>  -0.5700 
  2 C        0.5590     2.7110     0.2670 C.2   1 <1>   0.5690 
  3 N        1.8350     2.2600     0.3130 N.am  1 <1>  -0.6600 
  4 C        0.5150     4.1940     0.0420 C.3   1 <1>  -0.0990 
  5 C        2.8240     3.3410     0.1540 C.3   1 <1>   0.3000 
  6 C        2.1950     0.8290     0.5280 C.3   1 <1>   0.0600 
  7 C        1.9630     4.5260    -0.3480 C.3   1 <1>  -0.1600 
  8 C        3.9130     2.9540    -0.8530 C.3   1 <1>  -0.1600 
  9 C        3.4550     3.6340     1.5220 C.3   1 <1>  -0.1600 
 10 C        4.9680     4.0490    -0.9520 C.3   1 <1>   0.3430 
 11 C        4.5400     4.7020     1.4170 C.3   1 <1>   0.3430 
 12 N        5.5500     4.3150     0.3990 N.4   1 <1>  -0.9590 
 13 C        6.6760     5.3470     0.2930 C.3   1 <1>   0.4610 
 14 C        6.0860     6.7340    -0.0020 C.ar  1 <1>  -0.1440 
 15 C        7.8580     4.9120    -0.6180 C.2   1 <1>   0.9060 
 16 C        5.8390     7.6000     1.0560 C.ar  1 <1>  -0.1500 
 17 C        5.7840     7.1550    -1.2900 C.ar  1 <1>  -0.1500 
 18 O        7.6680     4.7170    -1.8280 O.co2 1 <1>  -0.9000 
 19 O        8.9160     4.6100    -0.0620 O.co2 1 <1>  -0.9000 
 20 C        5.2750     8.8440     0.8330 C.ar  1 <1>  -0.1500 
 21 C        5.2200     8.3980    -1.5120 C.ar  1 <1>  -0.1500 
 22 C        4.9560     9.2470    -0.4510 C.ar  1 <1>  -0.1440 
 23 C        4.3430    10.6140    -0.6990 C.3   1 <1>  -0.0970 
 24 H        0.2320     4.6760     0.9590 H     1 <1>   0.0800 
 25 H       -0.1830     4.4410    -0.7370 H     1 <1>   0.0800 
 26 H        1.3090     0.2570     0.7480 H     1 <1>   0.0800 
 27 H        2.8760     0.7340     1.3550 H     1 <1>   0.0800 
 28 H        2.6470     0.4260    -0.3600 H     1 <1>   0.0800 
 29 H        2.2680     5.4790     0.0440 H     1 <1>   0.0800 
 30 H        2.0140     4.5820    -1.4220 H     1 <1>   0.0800 
 31 H        3.4790     2.7940    -1.8240 H     1 <1>   0.0800 
 32 H        4.4030     2.0450    -0.5560 H     1 <1>   0.0800 
 33 H        3.8940     2.7420     1.9280 H     1 <1>   0.0800 
 34 H        2.6980     3.9710     2.2080 H     1 <1>   0.0800 
 35 H        4.5230     4.9500    -1.3410 H     1 <1>   0.0800 
 36 H        5.7370     3.7330    -1.6370 H     1 <1>   0.0800 
 37 H        5.0170     4.8310     2.3750 H     1 <1>   0.0800 
 38 H        4.0930     5.6420     1.1370 H     1 <1>   0.0800 
 39 H        6.0310     3.4520     0.6830 H     1 <1>   0.4500 
 40 H        7.1310     5.4190     1.2640 H     1 <1>   0.0800 
 41 H        6.0900     7.3180     2.0640 H     1 <1>   0.1500 
 42 H        5.9950     6.5240    -2.1400 H     1 <1>   0.1500 
 43 H        5.0930     9.5030     1.6650 H     1 <1>   0.1500 
 44 H        4.9960     8.7050    -2.5190 H     1 <1>   0.1500 
 45 H        3.7660    10.9300     0.1520 H     1 <1>   0.0800 
 46 H        3.6950    10.5860    -1.5560 H     1 <1>   0.0800 
 47 H        5.1220    11.3330    -0.8760 H     1 <1>   0.0800 
@<TRIPOS>BOND
  1   1   2  2   
  2   2   3  am  
  3   2   4  1   
  4   3   5  1   
  5   3   6  1   
  6   4   7  1   
  7   4  24  1   
  8   4  25  1   
  9   5   7  1   
 10   5   8  1   
 11   5   9  1   
 12   6  26  1   
 13   6  27  1   
 14   6  28  1   
 15   7  29  1   
 16   7  30  1   
 17   8  10  1   
 18   8  31  1   
 19   8  32  1   
 20   9  11  1   
 21   9  33  1   
 22   9  34  1   
 23  10  12  1   
 24  10  35  1   
 25  10  36  1   
 26  11  12  1   
 27  11  37  1   
 28  11  38  1   
 29  12  13  1   
 30  12  39  1   
 31  13  14  1   
 32  13  15  1   
 33  13  40  1   
 34  14  16  ar  
 35  14  17  ar  
 36  15  18  ar  
 37  15  19  ar  
 38  16  20  ar  
 39  16  41  1   
 40  17  21  ar  
 41  17  42  1   
 42  20  22  ar  
 43  20  43  1   
 44  21  22  ar  
 45  21  44  1   
 46  22  23  1   
 47  23  45  1   
 48  23  46  1   
 49  23  47  1   
@<TRIPOS>SUBSTRUCTURE
  1 ****  12 GROUP 4 **** **** 0

# MOE 2024.06 (io_trps.svl 2023.06)
