@<TRIPOS>MOLECULE
NONAME
50 53 1 0 0 
SMALL
USER_CHARGES


@<TRIPOS>ATOM
  1 O        0.0050     1.2220    -1.6030 O.2   1 <1>  -0.5700 
  2 C       -0.9190     0.8950    -0.8790 C.2   1 <1>   0.6900 
  3 N       -2.1210     1.5350    -0.7680 N.am  1 <1>  -0.4770 
  4 N       -0.8470    -0.1120     0.0220 N.am  1 <1>  -0.5470 
  5 C       -2.8370     0.8790     0.2300 C.ar  1 <1>   0.1170 
  6 C       -2.7470     2.3200    -1.8560 C.3   1 <1>   0.1400 
  7 C       -2.0430    -0.1460     0.7170 C.ar  1 <1>   0.1170 
  8 C       -4.1090     1.0900     0.7440 C.ar  1 <1>  -0.1500 
  9 C       -2.8060     3.8060    -1.5040 C.3   1 <1>  -0.0990 
 10 C       -2.4960    -0.9860     1.7220 C.ar  1 <1>  -0.1500 
 11 C       -4.5640     0.2570     1.7520 C.ar  1 <1>  -0.1500 
 12 C       -1.4530     4.4650    -1.6920 C.2   1 <1>   0.5690 
 13 C       -3.7630    -0.7750     2.2380 C.ar  1 <1>  -0.1500 
 14 O       -1.2020     4.8150    -2.8190 O.2   1 <1>  -0.5700 
 15 N       -0.5500     4.6830    -0.6750 N.am  1 <1>  -0.6600 
 16 C       -0.7330     4.2190     0.7550 C.3   1 <1>   0.2200 
 17 C        0.6550     5.5060    -1.0270 C.3   1 <1>   0.1400 
 18 C       -0.7040     5.3910     1.7480 C.3   1 <1>   0.1200 
 19 C        0.2890     3.1330     1.1740 C.3   1 <1>   0.3430 
 20 C        1.7640     5.5840     0.0320 C.3   1 <1>  -0.0800 
 21 O        0.6040     5.6680     2.1510 O.3   1 <1>  -0.5600 
 22 N        1.4860     3.0540     0.2730 N.4   1 <1>  -0.9590 
 23 C        1.3600     6.4150     1.2590 C.3   1 <1>   0.1200 
 24 C        2.3990     4.2320     0.3960 C.3   1 <1>   0.3430 
 25 C        2.2310     1.7800     0.4690 C.3   1 <1>   0.2630 
 26 H       -0.2170    -0.9020    -0.1080 H     1 <1>   0.3700 
 27 H       -2.1910     2.1840    -2.7700 H     1 <1>   0.0800 
 28 H       -3.7440     1.9490    -2.0210 H     1 <1>   0.0800 
 29 H       -4.7300     1.8810     0.3630 H     1 <1>   0.1500 
 30 H       -3.2220     3.9670    -0.5310 H     1 <1>   0.0800 
 31 H       -3.4770     4.2750    -2.2000 H     1 <1>   0.0800 
 32 H       -1.8740    -1.7830     2.0900 H     1 <1>   0.1500 
 33 H       -5.5490     0.4010     2.1660 H     1 <1>   0.1500 
 34 H       -4.1380    -1.4130     3.0210 H     1 <1>   0.1500 
 35 H       -1.7030     3.7750     0.8630 H     1 <1>   0.0800 
 36 H        1.0840     5.1090    -1.9330 H     1 <1>   0.0800 
 37 H        0.3200     6.5040    -1.2580 H     1 <1>   0.0800 
 38 H       -1.2430     5.1140     2.6370 H     1 <1>   0.0800 
 39 H       -1.1630     6.2750     1.3380 H     1 <1>   0.0800 
 40 H       -0.2200     2.1850     1.1650 H     1 <1>   0.0800 
 41 H        0.6040     3.3120     2.1890 H     1 <1>   0.0800 
 42 H        2.5500     6.1570    -0.4270 H     1 <1>   0.0800 
 43 H        1.0850     3.0440    -0.6880 H     1 <1>   0.4500 
 44 H        0.8090     7.2990     0.9810 H     1 <1>   0.0800 
 45 H        2.2420     6.7290     1.7920 H     1 <1>   0.0800 
 46 H        2.7830     4.2870     1.4020 H     1 <1>   0.0800 
 47 H        3.2380     4.0750    -0.2620 H     1 <1>   0.0800 
 48 H        2.6410     1.7330     1.4650 H     1 <1>   0.0800 
 49 H        3.0360     1.7070    -0.2450 H     1 <1>   0.0800 
 50 H        1.5730     0.9400     0.3220 H     1 <1>   0.0800 
@<TRIPOS>BOND
  1   1   2  2   
  2   2   3  am  
  3   2   4  am  
  4   3   5  1   
  5   3   6  1   
  6   4   7  1   
  7   4  26  1   
  8   5   7  ar  
  9   5   8  ar  
 10   6   9  1   
 11   6  27  1   
 12   6  28  1   
 13   7  10  ar  
 14   8  11  ar  
 15   8  29  1   
 16   9  12  1   
 17   9  30  1   
 18   9  31  1   
 19  10  13  ar  
 20  10  32  1   
 21  11  13  ar  
 22  11  33  1   
 23  12  14  2   
 24  12  15  am  
 25  13  34  1   
 26  15  16  1   
 27  15  17  1   
 28  16  18  1   
 29  16  19  1   
 30  16  35  1   
 31  17  20  1   
 32  17  36  1   
 33  17  37  1   
 34  18  21  1   
 35  18  38  1   
 36  18  39  1   
 37  19  22  1   
 38  19  40  1   
 39  19  41  1   
 40  20  23  1   
 41  20  24  1   
 42  20  42  1   
 43  21  23  1   
 44  22  24  1   
 45  22  25  1   
 46  22  43  1   
 47  23  44  1   
 48  23  45  1   
 49  24  46  1   
 50  24  47  1   
 51  25  48  1   
 52  25  49  1   
 53  25  50  1   
@<TRIPOS>SUBSTRUCTURE
  1 ****  16 GROUP 4 **** **** 0

# MOE 2024.06 (io_trps.svl 2023.06)
