@<TRIPOS>MOLECULE
NONAME
53 56 1 0 0 
SMALL
USER_CHARGES


@<TRIPOS>ATOM
  1 O       -0.3700     5.5090     0.8200 O.2   1 <1>  -0.5700 
  2 C       -0.2840     4.4050     0.3120 C.2   1 <1>   0.7160 
  3 N       -1.4100     3.6120     0.2390 N.am  1 <1>  -0.6600 
  4 C        0.9750     3.9530    -0.2330 C.2   1 <1>  -0.0860 
  5 C       -2.6820     3.9870     0.9260 C.3   1 <1>   0.1400 
  6 C       -1.5160     2.4690    -0.7170 C.3   1 <1>   0.1400 
  7 C        1.7190     4.6190    -1.2110 C.2   1 <1>   0.1080 
  8 C        1.7210     2.8380     0.0250 C.2   1 <1>  -0.3320 
  9 C       -3.7530     4.4310    -0.0960 C.3   1 <1>   0.1440 
 10 C       -2.9580     2.2730    -1.2180 C.3   1 <1>  -0.1600 
 11 N        2.7950     3.9860    -1.5440 N.2   1 <1>  -0.7070 
 12 C        1.3350     5.9400    -1.8390 C.3   1 <1>  -0.0590 
 13 N        2.8080     2.8840    -0.7730 N.pl3 1 <1>   0.3140 
 14 C        1.4430     1.7340     1.0350 C.3   1 <1>  -0.0600 
 15 C       -5.1060     4.3030     0.5850 C.ar  1 <1>   0.1670 
 16 C       -3.6690     3.6220    -1.4180 C.3   1 <1>  -0.1600 
 17 C       -3.6750     5.9560    -0.3710 C.3   1 <1>  -0.1600 
 18 C        3.9140     1.9020    -0.8750 C.3   1 <1>   0.2340 
 19 N       -5.7470     3.1790     0.8060 N.ar  1 <1>  -0.6200 
 20 C       -5.5870     5.5190     0.9730 C.ar  1 <1>  -0.1440 
 21 C       -4.6430     6.6380     0.6100 C.3   1 <1>  -0.0170 
 22 C        4.7860     1.9040     0.3750 C.2   1 <1>  -0.2880 
 23 C       -6.9010     3.3320     1.4370 C.ar  1 <1>   0.7200 
 24 C       -6.8030     5.5540     1.6120 C.ar  1 <1>   0.1600 
 25 C        5.0660     0.8370     1.1320 C.2   1 <1>  -0.3000 
 26 N       -7.4790     4.4520     1.8480 N.ar  1 <1>  -0.6200 
 27 N       -7.5850     2.2110     1.6680 N.pl3 1 <1>  -0.9000 
 28 H       -2.5150     4.7620     1.6540 H     1 <1>   0.0800 
 29 H       -3.0380     3.1230     1.4600 H     1 <1>   0.0800 
 30 H       -1.1730     1.5680    -0.2400 H     1 <1>   0.0800 
 31 H       -0.8790     2.6620    -1.5650 H     1 <1>   0.0800 
 32 H       -3.5070     1.6820    -0.5040 H     1 <1>   0.0800 
 33 H       -2.9400     1.7240    -2.1420 H     1 <1>   0.0800 
 34 H        0.3500     5.8750    -2.2590 H     1 <1>   0.0800 
 35 H        2.0330     6.1940    -2.6160 H     1 <1>   0.0800 
 36 H        1.3510     6.7120    -1.0910 H     1 <1>   0.0800 
 37 H        0.5320     1.9310     1.5700 H     1 <1>   0.0800 
 38 H        2.2440     1.6810     1.7520 H     1 <1>   0.0800 
 39 H        1.3540     0.7850     0.5390 H     1 <1>   0.0800 
 40 H       -3.1060     4.1790    -2.1470 H     1 <1>   0.0800 
 41 H       -4.6560     3.4650    -1.8180 H     1 <1>   0.0800 
 42 H       -4.0230     6.1590    -1.3690 H     1 <1>   0.0800 
 43 H       -2.6730     6.3380    -0.2780 H     1 <1>   0.0800 
 44 H        4.5110     2.1620    -1.7300 H     1 <1>   0.0800 
 45 H        3.4910     0.9290    -1.0400 H     1 <1>   0.0800 
 46 H       -5.1550     7.4650     0.1510 H     1 <1>   0.0800 
 47 H       -4.1190     6.9710     1.4890 H     1 <1>   0.0800 
 48 H        5.1670     2.8880     0.5940 H     1 <1>   0.1500 
 49 H       -7.2230     6.4910     1.9340 H     1 <1>   0.1500 
 50 H        5.6870     0.8760     2.0110 H     1 <1>   0.1500 
 51 H        4.7050    -0.1600     0.9430 H     1 <1>   0.1500 
 52 H       -8.5740     2.3450     1.8590 H     1 <1>   0.4000 
 53 H       -7.3320     1.4230     1.0820 H     1 <1>   0.4000 
@<TRIPOS>BOND
  1   1   2  2   
  2   2   3  am  
  3   2   4  1   
  4   3   5  1   
  5   3   6  1   
  6   4   7  1   
  7   4   8  2   
  8   5   9  1   
  9   5  28  1   
 10   5  29  1   
 11   6  10  1   
 12   6  30  1   
 13   6  31  1   
 14   7  11  2   
 15   7  12  1   
 16   8  13  1   
 17   8  14  1   
 18   9  15  1   
 19   9  16  1   
 20   9  17  1   
 21  10  16  1   
 22  10  32  1   
 23  10  33  1   
 24  11  13  1   
 25  12  34  1   
 26  12  35  1   
 27  12  36  1   
 28  13  18  1   
 29  14  37  1   
 30  14  38  1   
 31  14  39  1   
 32  15  19  ar  
 33  15  20  ar  
 34  16  40  1   
 35  16  41  1   
 36  17  21  1   
 37  17  42  1   
 38  17  43  1   
 39  18  22  1   
 40  18  44  1   
 41  18  45  1   
 42  19  23  ar  
 43  20  21  1   
 44  20  24  ar  
 45  21  46  1   
 46  21  47  1   
 47  22  25  2   
 48  22  48  1   
 49  23  26  ar  
 50  23  27  1   
 51  24  26  ar  
 52  24  49  1   
 53  25  50  1   
 54  25  51  1   
 55  27  52  1   
 56  27  53  1   
@<TRIPOS>SUBSTRUCTURE
  1 ****   3 GROUP 4 **** **** 0

# MOE 2024.06 (io_trps.svl 2023.06)
