@<TRIPOS>MOLECULE
NONAME
40 42 1 0 0 
SMALL
USER_CHARGES


@<TRIPOS>ATOM
  1 O        0.8890    -0.7900     2.7440 O.2   1 <1>  -0.5700 
  2 C        1.6290    -1.0350     1.8080 C.2   1 <1>   0.7160 
  3 N        1.2220    -1.8900     0.8350 N.am  1 <1>  -0.4900 
  4 C        2.9270    -0.4940     1.6350 C.2   1 <1>  -0.0860 
  5 C        2.0180    -2.2220    -0.2330 C.2   1 <1>   0.4490 
  6 C        3.6600    -0.8650     0.5500 C.2   1 <1>  -0.0260 
  7 C        3.7500     0.3950     2.3250 C.2   1 <1>   0.1390 
  8 N        3.2040    -1.7500    -0.4080 N.2   1 <1>  -0.5760 
  9 C        1.4070    -3.2050    -1.2330 C.3   1 <1>   0.1710 
 10 N        4.8400    -0.2100     0.6330 N.pl3 1 <1>   0.3140 
 11 N        4.8930     0.5730     1.7360 N.2   1 <1>  -0.7070 
 12 N        0.4380    -4.1480    -0.6080 N.3   1 <1>  -0.8100 
 13 C        5.9590    -0.2840    -0.3130 C.3   1 <1>   0.0160 
 14 C        1.1420    -5.1720     0.1990 C.3   1 <1>   0.1100 
 15 C       -0.4070    -4.7790    -1.6310 C.3   1 <1>   0.1100 
 16 C        0.1380    -6.0910     0.9130 C.3   1 <1>   0.2000 
 17 C       -1.4750    -5.6510    -0.9640 C.3   1 <1>  -0.1600 
 18 O        0.8310    -7.0820     1.5920 O.3   1 <1>  -0.6800 
 19 C       -0.8480    -6.7430    -0.0720 C.3   1 <1>  -0.0800 
 20 C       -1.9060    -7.5600     0.6880 C.3   1 <1>   0.1200 
 21 O       -2.7700    -8.1610    -0.2120 O.3   1 <1>  -0.6800 
 22 H        0.3240    -2.3610     0.9340 H     1 <1>   0.3700 
 23 H        3.4660     0.8790     3.2450 H     1 <1>   0.1500 
 24 H        2.1940    -3.7500    -1.7250 H     1 <1>   0.0800 
 25 H        0.8980    -2.6170    -1.9770 H     1 <1>   0.0800 
 26 H        5.8020    -1.1020    -0.9920 H     1 <1>   0.0800 
 27 H        6.8700    -0.4350     0.2350 H     1 <1>   0.0800 
 28 H        6.0140     0.6390    -0.8600 H     1 <1>   0.0800 
 29 H        1.7760    -5.7600    -0.4430 H     1 <1>   0.0800 
 30 H        1.7530    -4.6920     0.9440 H     1 <1>   0.0800 
 31 H       -0.8940    -4.0170    -2.2170 H     1 <1>   0.0800 
 32 H        0.1990    -5.3790    -2.2920 H     1 <1>   0.0800 
 33 H       -0.3970    -5.5140     1.6480 H     1 <1>   0.0800 
 34 H       -2.1200    -5.0190    -0.3770 H     1 <1>   0.0800 
 35 H       -2.0700    -6.1050    -1.7360 H     1 <1>   0.0800 
 36 H        1.2460    -7.7010     0.9620 H     1 <1>   0.4000 
 37 H       -0.2930    -7.4130    -0.7060 H     1 <1>   0.0800 
 38 H       -2.4820    -6.9350     1.3480 H     1 <1>   0.0800 
 39 H       -1.4410    -8.3420     1.2650 H     1 <1>   0.0800 
 40 H       -3.2940    -7.4870    -0.6850 H     1 <1>   0.4000 
@<TRIPOS>BOND
  1   1   2  2   
  2   2   3  am  
  3   2   4  1   
  4   3   5  1   
  5   3  22  1   
  6   4   6  2   
  7   4   7  1   
  8   5   8  2   
  9   5   9  1   
 10   6   8  1   
 11   6  10  1   
 12   7  11  2   
 13   7  23  1   
 14   9  12  1   
 15   9  24  1   
 16   9  25  1   
 17  10  11  1   
 18  10  13  1   
 19  12  14  1   
 20  12  15  1   
 21  13  26  1   
 22  13  27  1   
 23  13  28  1   
 24  14  16  1   
 25  14  29  1   
 26  14  30  1   
 27  15  17  1   
 28  15  31  1   
 29  15  32  1   
 30  16  18  1   
 31  16  19  1   
 32  16  33  1   
 33  17  19  1   
 34  17  34  1   
 35  17  35  1   
 36  18  36  1   
 37  19  20  1   
 38  19  37  1   
 39  20  21  1   
 40  20  38  1   
 41  20  39  1   
 42  21  40  1   
@<TRIPOS>SUBSTRUCTURE
  1 ****   5 GROUP 4 **** **** 0

# MOE 2024.06 (io_trps.svl 2023.06)
