@<TRIPOS>MOLECULE
NONAME
50 53 1 0 0 
SMALL
USER_CHARGES


@<TRIPOS>ATOM
  1 O        0.4850     0.2600     0.6910 O.2   1 <1>  -0.5700 
  2 C        1.3090    -0.5790     0.3810 C.2   1 <1>   0.5440 
  3 N        2.5570    -0.1730    -0.0440 N.am  1 <1>  -0.6600 
  4 C        0.9490    -1.9790     0.4680 C.ar  1 <1>   0.0860 
  5 C        3.4760    -1.0200    -0.8550 C.3   1 <1>   0.1400 
  6 C        3.0240     1.2300     0.1350 C.3   1 <1>   0.1400 
  7 C       -0.1780    -2.4920    -0.1430 C.ar  1 <1>  -0.1500 
  8 C        1.7020    -2.9030     1.1810 C.ar  1 <1>  -0.1500 
  9 C        4.8620    -1.0480    -0.2010 C.3   1 <1>  -0.1600 
 10 C        4.4110     1.2310     0.7880 C.3   1 <1>  -0.1600 
 11 C       -0.4970    -3.8390    -0.0510 C.ar  1 <1>   0.4100 
 12 C        1.3130    -4.2250     1.2250 C.ar  1 <1>   0.1600 
 13 C        5.4130     0.3710     0.0040 C.3   1 <1>  -0.1600 
 14 N        0.2420    -4.7140     0.6270 N.ar  1 <1>  -0.6200 
 15 N       -1.6440    -4.2900    -0.6810 N.3   1 <1>  -0.5900 
 16 C       -2.9010    -4.3620     0.1480 C.3   1 <1>   0.2450 
 17 C       -1.8350    -5.7450    -1.0320 C.3   1 <1>   0.2450 
 18 C       -2.7080    -5.8910     0.2260 C.3   1 <1>   0.0850 
 19 N       -3.9240    -6.6860    -0.0320 N.pl3 1 <1>   0.4850 
 20 N       -5.1660    -6.1550    -0.0520 N.2   1 <1>  -0.7070 
 21 C       -3.9710    -8.0260    -0.2370 C.2   1 <1>  -0.3320 
 22 C       -5.9580    -7.1540    -0.2790 C.2   1 <1>   0.1080 
 23 C       -5.2700    -8.3530    -0.4040 C.2   1 <1>  -0.1500 
 24 C       -2.7640    -8.9530    -0.2590 C.3   1 <1>  -0.0600 
 25 C       -7.4550    -6.9890    -0.3840 C.3   1 <1>  -0.0590 
 26 H        3.5520    -0.5960    -1.8420 H     1 <1>   0.0800 
 27 H        3.0960    -2.0200    -0.9570 H     1 <1>   0.0800 
 28 H        2.3370     1.7830     0.7540 H     1 <1>   0.0800 
 29 H        3.0670     1.7100    -0.8270 H     1 <1>   0.0800 
 30 H       -0.8250    -1.8400    -0.7000 H     1 <1>   0.1500 
 31 H        2.5850    -2.5770     1.6990 H     1 <1>   0.1500 
 32 H        5.5360    -1.6100    -0.8230 H     1 <1>   0.0800 
 33 H        4.7920    -1.5510     0.7470 H     1 <1>   0.0800 
 34 H        4.3170     0.8560     1.7930 H     1 <1>   0.0800 
 35 H        4.7720     2.2420     0.8500 H     1 <1>   0.0800 
 36 H        1.9140    -4.9220     1.7850 H     1 <1>   0.1500 
 37 H        5.5960     0.8240    -0.9550 H     1 <1>   0.0800 
 38 H        6.3480     0.3260     0.5350 H     1 <1>   0.0800 
 39 H       -3.7450    -4.0280    -0.4300 H     1 <1>   0.0000 
 40 H       -2.7900    -3.8630     1.0950 H     1 <1>   0.0000 
 41 H       -0.9220    -6.3120    -1.0020 H     1 <1>   0.0000 
 42 H       -2.3770    -5.8440    -1.9570 H     1 <1>   0.0000 
 43 H       -2.1690    -6.2210     1.0970 H     1 <1>   0.0000 
 44 H       -5.7060    -9.3180    -0.5890 H     1 <1>   0.1500 
 45 H       -2.2150    -8.8730     0.6630 H     1 <1>   0.0800 
 46 H       -2.1140    -8.7040    -1.0780 H     1 <1>   0.0800 
 47 H       -3.0840    -9.9730    -0.3780 H     1 <1>   0.0800 
 48 H       -7.6850    -6.3100    -1.1840 H     1 <1>   0.0800 
 49 H       -7.8360    -6.5860     0.5360 H     1 <1>   0.0800 
 50 H       -7.9260    -7.9350    -0.5780 H     1 <1>   0.0800 
@<TRIPOS>BOND
  1   1   2  2   
  2   2   3  am  
  3   2   4  1   
  4   3   5  1   
  5   3   6  1   
  6   4   7  ar  
  7   4   8  ar  
  8   5   9  1   
  9   5  26  1   
 10   5  27  1   
 11   6  10  1   
 12   6  28  1   
 13   6  29  1   
 14   7  11  ar  
 15   7  30  1   
 16   8  12  ar  
 17   8  31  1   
 18   9  13  1   
 19   9  32  1   
 20   9  33  1   
 21  10  13  1   
 22  10  34  1   
 23  10  35  1   
 24  11  14  ar  
 25  11  15  1   
 26  12  14  ar  
 27  12  36  1   
 28  13  37  1   
 29  13  38  1   
 30  15  16  1   
 31  15  17  1   
 32  16  18  1   
 33  16  39  1   
 34  16  40  1   
 35  17  18  1   
 36  17  41  1   
 37  17  42  1   
 38  18  19  1   
 39  18  43  1   
 40  19  20  1   
 41  19  21  1   
 42  20  22  2   
 43  21  23  2   
 44  21  24  1   
 45  22  23  1   
 46  22  25  1   
 47  23  44  1   
 48  24  45  1   
 49  24  46  1   
 50  24  47  1   
 51  25  48  1   
 52  25  49  1   
 53  25  50  1   
@<TRIPOS>SUBSTRUCTURE
  1 ****  11 GROUP 4 **** **** 0

# MOE 2024.06 (io_trps.svl 2023.06)
