@<TRIPOS>MOLECULE
NONAME
49 51 1 0 0 
SMALL
USER_CHARGES


@<TRIPOS>ATOM
  1 S       -0.9920     0.5220     1.9130 S.3   1 <1>  -0.0800 
  2 C       -1.8060     0.4840     0.3620 C.2   1 <1>   0.1980 
  3 C       -2.2840    -0.4290     2.5840 C.2   1 <1>  -0.1100 
  4 N       -2.9050    -0.1590     0.3620 N.2   1 <1>  -0.5650 
  5 C       -1.1420     1.2020    -0.7970 C.3   1 <1>   0.0200 
  6 C       -3.1850    -0.6810     1.6220 C.2   1 <1>   0.0460 
  7 C        0.0620     0.4200    -1.3350 C.3   1 <1>  -0.2400 
  8 C       -4.4620    -1.4890     1.7850 C.3   1 <1>   0.3210 
  9 N       -4.4520    -2.5750     0.7910 N.am  1 <1>  -0.7300 
 10 C       -4.9110    -3.8360     1.0000 C.2   1 <1>   0.5690 
 11 O       -5.4430    -4.1310     2.0460 O.2   1 <1>  -0.5700 
 12 C       -4.7540    -4.8810    -0.1100 C.3   1 <1>   0.2610 
 13 O       -3.6870    -5.7630     0.1780 O.3   1 <1>  -0.5600 
 14 C       -6.0820    -5.6450    -0.3320 C.3   1 <1>   0.3640 
 15 C       -3.4120    -6.6810    -0.8510 C.3   1 <1>   0.1810 
 16 N       -5.9000    -6.9190    -1.1050 N.am  1 <1>  -0.6600 
 17 C       -7.0840    -4.7380    -1.0630 C.ar  1 <1>  -0.1430 
 18 C       -4.6520    -7.4320    -1.3440 C.2   1 <1>   0.5690 
 19 C       -7.1450    -7.6550    -1.4710 C.3   1 <1>   0.0600 
 20 C       -8.2500    -4.2600    -0.4620 C.ar  1 <1>  -0.1430 
 21 C       -6.8130    -4.3810    -2.3810 C.ar  1 <1>  -0.1500 
 22 O       -4.4830    -8.4600    -1.9570 O.2   1 <1>  -0.5700 
 23 C       -9.0960    -3.4270    -1.1790 C.ar  1 <1>  -0.1500 
 24 C       -8.6460    -4.6180     0.9650 C.3   1 <1>  -0.0970 
 25 C       -7.6640    -3.5530    -3.0870 C.ar  1 <1>  -0.1500 
 26 C       -8.8080    -3.0710    -2.4830 C.ar  1 <1>  -0.1500 
 27 H       -2.2260    -0.6980     3.6230 H     1 <1>   0.1500 
 28 H       -1.8660     1.3250    -1.5830 H     1 <1>   0.0800 
 29 H       -0.8320     2.1800    -0.4750 H     1 <1>   0.0800 
 30 H       -0.2480    -0.5590    -1.6540 H     1 <1>   0.0800 
 31 H        0.8120     0.3140    -0.5710 H     1 <1>   0.0800 
 32 H        0.4940     0.9370    -2.1730 H     1 <1>   0.0800 
 33 H       -5.3130    -0.8550     1.6080 H     1 <1>   0.0800 
 34 H       -4.5280    -1.8940     2.7810 H     1 <1>   0.0800 
 35 H       -3.9370    -2.3090    -0.0530 H     1 <1>   0.3700 
 36 H       -4.4940    -4.3610    -1.0120 H     1 <1>   0.0800 
 37 H       -6.4640    -5.9190     0.6340 H     1 <1>   0.0800 
 38 H       -2.9670    -6.1490    -1.6720 H     1 <1>   0.0800 
 39 H       -2.6980    -7.3890    -0.4710 H     1 <1>   0.0800 
 40 H       -7.7840    -7.7450    -0.6100 H     1 <1>   0.0800 
 41 H       -6.9130    -8.6430    -1.8310 H     1 <1>   0.0800 
 42 H       -7.6700    -7.1230    -2.2450 H     1 <1>   0.0800 
 43 H       -5.9330    -4.7560    -2.8730 H     1 <1>   0.1500 
 44 H       -9.9940    -3.0460    -0.7250 H     1 <1>   0.1500 
 45 H       -9.6360    -4.2650     1.1900 H     1 <1>   0.0800 
 46 H       -7.9690    -4.1660     1.6650 H     1 <1>   0.0800 
 47 H       -8.6400    -5.6840     1.1020 H     1 <1>   0.0800 
 48 H       -7.4380    -3.2850    -4.1040 H     1 <1>   0.1500 
 49 H       -9.4740    -2.4240    -3.0250 H     1 <1>   0.1500 
@<TRIPOS>BOND
  1   1   2  1   
  2   1   3  1   
  3   2   4  2   
  4   2   5  1   
  5   3   6  2   
  6   3  27  1   
  7   4   6  1   
  8   5   7  1   
  9   5  28  1   
 10   5  29  1   
 11   6   8  1   
 12   7  30  1   
 13   7  31  1   
 14   7  32  1   
 15   8   9  1   
 16   8  33  1   
 17   8  34  1   
 18   9  10  am  
 19   9  35  1   
 20  10  11  2   
 21  10  12  1   
 22  12  13  1   
 23  12  14  1   
 24  12  36  1   
 25  13  15  1   
 26  14  16  1   
 27  14  17  1   
 28  14  37  1   
 29  15  18  1   
 30  15  38  1   
 31  15  39  1   
 32  16  18  am  
 33  16  19  1   
 34  17  20  ar  
 35  17  21  ar  
 36  18  22  2   
 37  19  40  1   
 38  19  41  1   
 39  19  42  1   
 40  20  23  ar  
 41  20  24  1   
 42  21  25  ar  
 43  21  43  1   
 44  23  26  ar  
 45  23  44  1   
 46  24  45  1   
 47  24  46  1   
 48  24  47  1   
 49  25  26  ar  
 50  25  48  1   
 51  26  49  1   
@<TRIPOS>SUBSTRUCTURE
  1 ****  10 GROUP 4 **** **** 0

# MOE 2024.06 (io_trps.svl 2023.06)
