@<TRIPOS>MOLECULE
NONAME
57 61 1 0 0 
SMALL
USER_CHARGES


@<TRIPOS>ATOM
  1 O        0.3950    -1.4450    -0.1260 O.3   1 <1>  -0.0190 
  2 N       -0.8760    -1.2130    -0.2580 N.2   1 <1>  -0.4100 
  3 C        0.5060    -1.9430     1.0830 C.2   1 <1>   0.2980 
  4 C       -1.4340    -1.5680     0.8310 C.2   1 <1>   0.3350 
  5 N       -0.5900    -2.0500     1.7280 N.2   1 <1>  -0.5650 
  6 C        1.8870    -2.3410     1.6000 C.3   1 <1>   0.1000 
  7 C       -2.9340    -1.4720     1.1100 C.3   1 <1>   0.5240 
  8 C        2.8260    -1.1290     1.6600 C.3   1 <1>  -0.2400 
  9 C        2.5030    -3.4520     0.7380 C.3   1 <1>  -0.2400 
 10 N       -3.7360    -1.4680    -0.1630 N.4   1 <1>  -0.9590 
 11 C       -5.1410    -0.9960     0.0690 C.3   1 <1>   0.3430 
 12 C       -3.6950    -2.8060    -0.8250 C.3   1 <1>   0.3430 
 13 C       -5.9460    -0.9050    -1.2390 C.3   1 <1>   0.1430 
 14 C       -4.4340    -2.7450    -2.1650 C.3   1 <1>  -0.1600 
 15 C       -7.3760    -0.5730    -0.8880 C.ar  1 <1>   0.1670 
 16 C       -5.8810    -2.2430    -2.0060 C.3   1 <1>  -0.1600 
 17 C       -5.5340     0.2990    -2.1310 C.3   1 <1>  -0.1600 
 18 N       -8.0610    -1.1680     0.0540 N.ar  1 <1>  -0.6200 
 19 C       -7.8670     0.4370    -1.6540 C.ar  1 <1>  -0.1440 
 20 C       -6.8420     0.9370    -2.6410 C.3   1 <1>  -0.0170 
 21 C       -9.3170    -0.7240     0.2210 C.ar  1 <1>   0.6200 
 22 C       -9.1570     0.8370    -1.4200 C.ar  1 <1>   0.1600 
 23 N       -9.8820     0.2640    -0.4860 N.ar  1 <1>  -0.6200 
 24 C      -10.1190    -1.3590     1.2550 C.ar  1 <1>   0.0000 
 25 C      -11.0770    -0.6440     1.9800 C.ar  1 <1>  -0.1500 
 26 C       -9.9680    -2.7130     1.5720 C.ar  1 <1>  -0.1500 
 27 C      -11.8370    -1.2420     2.9680 C.ar  1 <1>  -0.1500 
 28 C      -10.7250    -3.3170     2.5590 C.ar  1 <1>  -0.1500 
 29 C      -11.6620    -2.5820     3.2610 C.ar  1 <1>  -0.1500 
 30 H        1.7660    -2.7210     2.6000 H     1 <1>   0.0800 
 31 H       -3.1110    -0.5630     1.6590 H     1 <1>   0.0800 
 32 H       -3.2280    -2.3020     1.7290 H     1 <1>   0.0800 
 33 H        2.9910    -0.7250     0.6760 H     1 <1>   0.0800 
 34 H        3.7760    -1.4120     2.0780 H     1 <1>   0.0800 
 35 H        2.3980    -0.3600     2.2790 H     1 <1>   0.0800 
 36 H        2.6580    -3.1090    -0.2700 H     1 <1>   0.0800 
 37 H        1.8510    -4.3060     0.7150 H     1 <1>   0.0800 
 38 H        3.4500    -3.7580     1.1460 H     1 <1>   0.0800 
 39 H       -3.2520    -0.8110    -0.7940 H     1 <1>   0.4500 
 40 H       -5.1390    -0.0300     0.5460 H     1 <1>   0.0800 
 41 H       -5.6460    -1.6860     0.7270 H     1 <1>   0.0800 
 42 H       -4.1640    -3.5420    -0.1920 H     1 <1>   0.0800 
 43 H       -2.6720    -3.1060    -0.9950 H     1 <1>   0.0800 
 44 H       -4.4510    -3.7320    -2.5950 H     1 <1>   0.0800 
 45 H       -3.8870    -2.1160    -2.8440 H     1 <1>   0.0800 
 46 H       -6.3450    -2.1390    -2.9730 H     1 <1>   0.0800 
 47 H       -6.4450    -2.9830    -1.4630 H     1 <1>   0.0800 
 48 H       -4.8960     0.0200    -2.9510 H     1 <1>   0.0800 
 49 H       -5.0190     1.0330    -1.5350 H     1 <1>   0.0800 
 50 H       -7.0850     0.5770    -3.6260 H     1 <1>   0.0800 
 51 H       -6.7850     2.0120    -2.6500 H     1 <1>   0.0800 
 52 H       -9.6000     1.6310    -1.9980 H     1 <1>   0.1500 
 53 H      -11.2290     0.3990     1.7630 H     1 <1>   0.1500 
 54 H       -9.2480    -3.3020     1.0330 H     1 <1>   0.1500 
 55 H      -12.5670    -0.6650     3.5090 H     1 <1>   0.1500 
 56 H      -10.5880    -4.3610     2.7810 H     1 <1>   0.1500 
 57 H      -12.2530    -3.0490     4.0300 H     1 <1>   0.1500 
@<TRIPOS>BOND
  1   1   2  1   
  2   1   3  1   
  3   2   4  2   
  4   3   5  2   
  5   3   6  1   
  6   4   5  1   
  7   4   7  1   
  8   6   8  1   
  9   6   9  1   
 10   6  30  1   
 11   7  10  1   
 12   7  31  1   
 13   7  32  1   
 14   8  33  1   
 15   8  34  1   
 16   8  35  1   
 17   9  36  1   
 18   9  37  1   
 19   9  38  1   
 20  10  11  1   
 21  10  12  1   
 22  10  39  1   
 23  11  13  1   
 24  11  40  1   
 25  11  41  1   
 26  12  14  1   
 27  12  42  1   
 28  12  43  1   
 29  13  15  1   
 30  13  16  1   
 31  13  17  1   
 32  14  16  1   
 33  14  44  1   
 34  14  45  1   
 35  15  18  ar  
 36  15  19  ar  
 37  16  46  1   
 38  16  47  1   
 39  17  20  1   
 40  17  48  1   
 41  17  49  1   
 42  18  21  ar  
 43  19  20  1   
 44  19  22  ar  
 45  20  50  1   
 46  20  51  1   
 47  21  23  ar  
 48  21  24  1   
 49  22  23  ar  
 50  22  52  1   
 51  24  25  ar  
 52  24  26  ar  
 53  25  27  ar  
 54  25  53  1   
 55  26  28  ar  
 56  26  54  1   
 57  27  29  ar  
 58  27  55  1   
 59  28  29  ar  
 60  28  56  1   
 61  29  57  1   
@<TRIPOS>SUBSTRUCTURE
  1 ****  11 GROUP 4 **** **** 0

# MOE 2024.06 (io_trps.svl 2023.06)
