@<TRIPOS>MOLECULE
NONAME
46 48 1 0 0 
SMALL
USER_CHARGES


@<TRIPOS>ATOM
  1 O       -0.2670     0.0700     1.0060 O.2   1 <1>  -0.5700 
  2 C       -1.2550     0.7390     0.7640 C.2   1 <1>   0.5440 
  3 N       -2.4290     0.0890     0.4640 N.am  1 <1>  -0.6600 
  4 C       -1.1930     2.1870     0.7850 C.ar  1 <1>   0.0860 
  5 C       -3.6210     0.7310    -0.1430 C.3   1 <1>   0.1400 
  6 C       -2.5290    -1.3870     0.3970 C.3   1 <1>   0.1400 
  7 C       -0.4490     2.9260    -0.1450 C.ar  1 <1>  -0.1440 
  8 C       -1.9090     2.8900     1.7540 C.ar  1 <1>  -0.1500 
  9 C       -4.3940    -0.4190    -0.7870 C.3   1 <1>   0.2000 
 10 C       -3.9690    -1.6760    -0.0290 C.3   1 <1>  -0.0800 
 11 C       -0.4400     4.3110    -0.0970 C.ar  1 <1>  -0.1500 
 12 C        0.3610     2.2140    -1.2210 C.3   1 <1>  -0.0960 
 13 C       -1.9000     4.2700     1.7990 C.ar  1 <1>  -0.1500 
 14 O       -5.7640    -0.2370    -0.6810 O.3   1 <1>  -0.6800 
 15 C       -4.1210    -2.9570    -0.8620 C.3   1 <1>  -0.0170 
 16 C       -1.1680     4.9930     0.8740 C.ar  1 <1>   0.0820 
 17 C       -3.6910    -4.1800    -0.0670 C.ar  1 <1>  -0.1440 
 18 O       -1.2090     6.3400     0.9800 O.3   1 <1>  -0.3630 
 19 C       -2.4210    -4.7120    -0.1650 C.ar  1 <1>  -0.1500 
 20 C       -4.5550    -4.8200     0.7980 C.ar  1 <1>  -0.1500 
 21 C       -0.4730     7.1780     0.1160 C.3   1 <1>   0.0400 
 22 C       -2.0840    -5.8230     0.5910 C.ar  1 <1>   0.1600 
 23 C       -4.1180    -5.9270     1.5070 C.ar  1 <1>   0.1600 
 24 N       -2.9020    -6.4430     1.4250 N.ar  1 <1>  -0.6200 
 25 H       -4.2010     1.2000     0.6330 H     1 <1>   0.0800 
 26 H       -3.3280     1.4580    -0.8800 H     1 <1>   0.0800 
 27 H       -1.8270    -1.7470    -0.3360 H     1 <1>   0.0800 
 28 H       -2.3010    -1.8280     1.3530 H     1 <1>   0.0800 
 29 H       -2.4760     2.3380     2.4820 H     1 <1>   0.1500 
 30 H       -4.1400    -0.4860    -1.8320 H     1 <1>   0.0800 
 31 H       -4.5530    -1.7640     0.8710 H     1 <1>   0.0800 
 32 H        0.1380     4.8540    -0.8200 H     1 <1>   0.1500 
 33 H        0.8080     2.9150    -1.9030 H     1 <1>   0.0800 
 34 H       -0.2700     1.5490    -1.7830 H     1 <1>   0.0800 
 35 H        1.1470     1.6380    -0.7640 H     1 <1>   0.0800 
 36 H       -2.4570     4.7980     2.5520 H     1 <1>   0.1500 
 37 H       -6.0300    -0.1910     0.2570 H     1 <1>   0.4000 
 38 H       -3.5340    -2.8840    -1.7610 H     1 <1>   0.0800 
 39 H       -5.1500    -3.0690    -1.1580 H     1 <1>   0.0800 
 40 H       -1.6880    -4.2740    -0.8180 H     1 <1>   0.1500 
 41 H       -5.5620    -4.4700     0.9290 H     1 <1>   0.1500 
 42 H       -0.6560     8.1970     0.4040 H     1 <1>   0.0800 
 43 H       -0.8070     7.0170    -0.8940 H     1 <1>   0.0800 
 44 H        0.5730     6.9510     0.2190 H     1 <1>   0.0800 
 45 H       -1.0880    -6.2220     0.5040 H     1 <1>   0.1500 
 46 H       -4.8050    -6.4140     2.1780 H     1 <1>   0.1500 
@<TRIPOS>BOND
  1   1   2  2   
  2   2   3  am  
  3   2   4  1   
  4   3   5  1   
  5   3   6  1   
  6   4   7  ar  
  7   4   8  ar  
  8   5   9  1   
  9   5  25  1   
 10   5  26  1   
 11   6  10  1   
 12   6  27  1   
 13   6  28  1   
 14   7  11  ar  
 15   7  12  1   
 16   8  13  ar  
 17   8  29  1   
 18   9  10  1   
 19   9  14  1   
 20   9  30  1   
 21  10  15  1   
 22  10  31  1   
 23  11  16  ar  
 24  11  32  1   
 25  12  33  1   
 26  12  34  1   
 27  12  35  1   
 28  13  16  ar  
 29  13  36  1   
 30  14  37  1   
 31  15  17  1   
 32  15  38  1   
 33  15  39  1   
 34  16  18  1   
 35  17  19  ar  
 36  17  20  ar  
 37  18  21  1   
 38  19  22  ar  
 39  19  40  1   
 40  20  23  ar  
 41  20  41  1   
 42  21  42  1   
 43  21  43  1   
 44  21  44  1   
 45  22  24  ar  
 46  22  45  1   
 47  23  24  ar  
 48  23  46  1   
@<TRIPOS>SUBSTRUCTURE
  1 ****   3 GROUP 4 **** **** 0

# MOE 2024.06 (io_trps.svl 2023.06)
