@<TRIPOS>MOLECULE
NONAME
50 53 1 0 0 
SMALL
USER_CHARGES


@<TRIPOS>ATOM
  1 S       -0.7700    -0.5830    -1.8610 S.3   1 <1>  -0.0800 
  2 C       -0.6780    -2.3310    -1.7390 C.2   1 <1>  -0.1100 
  3 C       -1.3060    -0.4560    -0.1960 C.2   1 <1>  -0.1100 
  4 C       -1.0380    -2.7470    -0.5110 C.2   1 <1>  -0.1810 
  5 C       -1.3940    -1.6730     0.3700 C.2   1 <1>  -0.1500 
  6 C       -1.0820    -4.1940    -0.0490 C.3   1 <1>   0.0210 
  7 C       -2.5330    -4.6540     0.1540 C.3   1 <1>  -0.0990 
  8 C       -2.6540    -6.0930     0.6280 C.2   1 <1>   0.5690 
  9 O       -1.6800    -6.8090     0.5920 O.2   1 <1>  -0.5700 
 10 N       -3.8590    -6.5520     1.0820 N.am  1 <1>  -0.6600 
 11 C       -5.1460    -5.8200     1.0560 C.3   1 <1>   0.1400 
 12 C       -4.0810    -7.9520     1.4890 C.3   1 <1>   0.1400 
 13 C       -6.2310    -6.9050     0.9830 C.3   1 <1>  -0.0800 
 14 C       -5.5060    -8.2710     1.0340 C.3   1 <1>  -0.0800 
 15 C       -7.2300    -6.7240    -0.1890 C.3   1 <1>   0.4240 
 16 C       -5.5120    -9.0180    -0.3120 C.3   1 <1>  -0.1600 
 17 O       -6.5300    -6.4030    -1.3400 O.3   1 <1>  -0.6800 
 18 C       -8.2390    -5.5990     0.1270 C.ar  1 <1>  -0.1430 
 19 C       -7.9150    -8.0670    -0.4920 C.3   1 <1>  -0.1600 
 20 C       -6.9340    -9.1960    -0.8830 C.3   1 <1>  -0.1600 
 21 C       -8.2140    -4.3730    -0.5340 C.ar  1 <1>  -0.1500 
 22 C       -9.2050    -5.7860     1.1110 C.ar  1 <1>  -0.1500 
 23 C       -9.1220    -3.3750    -0.2250 C.ar  1 <1>  -0.1500 
 24 C      -10.1150    -4.7910     1.4220 C.ar  1 <1>  -0.1500 
 25 C      -10.0750    -3.5820     0.7530 C.ar  1 <1>  -0.1500 
 26 H       -0.3600    -2.8690    -2.6150 H     1 <1>   0.1500 
 27 H       -1.5000     0.5300     0.1880 H     1 <1>   0.1500 
 28 H       -1.6960    -1.8640     1.3850 H     1 <1>   0.1500 
 29 H       -0.6090    -4.8190    -0.7870 H     1 <1>   0.0800 
 30 H       -0.5310    -4.2950     0.8700 H     1 <1>   0.0800 
 31 H       -3.0620    -4.5580    -0.7760 H     1 <1>   0.0800 
 32 H       -3.0020    -4.0150     0.8780 H     1 <1>   0.0800 
 33 H       -5.2530    -5.2520     1.9650 H     1 <1>   0.0800 
 34 H       -5.1850    -5.1430     0.2210 H     1 <1>   0.0800 
 35 H       -3.3550    -8.6120     1.0450 H     1 <1>   0.0800 
 36 H       -4.0070    -8.0160     2.5610 H     1 <1>   0.0800 
 37 H       -6.7950    -6.8300     1.8940 H     1 <1>   0.0800 
 38 H       -5.9750    -8.9070     1.7650 H     1 <1>   0.0800 
 39 H       -4.9050    -8.4740    -1.0160 H     1 <1>   0.0800 
 40 H       -5.0550    -9.9850    -0.1930 H     1 <1>   0.0800 
 41 H       -5.9400    -7.1520    -1.5390 H     1 <1>   0.4000 
 42 H       -8.4450    -8.3830     0.3870 H     1 <1>   0.0800 
 43 H       -8.6500    -7.9280    -1.2660 H     1 <1>   0.0800 
 44 H       -7.3400   -10.1330    -0.5390 H     1 <1>   0.0800 
 45 H       -6.8680    -9.2570    -1.9560 H     1 <1>   0.0800 
 46 H       -7.4870    -4.1770    -1.3020 H     1 <1>   0.1500 
 47 H       -9.2630    -6.7120     1.6540 H     1 <1>   0.1500 
 48 H       -9.0860    -2.4360    -0.7510 H     1 <1>   0.1500 
 49 H      -10.8570    -4.9560     2.1840 H     1 <1>   0.1500 
 50 H      -10.7830    -2.8070     0.9920 H     1 <1>   0.1500 
@<TRIPOS>BOND
  1   1   2  1   
  2   1   3  1   
  3   2   4  2   
  4   2  26  1   
  5   3   5  2   
  6   3  27  1   
  7   4   5  1   
  8   4   6  1   
  9   5  28  1   
 10   6   7  1   
 11   6  29  1   
 12   6  30  1   
 13   7   8  1   
 14   7  31  1   
 15   7  32  1   
 16   8   9  2   
 17   8  10  am  
 18  10  11  1   
 19  10  12  1   
 20  11  13  1   
 21  11  33  1   
 22  11  34  1   
 23  12  14  1   
 24  12  35  1   
 25  12  36  1   
 26  13  14  1   
 27  13  15  1   
 28  13  37  1   
 29  14  16  1   
 30  14  38  1   
 31  15  17  1   
 32  15  18  1   
 33  15  19  1   
 34  16  20  1   
 35  16  39  1   
 36  16  40  1   
 37  17  41  1   
 38  18  21  ar  
 39  18  22  ar  
 40  19  20  1   
 41  19  42  1   
 42  19  43  1   
 43  20  44  1   
 44  20  45  1   
 45  21  23  ar  
 46  21  46  1   
 47  22  24  ar  
 48  22  47  1   
 49  23  25  ar  
 50  23  48  1   
 51  24  25  ar  
 52  24  49  1   
 53  25  50  1   
@<TRIPOS>SUBSTRUCTURE
  1 ****  11 GROUP 4 **** **** 0

# MOE 2024.06 (io_trps.svl 2023.06)
