@<TRIPOS>MOLECULE
NONAME
44 46 1 0 0 
SMALL
USER_CHARGES


@<TRIPOS>ATOM
  1 N        0.2040    -0.3010     0.3440 N.ar  1 <1>  -0.1790 
  2 C        1.2510     0.5550     0.0430 C.ar  1 <1>   0.3610 
  3 C        0.2630    -1.6320     0.2930 C.ar  1 <1>   0.4610 
  4 C        2.4780    -0.0150    -0.3470 C.ar  1 <1>   0.0000 
  5 C        1.0890     1.9520     0.1220 C.ar  1 <1>  -0.1440 
  6 N       -0.8290    -2.3500     0.6050 N.pl3 1 <1>  -0.8690 
  7 C        1.5000    -2.2060    -0.0910 C.ar  1 <1>  -0.1500 
  8 C        2.5800    -1.4400    -0.4050 C.ar  1 <1>  -0.1430 
  9 C        3.5300     0.8570    -0.6540 C.ar  1 <1>  -0.1500 
 10 C        2.1540     2.7790    -0.1900 C.ar  1 <1>  -0.1430 
 11 C       -0.2670     2.5280     0.5540 C.3   1 <1>  -0.0970 
 12 C       -0.9810    -3.8260     0.5660 C.3   1 <1>   0.2090 
 13 C        3.8930    -2.0990    -0.8130 C.3   1 <1>  -0.0970 
 14 C        3.3690     2.2160    -0.5770 C.ar  1 <1>  -0.1500 
 15 C        2.0820     4.3020    -0.1370 C.3   1 <1>  -0.0970 
 16 C       -2.4510    -4.1500     0.3190 C.3   1 <1>  -0.1600 
 17 C       -2.7010    -5.6670     0.3000 C.3   1 <1>   0.0960 
 18 N       -4.1380    -5.9490     0.1260 N.pl3 1 <1>   0.3140 
 19 N       -5.0380    -5.6990     1.0810 N.2   1 <1>  -0.4180 
 20 C       -4.7550    -6.4440    -0.9480 C.2   1 <1>  -0.3020 
 21 N       -6.2030    -6.0250     0.6390 N.2   1 <1>  -0.2270 
 22 C       -6.0510    -6.4850    -0.6060 C.2   1 <1>   0.0770 
 23 H       -0.6710     0.1300     0.6160 H     1 <1>   0.4570 
 24 H       -1.6970    -1.9100     0.9310 H     1 <1>   0.4000 
 25 H        1.5700    -3.2760    -0.1250 H     1 <1>   0.1500 
 26 H        4.4860     0.4670    -0.9570 H     1 <1>   0.1500 
 27 H       -0.5240     2.1840     1.5410 H     1 <1>   0.0800 
 28 H       -1.0360     2.2370    -0.1400 H     1 <1>   0.0800 
 29 H       -0.2700     3.6010     0.5900 H     1 <1>   0.0800 
 30 H       -0.6640    -4.2430     1.5100 H     1 <1>   0.0800 
 31 H       -0.3800    -4.2480    -0.2220 H     1 <1>   0.0800 
 32 H        4.1700    -1.7940    -1.8070 H     1 <1>   0.0800 
 33 H        3.8120    -3.1710    -0.8040 H     1 <1>   0.0800 
 34 H        4.6780    -1.8200    -0.1320 H     1 <1>   0.0800 
 35 H        4.2010     2.8570    -0.8210 H     1 <1>   0.1500 
 36 H        1.3250     4.6630    -0.8100 H     1 <1>   0.0800 
 37 H        3.0170     4.7490    -0.4240 H     1 <1>   0.0800 
 38 H        1.8530     4.6300     0.8620 H     1 <1>   0.0800 
 39 H       -2.7560    -3.7340    -0.6260 H     1 <1>   0.0800 
 40 H       -3.0450    -3.7150     1.1050 H     1 <1>   0.0800 
 41 H       -2.3900    -6.1090     1.2300 H     1 <1>   0.0800 
 42 H       -2.1590    -6.1320    -0.5030 H     1 <1>   0.0800 
 43 H       -4.2600    -6.7280    -1.8570 H     1 <1>   0.1500 
 44 H       -6.8910    -6.8220    -1.1880 H     1 <1>   0.1500 
@<TRIPOS>BOND
  1   1   2  ar  
  2   1   3  ar  
  3   1  23  1   
  4   2   4  ar  
  5   2   5  ar  
  6   3   6  1   
  7   3   7  ar  
  8   4   8  ar  
  9   4   9  ar  
 10   5  10  ar  
 11   5  11  1   
 12   6  12  1   
 13   6  24  1   
 14   7   8  ar  
 15   7  25  1   
 16   8  13  1   
 17   9  14  ar  
 18   9  26  1   
 19  10  14  ar  
 20  10  15  1   
 21  11  27  1   
 22  11  28  1   
 23  11  29  1   
 24  12  16  1   
 25  12  30  1   
 26  12  31  1   
 27  13  32  1   
 28  13  33  1   
 29  13  34  1   
 30  14  35  1   
 31  15  36  1   
 32  15  37  1   
 33  15  38  1   
 34  16  17  1   
 35  16  39  1   
 36  16  40  1   
 37  17  18  1   
 38  17  41  1   
 39  17  42  1   
 40  18  19  1   
 41  18  20  1   
 42  19  21  2   
 43  20  22  2   
 44  20  43  1   
 45  21  22  1   
 46  22  44  1   
@<TRIPOS>SUBSTRUCTURE
  1 ****   3 GROUP 4 **** **** 0

# MOE 2024.06 (io_trps.svl 2023.06)
