@<TRIPOS>MOLECULE
NONAME
46 49 1 0 0 
SMALL
USER_CHARGES


@<TRIPOS>ATOM
  1 S        0.3170    -0.2340     2.1240 S.3   1 <1>  -0.0800 
  2 C        1.3070    -0.9680     0.8520 C.2   1 <1>  -0.0450 
  3 C        0.9690     1.3610     1.8260 C.2   1 <1>  -0.1100 
  4 C        2.0670     0.0110     0.2900 C.2   1 <1>  -0.1810 
  5 C        1.2100    -2.3900     0.6180 C.2   1 <1>   0.7150 
  6 C        1.8720     1.3130     0.8320 C.2   1 <1>  -0.1810 
  7 C        3.0960    -0.1310    -0.8210 C.3   1 <1>   0.0210 
  8 O        2.2140    -3.0350     0.3680 O.2   1 <1>  -0.5700 
  9 N        0.0060    -3.0620     0.6340 N.am  1 <1>  -0.6600 
 10 C        2.6830     2.4600     0.2580 C.3   1 <1>   0.0210 
 11 C        4.3840     0.6170    -0.4350 C.3   1 <1>  -0.1600 
 12 C       -1.3120    -2.4260     0.3860 C.3   1 <1>   0.1400 
 13 C       -0.0770    -4.5280     0.4230 C.3   1 <1>   0.1400 
 14 C        4.1600     2.0470     0.1190 C.3   1 <1>  -0.1600 
 15 C       -2.1680    -3.5280    -0.2360 C.3   1 <1>   0.2000 
 16 C       -1.5670    -4.8380     0.2690 C.3   1 <1>  -0.0800 
 17 O       -3.4940    -3.4290     0.1530 O.3   1 <1>  -0.6800 
 18 C       -1.8570    -6.0270    -0.6600 C.3   1 <1>  -0.0170 
 19 C       -1.2300    -7.3050    -0.1240 C.ar  1 <1>  -0.1430 
 20 C       -1.8570    -8.0690     0.8390 C.ar  1 <1>  -0.1500 
 21 C       -0.0060    -7.7650    -0.5670 C.ar  1 <1>  -0.1500 
 22 C       -1.2460    -9.2220     1.3030 C.ar  1 <1>   0.1600 
 23 C        0.5180    -8.9320    -0.0350 C.ar  1 <1>   0.1600 
 24 N       -0.0720    -9.6710     0.8900 N.ar  1 <1>  -0.6200 
 25 H        0.6070     2.1710     2.4330 H     1 <1>   0.1500 
 26 H        3.3190    -1.1650    -1.0110 H     1 <1>   0.0800 
 27 H        2.6920     0.2920    -1.7240 H     1 <1>   0.0800 
 28 H        2.2890     2.7050    -0.7120 H     1 <1>   0.0800 
 29 H        2.5980     3.3310     0.8840 H     1 <1>   0.0800 
 30 H        4.8810     0.0380     0.3230 H     1 <1>   0.0800 
 31 H        5.0390     0.6550    -1.2880 H     1 <1>   0.0800 
 32 H       -1.7300    -2.1060     1.3240 H     1 <1>   0.0800 
 33 H       -1.2150    -1.5890    -0.2850 H     1 <1>   0.0800 
 34 H        0.4630    -4.7830    -0.4740 H     1 <1>   0.0800 
 35 H        0.3530    -5.0570     1.2570 H     1 <1>   0.0800 
 36 H        4.6640     2.7610    -0.5080 H     1 <1>   0.0800 
 37 H        4.6140     2.1010     1.0930 H     1 <1>   0.0800 
 38 H       -2.1220    -3.4630    -1.3100 H     1 <1>   0.0800 
 39 H       -1.9490    -5.0510     1.2520 H     1 <1>   0.0800 
 40 H       -3.5700    -3.4850     1.1250 H     1 <1>   0.4000 
 41 H       -1.4780    -5.8240    -1.6470 H     1 <1>   0.0800 
 42 H       -2.9220    -6.1610    -0.7450 H     1 <1>   0.0800 
 43 H       -2.8140    -7.7800     1.2320 H     1 <1>   0.1500 
 44 H        0.5470    -7.2310    -1.3170 H     1 <1>   0.1500 
 45 H       -1.7500    -9.8060     2.0540 H     1 <1>   0.1500 
 46 H        1.4750    -9.2750    -0.3910 H     1 <1>   0.1500 
@<TRIPOS>BOND
  1   1   2  1   
  2   1   3  1   
  3   2   4  2   
  4   2   5  1   
  5   3   6  2   
  6   3  25  1   
  7   4   6  1   
  8   4   7  1   
  9   5   8  2   
 10   5   9  am  
 11   6  10  1   
 12   7  11  1   
 13   7  26  1   
 14   7  27  1   
 15   9  12  1   
 16   9  13  1   
 17  10  14  1   
 18  10  28  1   
 19  10  29  1   
 20  11  14  1   
 21  11  30  1   
 22  11  31  1   
 23  12  15  1   
 24  12  32  1   
 25  12  33  1   
 26  13  16  1   
 27  13  34  1   
 28  13  35  1   
 29  14  36  1   
 30  14  37  1   
 31  15  16  1   
 32  15  17  1   
 33  15  38  1   
 34  16  18  1   
 35  16  39  1   
 36  17  40  1   
 37  18  19  1   
 38  18  41  1   
 39  18  42  1   
 40  19  20  ar  
 41  19  21  ar  
 42  20  22  ar  
 43  20  43  1   
 44  21  23  ar  
 45  21  44  1   
 46  22  24  ar  
 47  22  45  1   
 48  23  24  ar  
 49  23  46  1   
@<TRIPOS>SUBSTRUCTURE
  1 ****   9 GROUP 4 **** **** 0

# MOE 2024.06 (io_trps.svl 2023.06)
