@<TRIPOS>MOLECULE
NONAME
48 50 1 0 0 
SMALL
USER_CHARGES


@<TRIPOS>ATOM
  1 S        0.2100     0.6670     0.8310 S.3   1 <1>  -0.3320 
  2 C        1.7240     1.4870     0.3050 C.ar  1 <1>   0.1020 
  3 C        0.4040    -1.1360     0.4720 C.3   1 <1>  -0.0100 
  4 C        1.7930     2.8460     0.4820 C.ar  1 <1>  -0.1500 
  5 C        2.7840     0.7800    -0.2590 C.ar  1 <1>  -0.1500 
  6 C        2.9360     3.5670     0.1000 C.ar  1 <1>   0.0000 
  7 C        3.9140     1.4640    -0.6410 C.ar  1 <1>  -0.1500 
  8 C        4.0070     2.8520    -0.4700 C.ar  1 <1>   0.3610 
  9 C        3.0810     4.9790     0.2520 C.ar  1 <1>  -0.1440 
 10 N        5.1460     3.5410    -0.8540 N.ar  1 <1>  -0.1790 
 11 C        4.2310     5.5840    -0.1540 C.ar  1 <1>  -0.1500 
 12 C        1.9600     5.8090     0.8670 C.3   1 <1>  -0.0970 
 13 C        5.3070     4.8600    -0.7250 C.ar  1 <1>   0.4610 
 14 N        6.4600     5.4240    -1.1280 N.pl3 1 <1>  -0.8690 
 15 C        6.7760     6.8880    -1.1150 C.3   1 <1>   0.2090 
 16 C        7.3500     7.3150     0.2440 C.3   1 <1>   0.1400 
 17 N        7.4010     8.8060     0.3410 N.am  1 <1>  -0.4690 
 18 C        6.2130     9.4670     0.6470 C.2   1 <1>   0.8410 
 19 C        8.5580     9.5310     0.1480 C.2   1 <1>  -0.0290 
 20 O        5.1780     8.8330     0.7800 O.2   1 <1>  -0.5700 
 21 N        6.1660    10.8250     0.7780 N.2   1 <1>  -0.6610 
 22 C        8.4820    10.8770     0.2810 C.2   1 <1>  -0.1360 
 23 C        9.8700     8.8440    -0.2000 C.3   1 <1>  -0.1020 
 24 C        7.2490    11.4840     0.6040 C.2   1 <1>   0.3750 
 25 C        7.2100    12.9900     0.7490 C.3   1 <1>  -0.1790 
 26 H       -0.5000    -1.6260     0.7860 H     1 <1>   0.0800 
 27 H        1.2470    -1.5000     1.0320 H     1 <1>   0.0800 
 28 H        0.5500    -1.2530    -0.5860 H     1 <1>   0.0800 
 29 H        0.9500     3.3500     0.9210 H     1 <1>   0.1500 
 30 H        2.7210    -0.2840    -0.3950 H     1 <1>   0.1500 
 31 H        4.7320     0.9170    -1.0770 H     1 <1>   0.1500 
 32 H        5.9040     3.0090    -1.2670 H     1 <1>   0.4570 
 33 H        4.3390     6.6460    -0.0380 H     1 <1>   0.1500 
 34 H        1.7510     5.4710     1.8670 H     1 <1>   0.0800 
 35 H        1.0660     5.7260     0.2760 H     1 <1>   0.0800 
 36 H        2.2310     6.8500     0.9190 H     1 <1>   0.0800 
 37 H        7.2390     4.8800    -1.5170 H     1 <1>   0.4000 
 38 H        5.8830     7.4520    -1.3290 H     1 <1>   0.0800 
 39 H        7.4910     7.1070    -1.8900 H     1 <1>   0.0800 
 40 H        8.3260     6.8900     0.3810 H     1 <1>   0.0800 
 41 H        6.7210     6.9410     1.0330 H     1 <1>   0.0800 
 42 H        9.3380    11.5130     0.1490 H     1 <1>   0.1500 
 43 H        9.7630     8.2620    -1.0980 H     1 <1>   0.0800 
 44 H       10.1810     8.2040     0.6070 H     1 <1>   0.0800 
 45 H       10.6460     9.5700    -0.3640 H     1 <1>   0.0800 
 46 H        7.8760    13.2990     1.5330 H     1 <1>   0.0800 
 47 H        6.2150    13.3140     0.9950 H     1 <1>   0.0800 
 48 H        7.5050    13.4540    -0.1740 H     1 <1>   0.0800 
@<TRIPOS>BOND
  1   1   2  1   
  2   1   3  1   
  3   2   4  ar  
  4   2   5  ar  
  5   3  26  1   
  6   3  27  1   
  7   3  28  1   
  8   4   6  ar  
  9   4  29  1   
 10   5   7  ar  
 11   5  30  1   
 12   6   8  ar  
 13   6   9  ar  
 14   7   8  ar  
 15   7  31  1   
 16   8  10  ar  
 17   9  11  ar  
 18   9  12  1   
 19  10  13  ar  
 20  10  32  1   
 21  11  13  ar  
 22  11  33  1   
 23  12  34  1   
 24  12  35  1   
 25  12  36  1   
 26  13  14  1   
 27  14  15  1   
 28  14  37  1   
 29  15  16  1   
 30  15  38  1   
 31  15  39  1   
 32  16  17  1   
 33  16  40  1   
 34  16  41  1   
 35  17  18  am  
 36  17  19  1   
 37  18  20  2   
 38  18  21  1   
 39  19  22  2   
 40  19  23  1   
 41  21  24  2   
 42  22  24  1   
 43  22  42  1   
 44  23  43  1   
 45  23  44  1   
 46  23  45  1   
 47  24  25  1   
 48  25  46  1   
 49  25  47  1   
 50  25  48  1   
@<TRIPOS>SUBSTRUCTURE
  1 ****  11 GROUP 4 **** **** 0

# MOE 2024.06 (io_trps.svl 2023.06)
