@<TRIPOS>MOLECULE
NONAME
50 53 1 0 0 
SMALL
USER_CHARGES


@<TRIPOS>ATOM
  1 O       -1.5250     0.5070     2.5640 O.2   1 <1>  -0.5700 
  2 C       -1.7220     1.0170     1.4780 C.2   1 <1>   0.5440 
  3 N       -2.1650     0.2240     0.4470 N.am  1 <1>  -0.6600 
  4 C       -1.5190     2.4320     1.2900 C.ar  1 <1>   0.0860 
  5 C       -2.7460     0.7240    -0.8260 C.3   1 <1>   0.1400 
  6 C       -2.4240    -1.2290     0.5990 C.3   1 <1>   0.1400 
  7 C       -0.5150     2.9390     0.4510 C.ar  1 <1>   0.0000 
  8 C       -2.3160     3.3830     1.8920 C.ar  1 <1>  -0.1500 
  9 C       -3.7580    -0.3490    -1.2200 C.3   1 <1>   0.2000 
 10 C       -3.1300    -1.6480    -0.6980 C.3   1 <1>  -0.0800 
 11 C       -0.4510     4.3000     0.2400 C.ar  1 <1>   0.1050 
 12 C        0.5510     2.4260    -0.3130 C.2   1 <1>   0.1080 
 13 C       -2.1470     4.7460     1.6240 C.ar  1 <1>   0.1660 
 14 O       -4.9380    -0.0980    -0.5360 O.3   1 <1>  -0.6800 
 15 C       -4.1170    -2.8180    -0.5220 C.3   1 <1>   0.0200 
 16 N       -1.2470     5.2260     0.8040 N.ar  1 <1>  -0.5670 
 17 N        0.5770     4.4980    -0.6320 N.pl3 1 <1>   0.3140 
 18 N        1.1860     3.3390    -0.9680 N.2   1 <1>  -0.7070 
 19 C        0.9720     0.9730    -0.3730 C.3   1 <1>  -0.0590 
 20 C       -3.0480     5.7570     2.3020 C.3   1 <1>  -0.0970 
 21 C       -3.4380    -4.1240    -0.1470 C.2   1 <1>  -0.0400 
 22 C        1.0290     5.7970    -1.1450 C.3   1 <1>   0.0160 
 23 O       -4.1860    -5.1510     0.1570 O.3   1 <1>  -0.0190 
 24 C       -2.1550    -4.5120    -0.0490 C.2   1 <1>  -0.1500 
 25 N       -3.4770    -6.2010     0.4560 N.2   1 <1>  -0.4100 
 26 C       -2.2490    -5.8450     0.3410 C.2   1 <1>   0.1080 
 27 C       -1.0720    -6.7600     0.5980 C.3   1 <1>  -0.0590 
 28 H       -3.2130     1.6880    -0.7140 H     1 <1>   0.0800 
 29 H       -1.9690     0.7870    -1.5680 H     1 <1>   0.0800 
 30 H       -1.5000    -1.7620     0.7440 H     1 <1>   0.0800 
 31 H       -3.0600    -1.3870     1.4550 H     1 <1>   0.0800 
 32 H       -3.0840     3.0660     2.5730 H     1 <1>   0.1500 
 33 H       -3.9700    -0.3670    -2.2760 H     1 <1>   0.0800 
 34 H       -2.3730    -1.9440    -1.4020 H     1 <1>   0.0800 
 35 H       -4.7300     0.0470     0.4090 H     1 <1>   0.4000 
 36 H       -4.6580    -2.9680    -1.4390 H     1 <1>   0.0800 
 37 H       -4.8370    -2.5800     0.2420 H     1 <1>   0.0800 
 38 H        0.9310     0.5340     0.6070 H     1 <1>   0.0800 
 39 H        1.9810     0.9030    -0.7370 H     1 <1>   0.0800 
 40 H        0.3280     0.4280    -1.0360 H     1 <1>   0.0800 
 41 H       -3.7450     5.2790     2.9640 H     1 <1>   0.0800 
 42 H       -3.5950     6.3060     1.5570 H     1 <1>   0.0800 
 43 H       -2.4490     6.4470     2.8680 H     1 <1>   0.0800 
 44 H        0.1980     6.3030    -1.5980 H     1 <1>   0.0800 
 45 H        1.8030     5.6410    -1.8720 H     1 <1>   0.0800 
 46 H        1.4080     6.3820    -0.3280 H     1 <1>   0.0800 
 47 H       -1.2450    -3.9700    -0.2200 H     1 <1>   0.1500 
 48 H       -0.4860    -6.8610    -0.2960 H     1 <1>   0.0800 
 49 H       -1.4220    -7.7320     0.8970 H     1 <1>   0.0800 
 50 H       -0.4590    -6.3560     1.3820 H     1 <1>   0.0800 
@<TRIPOS>BOND
  1   1   2  2   
  2   2   3  am  
  3   2   4  1   
  4   3   5  1   
  5   3   6  1   
  6   4   7  ar  
  7   4   8  ar  
  8   5   9  1   
  9   5  28  1   
 10   5  29  1   
 11   6  10  1   
 12   6  30  1   
 13   6  31  1   
 14   7  11  ar  
 15   7  12  1   
 16   8  13  ar  
 17   8  32  1   
 18   9  10  1   
 19   9  14  1   
 20   9  33  1   
 21  10  15  1   
 22  10  34  1   
 23  11  16  ar  
 24  11  17  1   
 25  12  18  2   
 26  12  19  1   
 27  13  16  ar  
 28  13  20  1   
 29  14  35  1   
 30  15  21  1   
 31  15  36  1   
 32  15  37  1   
 33  17  18  1   
 34  17  22  1   
 35  19  38  1   
 36  19  39  1   
 37  19  40  1   
 38  20  41  1   
 39  20  42  1   
 40  20  43  1   
 41  21  23  1   
 42  21  24  2   
 43  22  44  1   
 44  22  45  1   
 45  22  46  1   
 46  23  25  1   
 47  24  26  1   
 48  24  47  1   
 49  25  26  2   
 50  26  27  1   
 51  27  48  1   
 52  27  49  1   
 53  27  50  1   
@<TRIPOS>SUBSTRUCTURE
  1 ****   3 GROUP 4 **** **** 0

# MOE 2024.06 (io_trps.svl 2023.06)
