@<TRIPOS>MOLECULE
NONAME
56 58 1 0 0 
SMALL
USER_CHARGES


@<TRIPOS>ATOM
  1 O       -0.4780     0.0320    -1.0900 O.2   1 <1>  -0.5700 
  2 C       -1.2850     0.7240    -0.5230 C.2   1 <1>   0.5690 
  3 N       -1.0470     2.0240    -0.2440 N.am  1 <1>  -0.7300 
  4 C       -2.6090     0.1210    -0.1180 C.3   1 <1>  -0.0990 
  5 C        0.1870     2.7360    -0.6160 C.3   1 <1>   0.2840 
  6 C       -2.5090    -1.4050    -0.1410 C.3   1 <1>   0.3430 
  7 C       -0.0090     4.2020    -0.2780 C.ar  1 <1>  -0.1440 
  8 N       -3.8040    -2.0320     0.2530 N.4   1 <1>  -0.9590 
  9 C       -0.6070     5.0550    -1.1930 C.ar  1 <1>  -0.1500 
 10 C        0.3990     4.7010     0.9500 C.ar  1 <1>  -0.1500 
 11 C       -4.9200    -1.8730    -0.7150 C.3   1 <1>   0.3430 
 12 C       -3.7080    -3.5040     0.4750 C.3   1 <1>   0.3430 
 13 C       -0.7950     6.3900    -0.8830 C.ar  1 <1>  -0.1500 
 14 C        0.2130     6.0370     1.2630 C.ar  1 <1>  -0.1500 
 15 C       -5.9580    -2.8740    -0.2130 C.3   1 <1>   0.2000 
 16 C       -5.1170    -4.0750     0.2280 C.3   1 <1>  -0.0800 
 17 C       -0.3880     6.8910     0.3420 C.ar  1 <1>   0.0830 
 18 O       -6.5510    -2.3250     0.9180 O.3   1 <1>  -0.6800 
 19 C       -5.0940    -5.1810    -0.8440 C.3   1 <1>   0.0210 
 20 O       -0.6090     8.2110     0.5670 O.3   1 <1>  -0.3630 
 21 C       -4.2720    -6.3720    -0.3910 C.2   1 <1>   0.1080 
 22 C       -0.2140     8.8270     1.7720 C.3   1 <1>   0.0400 
 23 N       -2.9960    -6.3030    -0.1670 N.2   1 <1>  -0.7070 
 24 C       -4.7770    -7.6490    -0.1730 C.2   1 <1>  -0.1500 
 25 N       -2.6470    -7.5560     0.1950 N.pl3 1 <1>   0.3000 
 26 C       -3.7110    -8.3850     0.2030 C.2   1 <1>  -0.3320 
 27 C       -3.6420    -9.8560     0.5700 C.3   1 <1>  -0.0600 
 28 H       -1.7350     2.6260     0.2130 H     1 <1>   0.3700 
 29 H       -2.8550     0.4580     0.8720 H     1 <1>   0.0800 
 30 H       -3.3520     0.4630    -0.8130 H     1 <1>   0.0800 
 31 H        1.0200     2.3280    -0.0690 H     1 <1>   0.0800 
 32 H        0.3770     2.6120    -1.6690 H     1 <1>   0.0800 
 33 H       -1.7330    -1.7120     0.5410 H     1 <1>   0.0800 
 34 H       -2.2240    -1.7330    -1.1290 H     1 <1>   0.0800 
 35 H       -4.1500    -1.6320     1.1390 H     1 <1>   0.4500 
 36 H       -0.9300     4.6850    -2.1510 H     1 <1>   0.1500 
 37 H        0.8650     4.0510     1.6710 H     1 <1>   0.1500 
 38 H       -5.3170    -0.8710    -0.7210 H     1 <1>   0.0800 
 39 H       -4.5940    -2.1460    -1.7050 H     1 <1>   0.0800 
 40 H       -3.0140    -3.9360    -0.2290 H     1 <1>   0.0800 
 41 H       -3.3700    -3.7290     1.4730 H     1 <1>   0.0800 
 42 H       -1.2570     7.0550    -1.5900 H     1 <1>   0.1500 
 43 H        0.5400     6.3940     2.2200 H     1 <1>   0.1500 
 44 H       -6.7220    -3.0950    -0.9400 H     1 <1>   0.0800 
 45 H       -5.5000    -4.5030     1.1380 H     1 <1>   0.0800 
 46 H       -7.3000    -2.8760     1.2320 H     1 <1>   0.4000 
 47 H       -4.6770    -4.8120    -1.7640 H     1 <1>   0.0800 
 48 H       -6.0970    -5.5130    -1.0450 H     1 <1>   0.0800 
 49 H       -0.4830     9.8660     1.7190 H     1 <1>   0.0800 
 50 H        0.8520     8.7300     1.8810 H     1 <1>   0.0800 
 51 H       -0.7310     8.3570     2.5900 H     1 <1>   0.0800 
 52 H       -5.8000    -7.9630    -0.2880 H     1 <1>   0.1500 
 53 H       -1.6800    -7.8190     0.4260 H     1 <1>   0.2700 
 54 H       -4.6180   -10.3030     0.4980 H     1 <1>   0.0800 
 55 H       -3.2870    -9.9740     1.5780 H     1 <1>   0.0800 
 56 H       -2.9790   -10.3770    -0.0990 H     1 <1>   0.0800 
@<TRIPOS>BOND
  1   1   2  2   
  2   2   3  am  
  3   2   4  1   
  4   3   5  1   
  5   3  28  1   
  6   4   6  1   
  7   4  29  1   
  8   4  30  1   
  9   5   7  1   
 10   5  31  1   
 11   5  32  1   
 12   6   8  1   
 13   6  33  1   
 14   6  34  1   
 15   7   9  ar  
 16   7  10  ar  
 17   8  11  1   
 18   8  12  1   
 19   8  35  1   
 20   9  13  ar  
 21   9  36  1   
 22  10  14  ar  
 23  10  37  1   
 24  11  15  1   
 25  11  38  1   
 26  11  39  1   
 27  12  16  1   
 28  12  40  1   
 29  12  41  1   
 30  13  17  ar  
 31  13  42  1   
 32  14  17  ar  
 33  14  43  1   
 34  15  16  1   
 35  15  18  1   
 36  15  44  1   
 37  16  19  1   
 38  16  45  1   
 39  17  20  1   
 40  18  46  1   
 41  19  21  1   
 42  19  47  1   
 43  19  48  1   
 44  20  22  1   
 45  21  23  2   
 46  21  24  1   
 47  22  49  1   
 48  22  50  1   
 49  22  51  1   
 50  23  25  1   
 51  24  26  2   
 52  24  52  1   
 53  25  26  1   
 54  25  53  1   
 55  26  27  1   
 56  27  54  1   
 57  27  55  1   
 58  27  56  1   
@<TRIPOS>SUBSTRUCTURE
  1 ****   4 GROUP 4 **** **** 0

# MOE 2024.06 (io_trps.svl 2023.06)
