@<TRIPOS>MOLECULE
NONAME
41 42 1 0 0 
SMALL
USER_CHARGES


@<TRIPOS>ATOM
  1 O       -0.8160     0.1760    -1.1360 O.co2 1 <1>  -0.9000 
  2 C       -0.9910     0.9150    -0.1630 C.2   1 <1>   0.9060 
  3 O       -0.2990     0.8570     0.8580 O.co2 1 <1>  -0.9000 
  4 C       -2.0820     1.9590    -0.2380 C.3   1 <1>  -0.2660 
  5 C       -3.4330     1.4580     0.3070 C.3   1 <1>  -0.1600 
  6 C       -4.5070     2.5540     0.1940 C.3   1 <1>  -0.0990 
  7 C       -5.8980     2.1720     0.6930 C.2   1 <1>   0.5690 
  8 O       -6.0660     1.0820     1.1920 O.2   1 <1>  -0.5700 
  9 N       -6.9370     3.0620     0.5650 N.am  1 <1>  -0.6600 
 10 C       -8.3250     2.6890     0.9740 C.3   1 <1>   0.1400 
 11 C       -6.8500     4.4250    -0.0290 C.3   1 <1>   0.1400 
 12 C       -9.2840     2.7160    -0.2430 C.3   1 <1>   0.0000 
 13 C       -7.7700     4.5120    -1.2520 C.3   1 <1>  -0.1600 
 14 C      -10.7290     2.3460     0.1490 C.3   1 <1>   0.2000 
 15 C       -9.2160     4.1070    -0.9110 C.3   1 <1>  -0.1600 
 16 C       -8.9340     1.5840    -1.2250 C.3   1 <1>  -0.1600 
 17 O      -11.0980     2.8340     1.3910 O.3   1 <1>  -0.6800 
 18 C      -10.8150     0.8180     0.1370 C.3   1 <1>  -0.1600 
 19 C       -9.5910     0.3290    -0.6480 C.3   1 <1>  -0.1600 
 20 H       -1.7500     2.8110     0.3240 H     1 <1>   0.0800 
 21 H       -2.1820     2.2450    -1.2670 H     1 <1>   0.0800 
 22 H       -3.7380     0.5870    -0.2490 H     1 <1>   0.0800 
 23 H       -3.3130     1.1650     1.3370 H     1 <1>   0.0800 
 24 H       -4.5910     2.8320    -0.8400 H     1 <1>   0.0800 
 25 H       -4.1780     3.4100     0.7520 H     1 <1>   0.0800 
 26 H       -8.3360     1.7160     1.4320 H     1 <1>   0.0800 
 27 H       -8.6530     3.3990     1.7120 H     1 <1>   0.0800 
 28 H       -7.1620     5.1430     0.7100 H     1 <1>   0.0800 
 29 H       -5.8430     4.6660    -0.3170 H     1 <1>   0.0800 
 30 H       -7.7610     5.5190    -1.6290 H     1 <1>   0.0800 
 31 H       -7.3820     3.8720    -2.0250 H     1 <1>   0.0800 
 32 H      -11.4160     2.7480    -0.5780 H     1 <1>   0.0800 
 33 H       -9.8140     4.1200    -1.8060 H     1 <1>   0.0800 
 34 H       -9.6310     4.8350    -0.2350 H     1 <1>   0.0800 
 35 H       -9.3700     1.7900    -2.1880 H     1 <1>   0.0800 
 36 H       -7.8740     1.4480    -1.3540 H     1 <1>   0.0800 
 37 H      -10.6340     2.3380     2.0910 H     1 <1>   0.4000 
 38 H      -10.7970     0.4070     1.1320 H     1 <1>   0.0800 
 39 H      -11.7210     0.5120    -0.3560 H     1 <1>   0.0800 
 40 H       -8.9010    -0.1570     0.0220 H     1 <1>   0.0800 
 41 H       -9.8630    -0.3650    -1.4250 H     1 <1>   0.0800 
@<TRIPOS>BOND
  1   1   2  ar  
  2   2   3  ar  
  3   2   4  1   
  4   4   5  1   
  5   4  20  1   
  6   4  21  1   
  7   5   6  1   
  8   5  22  1   
  9   5  23  1   
 10   6   7  1   
 11   6  24  1   
 12   6  25  1   
 13   7   8  2   
 14   7   9  am  
 15   9  10  1   
 16   9  11  1   
 17  10  12  1   
 18  10  26  1   
 19  10  27  1   
 20  11  13  1   
 21  11  28  1   
 22  11  29  1   
 23  12  14  1   
 24  12  15  1   
 25  12  16  1   
 26  13  15  1   
 27  13  30  1   
 28  13  31  1   
 29  14  17  1   
 30  14  18  1   
 31  14  32  1   
 32  15  33  1   
 33  15  34  1   
 34  16  19  1   
 35  16  35  1   
 36  16  36  1   
 37  17  37  1   
 38  18  19  1   
 39  18  38  1   
 40  18  39  1   
 41  19  40  1   
 42  19  41  1   
@<TRIPOS>SUBSTRUCTURE
  1 ****   7 GROUP 4 **** **** 0

# MOE 2024.06 (io_trps.svl 2023.06)
