@<TRIPOS>MOLECULE
NONAME
48 52 1 0 0 
SMALL
USER_CHARGES


@<TRIPOS>ATOM
  1 O       -2.1150     0.1750    -2.1110 O.2   1 <1>  -0.5700 
  2 C       -1.9390     0.3070    -0.9150 C.2   1 <1>   0.7150 
  3 N       -1.8470    -0.8140    -0.1440 N.am  1 <1>  -0.7300 
  4 C       -1.8550     1.6140    -0.3220 C.2   1 <1>   0.0550 
  5 C       -1.9350    -2.2130    -0.6250 C.3   1 <1>   0.2200 
  6 O       -1.7450     1.7690     0.9790 O.3   1 <1>  -0.0190 
  7 C       -1.8700     2.8590    -0.8480 C.2   1 <1>  -0.1500 
  8 C       -3.2770    -2.8410    -0.2670 C.3   1 <1>  -0.0800 
  9 C       -0.9940    -3.0740     0.2050 C.3   1 <1>   0.1200 
 10 N       -1.6900     3.0140     1.3390 N.2   1 <1>  -0.4100 
 11 C       -1.7600     3.6970     0.2500 C.2   1 <1>   0.2030 
 12 C       -3.0580    -3.2980     1.1820 C.3   1 <1>   0.1200 
 13 C       -4.5060    -1.9280    -0.4670 C.3   1 <1>  -0.0160 
 14 O       -1.6760    -3.3090     1.3990 O.3   1 <1>  -0.5600 
 15 C       -1.7300     5.2140     0.1930 C.3   1 <1>  -0.0140 
 16 C       -5.8810    -2.5620    -0.2210 C.ar  1 <1>  -0.1440 
 17 C       -0.8900     5.9260    -0.8260 C.3   1 <1>  -0.2000 
 18 C       -0.4950     5.9480     0.6170 C.3   1 <1>  -0.2000 
 19 C       -7.0340    -1.7370    -0.1860 C.ar  1 <1>   0.0000 
 20 C       -6.0750    -3.9030    -0.0370 C.ar  1 <1>  -0.1500 
 21 C       -8.2850    -2.3520     0.0680 C.ar  1 <1>   0.3100 
 22 C       -7.0210    -0.3370    -0.3940 C.ar  1 <1>  -0.1500 
 23 C       -7.3580    -4.4100     0.1980 C.ar  1 <1>   0.1600 
 24 N       -8.4290    -3.6870     0.2590 N.ar  1 <1>  -0.6200 
 25 C       -9.4390    -1.5550     0.1220 C.ar  1 <1>  -0.1500 
 26 C       -8.1650     0.4110    -0.3370 C.ar  1 <1>  -0.1500 
 27 C       -9.3920    -0.2020    -0.0730 C.ar  1 <1>  -0.1500 
 28 H       -1.7150    -0.7190     0.8660 H     1 <1>   0.3700 
 29 H       -1.7160    -2.2700    -1.6790 H     1 <1>   0.0800 
 30 H       -1.9480     3.1510    -1.8790 H     1 <1>   0.1500 
 31 H       -3.3910    -3.7140    -0.8840 H     1 <1>   0.0800 
 32 H       -0.0550    -2.5920     0.4100 H     1 <1>   0.0800 
 33 H       -0.8230    -4.0240    -0.2710 H     1 <1>   0.0800 
 34 H       -3.4420    -4.2880     1.3590 H     1 <1>   0.0800 
 35 H       -3.4920    -2.6100     1.8860 H     1 <1>   0.0800 
 36 H       -4.4880    -1.5470    -1.4740 H     1 <1>   0.0800 
 37 H       -4.4110    -1.0900     0.2010 H     1 <1>   0.0800 
 38 H       -2.6760     5.6490     0.4620 H     1 <1>   0.1000 
 39 H       -0.2870     5.3510    -1.5080 H     1 <1>   0.1000 
 40 H       -1.2730     6.8270    -1.2720 H     1 <1>   0.1000 
 41 H       -0.6100     6.8590     1.1790 H     1 <1>   0.1000 
 42 H        0.3540     5.3700     0.9380 H     1 <1>   0.1000 
 43 H       -5.2760    -4.6160    -0.0650 H     1 <1>   0.1500 
 44 H       -6.0940     0.1610    -0.6070 H     1 <1>   0.1500 
 45 H       -7.4600    -5.4730     0.3400 H     1 <1>   0.1500 
 46 H      -10.3710    -2.0510     0.3230 H     1 <1>   0.1500 
 47 H       -8.1370     1.4760    -0.4960 H     1 <1>   0.1500 
 48 H      -10.2850     0.3960    -0.0290 H     1 <1>   0.1500 
@<TRIPOS>BOND
  1   1   2  2   
  2   2   3  am  
  3   2   4  1   
  4   3   5  1   
  5   3  28  1   
  6   4   6  1   
  7   4   7  2   
  8   5   8  1   
  9   5   9  1   
 10   5  29  1   
 11   6  10  1   
 12   7  11  1   
 13   7  30  1   
 14   8  12  1   
 15   8  13  1   
 16   8  31  1   
 17   9  14  1   
 18   9  32  1   
 19   9  33  1   
 20  10  11  2   
 21  11  15  1   
 22  12  14  1   
 23  12  34  1   
 24  12  35  1   
 25  13  16  1   
 26  13  36  1   
 27  13  37  1   
 28  15  17  1   
 29  15  18  1   
 30  15  38  1   
 31  16  19  ar  
 32  16  20  ar  
 33  17  18  1   
 34  17  39  1   
 35  17  40  1   
 36  18  41  1   
 37  18  42  1   
 38  19  21  ar  
 39  19  22  ar  
 40  20  23  ar  
 41  20  43  1   
 42  21  24  ar  
 43  21  25  ar  
 44  22  26  ar  
 45  22  44  1   
 46  23  24  ar  
 47  23  45  1   
 48  25  27  ar  
 49  25  46  1   
 50  26  27  ar  
 51  26  47  1   
 52  27  48  1   
@<TRIPOS>SUBSTRUCTURE
  1 ****  13 GROUP 4 **** **** 0

# MOE 2024.06 (io_trps.svl 2023.06)
