@<TRIPOS>MOLECULE
NONAME
51 53 1 0 0 
SMALL
USER_CHARGES


@<TRIPOS>ATOM
  1 O       -1.6670     0.7760    -1.3200 O.2   1 <1>  -0.5700 
  2 C       -1.6520     0.8060    -0.1150 C.2   1 <1>   0.5690 
  3 N       -1.9090    -0.2910     0.6340 N.am  1 <1>  -0.7300 
  4 C       -1.3360     2.1200     0.5770 C.3   1 <1>  -0.0990 
  5 C       -2.2210    -1.6310     0.0850 C.3   1 <1>   0.2200 
  6 C       -0.0590     2.7700     0.0090 C.3   1 <1>  -0.1600 
  7 C       -3.7100    -1.8990     0.2360 C.3   1 <1>  -0.0800 
  8 C       -1.6250    -2.7000     0.9920 C.3   1 <1>   0.1200 
  9 C        0.2030     4.1430     0.6280 C.3   1 <1>   0.3430 
 10 C       -3.8080    -2.4410     1.6690 C.3   1 <1>   0.1200 
 11 C       -4.2070    -2.9170    -0.8090 C.3   1 <1>  -0.0170 
 12 O       -2.5190    -2.8270     2.0550 O.3   1 <1>  -0.5600 
 13 N        1.4460     4.7310     0.0580 N.4   1 <1>  -0.9590 
 14 C       -5.7000    -3.1730    -0.6740 C.ar  1 <1>  -0.1440 
 15 C        1.8830     5.9570     0.7670 C.3   1 <1>   0.3430 
 16 C        1.3370     5.1120    -1.3750 C.3   1 <1>   0.3430 
 17 C       -6.1990    -4.3380    -0.1250 C.ar  1 <1>  -0.1500 
 18 C       -6.6350    -2.2510    -1.0970 C.ar  1 <1>  -0.1500 
 19 C        2.8400     6.6340    -0.2050 C.3   1 <1>  -0.1600 
 20 C        2.4740     6.1000    -1.5930 C.3   1 <1>  -0.1600 
 21 C       -7.5690    -4.5140    -0.0230 C.ar  1 <1>   0.1600 
 22 C       -7.9840    -2.5260    -0.9500 C.ar  1 <1>   0.1600 
 23 N       -8.4740    -3.6350    -0.4210 N.ar  1 <1>  -0.6200 
 24 H       -1.9380    -0.2530     1.6560 H     1 <1>   0.3700 
 25 H       -2.1780     2.7730     0.4260 H     1 <1>   0.0800 
 26 H       -1.2260     1.9510     1.6330 H     1 <1>   0.0800 
 27 H       -1.8720    -1.7130    -0.9310 H     1 <1>   0.0800 
 28 H       -0.1790     2.8700    -1.0560 H     1 <1>   0.0800 
 29 H        0.7740     2.1150     0.1980 H     1 <1>   0.0800 
 30 H       -4.2800    -0.9930     0.1280 H     1 <1>   0.0800 
 31 H       -0.6510    -2.4380     1.3650 H     1 <1>   0.0800 
 32 H       -1.5790    -3.6490     0.4870 H     1 <1>   0.0800 
 33 H        0.3100     4.0330     1.6950 H     1 <1>   0.0800 
 34 H       -0.6340     4.7960     0.4370 H     1 <1>   0.0800 
 35 H       -4.4620    -3.2900     1.7540 H     1 <1>   0.0800 
 36 H       -4.1340    -1.6720     2.3470 H     1 <1>   0.0800 
 37 H       -3.6710    -3.8450    -0.7120 H     1 <1>   0.0800 
 38 H       -4.0140    -2.5350    -1.7970 H     1 <1>   0.0800 
 39 H        2.2070     4.0430     0.1330 H     1 <1>   0.4500 
 40 H        1.0350     6.6010     0.9410 H     1 <1>   0.0800 
 41 H        2.3620     5.7300     1.7060 H     1 <1>   0.0800 
 42 H        1.4210     4.2560    -2.0250 H     1 <1>   0.0800 
 43 H        0.3930     5.6040    -1.5510 H     1 <1>   0.0800 
 44 H       -5.5390    -5.1090     0.2260 H     1 <1>   0.1500 
 45 H       -6.3270    -1.3210    -1.5410 H     1 <1>   0.1500 
 46 H        2.7410     7.7050    -0.1480 H     1 <1>   0.0800 
 47 H        3.8550     6.3720     0.0420 H     1 <1>   0.0800 
 48 H        3.3150     5.5970    -2.0370 H     1 <1>   0.0800 
 49 H        2.1610     6.8890    -2.2550 H     1 <1>   0.0800 
 50 H       -7.9400    -5.4280     0.4090 H     1 <1>   0.1500 
 51 H       -8.6990    -1.7940    -1.2860 H     1 <1>   0.1500 
@<TRIPOS>BOND
  1   1   2  2   
  2   2   3  am  
  3   2   4  1   
  4   3   5  1   
  5   3  24  1   
  6   4   6  1   
  7   4  25  1   
  8   4  26  1   
  9   5   7  1   
 10   5   8  1   
 11   5  27  1   
 12   6   9  1   
 13   6  28  1   
 14   6  29  1   
 15   7  10  1   
 16   7  11  1   
 17   7  30  1   
 18   8  12  1   
 19   8  31  1   
 20   8  32  1   
 21   9  13  1   
 22   9  33  1   
 23   9  34  1   
 24  10  12  1   
 25  10  35  1   
 26  10  36  1   
 27  11  14  1   
 28  11  37  1   
 29  11  38  1   
 30  13  15  1   
 31  13  16  1   
 32  13  39  1   
 33  14  17  ar  
 34  14  18  ar  
 35  15  19  1   
 36  15  40  1   
 37  15  41  1   
 38  16  20  1   
 39  16  42  1   
 40  16  43  1   
 41  17  21  ar  
 42  17  44  1   
 43  18  22  ar  
 44  18  45  1   
 45  19  20  1   
 46  19  46  1   
 47  19  47  1   
 48  20  48  1   
 49  20  49  1   
 50  21  23  ar  
 51  21  50  1   
 52  22  23  ar  
 53  22  51  1   
@<TRIPOS>SUBSTRUCTURE
  1 ****   3 GROUP 4 **** **** 0

# MOE 2024.06 (io_trps.svl 2023.06)
