@<TRIPOS>MOLECULE
NONAME
53 56 1 0 0 
SMALL
USER_CHARGES


@<TRIPOS>ATOM
  1 O       -0.0550    -4.7910    -1.1320 O.2   1 <1>  -0.5700 
  2 C        0.8080    -4.1560    -0.5890 C.2   1 <1>   0.5690 
  3 N        1.7480    -3.5370    -1.3320 N.am  1 <1>  -0.7300 
  4 C        0.8390    -4.0680     0.9180 C.3   1 <1>  -0.0990 
  5 C        2.9170    -2.7870    -0.8120 C.3   1 <1>   0.1400 
  6 C        2.1080    -4.6870     1.5030 C.3   1 <1>   0.1200 
  7 C        3.8380    -3.6340     0.1140 C.3   1 <1>   0.2800 
  8 O        3.2200    -3.8430     1.3520 O.3   1 <1>  -0.5600 
  9 C        4.2680    -4.9870    -0.4910 C.3   1 <1>  -0.1600 
 10 C        5.0990    -2.8300     0.4700 C.3   1 <1>  -0.1600 
 11 C        5.2140    -4.8090    -1.6730 C.3   1 <1>   0.3430 
 12 C        6.0640    -2.6860    -0.7040 C.3   1 <1>   0.3430 
 13 N        6.4060    -4.0340    -1.2400 N.4   1 <1>  -0.9590 
 14 C        7.4380    -3.9550    -2.3120 C.3   1 <1>   0.4860 
 15 C        8.7100    -3.3830    -1.7170 C.ar  1 <1>  -0.1440 
 16 C        9.3360    -4.0430    -0.6710 C.ar  1 <1>  -0.1500 
 17 C        9.2550    -2.2030    -2.2000 C.ar  1 <1>  -0.1500 
 18 C       10.4920    -3.5380    -0.0950 C.ar  1 <1>  -0.1440 
 19 C       10.4100    -1.6930    -1.6340 C.ar  1 <1>  -0.1500 
 20 C       11.0240    -2.3550    -0.5860 C.ar  1 <1>  -0.1500 
 21 C       11.1740    -4.2540     1.0740 C.3   1 <1>   0.2390 
 22 N       11.1010    -5.7290     0.9570 N.pl3 1 <1>   0.3140 
 23 N       10.0700    -6.4430     1.4630 N.2   1 <1>  -0.7070 
 24 C       12.0060    -6.5360     0.3680 C.2   1 <1>  -0.3020 
 25 C       10.3590    -7.6810     1.1940 C.2   1 <1>   0.1390 
 26 C       11.5590    -7.8020     0.5050 C.2   1 <1>  -0.1500 
 27 H        1.5630    -3.5230    -2.3380 H     1 <1>   0.3700 
 28 H       -0.0090    -4.6090     1.2960 H     1 <1>   0.0800 
 29 H        0.7410    -3.0470     1.2340 H     1 <1>   0.0800 
 30 H        2.5700    -1.9240    -0.2700 H     1 <1>   0.0800 
 31 H        3.4780    -2.4320    -1.6570 H     1 <1>   0.0800 
 32 H        2.3080    -5.6550     1.0790 H     1 <1>   0.0800 
 33 H        1.9690    -4.8170     2.5630 H     1 <1>   0.0800 
 34 H        3.4130    -5.5360    -0.8390 H     1 <1>   0.0800 
 35 H        4.7570    -5.5810     0.2610 H     1 <1>   0.0800 
 36 H        5.6170    -3.3160     1.2780 H     1 <1>   0.0800 
 37 H        4.8170    -1.8510     0.8130 H     1 <1>   0.0800 
 38 H        4.7050    -4.2910    -2.4700 H     1 <1>   0.0800 
 39 H        5.5150    -5.7790    -2.0360 H     1 <1>   0.0800 
 40 H        6.9590    -2.1850    -0.3660 H     1 <1>   0.0800 
 41 H        5.6150    -2.0850    -1.4780 H     1 <1>   0.0800 
 42 H        6.8530    -4.5460    -0.4650 H     1 <1>   0.4500 
 43 H        7.0940    -3.3310    -3.1210 H     1 <1>   0.0800 
 44 H        7.6460    -4.9390    -2.7010 H     1 <1>   0.0800 
 45 H        8.9230    -4.9650    -0.2990 H     1 <1>   0.1500 
 46 H        8.7990    -1.6710    -3.0180 H     1 <1>   0.1500 
 47 H       10.8360    -0.7770    -2.0100 H     1 <1>   0.1500 
 48 H       11.9210    -1.9390    -0.1580 H     1 <1>   0.1500 
 49 H       10.6990    -3.9700     1.9950 H     1 <1>   0.0800 
 50 H       12.2100    -3.9740     1.1280 H     1 <1>   0.0800 
 51 H       12.9010    -6.1750    -0.1050 H     1 <1>   0.1500 
 52 H        9.7360    -8.5130     1.4780 H     1 <1>   0.1500 
 53 H       12.0080    -8.7200     0.1690 H     1 <1>   0.1500 
@<TRIPOS>BOND
  1   1   2  2   
  2   2   3  am  
  3   2   4  1   
  4   3   5  1   
  5   3  27  1   
  6   4   6  1   
  7   4  28  1   
  8   4  29  1   
  9   5   7  1   
 10   5  30  1   
 11   5  31  1   
 12   6   8  1   
 13   6  32  1   
 14   6  33  1   
 15   7   8  1   
 16   7   9  1   
 17   7  10  1   
 18   9  11  1   
 19   9  34  1   
 20   9  35  1   
 21  10  12  1   
 22  10  36  1   
 23  10  37  1   
 24  11  13  1   
 25  11  38  1   
 26  11  39  1   
 27  12  13  1   
 28  12  40  1   
 29  12  41  1   
 30  13  14  1   
 31  13  42  1   
 32  14  15  1   
 33  14  43  1   
 34  14  44  1   
 35  15  16  ar  
 36  15  17  ar  
 37  16  18  ar  
 38  16  45  1   
 39  17  19  ar  
 40  17  46  1   
 41  18  20  ar  
 42  18  21  1   
 43  19  20  ar  
 44  19  47  1   
 45  20  48  1   
 46  21  22  1   
 47  21  49  1   
 48  21  50  1   
 49  22  23  1   
 50  22  24  1   
 51  23  25  2   
 52  24  26  2   
 53  24  51  1   
 54  25  26  1   
 55  25  52  1   
 56  26  53  1   
@<TRIPOS>SUBSTRUCTURE
  1 ****  13 GROUP 4 **** **** 0

# MOE 2024.06 (io_trps.svl 2023.06)
