@<TRIPOS>MOLECULE
NONAME
50 52 1 0 0 
SMALL
USER_CHARGES


@<TRIPOS>ATOM
  1 O        0.8660     0.7830     2.0730 O.2   1 <1>  -0.5700 
  2 C        1.8180     0.3900     1.4370 C.2   1 <1>   0.7150 
  3 N        2.0440    -0.9480     1.5160 N.am  1 <1>  -0.7300 
  4 C        2.6050     1.3210     0.6820 C.2   1 <1>  -0.2370 
  5 C        3.2110    -1.8180     1.2020 C.3   1 <1>   0.1400 
  6 N        3.5130     1.0260    -0.2760 N.pl3 1 <1>   0.3140 
  7 C        2.5930     2.6770     0.7480 C.2   1 <1>  -0.1500 
  8 C        4.3710    -1.1370     0.4610 C.3   1 <1>   0.2000 
  9 N        4.0800     2.1180    -0.7970 N.2   1 <1>  -0.7070 
 10 C        3.9200    -0.3070    -0.7370 C.3   1 <1>   0.0960 
 11 C        3.5230     3.1460    -0.1760 C.2   1 <1>   0.2030 
 12 O        5.2390    -2.1250     0.0140 O.3   1 <1>  -0.6800 
 13 C        3.8010     4.5660    -0.3880 C.2   1 <1>   0.7160 
 14 O        3.0830     5.4100     0.1260 O.2   1 <1>  -0.5700 
 15 N        4.8760     5.0510    -1.1210 N.am  1 <1>  -0.6600 
 16 C        4.8310     6.4410    -1.6580 C.3   1 <1>   0.1400 
 17 C        6.1470     4.3000    -1.3010 C.3   1 <1>   0.1400 
 18 C        5.2020     7.4540    -0.5600 C.3   1 <1>   0.3430 
 19 C        7.3610     5.1490    -0.9110 C.3   1 <1>  -0.1600 
 20 N        6.6440     7.4020    -0.1150 N.4   1 <1>  -0.9590 
 21 C        7.1010     6.0380     0.3090 C.3   1 <1>   0.3430 
 22 C        6.8400     8.3940     0.9770 C.3   1 <1>   0.3430 
 23 C        8.3190     8.7670     1.1030 C.3   1 <1>  -0.1600 
 24 C        8.5170     9.8640     2.1550 C.3   1 <1>  -0.2400 
 25 H        1.3290    -1.4050     2.0870 H     1 <1>   0.3700 
 26 H        2.8500    -2.6370     0.6040 H     1 <1>   0.0800 
 27 H        3.5900    -2.2220     2.1260 H     1 <1>   0.0800 
 28 H        1.9820     3.2910     1.3870 H     1 <1>   0.1500 
 29 H        4.9350    -0.5230     1.1440 H     1 <1>   0.0800 
 30 H        4.7380    -0.1810    -1.4240 H     1 <1>   0.0800 
 31 H        3.0930    -0.7660    -1.2440 H     1 <1>   0.0800 
 32 H        4.8190    -2.7090    -0.6470 H     1 <1>   0.4000 
 33 H        3.8260     6.6470    -1.9870 H     1 <1>   0.0800 
 34 H        5.4770     6.5420    -2.5120 H     1 <1>   0.0800 
 35 H        6.2280     3.9630    -2.3210 H     1 <1>   0.0800 
 36 H        6.1450     3.4290    -0.6690 H     1 <1>   0.0800 
 37 H        4.5550     7.2800     0.2850 H     1 <1>   0.0800 
 38 H        4.9860     8.4430    -0.9300 H     1 <1>   0.0800 
 39 H        7.7010     5.7300    -1.7490 H     1 <1>   0.0800 
 40 H        8.1560     4.4660    -0.6680 H     1 <1>   0.0800 
 41 H        7.2300     7.6940    -0.9060 H     1 <1>   0.4500 
 42 H        8.0230     6.1270     0.8590 H     1 <1>   0.0800 
 43 H        6.3710     5.5800     0.9570 H     1 <1>   0.0800 
 44 H        6.4750     7.9970     1.9120 H     1 <1>   0.0800 
 45 H        6.2810     9.2900     0.7560 H     1 <1>   0.0800 
 46 H        8.6850     9.1300     0.1580 H     1 <1>   0.0800 
 47 H        8.9020     7.9120     1.3960 H     1 <1>   0.0800 
 48 H        7.9750    10.7560     1.8870 H     1 <1>   0.0800 
 49 H        9.5610    10.1180     2.2300 H     1 <1>   0.0800 
 50 H        8.1830     9.5330     3.1230 H     1 <1>   0.0800 
@<TRIPOS>BOND
  1   1   2  2   
  2   2   3  am  
  3   2   4  1   
  4   3   5  1   
  5   3  25  1   
  6   4   6  1   
  7   4   7  2   
  8   5   8  1   
  9   5  26  1   
 10   5  27  1   
 11   6   9  1   
 12   6  10  1   
 13   7  11  1   
 14   7  28  1   
 15   8  10  1   
 16   8  12  1   
 17   8  29  1   
 18   9  11  2   
 19  10  30  1   
 20  10  31  1   
 21  11  13  1   
 22  12  32  1   
 23  13  14  2   
 24  13  15  am  
 25  15  16  1   
 26  15  17  1   
 27  16  18  1   
 28  16  33  1   
 29  16  34  1   
 30  17  19  1   
 31  17  35  1   
 32  17  36  1   
 33  18  20  1   
 34  18  37  1   
 35  18  38  1   
 36  19  21  1   
 37  19  39  1   
 38  19  40  1   
 39  20  21  1   
 40  20  22  1   
 41  20  41  1   
 42  21  42  1   
 43  21  43  1   
 44  22  23  1   
 45  22  44  1   
 46  22  45  1   
 47  23  24  1   
 48  23  46  1   
 49  23  47  1   
 50  24  48  1   
 51  24  49  1   
 52  24  50  1   
@<TRIPOS>SUBSTRUCTURE
  1 ****  11 GROUP 4 **** **** 0

# MOE 2024.06 (io_trps.svl 2023.06)
