@<TRIPOS>MOLECULE
NONAME
56 60 1 0 0 
SMALL
USER_CHARGES


@<TRIPOS>ATOM
  1 O        5.0910    -2.1350    -0.0610 O.2   1 <1>  -0.5700 
  2 C        3.9220    -1.8330     0.0400 C.2   1 <1>   0.5690 
  3 N        3.5980    -0.5570     0.4510 N.am  1 <1>  -0.6600 
  4 C        2.8590    -2.8740    -0.3510 C.3   1 <1>   0.2610 
  5 C        4.6290     0.2610     1.1540 C.3   1 <1>   0.1400 
  6 C        2.2800     0.0920     0.2260 C.3   1 <1>   0.1400 
  7 O        1.7550    -2.8320     0.5510 O.3   1 <1>  -0.3630 
  8 C        3.4240    -4.3040    -0.3950 C.3   1 <1>   0.1200 
  9 C        5.5470     0.9510     0.1340 C.3   1 <1>   0.3430 
 10 C        2.4460     1.4850    -0.3970 C.3   1 <1>  -0.1600 
 11 C        0.8750    -3.8640     0.4970 C.ar  1 <1>   0.0820 
 12 O        2.4060    -5.2210    -0.7520 O.3   1 <1>  -0.3630 
 13 N        4.8700     2.0190    -0.6950 N.4   1 <1>  -0.9590 
 14 C        3.6160     1.5870    -1.3840 C.3   1 <1>   0.3430 
 15 C        1.1940    -5.0500    -0.1670 C.ar  1 <1>   0.0820 
 16 C       -0.3590    -3.7240     1.1090 C.ar  1 <1>  -0.1500 
 17 C        5.8370     2.5770    -1.6790 C.3   1 <1>   0.4860 
 18 C        0.2670    -6.0750    -0.2330 C.ar  1 <1>  -0.1500 
 19 C       -1.2820    -4.7560     1.0450 C.ar  1 <1>  -0.1500 
 20 C        6.9500     3.2710    -0.9210 C.ar  1 <1>  -0.1440 
 21 C       -0.9700    -5.9280     0.3730 C.ar  1 <1>  -0.1500 
 22 C        8.2010     2.6680    -0.8200 C.ar  1 <1>  -0.1500 
 23 C        6.7210     4.5070    -0.3190 C.ar  1 <1>  -0.1500 
 24 C        9.1950     3.3090    -0.1050 C.ar  1 <1>  -0.1440 
 25 C        7.7260     5.1390     0.3950 C.ar  1 <1>  -0.1500 
 26 C        8.9560     4.5180     0.4900 C.ar  1 <1>   0.0820 
 27 C       10.6160     2.9140     0.1730 C.3   1 <1>  -0.0170 
 28 O       10.0220     5.0020     1.1440 O.3   1 <1>  -0.3620 
 29 C       11.1170     4.1060     1.0090 C.3   1 <1>   0.1200 
 30 H        2.4860    -2.6250    -1.3260 H     1 <1>   0.0800 
 31 H        5.2280    -0.3900     1.7680 H     1 <1>   0.0800 
 32 H        4.1670     0.9810     1.8060 H     1 <1>   0.0800 
 33 H        1.7480     0.1600     1.1610 H     1 <1>   0.0800 
 34 H        1.6880    -0.5110    -0.4410 H     1 <1>   0.0800 
 35 H        3.8110    -4.5860     0.5690 H     1 <1>   0.0800 
 36 H        4.2100    -4.3840    -1.1250 H     1 <1>   0.0800 
 37 H        5.9550     0.1900    -0.5110 H     1 <1>   0.0800 
 38 H        6.3700     1.3930     0.6730 H     1 <1>   0.0800 
 39 H        2.5330     2.2300     0.3730 H     1 <1>   0.0800 
 40 H        1.5360     1.7020    -0.9280 H     1 <1>   0.0800 
 41 H        4.6420     2.7920    -0.0590 H     1 <1>   0.4500 
 42 H        3.3570     2.3190    -2.1320 H     1 <1>   0.0800 
 43 H        3.7660     0.6410    -1.8810 H     1 <1>   0.0800 
 44 H       -0.5960    -2.8140     1.6290 H     1 <1>   0.1500 
 45 H        5.3470     3.2950    -2.3180 H     1 <1>   0.0800 
 46 H        6.2410     1.7900    -2.2950 H     1 <1>   0.0800 
 47 H        0.5190    -6.9820    -0.7530 H     1 <1>   0.1500 
 48 H       -2.2420    -4.6480     1.5180 H     1 <1>   0.1500 
 49 H       -1.6900    -6.7260     0.3230 H     1 <1>   0.1500 
 50 H        8.4140     1.7200    -1.2850 H     1 <1>   0.1500 
 51 H        5.7660     4.9970    -0.4000 H     1 <1>   0.1500 
 52 H        7.5760     6.0930     0.8690 H     1 <1>   0.1500 
 53 H       11.1830     2.8190    -0.7360 H     1 <1>   0.0800 
 54 H       10.6690     2.0010     0.7370 H     1 <1>   0.0800 
 55 H       11.9170     4.6290     0.5140 H     1 <1>   0.0800 
 56 H       11.4240     3.8010     1.9940 H     1 <1>   0.0800 
@<TRIPOS>BOND
  1   1   2  2   
  2   2   3  am  
  3   2   4  1   
  4   3   5  1   
  5   3   6  1   
  6   4   7  1   
  7   4   8  1   
  8   4  30  1   
  9   5   9  1   
 10   5  31  1   
 11   5  32  1   
 12   6  10  1   
 13   6  33  1   
 14   6  34  1   
 15   7  11  1   
 16   8  12  1   
 17   8  35  1   
 18   8  36  1   
 19   9  13  1   
 20   9  37  1   
 21   9  38  1   
 22  10  14  1   
 23  10  39  1   
 24  10  40  1   
 25  11  15  ar  
 26  11  16  ar  
 27  12  15  1   
 28  13  14  1   
 29  13  17  1   
 30  13  41  1   
 31  14  42  1   
 32  14  43  1   
 33  15  18  ar  
 34  16  19  ar  
 35  16  44  1   
 36  17  20  1   
 37  17  45  1   
 38  17  46  1   
 39  18  21  ar  
 40  18  47  1   
 41  19  21  ar  
 42  19  48  1   
 43  20  22  ar  
 44  20  23  ar  
 45  21  49  1   
 46  22  24  ar  
 47  22  50  1   
 48  23  25  ar  
 49  23  51  1   
 50  24  26  ar  
 51  24  27  1   
 52  25  26  ar  
 53  25  52  1   
 54  26  28  1   
 55  27  29  1   
 56  27  53  1   
 57  27  54  1   
 58  28  29  1   
 59  29  55  1   
 60  29  56  1   
@<TRIPOS>SUBSTRUCTURE
  1 ****   3 GROUP 4 **** **** 0

# MOE 2024.06 (io_trps.svl 2023.06)
