@<TRIPOS>MOLECULE
NONAME
46 47 1 0 0 
SMALL
USER_CHARGES


@<TRIPOS>ATOM
  1 F        2.8040     2.2960     3.9150 F     1 <1>  -0.1900 
  2 C        3.2530     2.6650     2.7460 C.ar  1 <1>   0.1900 
  3 C        3.8960     1.7340     1.9540 C.ar  1 <1>  -0.1500 
  4 C        3.0680     3.9740     2.3440 C.ar  1 <1>  -0.1500 
  5 C        4.3710     2.1320     0.7150 C.ar  1 <1>  -0.1500 
  6 C        3.5480     4.3590     1.1040 C.ar  1 <1>  -0.1500 
  7 C        4.2000     3.4430     0.2860 C.ar  1 <1>  -0.1430 
  8 C        4.7220     3.8850    -1.0750 C.3   1 <1>   0.2540 
  9 N        5.7250     4.9540    -0.9200 N.3   1 <1>  -0.8100 
 10 C        6.0640     5.5800    -2.2360 C.3   1 <1>   0.1710 
 11 C        6.9380     4.4510    -0.2470 C.3   1 <1>   0.0300 
 12 C        6.6690     6.9790    -2.1010 C.2   1 <1>   0.5690 
 13 O        7.2930     7.4430    -3.0260 O.2   1 <1>  -0.5700 
 14 N        6.4510     7.6060    -0.9090 N.am  1 <1>  -0.4940 
 15 C        6.8460     8.8280    -0.3120 C.2   1 <1>  -0.0880 
 16 N        7.3800     9.9400    -0.8940 N.pl3 1 <1>   0.3140 
 17 C        6.7480     9.1050     1.0110 C.2   1 <1>  -0.1810 
 18 N        7.6280    10.9020     0.0230 N.2   1 <1>  -0.7070 
 19 C        7.6450    10.2130    -2.3110 C.3   1 <1>   0.0160 
 20 C        7.2520    10.3940     1.1510 C.2   1 <1>   0.1080 
 21 C        6.2080     8.2080     2.1130 C.3   1 <1>   0.0210 
 22 C        7.3680    11.1640     2.4470 C.3   1 <1>  -0.0590 
 23 C        7.3220     7.3300     2.6840 C.3   1 <1>  -0.2400 
 24 H        4.0190     0.7250     2.3020 H     1 <1>   0.1500 
 25 H        2.5620     4.6700     2.9880 H     1 <1>   0.1500 
 26 H        4.8760     1.4160     0.0890 H     1 <1>   0.1500 
 27 H        3.4200     5.3750     0.7710 H     1 <1>   0.1500 
 28 H        3.8890     4.2540    -1.6490 H     1 <1>   0.0800 
 29 H        5.1510     3.0520    -1.6050 H     1 <1>   0.0800 
 30 H        5.1700     5.6860    -2.8250 H     1 <1>   0.0800 
 31 H        6.7470     4.9520    -2.7810 H     1 <1>   0.0800 
 32 H        6.6980     4.1070     0.7450 H     1 <1>   0.0800 
 33 H        7.6720     5.2340    -0.1570 H     1 <1>   0.0800 
 34 H        7.3700     3.6360    -0.8030 H     1 <1>   0.0800 
 35 H        5.9720     6.9600    -0.2700 H     1 <1>   0.3700 
 36 H        6.7840     9.9420    -2.8910 H     1 <1>   0.0800 
 37 H        8.4970     9.6410    -2.6240 H     1 <1>   0.0800 
 38 H        7.8490    11.2590    -2.4370 H     1 <1>   0.0800 
 39 H        5.4260     7.5830     1.7190 H     1 <1>   0.0800 
 40 H        5.7790     8.8100     2.8950 H     1 <1>   0.0800 
 41 H        7.7630    10.5320     3.2190 H     1 <1>   0.0800 
 42 H        6.4000    11.5260     2.7380 H     1 <1>   0.0800 
 43 H        8.0280    12.0020     2.3130 H     1 <1>   0.0800 
 44 H        7.7470     6.7220     1.9060 H     1 <1>   0.0800 
 45 H        6.9320     6.6880     3.4540 H     1 <1>   0.0800 
 46 H        8.1000     7.9430     3.1030 H     1 <1>   0.0800 
@<TRIPOS>BOND
  1   1   2  1   
  2   2   3  ar  
  3   2   4  ar  
  4   3   5  ar  
  5   3  24  1   
  6   4   6  ar  
  7   4  25  1   
  8   5   7  ar  
  9   5  26  1   
 10   6   7  ar  
 11   6  27  1   
 12   7   8  1   
 13   8   9  1   
 14   8  28  1   
 15   8  29  1   
 16   9  10  1   
 17   9  11  1   
 18  10  12  1   
 19  10  30  1   
 20  10  31  1   
 21  11  32  1   
 22  11  33  1   
 23  11  34  1   
 24  12  13  2   
 25  12  14  am  
 26  14  15  1   
 27  14  35  1   
 28  15  16  1   
 29  15  17  2   
 30  16  18  1   
 31  16  19  1   
 32  17  20  1   
 33  17  21  1   
 34  18  20  2   
 35  19  36  1   
 36  19  37  1   
 37  19  38  1   
 38  20  22  1   
 39  21  23  1   
 40  21  39  1   
 41  21  40  1   
 42  22  41  1   
 43  22  42  1   
 44  22  43  1   
 45  23  44  1   
 46  23  45  1   
 47  23  46  1   
@<TRIPOS>SUBSTRUCTURE
  1 ****  14 GROUP 4 **** **** 0

# MOE 2024.06 (io_trps.svl 2023.06)
