@<TRIPOS>MOLECULE
NONAME
39 40 1 0 0 
SMALL
USER_CHARGES


@<TRIPOS>ATOM
  1 O        2.4320    -1.1120     2.8900 O.2   1 <1>  -0.5700 
  2 C        2.0970    -1.5130     1.7870 C.2   1 <1>   0.5440 
  3 N        2.4960    -0.7540     0.6990 N.am  1 <1>  -0.6600 
  4 C        1.3360    -2.7640     1.6930 C.ar  1 <1>   0.3960 
  5 C        3.3510     0.4470     0.8320 C.3   1 <1>   0.1400 
  6 C        2.2930    -1.0970    -0.7280 C.3   1 <1>   0.1400 
  7 N        0.4910    -2.9960     0.6750 N.ar  1 <1>  -0.6200 
  8 C        1.5200    -3.7090     2.7080 C.ar  1 <1>   0.1600 
  9 C        3.9880     0.6200    -0.5400 C.3   1 <1>  -0.1600 
 10 C        2.9750     0.0210    -1.5110 C.3   1 <1>  -0.1600 
 11 C       -0.1200    -4.1690     0.7280 C.ar  1 <1>   0.4100 
 12 N        0.9240    -4.8910     2.7860 N.ar  1 <1>  -0.6200 
 13 N       -0.9990    -4.4610    -0.3100 N.pl3 1 <1>  -0.8380 
 14 C        0.1040    -5.0810     1.7730 C.ar  1 <1>   0.1600 
 15 C       -0.9000    -5.7780    -1.0090 C.3   1 <1>   0.2090 
 16 C       -1.5830    -3.3590    -1.1300 C.3   1 <1>   0.1290 
 17 C       -2.1660    -6.6010    -0.7700 C.3   1 <1>   0.1200 
 18 O       -2.0210    -7.8350    -1.4000 O.3   1 <1>  -0.5600 
 19 C       -3.1160    -8.6800    -1.2450 C.3   1 <1>   0.0400 
 20 H        4.0940     0.3150     1.6010 H     1 <1>   0.0800 
 21 H        2.7290     1.2920     1.0730 H     1 <1>   0.0800 
 22 H        1.2440    -1.1440    -0.9660 H     1 <1>   0.0800 
 23 H        2.7560    -2.0460    -0.9360 H     1 <1>   0.0800 
 24 H        2.2050    -3.4680     3.5030 H     1 <1>   0.1500 
 25 H        4.9050     0.0570    -0.5720 H     1 <1>   0.0800 
 26 H        4.2030     1.6530    -0.7540 H     1 <1>   0.0800 
 27 H        2.2390     0.7610    -1.7720 H     1 <1>   0.0800 
 28 H        3.4360    -0.3460    -2.4110 H     1 <1>   0.0800 
 29 H       -0.4390    -6.0050     1.7480 H     1 <1>   0.1500 
 30 H       -0.0470    -6.3250    -0.6450 H     1 <1>   0.0800 
 31 H       -0.7710    -5.6180    -2.0650 H     1 <1>   0.0800 
 32 H       -1.7950    -2.5080    -0.5060 H     1 <1>   0.0800 
 33 H       -2.5010    -3.6830    -1.5890 H     1 <1>   0.0800 
 34 H       -0.8860    -3.0650    -1.8950 H     1 <1>   0.0800 
 35 H       -3.0210    -6.0990    -1.1880 H     1 <1>   0.0800 
 36 H       -2.3080    -6.7660     0.2830 H     1 <1>   0.0800 
 37 H       -2.9060    -9.5980    -1.7650 H     1 <1>   0.0800 
 38 H       -3.9880    -8.2140    -1.6710 H     1 <1>   0.0800 
 39 H       -3.2660    -8.8810    -0.1990 H     1 <1>   0.0800 
@<TRIPOS>BOND
  1   1   2  2   
  2   2   3  am  
  3   2   4  1   
  4   3   5  1   
  5   3   6  1   
  6   4   7  ar  
  7   4   8  ar  
  8   5   9  1   
  9   5  20  1   
 10   5  21  1   
 11   6  10  1   
 12   6  22  1   
 13   6  23  1   
 14   7  11  ar  
 15   8  12  ar  
 16   8  24  1   
 17   9  10  1   
 18   9  25  1   
 19   9  26  1   
 20  10  27  1   
 21  10  28  1   
 22  11  13  1   
 23  11  14  ar  
 24  12  14  ar  
 25  13  15  1   
 26  13  16  1   
 27  14  29  1   
 28  15  17  1   
 29  15  30  1   
 30  15  31  1   
 31  16  32  1   
 32  16  33  1   
 33  16  34  1   
 34  17  18  1   
 35  17  35  1   
 36  17  36  1   
 37  18  19  1   
 38  19  37  1   
 39  19  38  1   
 40  19  39  1   
@<TRIPOS>SUBSTRUCTURE
  1 ****   7 GROUP 4 **** **** 0

# MOE 2024.06 (io_trps.svl 2023.06)
