@<TRIPOS>MOLECULE
NONAME
49 52 1 0 0 
SMALL
USER_CHARGES


@<TRIPOS>ATOM
  1 O        0.2140    -0.4660    -2.0120 O.2   1 <1>  -0.5700 
  2 C       -0.5260     0.4510    -1.7420 C.2   1 <1>   0.5690 
  3 N       -1.7600     0.2260    -1.1910 N.am  1 <1>  -0.6600 
  4 C       -0.0300     1.8510    -2.0510 C.3   1 <1>   0.1570 
  5 C       -2.7710     1.2290    -0.7530 C.3   1 <1>   0.1400 
  6 C       -2.2370    -1.1450    -0.8690 C.3   1 <1>   0.1400 
  7 N        0.2120     2.6270    -0.8170 N.pl3 1 <1>   0.0480 
  8 C       -3.6460     0.4790     0.2500 C.3   1 <1>   0.2000 
  9 C       -3.6330    -0.9610    -0.2680 C.3   1 <1>  -0.0800 
 10 C       -0.3680     3.8190    -0.5050 C.ar  1 <1>  -0.1520 
 11 C        0.9800     2.3040     0.2640 C.2   1 <1>   0.0060 
 12 O       -3.0300     0.5390     1.4910 O.3   1 <1>  -0.6800 
 13 C       -4.0110    -2.0430     0.7600 C.3   1 <1>   0.0210 
 14 C        0.0810     4.1260     0.7660 C.ar  1 <1>   0.2270 
 15 C       -1.2470     4.6730    -1.1800 C.ar  1 <1>  -0.1500 
 16 N        0.9240     3.1620     1.2200 N.2   1 <1>  -0.5650 
 17 C        1.8320     1.0520     0.3510 C.3   1 <1>  -0.0600 
 18 C       -3.9240    -3.4250     0.1420 C.2   1 <1>   0.1080 
 19 C       -0.3450     5.2920     1.3970 C.ar  1 <1>  -0.1500 
 20 C       -1.6640     5.8250    -0.5490 C.ar  1 <1>  -0.1500 
 21 N       -4.6090    -3.7760    -0.9020 N.2   1 <1>  -0.7070 
 22 C       -3.1080    -4.4520     0.6040 C.2   1 <1>  -0.1500 
 23 C       -1.2150     6.1350     0.7400 C.ar  1 <1>  -0.1500 
 24 N       -4.2460    -5.0510    -1.1350 N.pl3 1 <1>   0.3000 
 25 C       -3.3350    -5.4820    -0.2370 C.2   1 <1>  -0.3320 
 26 C       -2.7290    -6.8730    -0.2390 C.3   1 <1>  -0.0600 
 27 H       -0.7560     2.3530    -2.6580 H     1 <1>   0.0800 
 28 H        0.8900     1.7880    -2.6000 H     1 <1>   0.0800 
 29 H       -2.3320     2.0970    -0.2970 H     1 <1>   0.0800 
 30 H       -3.3630     1.5230    -1.6020 H     1 <1>   0.0800 
 31 H       -2.2710    -1.7590    -1.7540 H     1 <1>   0.0800 
 32 H       -1.5660    -1.5930    -0.1550 H     1 <1>   0.0800 
 33 H       -4.6380     0.8890     0.3400 H     1 <1>   0.0800 
 34 H       -4.3350    -1.0210    -1.0810 H     1 <1>   0.0800 
 35 H       -2.0660     0.4140     1.3780 H     1 <1>   0.4000 
 36 H       -5.0170    -1.8790     1.1020 H     1 <1>   0.0800 
 37 H       -3.3590    -2.0010     1.6130 H     1 <1>   0.0800 
 38 H       -1.5900     4.4390    -2.1710 H     1 <1>   0.1500 
 39 H        2.5130     1.1320     1.1800 H     1 <1>   0.0800 
 40 H        2.4040     0.9200    -0.5490 H     1 <1>   0.0800 
 41 H        1.2100     0.1900     0.5060 H     1 <1>   0.0800 
 42 H        0.0180     5.5030     2.3860 H     1 <1>   0.1500 
 43 H       -2.3400     6.5020    -1.0430 H     1 <1>   0.1500 
 44 H       -2.4470    -4.4060     1.4510 H     1 <1>   0.1500 
 45 H       -1.5540     7.0400     1.2140 H     1 <1>   0.1500 
 46 H       -4.6360    -5.5970    -1.9120 H     1 <1>   0.2700 
 47 H       -2.0310    -6.9730     0.5740 H     1 <1>   0.0800 
 48 H       -2.2060    -7.0500    -1.1620 H     1 <1>   0.0800 
 49 H       -3.4990    -7.6150    -0.1230 H     1 <1>   0.0800 
@<TRIPOS>BOND
  1   1   2  2   
  2   2   3  am  
  3   2   4  1   
  4   3   5  1   
  5   3   6  1   
  6   4   7  1   
  7   4  27  1   
  8   4  28  1   
  9   5   8  1   
 10   5  29  1   
 11   5  30  1   
 12   6   9  1   
 13   6  31  1   
 14   6  32  1   
 15   7  10  1   
 16   7  11  1   
 17   8   9  1   
 18   8  12  1   
 19   8  33  1   
 20   9  13  1   
 21   9  34  1   
 22  10  14  ar  
 23  10  15  ar  
 24  11  16  2   
 25  11  17  1   
 26  12  35  1   
 27  13  18  1   
 28  13  36  1   
 29  13  37  1   
 30  14  16  1   
 31  14  19  ar  
 32  15  20  ar  
 33  15  38  1   
 34  17  39  1   
 35  17  40  1   
 36  17  41  1   
 37  18  21  2   
 38  18  22  1   
 39  19  23  ar  
 40  19  42  1   
 41  20  23  ar  
 42  20  43  1   
 43  21  24  1   
 44  22  25  2   
 45  22  44  1   
 46  23  45  1   
 47  24  25  1   
 48  24  46  1   
 49  25  26  1   
 50  26  47  1   
 51  26  48  1   
 52  26  49  1   
@<TRIPOS>SUBSTRUCTURE
  1 ****   3 GROUP 4 **** **** 0

# MOE 2024.06 (io_trps.svl 2023.06)
