@<TRIPOS>MOLECULE
NONAME
50 52 1 0 0 
SMALL
USER_CHARGES


@<TRIPOS>ATOM
  1 O       -1.5660     0.8940     2.3670 O.2   1 <1>  -0.5700 
  2 C       -2.1570     1.4010     1.4450 C.2   1 <1>   0.5690 
  3 N       -2.8230     0.6400     0.5250 N.am  1 <1>  -0.6600 
  4 C       -2.1390     2.9170     1.3380 C.3   1 <1>  -0.0990 
  5 C       -3.5770     1.1110    -0.6660 C.3   1 <1>   0.1400 
  6 C       -2.8210    -0.8430     0.5780 C.3   1 <1>   0.1400 
  7 C       -1.1400     3.4130     0.2790 C.3   1 <1>  -0.1600 
  8 C       -4.4080    -0.0990    -1.0880 C.3   1 <1>   0.2000 
  9 C       -3.5250    -1.2930    -0.7090 C.3   1 <1>  -0.0800 
 10 C       -1.1080     4.9500     0.1970 C.3   1 <1>  -0.0990 
 11 O       -5.5640    -0.1150    -0.3210 O.3   1 <1>  -0.6800 
 12 C       -4.2680    -2.6350    -0.5790 C.3   1 <1>   0.0200 
 13 C       -0.1830     5.4600    -0.9070 C.2   1 <1>   0.4230 
 14 C       -3.3370    -3.8140    -0.3490 C.2   1 <1>  -0.0400 
 15 O       -0.2480     4.9080    -1.9770 O.2   1 <1>  -0.5700 
 16 C        0.7240     6.5620    -0.6530 C.ar  1 <1>   0.0860 
 17 O       -3.8600    -4.9850    -0.1000 O.3   1 <1>  -0.0190 
 18 C       -2.0010    -3.9560    -0.3440 C.2   1 <1>  -0.1500 
 19 C        1.9110     6.6680    -1.3810 C.ar  1 <1>  -0.1500 
 20 C        0.4710     7.5580     0.2950 C.ar  1 <1>  -0.1500 
 21 N       -2.9500    -5.8990     0.0750 N.2   1 <1>  -0.4100 
 22 C       -1.8190    -5.3070    -0.0650 C.2   1 <1>   0.1080 
 23 C        2.8080     7.6980    -1.1660 C.ar  1 <1>  -0.1500 
 24 C        1.3650     8.5900     0.5170 C.ar  1 <1>  -0.1500 
 25 C       -0.4780    -5.9950     0.0580 C.3   1 <1>  -0.0590 
 26 C        2.5370     8.6610    -0.2120 C.ar  1 <1>  -0.1500 
 27 H       -3.1290     3.2690     1.1150 H     1 <1>   0.0800 
 28 H       -1.8640     3.3150     2.2980 H     1 <1>   0.0800 
 29 H       -4.1990     1.9610    -0.4470 H     1 <1>   0.0800 
 30 H       -2.8800     1.3610    -1.4470 H     1 <1>   0.0800 
 31 H       -1.8130    -1.2160     0.6370 H     1 <1>   0.0800 
 32 H       -3.3670    -1.1620     1.4510 H     1 <1>   0.0800 
 33 H       -0.1560     3.0490     0.5200 H     1 <1>   0.0800 
 34 H       -1.4090     3.0110    -0.6820 H     1 <1>   0.0800 
 35 H       -4.6860    -0.0810    -2.1280 H     1 <1>   0.0800 
 36 H       -2.7740    -1.3920    -1.4740 H     1 <1>   0.0800 
 37 H       -0.7890     5.3290     1.1500 H     1 <1>   0.0800 
 38 H       -2.0970     5.3220    -0.0030 H     1 <1>   0.0800 
 39 H       -5.3210     0.0090     0.6190 H     1 <1>   0.4000 
 40 H       -4.8320    -2.8190    -1.4770 H     1 <1>   0.0800 
 41 H       -4.9670    -2.5920     0.2380 H     1 <1>   0.0800 
 42 H       -1.2200    -3.2370    -0.5090 H     1 <1>   0.1500 
 43 H        2.1290     5.9250    -2.1300 H     1 <1>   0.1500 
 44 H       -0.4380     7.5410     0.8670 H     1 <1>   0.1500 
 45 H        3.7170     7.7510    -1.7420 H     1 <1>   0.1500 
 46 H        1.1490     9.3440     1.2550 H     1 <1>   0.1500 
 47 H        0.0990    -5.5320     0.8380 H     1 <1>   0.0800 
 48 H        0.0560    -5.9230    -0.8710 H     1 <1>   0.0800 
 49 H       -0.6190    -7.0330     0.3000 H     1 <1>   0.0800 
 50 H        3.2350     9.4640    -0.0420 H     1 <1>   0.1500 
@<TRIPOS>BOND
  1   1   2  2   
  2   2   3  am  
  3   2   4  1   
  4   3   5  1   
  5   3   6  1   
  6   4   7  1   
  7   4  27  1   
  8   4  28  1   
  9   5   8  1   
 10   5  29  1   
 11   5  30  1   
 12   6   9  1   
 13   6  31  1   
 14   6  32  1   
 15   7  10  1   
 16   7  33  1   
 17   7  34  1   
 18   8   9  1   
 19   8  11  1   
 20   8  35  1   
 21   9  12  1   
 22   9  36  1   
 23  10  13  1   
 24  10  37  1   
 25  10  38  1   
 26  11  39  1   
 27  12  14  1   
 28  12  40  1   
 29  12  41  1   
 30  13  15  2   
 31  13  16  1   
 32  14  17  1   
 33  14  18  2   
 34  16  19  ar  
 35  16  20  ar  
 36  17  21  1   
 37  18  22  1   
 38  18  42  1   
 39  19  23  ar  
 40  19  43  1   
 41  20  24  ar  
 42  20  44  1   
 43  21  22  2   
 44  22  25  1   
 45  23  26  ar  
 46  23  45  1   
 47  24  26  ar  
 48  24  46  1   
 49  25  47  1   
 50  25  48  1   
 51  25  49  1   
 52  26  50  1   
@<TRIPOS>SUBSTRUCTURE
  1 ****   3 GROUP 4 **** **** 0

# MOE 2024.06 (io_trps.svl 2023.06)
