@<TRIPOS>MOLECULE
NONAME
34 35 1 0 0 
SMALL
USER_CHARGES


@<TRIPOS>ATOM
  1 S       -0.1760    -0.5680     1.0190 S.3   1 <1>  -0.0800 
  2 C       -0.9990     0.8010     0.3180 C.2   1 <1>  -0.1400 
  3 C       -0.6990    -1.5410    -0.3350 C.2   1 <1>   0.2280 
  4 C       -1.5840     0.4110    -0.8270 C.2   1 <1>   0.0460 
  5 C       -0.9500     2.1160     1.0590 C.3   1 <1>   0.5230 
  6 N       -1.3970    -0.9080    -1.1890 N.2   1 <1>  -0.5650 
  7 C       -2.4310     1.2370    -1.7750 C.3   1 <1>  -0.0590 
  8 N        0.1800     2.9290     0.5360 N.4   1 <1>  -0.9590 
  9 C        1.5010     2.3420     0.9170 C.3   1 <1>   0.5230 
 10 C        0.0310     4.3640     0.9510 C.3   1 <1>   0.3430 
 11 C        2.6160     3.0950     0.2280 C.2   1 <1>  -0.1400 
 12 C        0.2890     5.3420    -0.2040 C.3   1 <1>   0.1200 
 13 S        3.4500     4.3210     1.1720 S.3   1 <1>  -0.0800 
 14 C        3.1420     3.0120    -1.0090 C.2   1 <1>  -0.1500 
 15 O       -0.2150     6.5720     0.1770 O.3   1 <1>  -0.6800 
 16 C        4.5030     4.7050    -0.1760 C.2   1 <1>  -0.1100 
 17 C        4.2130     3.9330    -1.2390 C.2   1 <1>  -0.1500 
 18 H       -0.4020    -2.5760    -0.3490 H     1 <1>   0.1500 
 19 H       -0.8470     1.9450     2.1190 H     1 <1>   0.0800 
 20 H       -1.8780     2.6380     0.8890 H     1 <1>   0.0800 
 21 H       -2.5430     2.2460    -1.4280 H     1 <1>   0.0800 
 22 H       -3.4060     0.7910    -1.8620 H     1 <1>   0.0800 
 23 H       -1.9780     1.2470    -2.7500 H     1 <1>   0.0800 
 24 H        0.1320     2.8750    -0.4880 H     1 <1>   0.4500 
 25 H        1.5480     1.3130     0.6010 H     1 <1>   0.0800 
 26 H        1.6410     2.3760     1.9850 H     1 <1>   0.0800 
 27 H        0.7000     4.5910     1.7660 H     1 <1>   0.0800 
 28 H       -0.9770     4.5350     1.2920 H     1 <1>   0.0800 
 29 H       -0.2300     5.0410    -1.0970 H     1 <1>   0.0800 
 30 H        1.3410     5.4560    -0.4030 H     1 <1>   0.0800 
 31 H        2.8360     2.3380    -1.7920 H     1 <1>   0.1500 
 32 H       -0.0110     7.2680    -0.4840 H     1 <1>   0.4000 
 33 H        5.2410     5.4760    -0.0280 H     1 <1>   0.1500 
 34 H        4.7190     3.9700    -2.1900 H     1 <1>   0.1500 
@<TRIPOS>BOND
  1   1   2  1   
  2   1   3  1   
  3   2   4  2   
  4   2   5  1   
  5   3   6  2   
  6   3  18  1   
  7   4   6  1   
  8   4   7  1   
  9   5   8  1   
 10   5  19  1   
 11   5  20  1   
 12   7  21  1   
 13   7  22  1   
 14   7  23  1   
 15   8   9  1   
 16   8  10  1   
 17   8  24  1   
 18   9  11  1   
 19   9  25  1   
 20   9  26  1   
 21  10  12  1   
 22  10  27  1   
 23  10  28  1   
 24  11  13  1   
 25  11  14  2   
 26  12  15  1   
 27  12  29  1   
 28  12  30  1   
 29  13  16  1   
 30  14  17  1   
 31  14  31  1   
 32  15  32  1   
 33  16  17  2   
 34  16  33  1   
 35  17  34  1   
@<TRIPOS>SUBSTRUCTURE
  1 ****   8 GROUP 4 **** **** 0

# MOE 2024.06 (io_trps.svl 2023.06)
