@<TRIPOS>MOLECULE
NONAME
42 44 1 0 0 
SMALL
USER_CHARGES


@<TRIPOS>ATOM
  1 O       -0.0360     1.3670    -0.9910 O.2   1 <1>  -0.5700 
  2 C       -0.0210     2.5670    -0.8990 C.2   1 <1>   0.5690 
  3 N       -0.4580     3.1790     0.2220 N.am  1 <1>  -0.7300 
  4 C        0.4610     3.4250    -2.0690 C.3   1 <1>   0.1810 
  5 C       -0.5610     4.6510     0.3800 C.3   1 <1>   0.3640 
  6 O        0.8390     4.7220    -1.6620 O.3   1 <1>  -0.5600 
  7 C       -1.9990     4.9710     0.7800 C.ar  1 <1>  -0.1440 
  8 C       -0.1420     5.4250    -0.9050 C.3   1 <1>   0.2610 
  9 C       -2.2530     5.8310     1.8410 C.ar  1 <1>   0.1600 
 10 C       -3.0780     4.4200     0.1100 C.ar  1 <1>  -0.1500 
 11 C        0.3840     6.8240    -0.5500 C.2   1 <1>   0.5690 
 12 N       -3.4560     6.1650     2.2800 N.ar  1 <1>  -0.6200 
 13 C       -4.3380     4.7630     0.5510 C.ar  1 <1>  -0.1500 
 14 O       -0.1160     7.4530     0.3550 O.2   1 <1>  -0.5700 
 15 N        1.4240     7.3400    -1.2590 N.am  1 <1>  -0.7300 
 16 C       -4.4690     5.6250     1.6250 C.ar  1 <1>   0.1600 
 17 C        1.9680     8.7090    -1.0980 C.3   1 <1>   0.1400 
 18 C        2.8920     8.7770     0.1200 C.3   1 <1>   0.0200 
 19 C        3.0320    10.2150     0.5820 C.2   1 <1>   0.0060 
 20 N        4.0240    10.9730     0.2890 N.2   1 <1>  -0.5650 
 21 N        2.1310    10.8580     1.3400 N.pl3 1 <1>   0.3140 
 22 C        3.6830    12.1100     0.9100 C.2   1 <1>   0.3660 
 23 N        2.5610    12.0930     1.5490 N.2   1 <1>  -0.7070 
 24 C        0.8530    10.3690     1.8850 C.3   1 <1>   0.0160 
 25 H       -0.8180     2.5980     0.9810 H     1 <1>   0.3700 
 26 H       -0.3200     3.5080    -2.8020 H     1 <1>   0.0800 
 27 H        1.3170     2.9590    -2.5220 H     1 <1>   0.0800 
 28 H        0.0990     4.9390     1.1800 H     1 <1>   0.0800 
 29 H       -1.0020     5.5520    -1.5360 H     1 <1>   0.0800 
 30 H       -1.4210     6.2740     2.3620 H     1 <1>   0.1500 
 31 H       -2.9530     3.7440    -0.7190 H     1 <1>   0.1500 
 32 H       -5.2130     4.3650     0.0710 H     1 <1>   0.1500 
 33 H        1.8760     6.7300    -1.9500 H     1 <1>   0.3700 
 34 H       -5.4590     5.8840     1.9630 H     1 <1>   0.1500 
 35 H        2.5030     9.0040    -1.9840 H     1 <1>   0.0800 
 36 H        1.1440     9.3890    -0.9660 H     1 <1>   0.0800 
 37 H        3.8610     8.3900    -0.1420 H     1 <1>   0.0800 
 38 H        2.4980     8.1880     0.9280 H     1 <1>   0.0800 
 39 H        4.3240    12.9760     0.8630 H     1 <1>   0.1500 
 40 H        1.0250     9.4760     2.4550 H     1 <1>   0.0800 
 41 H        0.1770    10.1580     1.0770 H     1 <1>   0.0800 
 42 H        0.4270    11.1240     2.5200 H     1 <1>   0.0800 
@<TRIPOS>BOND
  1   1   2  2   
  2   2   3  am  
  3   2   4  1   
  4   3   5  1   
  5   3  25  1   
  6   4   6  1   
  7   4  26  1   
  8   4  27  1   
  9   5   7  1   
 10   5   8  1   
 11   5  28  1   
 12   6   8  1   
 13   7   9  ar  
 14   7  10  ar  
 15   8  11  1   
 16   8  29  1   
 17   9  12  ar  
 18   9  30  1   
 19  10  13  ar  
 20  10  31  1   
 21  11  14  2   
 22  11  15  am  
 23  12  16  ar  
 24  13  16  ar  
 25  13  32  1   
 26  15  17  1   
 27  15  33  1   
 28  16  34  1   
 29  17  18  1   
 30  17  35  1   
 31  17  36  1   
 32  18  19  1   
 33  18  37  1   
 34  18  38  1   
 35  19  20  2   
 36  19  21  1   
 37  20  22  1   
 38  21  23  1   
 39  21  24  1   
 40  22  23  2   
 41  22  39  1   
 42  24  40  1   
 43  24  41  1   
 44  24  42  1   
@<TRIPOS>SUBSTRUCTURE
  1 ****  14 GROUP 4 **** **** 0

# MOE 2024.06 (io_trps.svl 2023.06)
