@<TRIPOS>MOLECULE
NONAME
50 53 1 0 0 
SMALL
USER_CHARGES


@<TRIPOS>ATOM
  1 O        1.6650     0.5500     3.6070 O.3   1 <1>  -0.6800 
  2 C        1.2830    -0.1840     2.4910 C.3   1 <1>   0.2000 
  3 C        1.9040    -1.5730     2.6100 C.3   1 <1>  -0.0800 
  4 C        1.9870     0.4200     1.2680 C.3   1 <1>   0.3430 
  5 C        3.3660    -1.2890     2.2430 C.3   1 <1>   0.3430 
  6 C        1.1990    -2.6050     1.6920 C.3   1 <1>  -0.0170 
  7 N        3.3280    -0.2480     1.1800 N.4   1 <1>  -0.9590 
  8 C        2.1930    -3.5440     1.0160 C.ar  1 <1>  -0.1440 
  9 C        4.4390     0.7200     1.3010 C.3   1 <1>   0.5240 
 10 C        2.7090    -3.3200    -0.2850 C.ar  1 <1>   0.0000 
 11 C        2.6510    -4.6330     1.7000 C.ar  1 <1>  -0.1500 
 12 C        4.4810     1.4960     0.0090 C.2   1 <1>  -0.1810 
 13 C        3.7170    -4.2020    -0.7480 C.ar  1 <1>   0.3100 
 14 C        2.2950    -2.2830    -1.1560 C.ar  1 <1>  -0.1500 
 15 C        3.6310    -5.4580     1.1370 C.ar  1 <1>   0.1600 
 16 C        5.0260     1.1650    -1.1840 C.2   1 <1>  -0.3320 
 17 C        3.9280     2.7560    -0.1880 C.2   1 <1>   0.1390 
 18 N        4.1680    -5.2530    -0.0220 N.ar  1 <1>  -0.6200 
 19 C        4.2850    -3.9860    -2.0120 C.ar  1 <1>  -0.1500 
 20 C        2.8670    -2.1020    -2.3860 C.ar  1 <1>  -0.1500 
 21 N        4.7800     2.2020    -2.0200 N.pl3 1 <1>   0.3140 
 22 C        5.7940    -0.0840    -1.5940 C.3   1 <1>  -0.0600 
 23 N        4.0910     3.1730    -1.4000 N.2   1 <1>  -0.7070 
 24 C        3.8780    -2.9600    -2.8200 C.ar  1 <1>  -0.1500 
 25 C        5.1860     2.3410    -3.4260 C.3   1 <1>   0.0160 
 26 H        1.0950     0.3490     4.3810 H     1 <1>   0.4000 
 27 H        0.2090    -0.1690     2.4120 H     1 <1>   0.0800 
 28 H        1.8560    -1.9390     3.6220 H     1 <1>   0.0800 
 29 H        2.0720     1.4890     1.3740 H     1 <1>   0.0800 
 30 H        1.4200     0.2020     0.3790 H     1 <1>   0.0800 
 31 H        3.8960    -2.1710     1.9220 H     1 <1>   0.0800 
 32 H        3.8590    -0.8880     3.1150 H     1 <1>   0.0800 
 33 H        0.5750    -2.1270     0.9600 H     1 <1>   0.0800 
 34 H        0.5270    -3.1920     2.2950 H     1 <1>   0.0800 
 35 H        3.4260    -0.6880     0.2530 H     1 <1>   0.4500 
 36 H        4.2840     1.3780     2.1400 H     1 <1>   0.0800 
 37 H        5.3740     0.2000     1.4300 H     1 <1>   0.0800 
 38 H        2.2890    -4.8840     2.6820 H     1 <1>   0.1500 
 39 H        1.4980    -1.6250    -0.8730 H     1 <1>   0.1500 
 40 H        3.9670    -6.3100     1.7070 H     1 <1>   0.1500 
 41 H        3.4170     3.3390     0.5610 H     1 <1>   0.1500 
 42 H        5.0540    -4.6670    -2.3310 H     1 <1>   0.1500 
 43 H        2.5400    -1.3110    -3.0410 H     1 <1>   0.1500 
 44 H        5.7840    -0.8230    -0.8130 H     1 <1>   0.0800 
 45 H        6.8190     0.1680    -1.8070 H     1 <1>   0.0800 
 46 H        5.3600    -0.5170    -2.4770 H     1 <1>   0.0800 
 47 H        4.3190    -2.8140    -3.7920 H     1 <1>   0.1500 
 48 H        6.2510     2.2310    -3.4990 H     1 <1>   0.0800 
 49 H        4.9020     3.3150    -3.7790 H     1 <1>   0.0800 
 50 H        4.6950     1.5880    -4.0130 H     1 <1>   0.0800 
@<TRIPOS>BOND
  1   1   2  1   
  2   1  26  1   
  3   2   3  1   
  4   2   4  1   
  5   2  27  1   
  6   3   5  1   
  7   3   6  1   
  8   3  28  1   
  9   4   7  1   
 10   4  29  1   
 11   4  30  1   
 12   5   7  1   
 13   5  31  1   
 14   5  32  1   
 15   6   8  1   
 16   6  33  1   
 17   6  34  1   
 18   7   9  1   
 19   7  35  1   
 20   8  10  ar  
 21   8  11  ar  
 22   9  12  1   
 23   9  36  1   
 24   9  37  1   
 25  10  13  ar  
 26  10  14  ar  
 27  11  15  ar  
 28  11  38  1   
 29  12  16  2   
 30  12  17  1   
 31  13  18  ar  
 32  13  19  ar  
 33  14  20  ar  
 34  14  39  1   
 35  15  18  ar  
 36  15  40  1   
 37  16  21  1   
 38  16  22  1   
 39  17  23  2   
 40  17  41  1   
 41  19  24  ar  
 42  19  42  1   
 43  20  24  ar  
 44  20  43  1   
 45  21  23  1   
 46  21  25  1   
 47  22  44  1   
 48  22  45  1   
 49  22  46  1   
 50  24  47  1   
 51  25  48  1   
 52  25  49  1   
 53  25  50  1   
@<TRIPOS>SUBSTRUCTURE
  1 ****   7 GROUP 4 **** **** 0

# MOE 2024.06 (io_trps.svl 2023.06)
