@<TRIPOS>MOLECULE
NONAME
54 58 1 0 0 
SMALL
USER_CHARGES


@<TRIPOS>ATOM
  1 O        2.1650    -0.5320     2.6840 O.2   1 <1>  -0.5700 
  2 C        2.2300    -0.9350     1.5370 C.2   1 <1>   0.5440 
  3 N        2.5780    -0.0380     0.5380 N.am  1 <1>  -0.6600 
  4 C        1.9820    -2.3300     1.2540 C.ar  1 <1>   0.0860 
  5 C        2.8720     1.3830     0.9090 C.3   1 <1>   0.1400 
  6 C        3.0020    -0.5120    -0.8190 C.3   1 <1>   0.1400 
  7 C        0.8170    -2.7480     0.6300 C.ar  1 <1>  -0.1500 
  8 C        2.9540    -3.2970     1.5820 C.ar  1 <1>  -0.1500 
  9 C        4.3860     1.6860     1.0680 C.3   1 <1>   0.4230 
 10 C        4.4450    -0.1270    -1.2110 C.3   1 <1>  -0.0800 
 11 C        0.6360    -4.0950     0.3200 C.ar  1 <1>  -0.1520 
 12 C        2.7810    -4.6260     1.2800 C.ar  1 <1>  -0.1500 
 13 N        5.0440     2.1240    -0.2180 N.4   1 <1>  -0.9590 
 14 C        5.2160     0.5490     1.7270 C.3   1 <1>   0.1200 
 15 C        5.5630    -0.7290    -0.3300 C.3   1 <1>   0.1200 
 16 C        4.5850     1.3810    -1.4290 C.3   1 <1>   0.3430 
 17 N       -0.4100    -4.7440    -0.2910 N.pl3 1 <1>   0.0330 
 18 C        1.6120    -5.0380     0.6340 C.ar  1 <1>   0.0000 
 19 C        4.9130     3.5990    -0.4260 C.3   1 <1>   0.2630 
 20 O        5.2700    -0.6720     1.0310 O.3   1 <1>  -0.5600 
 21 C       -0.0970    -6.0690    -0.3660 C.2   1 <1>  -0.3320 
 22 C        1.1210    -6.2780     0.1790 C.2   1 <1>  -0.1810 
 23 C       -0.9740    -7.1470    -0.9720 C.3   1 <1>   0.0200 
 24 C        1.7910    -7.6340     0.2660 C.3   1 <1>   0.0210 
 25 C       -0.4510    -8.5380    -0.5650 C.3   1 <1>  -0.1600 
 26 C        1.0850    -8.6360    -0.6690 C.3   1 <1>  -0.1600 
 27 H        2.4290     2.0420     0.1860 H     1 <1>   0.0800 
 28 H        2.3950     1.6100     1.8470 H     1 <1>   0.0800 
 29 H        2.9230    -1.5830    -0.8810 H     1 <1>   0.0800 
 30 H        2.3130    -0.1120    -1.5440 H     1 <1>   0.0800 
 31 H        0.0530    -2.0340     0.3830 H     1 <1>   0.1500 
 32 H        3.8490    -2.9630     2.0790 H     1 <1>   0.1500 
 33 H        4.4470     2.5180     1.7490 H     1 <1>   0.0800 
 34 H        4.5880    -0.5560    -2.1870 H     1 <1>   0.0800 
 35 H        3.5250    -5.3600     1.5310 H     1 <1>   0.1500 
 36 H        6.0420     1.9020    -0.0970 H     1 <1>   0.4500 
 37 H        4.7850     0.3260     2.6880 H     1 <1>   0.0800 
 38 H        6.2260     0.8760     1.8950 H     1 <1>   0.0800 
 39 H        6.5170    -0.2620    -0.5020 H     1 <1>   0.0800 
 40 H        5.6630    -1.7760    -0.5650 H     1 <1>   0.0800 
 41 H        3.6350     1.7690    -1.7570 H     1 <1>   0.0800 
 42 H        5.2940     1.5490    -2.2250 H     1 <1>   0.0800 
 43 H       -1.2760    -4.3030    -0.6160 H     1 <1>   0.2700 
 44 H        3.8770     3.8710    -0.5490 H     1 <1>   0.0800 
 45 H        5.4550     3.9030    -1.3080 H     1 <1>   0.0800 
 46 H        5.3130     4.1350     0.4200 H     1 <1>   0.0800 
 47 H       -1.9910    -7.0340    -0.6380 H     1 <1>   0.0800 
 48 H       -0.9540    -7.0510    -2.0440 H     1 <1>   0.0800 
 49 H        2.8280    -7.5490    -0.0080 H     1 <1>   0.0800 
 50 H        1.7330    -7.9790     1.2830 H     1 <1>   0.0800 
 51 H       -0.7400    -8.7310     0.4530 H     1 <1>   0.0800 
 52 H       -0.9090    -9.2870    -1.1860 H     1 <1>   0.0800 
 53 H        1.3770    -8.4270    -1.6830 H     1 <1>   0.0800 
 54 H        1.4060    -9.6340    -0.4300 H     1 <1>   0.0800 
@<TRIPOS>BOND
  1   1   2  2   
  2   2   3  am  
  3   2   4  1   
  4   3   5  1   
  5   3   6  1   
  6   4   7  ar  
  7   4   8  ar  
  8   5   9  1   
  9   5  27  1   
 10   5  28  1   
 11   6  10  1   
 12   6  29  1   
 13   6  30  1   
 14   7  11  ar  
 15   7  31  1   
 16   8  12  ar  
 17   8  32  1   
 18   9  13  1   
 19   9  14  1   
 20   9  33  1   
 21  10  15  1   
 22  10  16  1   
 23  10  34  1   
 24  11  17  1   
 25  11  18  ar  
 26  12  18  ar  
 27  12  35  1   
 28  13  16  1   
 29  13  19  1   
 30  13  36  1   
 31  14  20  1   
 32  14  37  1   
 33  14  38  1   
 34  15  20  1   
 35  15  39  1   
 36  15  40  1   
 37  16  41  1   
 38  16  42  1   
 39  17  21  1   
 40  17  43  1   
 41  18  22  1   
 42  19  44  1   
 43  19  45  1   
 44  19  46  1   
 45  21  22  2   
 46  21  23  1   
 47  22  24  1   
 48  23  25  1   
 49  23  47  1   
 50  23  48  1   
 51  24  26  1   
 52  24  49  1   
 53  24  50  1   
 54  25  26  1   
 55  25  51  1   
 56  25  52  1   
 57  26  53  1   
 58  26  54  1   
@<TRIPOS>SUBSTRUCTURE
  1 ****   4 GROUP 4 **** **** 0

# MOE 2024.06 (io_trps.svl 2023.06)
