@<TRIPOS>MOLECULE
NONAME
49 51 1 0 0 
SMALL
USER_CHARGES


@<TRIPOS>ATOM
  1 F        0.6410     2.1220     1.3380 F     1 <1>  -0.1900 
  2 C        1.8990     2.3530     1.5970 C.ar  1 <1>   0.1900 
  3 C        2.4490     1.8930     2.7810 C.ar  1 <1>   0.1600 
  4 C        2.6490     3.0540     0.6830 C.ar  1 <1>  -0.1500 
  5 N        3.7180     2.0890     3.1120 N.ar  1 <1>  -0.6200 
  6 C        3.9830     3.2800     1.0090 C.ar  1 <1>   0.0860 
  7 C        4.4410     2.7600     2.2240 C.ar  1 <1>   0.1600 
  8 C        4.8810     4.0190     0.1440 C.2   1 <1>   0.5440 
  9 O        6.0880     3.8970     0.2410 O.2   1 <1>  -0.5700 
 10 N        4.4310     4.9480    -0.7640 N.am  1 <1>  -0.6600 
 11 C        5.1180     5.0870    -2.0910 C.3   1 <1>   0.1400 
 12 C        3.6830     6.1460    -0.2990 C.3   1 <1>   0.1400 
 13 C        6.2300     6.1600    -2.1010 C.3   1 <1>   0.3430 
 14 C        4.5920     7.0310     0.5680 C.3   1 <1>  -0.1600 
 15 N        6.6740     6.4990    -0.7160 N.4   1 <1>  -0.9590 
 16 C        5.8430     7.5860    -0.1240 C.3   1 <1>   0.3430 
 17 C        8.1350     6.7860    -0.6490 C.3   1 <1>   0.3430 
 18 C        8.6800     6.5310     0.7570 C.3   1 <1>  -0.0170 
 19 C       10.1250     6.9760     0.8040 C.ar  1 <1>   0.1670 
 20 N       10.3500     8.2070     0.3750 N.ar  1 <1>  -0.6200 
 21 C       11.1100     6.1200     1.2710 C.ar  1 <1>  -0.1500 
 22 C       11.6090     8.6130     0.4140 C.ar  1 <1>   0.1670 
 23 C       12.4180     6.5490     1.3040 C.ar  1 <1>  -0.1500 
 24 C       12.6620     7.8310     0.8620 C.ar  1 <1>  -0.1500 
 25 C       11.8660    10.0250    -0.0690 C.3   1 <1>  -0.0970 
 26 H        1.8250     1.3500     3.4700 H     1 <1>   0.1500 
 27 H        2.2150     3.4000    -0.2370 H     1 <1>   0.1500 
 28 H        5.4770     2.9140     2.4780 H     1 <1>   0.1500 
 29 H        4.3930     5.3090    -2.8550 H     1 <1>   0.0800 
 30 H        5.5620     4.1400    -2.3480 H     1 <1>   0.0800 
 31 H        2.8310     5.8330     0.2810 H     1 <1>   0.0800 
 32 H        3.3140     6.7010    -1.1460 H     1 <1>   0.0800 
 33 H        5.8740     7.0460    -2.6000 H     1 <1>   0.0800 
 34 H        7.0590     5.7770    -2.6730 H     1 <1>   0.0800 
 35 H        4.8860     6.4930     1.4520 H     1 <1>   0.0800 
 36 H        4.0090     7.8690     0.9070 H     1 <1>   0.0800 
 37 H        6.4970     5.6240    -0.1760 H     1 <1>   0.4500 
 38 H        6.4220     8.1280     0.6060 H     1 <1>   0.0800 
 39 H        5.5570     8.2850    -0.8940 H     1 <1>   0.0800 
 40 H        8.3230     7.8110    -0.9290 H     1 <1>   0.0800 
 41 H        8.6690     6.1510    -1.3360 H     1 <1>   0.0800 
 42 H        8.6020     5.4860     0.9960 H     1 <1>   0.0800 
 43 H        8.1370     7.1020     1.4860 H     1 <1>   0.0800 
 44 H       10.8670     5.1280     1.6100 H     1 <1>   0.1500 
 45 H       13.2130     5.9160     1.6600 H     1 <1>   0.1500 
 46 H       13.6650     8.2180     0.8690 H     1 <1>   0.1500 
 47 H       11.2990    10.7160     0.5270 H     1 <1>   0.0800 
 48 H       11.5580    10.1160    -1.0940 H     1 <1>   0.0800 
 49 H       12.9070    10.2770     0.0040 H     1 <1>   0.0800 
@<TRIPOS>BOND
  1   1   2  1   
  2   2   3  ar  
  3   2   4  ar  
  4   3   5  ar  
  5   3  26  1   
  6   4   6  ar  
  7   4  27  1   
  8   5   7  ar  
  9   6   7  ar  
 10   6   8  1   
 11   7  28  1   
 12   8   9  2   
 13   8  10  am  
 14  10  11  1   
 15  10  12  1   
 16  11  13  1   
 17  11  29  1   
 18  11  30  1   
 19  12  14  1   
 20  12  31  1   
 21  12  32  1   
 22  13  15  1   
 23  13  33  1   
 24  13  34  1   
 25  14  16  1   
 26  14  35  1   
 27  14  36  1   
 28  15  16  1   
 29  15  17  1   
 30  15  37  1   
 31  16  38  1   
 32  16  39  1   
 33  17  18  1   
 34  17  40  1   
 35  17  41  1   
 36  18  19  1   
 37  18  42  1   
 38  18  43  1   
 39  19  20  ar  
 40  19  21  ar  
 41  20  22  ar  
 42  21  23  ar  
 43  21  44  1   
 44  22  24  ar  
 45  22  25  1   
 46  23  24  ar  
 47  23  45  1   
 48  24  46  1   
 49  25  47  1   
 50  25  48  1   
 51  25  49  1   
@<TRIPOS>SUBSTRUCTURE
  1 ****  15 GROUP 4 **** **** 0

# MOE 2024.06 (io_trps.svl 2023.06)
