@<TRIPOS>MOLECULE
NONAME
50 52 1 0 0 
SMALL
USER_CHARGES


@<TRIPOS>ATOM
  1 O        1.4690    -0.1360    -1.3370 O.2   1 <1>  -0.5700 
  2 C        1.9130    -0.6130    -0.3220 C.2   1 <1>   0.5690 
  3 N        2.6590     0.1480     0.5430 N.am  1 <1>  -0.6600 
  4 C        1.6380    -2.0820    -0.0440 C.3   1 <1>  -0.0990 
  5 C        3.5080    -0.3710     1.6620 C.3   1 <1>   0.1400 
  6 C        2.6230     1.6320     0.4310 C.3   1 <1>   0.1400 
  7 C        0.5250    -2.6450    -0.9430 C.3   1 <1>   0.0960 
  8 C        5.0220    -0.2930     1.3520 C.3   1 <1>   0.3430 
  9 C        3.7040     2.1290    -0.5330 C.3   1 <1>  -0.1600 
 10 N        0.2720    -4.0600    -0.6140 N.pl3 1 <1>   0.0480 
 11 N        5.4930     1.0390     0.8310 N.4   1 <1>  -0.9590 
 12 C        4.9900     1.3030    -0.5540 C.3   1 <1>   0.3430 
 13 C        0.7770    -5.1530    -1.1870 C.2   1 <1>   0.0360 
 14 C       -0.4950    -4.5650     0.3530 C.2   1 <1>   0.0360 
 15 C        6.9850     1.1090     0.8500 C.3   1 <1>   0.5230 
 16 N        0.3610    -6.2290    -0.6140 N.2   1 <1>  -0.3380 
 17 N       -0.4540    -5.8520     0.3730 N.2   1 <1>  -0.3380 
 18 C        7.4660     2.5280     0.6110 C.2   1 <1>  -0.0400 
 19 O        8.7040     2.6720     0.1860 O.3   1 <1>  -0.2800 
 20 C        6.8750     3.7380     0.7460 C.2   1 <1>  -0.1500 
 21 C        8.9390     3.9590     0.0350 C.2   1 <1>  -0.0400 
 22 C        7.8430     4.6750     0.3660 C.2   1 <1>  -0.1500 
 23 C       10.3160     4.3810    -0.4520 C.3   1 <1>   0.0200 
 24 C       10.4530     5.9010    -0.5870 C.3   1 <1>  -0.2400 
 25 H        1.3340    -2.1850     0.9820 H     1 <1>   0.0800 
 26 H        2.5430    -2.6370    -0.2060 H     1 <1>   0.0800 
 27 H        3.2600    -1.3940     1.8790 H     1 <1>   0.0800 
 28 H        3.2980     0.1920     2.5550 H     1 <1>   0.0800 
 29 H        2.7620     2.0720     1.4040 H     1 <1>   0.0800 
 30 H        1.6550     1.9490     0.0760 H     1 <1>   0.0800 
 31 H        0.8090    -2.5730    -1.9790 H     1 <1>   0.0800 
 32 H       -0.3840    -2.0870    -0.8040 H     1 <1>   0.0800 
 33 H        5.2590    -1.0580     0.6320 H     1 <1>   0.0800 
 34 H        5.5560    -0.5310     2.2580 H     1 <1>   0.0800 
 35 H        3.9290     3.1580    -0.3180 H     1 <1>   0.0800 
 36 H        3.2920     2.1120    -1.5270 H     1 <1>   0.0800 
 37 H        5.1590     1.7930     1.4400 H     1 <1>   0.4500 
 38 H        5.7300     1.8410    -1.1270 H     1 <1>   0.0800 
 39 H        4.8000     0.3680    -1.0560 H     1 <1>   0.0800 
 40 H        1.4500    -5.1280    -2.0240 H     1 <1>   0.1500 
 41 H       -1.0720    -3.9610     1.0290 H     1 <1>   0.1500 
 42 H        7.3900     0.4720     0.0810 H     1 <1>   0.0800 
 43 H        7.3680     0.7750     1.8000 H     1 <1>   0.0800 
 44 H        5.8860     4.0040     1.0730 H     1 <1>   0.1500 
 45 H        7.7090     5.7430     0.3540 H     1 <1>   0.1500 
 46 H       10.5020     3.9210    -1.4070 H     1 <1>   0.0800 
 47 H       11.0540     4.0170     0.2400 H     1 <1>   0.0800 
 48 H        9.7370     6.2800    -1.2940 H     1 <1>   0.0800 
 49 H       11.4400     6.1500    -0.9340 H     1 <1>   0.0800 
 50 H       10.2940     6.3770     0.3640 H     1 <1>   0.0800 
@<TRIPOS>BOND
  1   1   2  2   
  2   2   3  am  
  3   2   4  1   
  4   3   5  1   
  5   3   6  1   
  6   4   7  1   
  7   4  25  1   
  8   4  26  1   
  9   5   8  1   
 10   5  27  1   
 11   5  28  1   
 12   6   9  1   
 13   6  29  1   
 14   6  30  1   
 15   7  10  1   
 16   7  31  1   
 17   7  32  1   
 18   8  11  1   
 19   8  33  1   
 20   8  34  1   
 21   9  12  1   
 22   9  35  1   
 23   9  36  1   
 24  10  13  1   
 25  10  14  1   
 26  11  12  1   
 27  11  15  1   
 28  11  37  1   
 29  12  38  1   
 30  12  39  1   
 31  13  16  2   
 32  13  40  1   
 33  14  17  2   
 34  14  41  1   
 35  15  18  1   
 36  15  42  1   
 37  15  43  1   
 38  16  17  1   
 39  18  19  1   
 40  18  20  2   
 41  19  21  1   
 42  20  22  1   
 43  20  44  1   
 44  21  22  2   
 45  21  23  1   
 46  22  45  1   
 47  23  24  1   
 48  23  46  1   
 49  23  47  1   
 50  24  48  1   
 51  24  49  1   
 52  24  50  1   
@<TRIPOS>SUBSTRUCTURE
  1 ****  12 GROUP 4 **** **** 0

# MOE 2024.06 (io_trps.svl 2023.06)
