@<TRIPOS>MOLECULE
NONAME
55 57 1 0 0 
SMALL
USER_CHARGES


@<TRIPOS>ATOM
  1 O        0.0030     1.4360     1.9110 O.2   1 <1>  -0.5700 
  2 C       -0.1550     1.7720     0.7540 C.2   1 <1>   0.5440 
  3 N       -1.3980     1.5930     0.2120 N.am  1 <1>  -0.7300 
  4 C        0.9410     2.3060    -0.0350 C.ar  1 <1>   0.0860 
  5 C       -2.6010     1.1550     0.9620 C.3   1 <1>   0.2200 
  6 C        0.7280     3.2000    -1.0880 C.ar  1 <1>  -0.1500 
  7 C        2.2590     1.9370     0.2330 C.ar  1 <1>  -0.1500 
  8 C       -2.5930    -0.3700     1.2080 C.3   1 <1>   0.2000 
  9 C       -3.8430     1.5920     0.1810 C.3   1 <1>  -0.1600 
 10 C        1.7790     3.6870    -1.8440 C.ar  1 <1>  -0.1500 
 11 C        3.3140     2.4200    -0.5190 C.ar  1 <1>  -0.1500 
 12 O       -1.6240    -0.6890     2.1430 O.3   1 <1>  -0.6800 
 13 C       -3.9320    -0.8710     1.7680 C.3   1 <1>   0.3430 
 14 C       -5.1210     1.1320     0.8780 C.3   1 <1>   0.3430 
 15 C        3.0750     3.2960    -1.5620 C.ar  1 <1>  -0.1500 
 16 N       -5.1180    -0.3510     0.9990 N.4   1 <1>  -0.9590 
 17 C       -6.3840    -0.8640     1.5800 C.3   1 <1>   0.5240 
 18 C       -6.4640    -2.3220     1.2050 C.2   1 <1>  -0.1810 
 19 C       -6.7630    -2.9010     0.0180 C.2   1 <1>  -0.3320 
 20 C       -6.2150    -3.3800     2.0700 C.2   1 <1>   0.1390 
 21 N       -6.6800    -4.2420     0.2120 N.pl3 1 <1>   0.3140 
 22 C       -7.1450    -2.2650    -1.3120 C.3   1 <1>  -0.0600 
 23 N       -6.3300    -4.5230     1.4790 N.2   1 <1>  -0.7070 
 24 C       -6.9310    -5.3270    -0.7620 C.3   1 <1>   0.0960 
 25 C       -8.4110    -5.7360    -0.7610 C.3   1 <1>  -0.1600 
 26 C       -8.6820    -6.8470    -1.7810 C.3   1 <1>  -0.2400 
 27 H       -1.5030     1.7340    -0.7950 H     1 <1>   0.3700 
 28 H       -2.6100     1.6520     1.9200 H     1 <1>   0.0800 
 29 H       -0.2690     3.5300    -1.3160 H     1 <1>   0.1500 
 30 H        2.4570     1.2580     1.0460 H     1 <1>   0.1500 
 31 H       -2.3570    -0.8940     0.2980 H     1 <1>   0.0800 
 32 H       -3.8560     2.6670     0.1180 H     1 <1>   0.0800 
 33 H       -3.8200     1.1960    -0.8190 H     1 <1>   0.0800 
 34 H        1.5930     4.3750    -2.6520 H     1 <1>   0.1500 
 35 H        4.3220     2.1170    -0.2920 H     1 <1>   0.1500 
 36 H       -0.8780    -0.0270     2.0950 H     1 <1>   0.4000 
 37 H       -4.0040    -0.5480     2.7940 H     1 <1>   0.0800 
 38 H       -3.9270    -1.9490     1.7520 H     1 <1>   0.0800 
 39 H       -5.9780     1.4550     0.3080 H     1 <1>   0.0800 
 40 H       -5.1780     1.5800     1.8580 H     1 <1>   0.0800 
 41 H        3.8940     3.6730    -2.1490 H     1 <1>   0.1500 
 42 H       -5.0820    -0.7800     0.0640 H     1 <1>   0.4500 
 43 H       -6.3980    -0.7420     2.6510 H     1 <1>   0.0800 
 44 H       -7.2290    -0.3470     1.1550 H     1 <1>   0.0800 
 45 H       -5.9520    -3.2930     3.1120 H     1 <1>   0.1500 
 46 H       -7.1940    -1.1950    -1.2320 H     1 <1>   0.0800 
 47 H       -8.1110    -2.6200    -1.6260 H     1 <1>   0.0800 
 48 H       -6.4250    -2.5220    -2.0700 H     1 <1>   0.0800 
 49 H       -6.6330    -4.9950    -1.7390 H     1 <1>   0.0800 
 50 H       -6.3200    -6.1690    -0.4880 H     1 <1>   0.0800 
 51 H       -8.6770    -6.0880     0.2220 H     1 <1>   0.0800 
 52 H       -9.0250    -4.8850    -0.9950 H     1 <1>   0.0800 
 53 H       -8.0960    -7.7200    -1.5530 H     1 <1>   0.0800 
 54 H       -8.4420    -6.5170    -2.7770 H     1 <1>   0.0800 
 55 H       -9.7220    -7.1220    -1.7550 H     1 <1>   0.0800 
@<TRIPOS>BOND
  1   1   2  2   
  2   2   3  am  
  3   2   4  1   
  4   3   5  1   
  5   3  27  1   
  6   4   6  ar  
  7   4   7  ar  
  8   5   8  1   
  9   5   9  1   
 10   5  28  1   
 11   6  10  ar  
 12   6  29  1   
 13   7  11  ar  
 14   7  30  1   
 15   8  12  1   
 16   8  13  1   
 17   8  31  1   
 18   9  14  1   
 19   9  32  1   
 20   9  33  1   
 21  10  15  ar  
 22  10  34  1   
 23  11  15  ar  
 24  11  35  1   
 25  12  36  1   
 26  13  16  1   
 27  13  37  1   
 28  13  38  1   
 29  14  16  1   
 30  14  39  1   
 31  14  40  1   
 32  15  41  1   
 33  16  17  1   
 34  16  42  1   
 35  17  18  1   
 36  17  43  1   
 37  17  44  1   
 38  18  19  2   
 39  18  20  1   
 40  19  21  1   
 41  19  22  1   
 42  20  23  2   
 43  20  45  1   
 44  21  23  1   
 45  21  24  1   
 46  22  46  1   
 47  22  47  1   
 48  22  48  1   
 49  24  25  1   
 50  24  49  1   
 51  24  50  1   
 52  25  26  1   
 53  25  51  1   
 54  25  52  1   
 55  26  53  1   
 56  26  54  1   
 57  26  55  1   
@<TRIPOS>SUBSTRUCTURE
  1 ****   8 GROUP 4 **** **** 0

# MOE 2024.06 (io_trps.svl 2023.06)
