@<TRIPOS>MOLECULE
NONAME
46 48 1 0 0 
SMALL
USER_CHARGES


@<TRIPOS>ATOM
  1 S        3.4060     1.2540     1.4360 S.o2  1 <1>   1.3330 
  2 O        4.7650     1.7260     1.2740 O.2   1 <1>  -0.6500 
  3 O        2.9020     0.9520     2.7520 O.2   1 <1>  -0.6500 
  4 N        3.2340    -0.1630     0.4560 N.am  1 <1>  -0.6930 
  5 C        2.3010     2.3940     0.6300 C.3   1 <1>  -0.1350 
  6 C        1.9920    -0.7870     0.3520 C.ar  1 <1>   0.1990 
  7 C        4.3700    -0.4960    -0.4660 C.3   1 <1>   0.3370 
  8 C        1.4630    -1.4780     1.4360 C.ar  1 <1>  -0.1500 
  9 C        1.2480    -0.7240    -0.8220 C.ar  1 <1>  -0.1500 
 10 C        4.4870     0.4910    -1.6530 C.2   1 <1>   0.5690 
 11 C        4.3200    -1.9710    -0.9000 C.3   1 <1>  -0.2400 
 12 C        0.2270    -2.0930     1.3510 C.ar  1 <1>  -0.1500 
 13 C        0.0120    -1.3380    -0.9120 C.ar  1 <1>  -0.1500 
 14 O        3.9580     0.2510    -2.7130 O.2   1 <1>  -0.5700 
 15 N        5.1700     1.6490    -1.4630 N.am  1 <1>  -0.7300 
 16 C       -0.5000    -2.0250     0.1750 C.ar  1 <1>  -0.1500 
 17 C        5.1010     2.8330    -2.3470 C.3   1 <1>   0.3210 
 18 C        4.5900     4.0160    -1.5400 C.2   1 <1>   0.1080 
 19 N        3.5190     4.6790    -1.8080 N.2   1 <1>  -0.4100 
 20 C        5.1960     4.5120    -0.3870 C.2   1 <1>  -0.1500 
 21 O        3.4090     5.5820    -0.8750 O.3   1 <1>  -0.0190 
 22 C        4.3850     5.5100    -0.0100 C.2   1 <1>   0.0550 
 23 C        4.4370     6.4670     1.1640 C.3   1 <1>  -0.0150 
 24 C        5.1100     6.0760     2.4420 C.3   1 <1>  -0.2000 
 25 C        3.6150     6.2160     2.3870 C.3   1 <1>  -0.2000 
 26 H        2.3750     3.3640     1.0790 H     1 <1>   0.0800 
 27 H        1.2880     2.0510     0.7190 H     1 <1>   0.0800 
 28 H        2.5400     2.4780    -0.4110 H     1 <1>   0.0800 
 29 H        5.2770    -0.3960     0.1050 H     1 <1>   0.0800 
 30 H        2.0270    -1.5280     2.3500 H     1 <1>   0.1500 
 31 H        1.6360    -0.1920    -1.6720 H     1 <1>   0.1500 
 32 H        3.4830    -2.1550    -1.5480 H     1 <1>   0.0800 
 33 H        4.2580    -2.6110    -0.0390 H     1 <1>   0.0800 
 34 H        5.2150    -2.2140    -1.4430 H     1 <1>   0.0800 
 35 H       -0.1690    -2.6240     2.2000 H     1 <1>   0.1500 
 36 H       -0.5510    -1.2840    -1.8280 H     1 <1>   0.1500 
 37 H        5.4750     1.8620    -0.5010 H     1 <1>   0.3700 
 38 H       -1.4620    -2.5040     0.1070 H     1 <1>   0.1500 
 39 H        4.4390     2.6460    -3.1760 H     1 <1>   0.0800 
 40 H        6.0810     3.0520    -2.7330 H     1 <1>   0.0800 
 41 H        6.0960     4.1540     0.0780 H     1 <1>   0.1500 
 42 H        4.5360     7.4900     0.8440 H     1 <1>   0.1000 
 43 H        5.6820     6.8190     2.9720 H     1 <1>   0.1000 
 44 H        5.5240     5.0870     2.5410 H     1 <1>   0.1000 
 45 H        3.0130     5.3260     2.4350 H     1 <1>   0.1000 
 46 H        3.1530     7.0550     2.8770 H     1 <1>   0.1000 
@<TRIPOS>BOND
  1   1   2  2   
  2   1   3  2   
  3   1   4  am  
  4   1   5  1   
  5   4   6  1   
  6   4   7  1   
  7   5  26  1   
  8   5  27  1   
  9   5  28  1   
 10   6   8  ar  
 11   6   9  ar  
 12   7  10  1   
 13   7  11  1   
 14   7  29  1   
 15   8  12  ar  
 16   8  30  1   
 17   9  13  ar  
 18   9  31  1   
 19  10  14  2   
 20  10  15  am  
 21  11  32  1   
 22  11  33  1   
 23  11  34  1   
 24  12  16  ar  
 25  12  35  1   
 26  13  16  ar  
 27  13  36  1   
 28  15  17  1   
 29  15  37  1   
 30  16  38  1   
 31  17  18  1   
 32  17  39  1   
 33  17  40  1   
 34  18  19  2   
 35  18  20  1   
 36  19  21  1   
 37  20  22  2   
 38  20  41  1   
 39  21  22  1   
 40  22  23  1   
 41  23  24  1   
 42  23  25  1   
 43  23  42  1   
 44  24  25  1   
 45  24  43  1   
 46  24  44  1   
 47  25  45  1   
 48  25  46  1   
@<TRIPOS>SUBSTRUCTURE
  1 ****   5 GROUP 4 **** **** 0

# MOE 2024.06 (io_trps.svl 2023.06)
