@<TRIPOS>MOLECULE
NONAME
55 57 1 0 0 
SMALL
USER_CHARGES


@<TRIPOS>ATOM
  1 O       -0.8670     0.4310     1.7730 O.2   1 <1>  -0.5700 
  2 C       -1.2600     0.7330     0.6720 C.2   1 <1>   0.5690 
  3 N       -1.7350    -0.2010    -0.2070 N.am  1 <1>  -0.6600 
  4 C       -1.2200     2.1980     0.2600 C.3   1 <1>  -0.0990 
  5 C       -1.7850    -1.6540     0.1810 C.3   1 <1>   0.3640 
  6 C       -2.3010     0.1410    -1.5510 C.3   1 <1>   0.1400 
  7 C       -0.5560     3.1210     1.2920 C.3   1 <1>  -0.0170 
  8 C       -0.5830    -2.4420    -0.3700 C.ar  1 <1>  -0.1440 
  9 C       -3.1390    -2.3100    -0.2460 C.3   1 <1>   0.2000 
 10 C       -2.8840    -1.0850    -2.2700 C.3   1 <1>   0.1200 
 11 C       -0.5450     4.5520     0.7790 C.ar  1 <1>  -0.1440 
 12 C       -0.4190    -3.7580     0.0480 C.ar  1 <1>  -0.1500 
 13 C        0.3570    -1.9110    -1.2500 C.ar  1 <1>  -0.1500 
 14 O       -3.7370    -1.7640    -1.4030 O.3   1 <1>  -0.5600 
 15 C       -4.1820    -2.2040     0.8730 C.3   1 <1>   0.1200 
 16 C        0.5360     5.0260     0.0520 C.ar  1 <1>  -0.1500 
 17 C       -1.6200     5.3910     1.0260 C.ar  1 <1>  -0.1500 
 18 C        0.6260    -4.5390    -0.4150 C.ar  1 <1>   0.0830 
 19 C        1.4180    -2.6750    -1.7040 C.ar  1 <1>  -0.1500 
 20 O       -3.8490    -3.0540     1.9240 O.3   1 <1>  -0.6800 
 21 C        0.5410     6.3260    -0.4250 C.ar  1 <1>  -0.1500 
 22 C       -1.6160     6.6910     0.5500 C.ar  1 <1>  -0.1500 
 23 O        0.6740    -5.8270     0.0080 O.3   1 <1>  -0.3630 
 24 C        1.5700    -3.9830    -1.2840 C.ar  1 <1>   0.0830 
 25 C       -0.5360     7.1590    -0.1770 C.ar  1 <1>  -0.1500 
 26 C        0.5470    -6.8230    -0.9830 C.3   1 <1>   0.0400 
 27 O        2.6510    -4.6650    -1.7350 O.3   1 <1>  -0.3630 
 28 C        3.6240    -4.9910    -0.7670 C.3   1 <1>   0.0400 
 29 H       -0.6810     2.2800    -0.6640 H     1 <1>   0.0800 
 30 H       -2.2270     2.5340     0.0970 H     1 <1>   0.0800 
 31 H       -1.7160    -1.7310     1.2530 H     1 <1>   0.0800 
 32 H       -3.0860     0.8660    -1.4300 H     1 <1>   0.0800 
 33 H       -1.5340     0.5770    -2.1660 H     1 <1>   0.0800 
 34 H        0.4510     2.7910     1.4800 H     1 <1>   0.0800 
 35 H       -1.0930     3.0720     2.2240 H     1 <1>   0.0800 
 36 H       -2.9840    -3.3520    -0.4560 H     1 <1>   0.0800 
 37 H       -2.1110    -1.7570    -2.6000 H     1 <1>   0.0800 
 38 H       -3.4590    -0.7770    -3.1250 H     1 <1>   0.0800 
 39 H       -1.1090    -4.2000     0.7450 H     1 <1>   0.1500 
 40 H        0.2870    -0.8930    -1.5860 H     1 <1>   0.1500 
 41 H       -5.1570    -2.4840     0.5140 H     1 <1>   0.0800 
 42 H       -4.2130    -1.1980     1.2560 H     1 <1>   0.0800 
 43 H        1.3780     4.3870    -0.1460 H     1 <1>   0.1500 
 44 H       -2.4640     5.0360     1.5910 H     1 <1>   0.1500 
 45 H        2.1410    -2.2550    -2.3800 H     1 <1>   0.1500 
 46 H       -4.0920    -3.9780     1.7150 H     1 <1>   0.4000 
 47 H        1.3830     6.6890    -0.9880 H     1 <1>   0.1500 
 48 H       -2.4530     7.3380     0.7460 H     1 <1>   0.1500 
 49 H       -0.5320     8.1690    -0.5470 H     1 <1>   0.1500 
 50 H        0.4480    -7.7740    -0.4920 H     1 <1>   0.0800 
 51 H        1.4240    -6.8230    -1.6040 H     1 <1>   0.0800 
 52 H       -0.3280    -6.6180    -1.5730 H     1 <1>   0.0800 
 53 H        4.4560    -5.4520    -1.2680 H     1 <1>   0.0800 
 54 H        3.2010    -5.6750    -0.0530 H     1 <1>   0.0800 
 55 H        3.9410    -4.0880    -0.2760 H     1 <1>   0.0800 
@<TRIPOS>BOND
  1   1   2  2   
  2   2   3  am  
  3   2   4  1   
  4   3   5  1   
  5   3   6  1   
  6   4   7  1   
  7   4  29  1   
  8   4  30  1   
  9   5   8  1   
 10   5   9  1   
 11   5  31  1   
 12   6  10  1   
 13   6  32  1   
 14   6  33  1   
 15   7  11  1   
 16   7  34  1   
 17   7  35  1   
 18   8  12  ar  
 19   8  13  ar  
 20   9  14  1   
 21   9  15  1   
 22   9  36  1   
 23  10  14  1   
 24  10  37  1   
 25  10  38  1   
 26  11  16  ar  
 27  11  17  ar  
 28  12  18  ar  
 29  12  39  1   
 30  13  19  ar  
 31  13  40  1   
 32  15  20  1   
 33  15  41  1   
 34  15  42  1   
 35  16  21  ar  
 36  16  43  1   
 37  17  22  ar  
 38  17  44  1   
 39  18  23  1   
 40  18  24  ar  
 41  19  24  ar  
 42  19  45  1   
 43  20  46  1   
 44  21  25  ar  
 45  21  47  1   
 46  22  25  ar  
 47  22  48  1   
 48  23  26  1   
 49  24  27  1   
 50  25  49  1   
 51  26  50  1   
 52  26  51  1   
 53  26  52  1   
 54  27  28  1   
 55  28  53  1   
 56  28  54  1   
 57  28  55  1   
@<TRIPOS>SUBSTRUCTURE
  1 ****   3 GROUP 4 **** **** 0

# MOE 2024.06 (io_trps.svl 2023.06)
