@<TRIPOS>MOLECULE
Untitled Document
55 57 1 0 0 
SMALL
USER_CHARGES


@<TRIPOS>ATOM
  1 O        0.3660     1.1080    -1.5830 O.3   1 <1>  -0.5320 
  2 C        1.5410     1.4590    -1.0410 C.ar  1 <1>   0.0830 
  3 C        2.0440     0.7210     0.0140 C.ar  1 <1>  -0.1500 
  4 C        2.2410     2.5490    -1.5290 C.ar  1 <1>  -0.1500 
  5 C        3.2540     1.0730     0.5840 C.ar  1 <1>  -0.1500 
  6 C        3.4520     2.8980    -0.9550 C.ar  1 <1>  -0.1500 
  7 C        3.9720     2.1660     0.1060 C.ar  1 <1>  -0.1430 
  8 C        5.3080     2.5890     0.7140 C.3   1 <1>   0.3430 
  9 O        5.2800     2.3510     2.0750 O.3   1 <1>  -0.6800 
 10 C        6.5460     1.8880     0.1130 C.3   1 <1>  -0.0800 
 11 C        7.7820     2.3840     0.8860 C.3   1 <1>   0.3430 
 12 C        6.4240     0.3450     0.0960 C.3   1 <1>  -0.2400 
 13 N        9.0430     1.7650     0.3820 N.4   1 <1>  -0.9590 
 14 C        9.4970     0.6750     1.2950 C.3   1 <1>   0.3430 
 15 C       10.1090     2.7880     0.1870 C.3   1 <1>   0.3430 
 16 C       10.7140    -0.0280     0.6930 C.3   1 <1>  -0.1600 
 17 C       11.3390     2.1340    -0.4370 C.3   1 <1>  -0.1600 
 18 C       11.8580     0.9600     0.4150 C.3   1 <1>  -0.0800 
 19 C       13.0500     0.2470    -0.2510 C.3   1 <1>  -0.0170 
 20 C       14.2060     1.2050    -0.4990 C.ar  1 <1>  -0.1430 
 21 C       14.9970     1.6300     0.5570 C.ar  1 <1>  -0.1500 
 22 C       14.4770     1.6660    -1.7790 C.ar  1 <1>  -0.1500 
 23 C       16.0390     2.5140     0.3390 C.ar  1 <1>  -0.1500 
 24 C       15.5190     2.5500    -1.9980 C.ar  1 <1>  -0.1500 
 25 C       16.3000     2.9760    -0.9380 C.ar  1 <1>  -0.1500 
 26 H        0.0890     1.6870    -2.3150 H     1 <1>   0.4500 
 27 H        1.4870    -0.1230     0.3790 H     1 <1>   0.1500 
 28 H        1.8500     3.1230    -2.3490 H     1 <1>   0.1500 
 29 H        3.6320     0.4810     1.4010 H     1 <1>   0.1500 
 30 H        3.9830     3.7480    -1.3450 H     1 <1>   0.1500 
 31 H        5.4100     3.6550     0.5950 H     1 <1>   0.0800 
 32 H        4.3720     2.5290     2.3970 H     1 <1>   0.4000 
 33 H        6.6270     2.2240    -0.9050 H     1 <1>   0.0800 
 34 H        7.6590     2.1590     1.9340 H     1 <1>   0.0800 
 35 H        7.8370     3.4560     0.7900 H     1 <1>   0.0800 
 36 H        6.3120    -0.0390     1.0950 H     1 <1>   0.0800 
 37 H        7.2760    -0.1190    -0.3650 H     1 <1>   0.0800 
 38 H        5.5620     0.0440    -0.4750 H     1 <1>   0.0800 
 39 H        8.8430     1.3410    -0.5330 H     1 <1>   0.4500 
 40 H        9.7590     1.0910     2.2550 H     1 <1>   0.0800 
 41 H        8.7040    -0.0400     1.4430 H     1 <1>   0.0800 
 42 H        9.7550     3.5750    -0.4610 H     1 <1>   0.0800 
 43 H       10.3760     3.2240     1.1360 H     1 <1>   0.0800 
 44 H       11.0520    -0.7820     1.3830 H     1 <1>   0.0800 
 45 H       10.4210    -0.5280    -0.2140 H     1 <1>   0.0800 
 46 H       11.1030     1.7980    -1.4320 H     1 <1>   0.0800 
 47 H       12.1080     2.8830    -0.5260 H     1 <1>   0.0800 
 48 H       12.1980     1.3560     1.3580 H     1 <1>   0.0800 
 49 H       12.7430    -0.1970    -1.1820 H     1 <1>   0.0800 
 50 H       13.3970    -0.5510     0.3840 H     1 <1>   0.0800 
 51 H       14.8090     1.2750     1.5550 H     1 <1>   0.1500 
 52 H       13.8820     1.3410    -2.6140 H     1 <1>   0.1500 
 53 H       16.6500     2.8410     1.1630 H     1 <1>   0.1500 
 54 H       15.7250     2.9050    -2.9930 H     1 <1>   0.1500 
 55 H       17.1110     3.6630    -1.1080 H     1 <1>   0.1500 
@<TRIPOS>BOND
  1   1   2  1   
  2   1  26  1   
  3   2   3  ar  
  4   2   4  ar  
  5   3   5  ar  
  6   3  27  1   
  7   4   6  ar  
  8   4  28  1   
  9   5   7  ar  
 10   5  29  1   
 11   6   7  ar  
 12   6  30  1   
 13   7   8  1   
 14   8   9  1   
 15   8  10  1   
 16   8  31  1   
 17   9  32  1   
 18  10  11  1   
 19  10  12  1   
 20  10  33  1   
 21  11  13  1   
 22  11  34  1   
 23  11  35  1   
 24  12  36  1   
 25  12  37  1   
 26  12  38  1   
 27  13  14  1   
 28  13  15  1   
 29  13  39  1   
 30  14  16  1   
 31  14  40  1   
 32  14  41  1   
 33  15  17  1   
 34  15  42  1   
 35  15  43  1   
 36  16  18  1   
 37  16  44  1   
 38  16  45  1   
 39  17  18  1   
 40  17  46  1   
 41  17  47  1   
 42  18  19  1   
 43  18  48  1   
 44  19  20  1   
 45  19  49  1   
 46  19  50  1   
 47  20  21  ar  
 48  20  22  ar  
 49  21  23  ar  
 50  21  51  1   
 51  22  24  ar  
 52  22  52  1   
 53  23  25  ar  
 54  23  53  1   
 55  24  25  ar  
 56  24  54  1   
 57  25  55  1   
@<TRIPOS>SUBSTRUCTURE
  1 ****  13 GROUP 4 **** **** 0

# MOE 2024.06 (io_trps.svl 2023.06)
