@<TRIPOS>MOLECULE
NONAME
46 48 1 0 0 
SMALL
USER_CHARGES


@<TRIPOS>ATOM
  1 O        0.2150    -2.4620    -2.0270 O.co2 1 <1>  -0.9000 
  2 C       -0.1340    -1.7770    -1.0500 C.2   1 <1>   1.0330 
  3 O       -0.8770    -0.7990    -1.2400 O.co2 1 <1>  -0.9000 
  4 C        0.2800    -2.1190     0.2680 C.2   1 <1>  -0.2330 
  5 C       -0.2940    -3.1120     1.0610 C.2   1 <1>   0.3720 
  6 C        1.2770    -1.6200     1.0440 C.2   1 <1>   0.0870 
  7 N        0.3090    -3.2080     2.1920 N.2   1 <1>  -0.4100 
  8 N       -1.3750    -3.9330     0.7290 N.pl3 1 <1>  -0.8210 
  9 O        1.2510    -2.3010     2.1660 O.3   1 <1>  -0.0190 
 10 C        2.2580    -0.5770     0.8510 C.ar  1 <1>   0.0530 
 11 C       -1.0290    -4.9610    -0.2950 C.3   1 <1>   0.2090 
 12 C       -2.6140    -3.1960     0.3650 C.3   1 <1>   0.2090 
 13 C        3.4330    -0.5510     1.6060 C.ar  1 <1>  -0.1500 
 14 C        2.0840     0.4460    -0.0830 C.ar  1 <1>  -0.1500 
 15 C       -2.1590    -6.0000    -0.3870 C.3   1 <1>   0.2200 
 16 C       -3.7820    -4.1860     0.3030 C.3   1 <1>  -0.1600 
 17 C        4.3820     0.4400     1.4370 C.ar  1 <1>  -0.1500 
 18 C        3.0280     1.4390    -0.2620 C.ar  1 <1>  -0.1500 
 19 N       -1.8770    -6.9970    -1.4470 N.am  1 <1>  -0.7300 
 20 C       -3.5020    -5.3240    -0.6960 C.3   1 <1>  -0.1600 
 21 C        4.1920     1.4430     0.5010 C.ar  1 <1>   0.0820 
 22 C       -1.7980    -8.3410    -1.3500 C.2   1 <1>   0.5690 
 23 O        5.1670     2.3770     0.3900 O.3   1 <1>  -0.3630 
 24 O       -1.5600    -9.0060    -2.3240 O.2   1 <1>  -0.5700 
 25 C       -2.0090    -9.0360    -0.0270 C.3   1 <1>  -0.1790 
 26 C        5.0750     3.4190    -0.5560 C.3   1 <1>   0.0400 
 27 H       -0.1100    -5.4450    -0.0160 H     1 <1>   0.0800 
 28 H       -0.8960    -4.4890    -1.2530 H     1 <1>   0.0800 
 29 H       -2.4980    -2.7190    -0.5940 H     1 <1>   0.0800 
 30 H       -2.8080    -2.4330     1.1010 H     1 <1>   0.0800 
 31 H        3.6030    -1.3220     2.3350 H     1 <1>   0.1500 
 32 H        1.1890     0.4700    -0.6810 H     1 <1>   0.1500 
 33 H       -2.2250    -6.4890     0.5690 H     1 <1>   0.0800 
 34 H       -4.6730    -3.6590     0.0120 H     1 <1>   0.0800 
 35 H       -3.9410    -4.5900     1.2870 H     1 <1>   0.0800 
 36 H        5.2790     0.4410     2.0270 H     1 <1>   0.1500 
 37 H        2.8360     2.1950    -0.9980 H     1 <1>   0.1500 
 38 H       -1.6980    -6.6060    -2.3750 H     1 <1>   0.3700 
 39 H       -4.2940    -6.0500    -0.6500 H     1 <1>   0.0800 
 40 H       -3.4690    -4.9090    -1.6890 H     1 <1>   0.0800 
 41 H       -2.9860    -8.8040     0.3530 H     1 <1>   0.0800 
 42 H       -1.2610    -8.7170     0.6730 H     1 <1>   0.0800 
 43 H       -1.9310   -10.0990    -0.1600 H     1 <1>   0.0800 
 44 H        5.9600     4.0240    -0.4730 H     1 <1>   0.0800 
 45 H        4.2040     4.0110    -0.3390 H     1 <1>   0.0800 
 46 H        5.0150     2.9900    -1.5410 H     1 <1>   0.0800 
@<TRIPOS>BOND
  1   1   2  ar  
  2   2   3  ar  
  3   2   4  1   
  4   4   5  1   
  5   4   6  2   
  6   5   7  2   
  7   5   8  1   
  8   6   9  1   
  9   6  10  1   
 10   7   9  1   
 11   8  11  1   
 12   8  12  1   
 13  10  13  ar  
 14  10  14  ar  
 15  11  15  1   
 16  11  27  1   
 17  11  28  1   
 18  12  16  1   
 19  12  29  1   
 20  12  30  1   
 21  13  17  ar  
 22  13  31  1   
 23  14  18  ar  
 24  14  32  1   
 25  15  19  1   
 26  15  20  1   
 27  15  33  1   
 28  16  20  1   
 29  16  34  1   
 30  16  35  1   
 31  17  21  ar  
 32  17  36  1   
 33  18  21  ar  
 34  18  37  1   
 35  19  22  am  
 36  19  38  1   
 37  20  39  1   
 38  20  40  1   
 39  21  23  1   
 40  22  24  2   
 41  22  25  1   
 42  23  26  1   
 43  25  41  1   
 44  25  42  1   
 45  25  43  1   
 46  26  44  1   
 47  26  45  1   
 48  26  46  1   
@<TRIPOS>SUBSTRUCTURE
  1 ****   4 GROUP 4 **** **** 0

# MOE 2024.06 (io_trps.svl 2023.06)
