@<TRIPOS>MOLECULE
NONAME
59 62 1 0 0 
SMALL
USER_CHARGES


@<TRIPOS>ATOM
  1 O       -0.7580     3.4160    -3.1000 O.2   1 <1>  -0.5700 
  2 C       -0.2420     3.4330    -2.0090 C.2   1 <1>   0.5690 
  3 N       -0.8820     3.5980    -0.8290 N.am  1 <1>  -0.6600 
  4 C        1.2380     3.2840    -1.7980 C.3   1 <1>  -0.0990 
  5 C        0.0330     3.6040     0.3240 C.3   1 <1>   0.1400 
  6 C       -2.3350     3.8240    -0.6770 C.3   1 <1>   0.1400 
  7 C        1.3830     3.1760    -0.2690 C.3   1 <1>  -0.1600 
  8 C       -2.9830     2.6340     0.0330 C.3   1 <1>  -0.1600 
  9 C       -4.5190     2.7440     0.0230 C.3   1 <1>  -0.0990 
 10 C       -5.2400     1.6130     0.7520 C.2   1 <1>   0.5690 
 11 O       -4.5840     0.8580     1.4310 O.2   1 <1>  -0.5700 
 12 N       -6.6020     1.4790     0.6410 N.am  1 <1>  -0.6600 
 13 C       -7.5110     2.4260    -0.0840 C.3   1 <1>   0.1400 
 14 C       -7.3180     0.3270     1.2620 C.3   1 <1>   0.1400 
 15 C       -8.5970     2.9810     0.8580 C.3   1 <1>   0.1430 
 16 C       -8.4110     0.8330     2.2130 C.3   1 <1>  -0.1600 
 17 C       -9.5040     3.8910     0.0520 C.ar  1 <1>   0.1670 
 18 C       -9.3670     1.8130     1.5110 C.3   1 <1>  -0.1600 
 19 C       -8.0040     3.9490     1.9190 C.3   1 <1>  -0.1600 
 20 N      -10.3630     3.4920    -0.8520 N.ar  1 <1>  -0.6200 
 21 C       -9.3050     5.2020     0.3590 C.ar  1 <1>  -0.1440 
 22 C       -8.2380     5.3820     1.4090 C.3   1 <1>  -0.0170 
 23 C      -11.0560     4.4650    -1.4490 C.ar  1 <1>   0.7200 
 24 C      -10.0610     6.1340    -0.3060 C.ar  1 <1>   0.1600 
 25 N      -10.9390     5.7760    -1.2130 N.ar  1 <1>  -0.6200 
 26 N      -11.9760     4.0790    -2.4050 N.pl3 1 <1>  -0.8380 
 27 C      -12.6010     5.0550    -3.3390 C.3   1 <1>   0.1290 
 28 C      -12.4510     2.6730    -2.5260 C.3   1 <1>   0.1290 
 29 H        1.7340     4.1580    -2.1770 H     1 <1>   0.0800 
 30 H        1.6020     2.4050    -2.2980 H     1 <1>   0.0800 
 31 H       -0.2950     2.9120     1.0810 H     1 <1>   0.0800 
 32 H        0.0880     4.5990     0.7330 H     1 <1>   0.0800 
 33 H       -2.7740     3.9440    -1.6540 H     1 <1>   0.0800 
 34 H       -2.5000     4.7310    -0.1200 H     1 <1>   0.0800 
 35 H        2.1860     3.7880     0.1030 H     1 <1>   0.0800 
 36 H        1.5730     2.1530     0.0050 H     1 <1>   0.0800 
 37 H       -2.6370     2.5900     1.0510 H     1 <1>   0.0800 
 38 H       -2.6970     1.7230    -0.4650 H     1 <1>   0.0800 
 39 H       -4.8470     2.7480    -1.0000 H     1 <1>   0.0800 
 40 H       -4.8100     3.6710     0.4800 H     1 <1>   0.0800 
 41 H       -7.9870     1.8960    -0.8920 H     1 <1>   0.0800 
 42 H       -6.9680     3.2470    -0.5120 H     1 <1>   0.0800 
 43 H       -6.6330    -0.3020     1.8060 H     1 <1>   0.0800 
 44 H       -7.7620    -0.2670     0.4820 H     1 <1>   0.0800 
 45 H       -7.9420     1.3090     3.0560 H     1 <1>   0.0800 
 46 H       -8.9690    -0.0080     2.5850 H     1 <1>   0.0800 
 47 H       -9.9070     1.2820     0.7460 H     1 <1>   0.0800 
 48 H      -10.0930     2.1910     2.2100 H     1 <1>   0.0800 
 49 H       -6.9630     3.7610     2.1130 H     1 <1>   0.0800 
 50 H       -8.5390     3.8360     2.8450 H     1 <1>   0.0800 
 51 H       -7.3460     5.7770     0.9560 H     1 <1>   0.0800 
 52 H       -8.5660     6.0340     2.2010 H     1 <1>   0.0800 
 53 H       -9.9440     7.1830    -0.0950 H     1 <1>   0.1500 
 54 H      -11.9290     5.8740    -3.5350 H     1 <1>   0.0800 
 55 H      -13.5050     5.4420    -2.9030 H     1 <1>   0.0800 
 56 H      -12.8320     4.5770    -4.2750 H     1 <1>   0.0800 
 57 H      -12.3760     2.1650    -1.5800 H     1 <1>   0.0800 
 58 H      -11.8500     2.1530    -3.2510 H     1 <1>   0.0800 
 59 H      -13.4800     2.6550    -2.8370 H     1 <1>   0.0800 
@<TRIPOS>BOND
  1   1   2  2   
  2   2   3  am  
  3   2   4  1   
  4   3   5  1   
  5   3   6  1   
  6   4   7  1   
  7   4  29  1   
  8   4  30  1   
  9   5   7  1   
 10   5  31  1   
 11   5  32  1   
 12   6   8  1   
 13   6  33  1   
 14   6  34  1   
 15   7  35  1   
 16   7  36  1   
 17   8   9  1   
 18   8  37  1   
 19   8  38  1   
 20   9  10  1   
 21   9  39  1   
 22   9  40  1   
 23  10  11  2   
 24  10  12  am  
 25  12  13  1   
 26  12  14  1   
 27  13  15  1   
 28  13  41  1   
 29  13  42  1   
 30  14  16  1   
 31  14  43  1   
 32  14  44  1   
 33  15  17  1   
 34  15  18  1   
 35  15  19  1   
 36  16  18  1   
 37  16  45  1   
 38  16  46  1   
 39  17  20  ar  
 40  17  21  ar  
 41  18  47  1   
 42  18  48  1   
 43  19  22  1   
 44  19  49  1   
 45  19  50  1   
 46  20  23  ar  
 47  21  22  1   
 48  21  24  ar  
 49  22  51  1   
 50  22  52  1   
 51  23  25  ar  
 52  23  26  1   
 53  24  25  ar  
 54  24  53  1   
 55  26  27  1   
 56  26  28  1   
 57  27  54  1   
 58  27  55  1   
 59  27  56  1   
 60  28  57  1   
 61  28  58  1   
 62  28  59  1   
@<TRIPOS>SUBSTRUCTURE
  1 ****  13 GROUP 4 **** **** 0

# MOE 2024.06 (io_trps.svl 2023.06)
