@<TRIPOS>MOLECULE
NONAME
50 52 1 0 0 
SMALL
USER_CHARGES


@<TRIPOS>ATOM
  1 F       -0.1900    -1.9330    -1.2930 F     1 <1>  -0.1900 
  2 C       -1.4040    -2.1870    -0.8830 C.ar  1 <1>   0.1900 
  3 C       -2.4640    -1.5660    -1.5150 C.ar  1 <1>  -0.1500 
  4 C       -1.5830    -3.0660     0.1670 C.ar  1 <1>  -0.1500 
  5 C       -3.7500    -1.8380    -1.0770 C.ar  1 <1>  -0.1500 
  6 C       -2.8730    -3.3290     0.5950 C.ar  1 <1>  -0.1500 
  7 C       -3.9590    -2.7180    -0.0210 C.ar  1 <1>  -0.1430 
  8 C       -5.3730    -3.0150     0.4660 C.3   1 <1>   0.2540 
  9 N       -5.6300    -4.4640     0.5310 N.3   1 <1>  -0.8100 
 10 C       -6.9070    -4.7510     1.2480 C.3   1 <1>   0.1710 
 11 C       -5.5560    -5.1040    -0.7910 C.3   1 <1>   0.0300 
 12 C       -7.2190    -6.2340     1.5240 C.2   1 <1>   0.5690 
 13 O       -6.8440    -6.7100     2.5710 O.2   1 <1>  -0.5700 
 14 N       -7.9460    -6.9880     0.6350 N.am  1 <1>  -0.6600 
 15 C       -8.6920    -6.5160    -0.5560 C.3   1 <1>   0.1400 
 16 C       -8.2010    -8.4360     0.8530 C.3   1 <1>   0.1400 
 17 C       -9.8070    -7.5450    -0.7270 C.3   1 <1>   0.2000 
 18 C       -9.1920    -8.8610    -0.2450 C.3   1 <1>  -0.0800 
 19 O      -10.8380    -7.2130     0.1350 O.3   1 <1>  -0.6800 
 20 C       -8.4960    -9.5970    -1.4070 C.3   1 <1>  -0.0170 
 21 C       -7.9840   -10.9660    -0.9890 C.ar  1 <1>   0.1670 
 22 N       -6.7020   -11.0450    -0.6740 N.ar  1 <1>  -0.6200 
 23 C       -8.8580   -12.0430    -0.9600 C.ar  1 <1>  -0.1500 
 24 C       -6.2720   -12.2420    -0.3090 C.ar  1 <1>   0.1600 
 25 C       -8.3970   -13.2850    -0.5790 C.ar  1 <1>  -0.1500 
 26 C       -7.0640   -13.3760    -0.2460 C.ar  1 <1>  -0.1500 
 27 H       -2.2830    -0.8880    -2.3290 H     1 <1>   0.1500 
 28 H       -0.7350    -3.5320     0.6350 H     1 <1>   0.1500 
 29 H       -4.5840    -1.3610    -1.5610 H     1 <1>   0.1500 
 30 H       -3.0420    -4.0170     1.4070 H     1 <1>   0.1500 
 31 H       -6.0960    -2.5480    -0.1800 H     1 <1>   0.0800 
 32 H       -5.4790    -2.5920     1.4510 H     1 <1>   0.0800 
 33 H       -6.8640    -4.2700     2.2090 H     1 <1>   0.0800 
 34 H       -7.7240    -4.3090     0.7120 H     1 <1>   0.0800 
 35 H       -4.5970    -4.9160    -1.2420 H     1 <1>   0.0800 
 36 H       -6.3280    -4.7270    -1.4380 H     1 <1>   0.0800 
 37 H       -5.6610    -6.1710    -0.6900 H     1 <1>   0.0800 
 38 H       -9.0920    -5.5270    -0.4290 H     1 <1>   0.0800 
 39 H       -8.0390    -6.5400    -1.4100 H     1 <1>   0.0800 
 40 H       -7.2750    -8.9840     0.8110 H     1 <1>   0.0800 
 41 H       -8.6370    -8.5750     1.8280 H     1 <1>   0.0800 
 42 H      -10.2020    -7.5830    -1.7280 H     1 <1>   0.0800 
 43 H       -9.9490    -9.5110     0.1600 H     1 <1>   0.0800 
 44 H      -10.4720    -7.1180     1.0390 H     1 <1>   0.4000 
 45 H       -7.6730    -9.0120    -1.7800 H     1 <1>   0.0800 
 46 H       -9.1920    -9.7300    -2.2150 H     1 <1>   0.0800 
 47 H       -9.8900   -11.9130    -1.2300 H     1 <1>   0.1500 
 48 H       -5.2310   -12.3240    -0.0460 H     1 <1>   0.1500 
 49 H       -9.0470   -14.1430    -0.5440 H     1 <1>   0.1500 
 50 H       -6.6380   -14.3150     0.0610 H     1 <1>   0.1500 
@<TRIPOS>BOND
  1   1   2  1   
  2   2   3  ar  
  3   2   4  ar  
  4   3   5  ar  
  5   3  27  1   
  6   4   6  ar  
  7   4  28  1   
  8   5   7  ar  
  9   5  29  1   
 10   6   7  ar  
 11   6  30  1   
 12   7   8  1   
 13   8   9  1   
 14   8  31  1   
 15   8  32  1   
 16   9  10  1   
 17   9  11  1   
 18  10  12  1   
 19  10  33  1   
 20  10  34  1   
 21  11  35  1   
 22  11  36  1   
 23  11  37  1   
 24  12  13  2   
 25  12  14  am  
 26  14  15  1   
 27  14  16  1   
 28  15  17  1   
 29  15  38  1   
 30  15  39  1   
 31  16  18  1   
 32  16  40  1   
 33  16  41  1   
 34  17  18  1   
 35  17  19  1   
 36  17  42  1   
 37  18  20  1   
 38  18  43  1   
 39  19  44  1   
 40  20  21  1   
 41  20  45  1   
 42  20  46  1   
 43  21  22  ar  
 44  21  23  ar  
 45  22  24  ar  
 46  23  25  ar  
 47  23  47  1   
 48  24  26  ar  
 49  24  48  1   
 50  25  26  ar  
 51  25  49  1   
 52  26  50  1   
@<TRIPOS>SUBSTRUCTURE
  1 ****  11 GROUP 4 **** **** 0

# MOE 2024.06 (io_trps.svl 2023.06)
