@<TRIPOS>MOLECULE
NONAME
44 46 1 0 0 
SMALL
USER_CHARGES


@<TRIPOS>ATOM
  1 S       -0.2880     0.2610    -1.0370 S.3   1 <1>  -0.0800 
  2 C        1.0920    -0.2640    -0.0710 C.ar  1 <1>   0.0400 
  3 C       -0.6220    -1.3870    -1.5370 C.2   1 <1>  -0.1100 
  4 C        1.2440    -1.6410    -0.1600 C.ar  1 <1>   0.0000 
  5 C        1.9190     0.5510     0.6780 C.ar  1 <1>  -0.1500 
  6 C        0.2490    -2.2750    -1.0010 C.2   1 <1>  -0.0860 
  7 C        2.2960    -2.2150     0.5520 C.ar  1 <1>  -0.1500 
  8 C        2.9550    -0.0430     1.3760 C.ar  1 <1>  -0.1500 
  9 C        0.2280    -3.7050    -1.2180 C.2   1 <1>   0.7160 
 10 C        3.1390    -1.4210     1.3110 C.ar  1 <1>  -0.1500 
 11 O        1.2440    -4.2720    -1.5750 O.2   1 <1>  -0.5700 
 12 N       -0.9290    -4.4290    -1.0310 N.am  1 <1>  -0.6600 
 13 C       -1.0450    -5.8650    -1.4450 C.3   1 <1>   0.1400 
 14 C       -2.1100    -3.9140    -0.2710 C.3   1 <1>   0.1400 
 15 C       -1.1370    -6.8290    -0.2260 C.3   1 <1>  -0.1060 
 16 C       -2.7750    -5.0230     0.5570 C.3   1 <1>  -0.1600 
 17 C       -2.0460    -8.0050    -0.6450 C.2   1 <1>   0.9060 
 18 C       -1.7170    -6.0370     0.9850 C.3   1 <1>   0.2000 
 19 C        0.2760    -7.3380     0.1870 C.3   1 <1>  -0.1600 
 20 O       -2.6440    -8.6630     0.2200 O.co2 1 <1>  -0.9000 
 21 O       -2.1750    -8.2860    -1.8430 O.co2 1 <1>  -0.9000 
 22 O       -2.2550    -6.8600     1.9520 O.3   1 <1>  -0.6800 
 23 C        0.9660    -8.2740    -0.8230 C.3   1 <1>  -0.1600 
 24 C        2.3440    -8.7050    -0.3130 C.3   1 <1>  -0.2400 
 25 H       -1.4550    -1.5380    -2.2000 H     1 <1>   0.1500 
 26 H        1.7560     1.6130     0.7100 H     1 <1>   0.1500 
 27 H        2.4520    -3.2790     0.5070 H     1 <1>   0.1500 
 28 H        3.6210     0.5590     1.9700 H     1 <1>   0.1500 
 29 H        3.9500    -1.8720     1.8560 H     1 <1>   0.1500 
 30 H       -1.9420    -5.9420    -2.0340 H     1 <1>   0.0800 
 31 H       -0.2360    -6.1420    -2.0950 H     1 <1>   0.0800 
 32 H       -1.7850    -3.1380     0.4010 H     1 <1>   0.0800 
 33 H       -2.8250    -3.4940    -0.9560 H     1 <1>   0.0800 
 34 H       -3.5290    -5.5170    -0.0310 H     1 <1>   0.0800 
 35 H       -3.2460    -4.5890     1.4200 H     1 <1>   0.0800 
 36 H       -0.9220    -5.4950     1.4680 H     1 <1>   0.0800 
 37 H        0.9130    -6.4890     0.3650 H     1 <1>   0.0800 
 38 H        0.1780    -7.8730     1.1170 H     1 <1>   0.0800 
 39 H       -2.5490    -7.6980     1.4680 H     1 <1>   0.4000 
 40 H        0.3600    -9.1510    -0.9800 H     1 <1>   0.0800 
 41 H        1.0850    -7.7840    -1.7720 H     1 <1>   0.0800 
 42 H        2.2480    -9.2240     0.6240 H     1 <1>   0.0800 
 43 H        2.9750    -7.8450    -0.1750 H     1 <1>   0.0800 
 44 H        2.8070    -9.3630    -1.0260 H     1 <1>   0.0800 
@<TRIPOS>BOND
  1   1   2  1   
  2   1   3  1   
  3   2   4  ar  
  4   2   5  ar  
  5   3   6  2   
  6   3  25  1   
  7   4   6  1   
  8   4   7  ar  
  9   5   8  ar  
 10   5  26  1   
 11   6   9  1   
 12   7  10  ar  
 13   7  27  1   
 14   8  10  ar  
 15   8  28  1   
 16   9  11  2   
 17   9  12  am  
 18  10  29  1   
 19  12  13  1   
 20  12  14  1   
 21  13  15  1   
 22  13  30  1   
 23  13  31  1   
 24  14  16  1   
 25  14  32  1   
 26  14  33  1   
 27  15  17  1   
 28  15  18  1   
 29  15  19  1   
 30  16  18  1   
 31  16  34  1   
 32  16  35  1   
 33  17  20  ar  
 34  17  21  ar  
 35  18  22  1   
 36  18  36  1   
 37  19  23  1   
 38  19  37  1   
 39  19  38  1   
 40  22  39  1   
 41  23  24  1   
 42  23  40  1   
 43  23  41  1   
 44  24  42  1   
 45  24  43  1   
 46  24  44  1   
@<TRIPOS>SUBSTRUCTURE
  1 ****  12 GROUP 4 **** **** 0

# MOE 2024.06 (io_trps.svl 2023.06)
