@<TRIPOS>MOLECULE
NONAME
44 47 1 0 0 
SMALL
USER_CHARGES


@<TRIPOS>ATOM
  1 O       -3.1970    -0.4960    -2.9090 O.2   1 <1>  -0.5700 
  2 C       -3.0110    -0.9000    -1.7950 C.2   1 <1>   0.5690 
  3 N       -2.6500    -0.0520    -0.8170 N.am  1 <1>  -0.7300 
  4 C       -3.2190    -2.3570    -1.4840 C.3   1 <1>  -0.0190 
  5 C       -2.3850    -0.4210     0.5930 C.3   1 <1>   0.2200 
  6 C       -1.9170    -3.0280    -0.9940 C.3   1 <1>   0.1200 
  7 C       -4.4500    -2.4900    -0.5770 C.3   1 <1>   0.3430 
  8 C       -1.2260    -1.4460     0.6730 C.3   1 <1>   0.1200 
  9 C       -3.6930    -0.9010     1.2850 C.3   1 <1>   0.3430 
 10 O       -1.6270    -2.7550     0.3530 O.3   1 <1>  -0.5600 
 11 N       -4.1640    -2.2770     0.8870 N.4   1 <1>  -0.9590 
 12 C       -5.2520    -2.7820     1.7640 C.3   1 <1>   0.4860 
 13 C       -5.3900    -4.2740     1.5360 C.ar  1 <1>  -0.1440 
 14 C       -6.3920    -4.7530     0.7090 C.ar  1 <1>  -0.1500 
 15 C       -4.5070    -5.1680     2.1230 C.ar  1 <1>  -0.1500 
 16 C       -6.5100    -6.1100     0.4270 C.ar  1 <1>  -0.0230 
 17 C       -4.6220    -6.5230     1.8680 C.ar  1 <1>  -0.1500 
 18 N       -7.5170    -6.5630    -0.4740 N.pl3 1 <1>   0.5930 
 19 C       -5.6120    -6.9900     1.0230 C.ar  1 <1>  -0.1500 
 20 N       -7.9440    -5.8120    -1.5230 N.2   1 <1>  -0.7070 
 21 C       -8.1820    -7.7440    -0.4550 C.2   1 <1>  -0.3020 
 22 C       -8.8420    -6.5300    -2.1220 C.2   1 <1>   0.1390 
 23 C       -9.0370    -7.7560    -1.4970 C.2   1 <1>  -0.1500 
 24 H       -2.4760     0.9170    -1.1060 H     1 <1>   0.3700 
 25 H       -3.4730    -2.8210    -2.4200 H     1 <1>   0.0800 
 26 H       -2.0600     0.4760     1.0920 H     1 <1>   0.0800 
 27 H       -1.0770    -2.7250    -1.5980 H     1 <1>   0.0800 
 28 H       -2.0160    -4.0970    -1.0780 H     1 <1>   0.0800 
 29 H       -4.8320    -3.4880    -0.7150 H     1 <1>   0.0800 
 30 H       -5.2130    -1.8040    -0.9080 H     1 <1>   0.0800 
 31 H       -0.8520    -1.4790     1.6820 H     1 <1>   0.0800 
 32 H       -0.4110    -1.1590     0.0290 H     1 <1>   0.0800 
 33 H       -4.4690    -0.1800     1.0890 H     1 <1>   0.0800 
 34 H       -3.5120    -0.9010     2.3470 H     1 <1>   0.0800 
 35 H       -3.3410    -2.8920     1.0500 H     1 <1>   0.4500 
 36 H       -5.0120    -2.6040     2.7990 H     1 <1>   0.0800 
 37 H       -6.1810    -2.2850     1.5350 H     1 <1>   0.0800 
 38 H       -7.0960    -4.0740     0.2540 H     1 <1>   0.1500 
 39 H       -3.7220    -4.8280     2.7790 H     1 <1>   0.1500 
 40 H       -3.9360    -7.2170     2.3250 H     1 <1>   0.1500 
 41 H       -5.6780    -8.0470     0.8240 H     1 <1>   0.1500 
 42 H       -8.0090    -8.4920     0.2950 H     1 <1>   0.1500 
 43 H       -9.3740    -6.2080    -3.0030 H     1 <1>   0.1500 
 44 H       -9.7280    -8.5210    -1.8040 H     1 <1>   0.1500 
@<TRIPOS>BOND
  1   1   2  2   
  2   2   3  am  
  3   2   4  1   
  4   3   5  1   
  5   3  24  1   
  6   4   6  1   
  7   4   7  1   
  8   4  25  1   
  9   5   8  1   
 10   5   9  1   
 11   5  26  1   
 12   6  10  1   
 13   6  27  1   
 14   6  28  1   
 15   7  11  1   
 16   7  29  1   
 17   7  30  1   
 18   8  10  1   
 19   8  31  1   
 20   8  32  1   
 21   9  11  1   
 22   9  33  1   
 23   9  34  1   
 24  11  12  1   
 25  11  35  1   
 26  12  13  1   
 27  12  36  1   
 28  12  37  1   
 29  13  14  ar  
 30  13  15  ar  
 31  14  16  ar  
 32  14  38  1   
 33  15  17  ar  
 34  15  39  1   
 35  16  18  1   
 36  16  19  ar  
 37  17  19  ar  
 38  17  40  1   
 39  18  20  1   
 40  18  21  1   
 41  19  41  1   
 42  20  22  2   
 43  21  23  2   
 44  21  42  1   
 45  22  23  1   
 46  22  43  1   
 47  23  44  1   
@<TRIPOS>SUBSTRUCTURE
  1 ****   7 GROUP 4 **** **** 0

# MOE 2024.06 (io_trps.svl 2023.06)
