@<TRIPOS>MOLECULE
NONAME
41 43 1 0 0 
SMALL
USER_CHARGES


@<TRIPOS>ATOM
  1 CL      -2.5690    -0.0490     3.0950 Cl    1 <1>  -0.1230 
  2 C       -2.8330     0.5250     1.4660 C.2   1 <1>   0.1230 
  3 C       -2.8850    -0.2690     0.3850 C.2   1 <1>  -0.1400 
  4 C       -3.0200     1.9180     1.2150 C.2   1 <1>  -0.1500 
  5 S       -3.1740     0.7120    -1.0480 S.3   1 <1>  -0.0800 
  6 C       -2.7280    -1.7630     0.2310 C.3   1 <1>   0.5230 
  7 C       -3.2160     2.1890    -0.0890 C.2   1 <1>  -0.1100 
  8 N       -4.0650    -2.4060     0.2940 N.4   1 <1>  -0.9590 
  9 C       -5.0310    -2.0170    -0.7710 C.3   1 <1>   0.3430 
 10 C       -4.0350    -3.8970     0.3040 C.3   1 <1>   0.3430 
 11 C       -6.0980    -3.1070    -0.6970 C.3   1 <1>   0.2000 
 12 C       -5.2540    -4.3670    -0.5030 C.3   1 <1>  -0.0800 
 13 O       -6.8480    -2.9010     0.4650 O.3   1 <1>  -0.5600 
 14 C       -5.9920    -5.5550     0.1460 C.3   1 <1>   0.0200 
 15 C       -8.0210    -2.1640     0.2940 C.3   1 <1>   0.0400 
 16 C       -5.0910    -6.7740     0.2120 C.2   1 <1>  -0.0400 
 17 O       -4.0050    -6.7440     0.9370 O.3   1 <1>  -0.0190 
 18 C       -5.1650    -7.9820    -0.3660 C.2   1 <1>  -0.1500 
 19 N       -3.3390    -7.8550     0.8610 N.2   1 <1>  -0.4100 
 20 C       -4.0180    -8.6260     0.0890 C.2   1 <1>   0.1080 
 21 C       -3.6160   -10.0400    -0.2700 C.3   1 <1>  -0.0590 
 22 H       -2.9950     2.6350     2.0190 H     1 <1>   0.1500 
 23 H       -2.1140    -2.1330     1.0360 H     1 <1>   0.0800 
 24 H       -2.2390    -1.9880    -0.7030 H     1 <1>   0.0800 
 25 H       -3.3820     3.1170    -0.6110 H     1 <1>   0.1500 
 26 H       -4.5170    -2.1230     1.1780 H     1 <1>   0.4500 
 27 H       -5.4510    -1.0390    -0.5980 H     1 <1>   0.0800 
 28 H       -4.5510    -2.0410    -1.7350 H     1 <1>   0.0800 
 29 H       -3.1310    -4.2770    -0.1460 H     1 <1>   0.0800 
 30 H       -4.0960    -4.2590     1.3190 H     1 <1>   0.0800 
 31 H       -6.7410    -3.1550    -1.5610 H     1 <1>   0.0800 
 32 H       -4.8990    -4.6840    -1.4680 H     1 <1>   0.0800 
 33 H       -6.8670    -5.7960    -0.4320 H     1 <1>   0.0800 
 34 H       -6.3140    -5.3080     1.1430 H     1 <1>   0.0800 
 35 H       -8.4950    -2.0610     1.2550 H     1 <1>   0.0800 
 36 H       -8.6810    -2.6910    -0.3730 H     1 <1>   0.0800 
 37 H       -7.7860    -1.1890    -0.0970 H     1 <1>   0.0800 
 38 H       -5.9070    -8.3930    -1.0260 H     1 <1>   0.1500 
 39 H       -4.3790   -10.7270     0.0460 H     1 <1>   0.0800 
 40 H       -2.6940   -10.2960     0.2190 H     1 <1>   0.0800 
 41 H       -3.4810   -10.1240    -1.3330 H     1 <1>   0.0800 
@<TRIPOS>BOND
  1   1   2  1   
  2   2   3  2   
  3   2   4  1   
  4   3   5  1   
  5   3   6  1   
  6   4   7  2   
  7   4  22  1   
  8   5   7  1   
  9   6   8  1   
 10   6  23  1   
 11   6  24  1   
 12   7  25  1   
 13   8   9  1   
 14   8  10  1   
 15   8  26  1   
 16   9  11  1   
 17   9  27  1   
 18   9  28  1   
 19  10  12  1   
 20  10  29  1   
 21  10  30  1   
 22  11  12  1   
 23  11  13  1   
 24  11  31  1   
 25  12  14  1   
 26  12  32  1   
 27  13  15  1   
 28  14  16  1   
 29  14  33  1   
 30  14  34  1   
 31  15  35  1   
 32  15  36  1   
 33  15  37  1   
 34  16  17  1   
 35  16  18  2   
 36  17  19  1   
 37  18  20  1   
 38  18  38  1   
 39  19  20  2   
 40  20  21  1   
 41  21  39  1   
 42  21  40  1   
 43  21  41  1   
@<TRIPOS>SUBSTRUCTURE
  1 ****  10 GROUP 4 **** **** 0

# MOE 2024.06 (io_trps.svl 2023.06)
