@<TRIPOS>MOLECULE
NONAME
39 40 1 0 0 
SMALL
USER_CHARGES


@<TRIPOS>ATOM
  1 O        1.4070     0.3390    -2.5880 O.2   1 <1>  -0.5700 
  2 C        1.2510    -0.4080    -1.6530 C.2   1 <1>   0.5690 
  3 N        1.4090    -0.0600    -0.3410 N.am  1 <1>  -0.5470 
  4 C        0.8420    -1.8580    -1.9190 C.3   1 <1>   0.1710 
  5 C        1.7580     1.1310     0.3110 C.ar  1 <1>   0.1170 
  6 N        0.1620    -2.5160    -0.7590 N.3   1 <1>  -0.8100 
  7 C        2.1300     2.2920    -0.3620 C.ar  1 <1>  -0.1500 
  8 C        1.7330     1.1540     1.7010 C.ar  1 <1>  -0.1500 
  9 C        0.1760    -3.9850    -0.9140 C.3   1 <1>   0.1100 
 10 C       -1.2160    -2.0180    -0.6070 C.3   1 <1>   0.1100 
 11 C        2.4630     3.4400     0.3350 C.ar  1 <1>  -0.1500 
 12 C        2.0660     2.3000     2.4020 C.ar  1 <1>  -0.1500 
 13 C       -0.4420    -4.6690     0.3150 C.3   1 <1>   0.2000 
 14 C       -1.8500    -2.6150     0.6540 C.3   1 <1>  -0.1600 
 15 C        2.4310     3.4460     1.7180 C.ar  1 <1>  -0.1500 
 16 O       -0.4820    -6.0390     0.1010 O.3   1 <1>  -0.6800 
 17 C       -1.8640    -4.1580     0.6090 C.3   1 <1>  -0.0800 
 18 C       -2.4020    -4.7790     1.9080 C.3   1 <1>   0.1200 
 19 O       -3.6920    -4.3310     2.1440 O.3   1 <1>  -0.6800 
 20 H        1.1630    -0.8470     0.2670 H     1 <1>   0.3700 
 21 H        1.7430    -2.3950    -2.1550 H     1 <1>   0.0800 
 22 H        0.2050    -1.8870    -2.7860 H     1 <1>   0.0800 
 23 H        2.1630     2.3080    -1.4350 H     1 <1>   0.1500 
 24 H        1.4520     0.2700     2.2410 H     1 <1>   0.1500 
 25 H       -0.3750    -4.2580    -1.7980 H     1 <1>   0.0800 
 26 H        1.1930    -4.3230    -1.0170 H     1 <1>   0.0800 
 27 H       -1.2140    -0.9440    -0.5220 H     1 <1>   0.0800 
 28 H       -1.8020    -2.2830    -1.4720 H     1 <1>   0.0800 
 29 H        2.7470     4.3280    -0.2020 H     1 <1>   0.1500 
 30 H        2.0420     2.3020     3.4770 H     1 <1>   0.1500 
 31 H        0.1980    -4.4970     1.1640 H     1 <1>   0.0800 
 32 H       -1.3010    -2.2730     1.5140 H     1 <1>   0.0800 
 33 H       -2.8560    -2.2420     0.7340 H     1 <1>   0.0800 
 34 H        2.6900     4.3400     2.2590 H     1 <1>   0.1500 
 35 H       -1.1350    -6.2570    -0.5910 H     1 <1>   0.4000 
 36 H       -2.5020    -4.4620    -0.2030 H     1 <1>   0.0800 
 37 H       -1.7890    -4.5110     2.7520 H     1 <1>   0.0800 
 38 H       -2.4390    -5.8520     1.8310 H     1 <1>   0.0800 
 39 H       -3.6940    -3.3710     2.3190 H     1 <1>   0.4000 
@<TRIPOS>BOND
  1   1   2  2   
  2   2   3  am  
  3   2   4  1   
  4   3   5  1   
  5   3  20  1   
  6   4   6  1   
  7   4  21  1   
  8   4  22  1   
  9   5   7  ar  
 10   5   8  ar  
 11   6   9  1   
 12   6  10  1   
 13   7  11  ar  
 14   7  23  1   
 15   8  12  ar  
 16   8  24  1   
 17   9  13  1   
 18   9  25  1   
 19   9  26  1   
 20  10  14  1   
 21  10  27  1   
 22  10  28  1   
 23  11  15  ar  
 24  11  29  1   
 25  12  15  ar  
 26  12  30  1   
 27  13  16  1   
 28  13  17  1   
 29  13  31  1   
 30  14  17  1   
 31  14  32  1   
 32  14  33  1   
 33  15  34  1   
 34  16  35  1   
 35  17  18  1   
 36  17  36  1   
 37  18  19  1   
 38  18  37  1   
 39  18  38  1   
 40  19  39  1   
@<TRIPOS>SUBSTRUCTURE
  1 ****   6 GROUP 4 **** **** 0

# MOE 2024.06 (io_trps.svl 2023.06)
