@<TRIPOS>MOLECULE
NONAME
50 52 1 0 0 
SMALL
USER_CHARGES


@<TRIPOS>ATOM
  1 S       -0.8370     0.0500    -0.9300 S.o2  1 <1>   1.4470 
  2 O       -0.1250    -0.6430    -1.9740 O.2   1 <1>  -0.6500 
  3 O       -0.1390     1.0090    -0.1100 O.2   1 <1>  -0.6500 
  4 N       -1.8920     0.9760    -1.8060 N.am  1 <1>  -0.9780 
  5 C       -1.8960    -1.0840     0.0320 C.ar  1 <1>  -0.0090 
  6 C       -2.6500    -0.6960     1.1470 C.ar  1 <1>  -0.1430 
  7 C       -1.9680    -2.4100    -0.3760 C.ar  1 <1>  -0.1500 
  8 C       -3.4240    -1.6370     1.8260 C.ar  1 <1>  -0.1430 
  9 C       -2.6120     0.7630     1.6130 C.3   1 <1>  -0.0970 
 10 C       -2.7370    -3.3690     0.2730 C.ar  1 <1>   0.0860 
 11 C       -3.4620    -2.9460     1.3820 C.ar  1 <1>  -0.1500 
 12 C       -4.2490    -1.2860     3.0600 C.3   1 <1>  -0.0970 
 13 C       -2.7740    -4.7420    -0.2010 C.2   1 <1>   0.5440 
 14 O       -2.5450    -5.0060    -1.3640 O.2   1 <1>  -0.5700 
 15 N       -3.0700    -5.7710     0.6450 N.am  1 <1>  -0.7300 
 16 C       -3.1060    -7.2050     0.2720 C.3   1 <1>   0.2200 
 17 C       -4.5380    -7.7020     0.1270 C.3   1 <1>  -0.0800 
 18 C       -2.6470    -8.0310     1.4650 C.3   1 <1>   0.1200 
 19 C       -4.9340    -8.0400     1.5690 C.3   1 <1>   0.1200 
 20 C       -5.5120    -6.7510    -0.5940 C.3   1 <1>  -0.0160 
 21 O       -3.7510    -8.0760     2.3160 O.3   1 <1>  -0.5600 
 22 C       -6.8800    -7.3960    -0.7540 C.ar  1 <1>  -0.1430 
 23 C       -7.9280    -7.1170     0.1000 C.ar  1 <1>  -0.1500 
 24 C       -7.1420    -8.2960    -1.7660 C.ar  1 <1>  -0.1500 
 25 C       -9.1500    -7.7410    -0.0900 C.ar  1 <1>   0.1600 
 26 C       -8.4010    -8.8640    -1.8690 C.ar  1 <1>   0.1600 
 27 N       -9.4110    -8.6100    -1.0530 N.ar  1 <1>  -0.6200 
 28 H       -1.8770     0.5390    -2.7250 H     1 <1>   0.4200 
 29 H       -1.3940     1.8550    -1.9120 H     1 <1>   0.4200 
 30 H       -1.4020    -2.7240    -1.2380 H     1 <1>   0.1500 
 31 H       -3.4050     1.0080     2.2910 H     1 <1>   0.0800 
 32 H       -2.7110     1.4320     0.7780 H     1 <1>   0.0800 
 33 H       -1.6770     0.9640     2.1060 H     1 <1>   0.0800 
 34 H       -4.0740    -3.6600     1.9030 H     1 <1>   0.1500 
 35 H       -4.6870    -2.1620     3.5020 H     1 <1>   0.0800 
 36 H       -5.0440    -0.6130     2.7930 H     1 <1>   0.0800 
 37 H       -3.6250    -0.8200     3.8020 H     1 <1>   0.0800 
 38 H       -3.2320    -5.6020     1.6390 H     1 <1>   0.3700 
 39 H       -2.5090    -7.3880    -0.6070 H     1 <1>   0.0800 
 40 H       -4.5080    -8.6260    -0.4220 H     1 <1>   0.0800 
 41 H       -1.8070    -7.5960     1.9780 H     1 <1>   0.0800 
 42 H       -2.4160    -9.0390     1.1680 H     1 <1>   0.0800 
 43 H       -5.4190    -8.9990     1.6340 H     1 <1>   0.0800 
 44 H       -5.5670    -7.2830     1.9980 H     1 <1>   0.0800 
 45 H       -5.1160    -6.5050    -1.5650 H     1 <1>   0.0800 
 46 H       -5.6150    -5.8300    -0.0470 H     1 <1>   0.0800 
 47 H       -7.8080    -6.4230     0.9100 H     1 <1>   0.1500 
 48 H       -6.3790    -8.5610    -2.4760 H     1 <1>   0.1500 
 49 H       -9.9560    -7.5120     0.5860 H     1 <1>   0.1500 
 50 H       -8.5870    -9.5650    -2.6650 H     1 <1>   0.1500 
@<TRIPOS>BOND
  1   1   2  2   
  2   1   3  2   
  3   1   4  am  
  4   1   5  1   
  5   4  28  1   
  6   4  29  1   
  7   5   6  ar  
  8   5   7  ar  
  9   6   8  ar  
 10   6   9  1   
 11   7  10  ar  
 12   7  30  1   
 13   8  11  ar  
 14   8  12  1   
 15   9  31  1   
 16   9  32  1   
 17   9  33  1   
 18  10  11  ar  
 19  10  13  1   
 20  11  34  1   
 21  12  35  1   
 22  12  36  1   
 23  12  37  1   
 24  13  14  2   
 25  13  15  am  
 26  15  16  1   
 27  15  38  1   
 28  16  17  1   
 29  16  18  1   
 30  16  39  1   
 31  17  19  1   
 32  17  20  1   
 33  17  40  1   
 34  18  21  1   
 35  18  41  1   
 36  18  42  1   
 37  19  21  1   
 38  19  43  1   
 39  19  44  1   
 40  20  22  1   
 41  20  45  1   
 42  20  46  1   
 43  22  23  ar  
 44  22  24  ar  
 45  23  25  ar  
 46  23  47  1   
 47  24  26  ar  
 48  24  48  1   
 49  25  27  ar  
 50  25  49  1   
 51  26  27  ar  
 52  26  50  1   
@<TRIPOS>SUBSTRUCTURE
  1 ****  13 GROUP 4 **** **** 0

# MOE 2024.06 (io_trps.svl 2023.06)
