@<TRIPOS>MOLECULE
NONAME
38 39 1 0 0 
SMALL
USER_CHARGES


@<TRIPOS>ATOM
  1 S       -0.4580    -1.1420     1.7040 S.3   1 <1>  -0.4600 
  2 C       -1.4940    -0.7160     0.2600 C.3   1 <1>   0.1310 
  3 C        0.9720    -1.9670     0.9500 C.3   1 <1>  -0.0100 
  4 C       -2.0090    -1.9660    -0.4440 C.2   1 <1>   0.5690 
  5 O       -1.7180    -2.1300    -1.6060 O.2   1 <1>  -0.5700 
  6 N       -2.8430    -2.8210     0.2160 N.am  1 <1>  -0.6600 
  7 C       -2.7380    -4.3080     0.0910 C.3   1 <1>   0.3640 
  8 C       -4.2450    -2.3940     0.4580 C.3   1 <1>   0.1400 
  9 C       -1.2850    -4.7940    -0.0120 C.ar  1 <1>  -0.1440 
 10 C       -3.7160    -4.8300    -0.9950 C.3   1 <1>   0.2000 
 11 C       -5.1510    -2.9750    -0.6430 C.3   1 <1>   0.1200 
 12 C       -0.5980    -4.8560    -1.2180 C.ar  1 <1>  -0.1500 
 13 C       -0.6330    -5.2000     1.1450 C.ar  1 <1>  -0.1500 
 14 O       -5.0190    -4.3680    -0.7080 O.3   1 <1>  -0.5600 
 15 C       -3.8070    -6.3650    -1.0500 C.3   1 <1>   0.1200 
 16 C        0.7030    -5.3240    -1.2690 C.ar  1 <1>  -0.1500 
 17 C        0.6680    -5.6690     1.0970 C.ar  1 <1>  -0.1500 
 18 O       -2.6720    -6.9340    -1.6190 O.3   1 <1>  -0.6800 
 19 C        1.3370    -5.7340    -0.1110 C.ar  1 <1>  -0.1500 
 20 H       -2.3090    -0.1200     0.6230 H     1 <1>   0.0800 
 21 H       -0.8850    -0.1340    -0.4060 H     1 <1>   0.0800 
 22 H        1.5840    -2.3550     1.7450 H     1 <1>   0.0800 
 23 H        1.5100    -1.2390     0.3710 H     1 <1>   0.0800 
 24 H        0.6130    -2.7630     0.3240 H     1 <1>   0.0800 
 25 H       -3.1090    -4.7130     1.0170 H     1 <1>   0.0800 
 26 H       -4.5710    -2.7440     1.4220 H     1 <1>   0.0800 
 27 H       -4.3160    -1.3210     0.4500 H     1 <1>   0.0800 
 28 H       -3.4400    -4.4530    -1.9650 H     1 <1>   0.0800 
 29 H       -4.8960    -2.5600    -1.6030 H     1 <1>   0.0800 
 30 H       -6.1830    -2.7530    -0.4330 H     1 <1>   0.0800 
 31 H       -1.0700    -4.5350    -2.1320 H     1 <1>   0.1500 
 32 H       -1.1340    -5.1490     2.0960 H     1 <1>   0.1500 
 33 H       -4.6440    -6.6570    -1.6610 H     1 <1>   0.0800 
 34 H       -3.9290    -6.7750    -0.0630 H     1 <1>   0.0800 
 35 H        1.2200    -5.3670    -2.2120 H     1 <1>   0.1500 
 36 H        1.1600    -5.9820     2.0020 H     1 <1>   0.1500 
 37 H       -1.8560    -6.6340    -1.1590 H     1 <1>   0.4000 
 38 H        2.3490    -6.1000    -0.1500 H     1 <1>   0.1500 
@<TRIPOS>BOND
  1   1   2  1   
  2   1   3  1   
  3   2   4  1   
  4   2  20  1   
  5   2  21  1   
  6   3  22  1   
  7   3  23  1   
  8   3  24  1   
  9   4   5  2   
 10   4   6  am  
 11   6   7  1   
 12   6   8  1   
 13   7   9  1   
 14   7  10  1   
 15   7  25  1   
 16   8  11  1   
 17   8  26  1   
 18   8  27  1   
 19   9  12  ar  
 20   9  13  ar  
 21  10  14  1   
 22  10  15  1   
 23  10  28  1   
 24  11  14  1   
 25  11  29  1   
 26  11  30  1   
 27  12  16  ar  
 28  12  31  1   
 29  13  17  ar  
 30  13  32  1   
 31  15  18  1   
 32  15  33  1   
 33  15  34  1   
 34  16  19  ar  
 35  16  35  1   
 36  17  19  ar  
 37  17  36  1   
 38  18  37  1   
 39  19  38  1   
@<TRIPOS>SUBSTRUCTURE
  1 ****   7 GROUP 4 **** **** 0

# MOE 2024.06 (io_trps.svl 2023.06)
