@<TRIPOS>MOLECULE
NONAME
44 45 1 0 0 
SMALL
USER_CHARGES


@<TRIPOS>ATOM
  1 S       -1.5230     1.0050    -1.7250 S.3   1 <1>  -0.4600 
  2 C       -1.1180    -0.2800    -0.5050 C.3   1 <1>   0.2140 
  3 C       -2.5020     2.2160    -0.7800 C.3   1 <1>   0.0700 
  4 C        0.2760     0.0330     0.0070 C.ar  1 <1>  -0.1440 
  5 C       -2.0480     3.6350    -1.1440 C.3   1 <1>   0.2090 
  6 C        1.3820    -0.5630    -0.5820 C.ar  1 <1>  -0.1500 
  7 C        0.4610     0.9140     1.0630 C.ar  1 <1>  -0.1500 
  8 N       -0.8030     4.0340    -0.4240 N.pl3 1 <1>  -0.8690 
  9 C        2.6570    -0.2810    -0.1220 C.ar  1 <1>  -0.1500 
 10 C        1.7360     1.2040     1.5160 C.ar  1 <1>  -0.1500 
 11 C        0.4930     3.7900    -0.6550 C.ar  1 <1>   0.7710 
 12 C        2.8340     0.6050     0.9260 C.ar  1 <1>  -0.1500 
 13 N        1.3440     4.5390     0.0160 N.ar  1 <1>  -0.6200 
 14 N        0.8760     2.8380    -1.5160 N.ar  1 <1>  -0.1790 
 15 C        2.6360     4.3370    -0.1810 C.ar  1 <1>   0.4100 
 16 C        2.1840     2.6030    -1.7580 C.ar  1 <1>   0.2110 
 17 N        3.5120     5.0990     0.5340 N.pl3 1 <1>  -0.8380 
 18 C        3.0880     3.3620    -1.0960 C.ar  1 <1>  -0.1500 
 19 C        4.9280     4.7280     0.7980 C.3   1 <1>   0.2090 
 20 C        3.0720     6.3270     1.2700 C.3   1 <1>   0.1290 
 21 C        5.8350     5.4570    -0.1880 C.3   1 <1>  -0.2400 
 22 H       -1.1520    -1.2290    -1.0120 H     1 <1>   0.0800 
 23 H       -1.8580    -0.2580     0.2760 H     1 <1>   0.0800 
 24 H       -2.3860     2.0220     0.2710 H     1 <1>   0.0800 
 25 H       -3.5280     2.0610    -1.0640 H     1 <1>   0.0800 
 26 H       -2.8290     4.3240    -0.8680 H     1 <1>   0.0800 
 27 H       -1.9090     3.7180    -2.2090 H     1 <1>   0.0800 
 28 H        1.2560    -1.2600    -1.3940 H     1 <1>   0.1500 
 29 H       -0.3830     1.3800     1.5430 H     1 <1>   0.1500 
 30 H       -0.9470     4.7600     0.2870 H     1 <1>   0.4000 
 31 H        3.5110    -0.7600    -0.5710 H     1 <1>   0.1500 
 32 H        1.8740     1.8920     2.3350 H     1 <1>   0.1500 
 33 H        3.8240     0.8210     1.2910 H     1 <1>   0.1500 
 34 H        0.1310     2.2380    -1.8760 H     1 <1>   0.4570 
 35 H        2.4590     1.8250    -2.4510 H     1 <1>   0.1500 
 36 H        4.1400     3.2320    -1.2550 H     1 <1>   0.1500 
 37 H        5.0590     3.6630     0.7090 H     1 <1>   0.0800 
 38 H        5.1910     4.9990     1.8070 H     1 <1>   0.0800 
 39 H        2.2180     6.7740     0.7900 H     1 <1>   0.0800 
 40 H        3.8620     7.0570     1.2880 H     1 <1>   0.0800 
 41 H        2.8080     6.0680     2.2800 H     1 <1>   0.0800 
 42 H        5.5750     5.2070    -1.2000 H     1 <1>   0.0800 
 43 H        6.8580     5.1740    -0.0160 H     1 <1>   0.0800 
 44 H        5.7530     6.5210    -0.0560 H     1 <1>   0.0800 
@<TRIPOS>BOND
  1   1   2  1   
  2   1   3  1   
  3   2   4  1   
  4   2  22  1   
  5   2  23  1   
  6   3   5  1   
  7   3  24  1   
  8   3  25  1   
  9   4   6  ar  
 10   4   7  ar  
 11   5   8  1   
 12   5  26  1   
 13   5  27  1   
 14   6   9  ar  
 15   6  28  1   
 16   7  10  ar  
 17   7  29  1   
 18   8  11  1   
 19   8  30  1   
 20   9  12  ar  
 21   9  31  1   
 22  10  12  ar  
 23  10  32  1   
 24  11  13  ar  
 25  11  14  ar  
 26  12  33  1   
 27  13  15  ar  
 28  14  16  ar  
 29  14  34  1   
 30  15  17  1   
 31  15  18  ar  
 32  16  18  ar  
 33  16  35  1   
 34  17  19  1   
 35  17  20  1   
 36  18  36  1   
 37  19  21  1   
 38  19  37  1   
 39  19  38  1   
 40  20  39  1   
 41  20  40  1   
 42  20  41  1   
 43  21  42  1   
 44  21  43  1   
 45  21  44  1   
@<TRIPOS>SUBSTRUCTURE
  1 ****  14 GROUP 4 **** **** 0

# MOE 2024.06 (io_trps.svl 2023.06)
