@<TRIPOS>MOLECULE
NONAME
52 54 1 0 0 
SMALL
USER_CHARGES


@<TRIPOS>ATOM
  1 O       -1.3500     0.1530    -0.9090 O.2   1 <1>  -0.5700 
  2 C       -2.3020     0.4200    -0.2040 C.2   1 <1>   0.7800 
  3 O       -2.9270     1.5880    -0.3460 O.3   1 <1>  -0.4300 
  4 N       -2.7900    -0.4570     0.7340 N.am  1 <1>  -0.6600 
  5 C       -2.4720     2.5440    -1.2770 C.3   1 <1>   0.1200 
  6 C       -4.0150    -0.1990     1.5280 C.3   1 <1>   0.1400 
  7 C       -2.1350    -1.7640     0.9820 C.3   1 <1>   0.1400 
  8 C       -3.3910     3.7580    -1.1970 C.3   1 <1>  -0.2400 
  9 C       -5.0410    -1.2790     1.1810 C.3   1 <1>  -0.1600 
 10 C       -3.1270    -2.8670     0.6150 C.3   1 <1>  -0.1600 
 11 C       -4.4430    -2.6790     1.3800 C.3   1 <1>   0.4230 
 12 N       -5.4470    -3.7110     1.0130 N.4   1 <1>  -0.9060 
 13 C       -5.8330    -3.8300    -0.4260 C.3   1 <1>   0.4230 
 14 C       -7.2680    -4.3430    -0.5520 C.3   1 <1>  -0.0800 
 15 C       -5.0940    -5.0290    -1.0140 C.3   1 <1>   0.1200 
 16 C       -7.1100    -5.8670    -0.4090 C.3   1 <1>   0.1200 
 17 C       -8.3280    -3.7260     0.3820 C.3   1 <1>  -0.0160 
 18 O       -5.7320    -6.1030    -0.4070 O.3   1 <1>  -0.5600 
 19 C       -9.7080    -4.2640     0.0440 C.ar  1 <1>  -0.1440 
 20 C      -10.2990    -5.2810     0.7700 C.ar  1 <1>  -0.1500 
 21 C      -10.4450    -3.7630    -1.0110 C.ar  1 <1>  -0.1500 
 22 C      -11.5550    -5.7390     0.4100 C.ar  1 <1>   0.1600 
 23 C      -11.6950    -4.2920    -1.2870 C.ar  1 <1>   0.1600 
 24 N      -12.2640    -5.2700    -0.6030 N.ar  1 <1>  -0.6200 
 25 H       -1.4580     2.8090    -1.0250 H     1 <1>   0.0800 
 26 H       -2.4970     2.1040    -2.2600 H     1 <1>   0.0800 
 27 H       -3.7680    -0.2280     2.5770 H     1 <1>   0.0800 
 28 H       -4.4210     0.7760     1.3130 H     1 <1>   0.0800 
 29 H       -1.2390    -1.8630     0.3900 H     1 <1>   0.0800 
 30 H       -1.8530    -1.8290     2.0200 H     1 <1>   0.0800 
 31 H       -3.3630     4.1800    -0.2080 H     1 <1>   0.0800 
 32 H       -4.4000     3.4790    -1.4430 H     1 <1>   0.0800 
 33 H       -3.0640     4.5060    -1.8960 H     1 <1>   0.0800 
 34 H       -5.3410    -1.1270     0.1600 H     1 <1>   0.0800 
 35 H       -5.8990    -1.1480     1.8160 H     1 <1>   0.0800 
 36 H       -2.6870    -3.8170     0.8590 H     1 <1>   0.0800 
 37 H       -3.2790    -2.8140    -0.4480 H     1 <1>   0.0800 
 38 H       -4.2190    -2.7830     2.4300 H     1 <1>   0.0800 
 39 H       -6.2900    -3.5610     1.5710 H     1 <1>   0.4500 
 40 H       -5.1080    -4.6510     1.2720 H     1 <1>   0.4500 
 41 H       -5.6640    -2.9160    -0.9720 H     1 <1>   0.0800 
 42 H       -7.5850    -4.1590    -1.5650 H     1 <1>   0.0800 
 43 H       -4.0440    -5.0570    -0.7890 H     1 <1>   0.0800 
 44 H       -5.2400    -5.1020    -2.0790 H     1 <1>   0.0800 
 45 H       -7.5530    -6.3930    -1.2400 H     1 <1>   0.0800 
 46 H       -7.5150    -6.2470     0.5140 H     1 <1>   0.0800 
 47 H       -8.3400    -2.6550     0.2670 H     1 <1>   0.0800 
 48 H       -8.1190    -3.9480     1.4130 H     1 <1>   0.0800 
 49 H       -9.8050    -5.7280     1.6130 H     1 <1>   0.1500 
 50 H      -10.0690    -2.9660    -1.6260 H     1 <1>   0.1500 
 51 H      -12.0030    -6.5320     0.9850 H     1 <1>   0.1500 
 52 H      -12.2570    -3.8900    -2.1130 H     1 <1>   0.1500 
@<TRIPOS>BOND
  1   1   2  2   
  2   2   3  1   
  3   2   4  am  
  4   3   5  1   
  5   4   6  1   
  6   4   7  1   
  7   5   8  1   
  8   5  25  1   
  9   5  26  1   
 10   6   9  1   
 11   6  27  1   
 12   6  28  1   
 13   7  10  1   
 14   7  29  1   
 15   7  30  1   
 16   8  31  1   
 17   8  32  1   
 18   8  33  1   
 19   9  11  1   
 20   9  34  1   
 21   9  35  1   
 22  10  11  1   
 23  10  36  1   
 24  10  37  1   
 25  11  12  1   
 26  11  38  1   
 27  12  13  1   
 28  12  39  1   
 29  12  40  1   
 30  13  14  1   
 31  13  15  1   
 32  13  41  1   
 33  14  16  1   
 34  14  17  1   
 35  14  42  1   
 36  15  18  1   
 37  15  43  1   
 38  15  44  1   
 39  16  18  1   
 40  16  45  1   
 41  16  46  1   
 42  17  19  1   
 43  17  47  1   
 44  17  48  1   
 45  19  20  ar  
 46  19  21  ar  
 47  20  22  ar  
 48  20  49  1   
 49  21  23  ar  
 50  21  50  1   
 51  22  24  ar  
 52  22  51  1   
 53  23  24  ar  
 54  23  52  1   
@<TRIPOS>SUBSTRUCTURE
  1 ****  13 GROUP 4 **** **** 0

# MOE 2024.06 (io_trps.svl 2023.06)
