@<TRIPOS>MOLECULE
NONAME
50 53 1 0 0 
SMALL
USER_CHARGES


@<TRIPOS>ATOM
  1 O       -2.0780     1.3640     2.6600 O.2   1 <1>  -0.5700 
  2 C       -1.7690     1.7160     1.5330 C.2   1 <1>   0.6160 
  3 N       -2.4190     1.1140     0.4700 N.am  1 <1>  -0.6600 
  4 C       -0.8190     2.7830     1.3920 C.2   1 <1>   0.0290 
  5 C       -3.1850    -0.1500     0.6830 C.3   1 <1>   0.1400 
  6 C       -2.3830     1.6510    -0.9210 C.3   1 <1>   0.1400 
  7 C        0.3430     2.6220     0.5740 C.2   1 <1>   0.4690 
  8 C       -0.9970     3.9640     2.0610 C.2   1 <1>  -0.0500 
  9 C       -4.6400     0.1530     1.0620 C.3   1 <1>   0.1400 
 10 C       -3.7510     1.6600    -1.6200 C.3   1 <1>  -0.1600 
 11 O        0.5590     1.5790    -0.0330 O.2   1 <1>  -0.5700 
 12 C        1.2750     3.7190     0.4590 C.ar  1 <1>   0.0860 
 13 N       -0.1200     4.9990     1.9460 N.pl3 1 <1>  -0.6000 
 14 N       -5.4270     0.6550    -0.1080 N.am  1 <1>  -0.6600 
 15 C       -4.9450     1.9350    -0.6980 C.3   1 <1>   0.1400 
 16 C        1.0190     4.9100     1.1560 C.ar  1 <1>   0.1000 
 17 C        2.4330     3.6480    -0.3250 C.ar  1 <1>  -0.1500 
 18 C       -6.4960    -0.0070    -0.6620 C.2   1 <1>   0.6300 
 19 C        1.8980     5.9850     1.0570 C.ar  1 <1>  -0.1500 
 20 C        3.3050     4.7200    -0.4190 C.ar  1 <1>   0.0830 
 21 O       -7.1070     0.4400    -1.6050 O.2   1 <1>  -0.5700 
 22 C       -6.9510    -1.3510    -0.1010 C.3   1 <1>  -0.1000 
 23 C        3.0290     5.8900     0.2770 C.ar  1 <1>  -0.1500 
 24 O        4.4420     4.7140    -1.1610 O.3   1 <1>  -0.3620 
 25 C       -6.1260    -2.5940    -0.2930 C.3   1 <1>  -0.2000 
 26 C       -7.4320    -2.4500    -1.0060 C.3   1 <1>  -0.2000 
 27 C        4.8350     3.5660    -1.8800 C.3   1 <1>   0.0400 
 28 H       -2.7270    -0.7050     1.4840 H     1 <1>   0.0800 
 29 H       -3.1490    -0.7650    -0.1980 H     1 <1>   0.0800 
 30 H       -1.6840     1.0720    -1.5020 H     1 <1>   0.0800 
 31 H       -2.0210     2.6640    -0.8980 H     1 <1>   0.0800 
 32 H       -1.8520     4.0980     2.7070 H     1 <1>   0.1500 
 33 H       -4.6570     0.8880     1.8480 H     1 <1>   0.0800 
 34 H       -5.0800    -0.7420     1.4580 H     1 <1>   0.0800 
 35 H       -3.9050     0.7290    -2.1370 H     1 <1>   0.0800 
 36 H       -3.7220     2.4250    -2.3740 H     1 <1>   0.0800 
 37 H       -0.2720     5.8700     2.4710 H     1 <1>   0.4000 
 38 H       -5.7370     2.3860    -1.2730 H     1 <1>   0.0800 
 39 H       -4.6770     2.6270     0.0830 H     1 <1>   0.0800 
 40 H        2.6240     2.7320    -0.8520 H     1 <1>   0.1500 
 41 H        1.6940     6.8930     1.5940 H     1 <1>   0.1500 
 42 H       -7.4830    -1.2280     0.8250 H     1 <1>   0.1000 
 43 H        3.7130     6.7160     0.1950 H     1 <1>   0.1500 
 44 H       -6.0530    -3.3000     0.5150 H     1 <1>   0.1000 
 45 H       -5.2220    -2.5340    -0.8750 H     1 <1>   0.1000 
 46 H       -7.4340    -2.2680    -2.0680 H     1 <1>   0.1000 
 47 H       -8.2720    -3.0430    -0.6890 H     1 <1>   0.1000 
 48 H        5.7630     3.7840    -2.3770 H     1 <1>   0.0800 
 49 H        4.0780     3.3310    -2.6070 H     1 <1>   0.0800 
 50 H        4.9730     2.7510    -1.1910 H     1 <1>   0.0800 
@<TRIPOS>BOND
  1   1   2  2   
  2   2   3  am  
  3   2   4  1   
  4   3   5  1   
  5   3   6  1   
  6   4   7  1   
  7   4   8  2   
  8   5   9  1   
  9   5  28  1   
 10   5  29  1   
 11   6  10  1   
 12   6  30  1   
 13   6  31  1   
 14   7  11  2   
 15   7  12  1   
 16   8  13  1   
 17   8  32  1   
 18   9  14  1   
 19   9  33  1   
 20   9  34  1   
 21  10  15  1   
 22  10  35  1   
 23  10  36  1   
 24  12  16  ar  
 25  12  17  ar  
 26  13  16  1   
 27  13  37  1   
 28  14  15  1   
 29  14  18  am  
 30  15  38  1   
 31  15  39  1   
 32  16  19  ar  
 33  17  20  ar  
 34  17  40  1   
 35  18  21  2   
 36  18  22  1   
 37  19  23  ar  
 38  19  41  1   
 39  20  23  ar  
 40  20  24  1   
 41  22  25  1   
 42  22  26  1   
 43  22  42  1   
 44  23  43  1   
 45  24  27  1   
 46  25  26  1   
 47  25  44  1   
 48  25  45  1   
 49  26  46  1   
 50  26  47  1   
 51  27  48  1   
 52  27  49  1   
 53  27  50  1   
@<TRIPOS>SUBSTRUCTURE
  1 ****   3 GROUP 4 **** **** 0

# MOE 2024.06 (io_trps.svl 2023.06)
