@<TRIPOS>MOLECULE
NONAME
47 50 1 0 0 
SMALL
USER_CHARGES


@<TRIPOS>ATOM
  1 O        1.4740    -0.5820    -2.1630 O.2   1 <1>  -0.5700 
  2 C        2.0240    -0.8350    -1.1050 C.2   1 <1>   0.5440 
  3 N        2.8230     0.1590    -0.5530 N.am  1 <1>  -0.6600 
  4 C        1.8660    -2.1550    -0.4950 C.ar  1 <1>   0.3960 
  5 C        3.4490     0.0070     0.8170 C.3   1 <1>   0.2200 
  6 C        3.2220     1.3330    -1.3970 C.3   1 <1>   0.1400 
  7 N        2.9650    -2.8550    -0.2530 N.ar  1 <1>  -0.6200 
  8 C        0.5570    -2.6300    -0.1700 C.ar  1 <1>   0.0000 
  9 C        3.3820     1.3020     1.6430 C.3   1 <1>   0.1200 
 10 C        4.8990    -0.5270     0.7160 C.3   1 <1>   0.3430 
 11 C        4.5660     1.9910    -1.0230 C.3   1 <1>  -0.0800 
 12 C        2.8220    -4.0700     0.2920 C.ar  1 <1>   0.1600 
 13 C        0.4360    -3.9060     0.4110 C.ar  1 <1>   0.0000 
 14 C       -0.6380    -1.9000    -0.3760 C.ar  1 <1>  -0.1500 
 15 O        4.4810     2.1250     1.3950 O.3   1 <1>  -0.5600 
 16 N        5.4570    -0.3760    -0.6700 N.4   1 <1>  -0.9590 
 17 C        4.4470     2.8740     0.2280 C.3   1 <1>   0.1200 
 18 C        5.7900     1.0500    -0.9680 C.3   1 <1>   0.3430 
 19 C        1.6220    -4.6170     0.6270 C.ar  1 <1>  -0.1500 
 20 C       -0.8320    -4.4120     0.7520 C.ar  1 <1>  -0.1500 
 21 C       -1.8630    -2.4060    -0.0360 C.ar  1 <1>  -0.1500 
 22 C        6.7140    -1.2240    -0.7810 C.3   1 <1>   0.2370 
 23 C       -1.9640    -3.6770     0.5340 C.ar  1 <1>  -0.1500 
 24 C        7.8210    -0.8490     0.2090 C.2   1 <1>   0.9060 
 25 O        8.6050     0.0470    -0.1150 O.co2 1 <1>  -0.9000 
 26 O        7.7940    -1.3710     1.3270 O.co2 1 <1>  -0.9000 
 27 H        2.8800    -0.7140     1.3750 H     1 <1>   0.0800 
 28 H        3.2860     1.0140    -2.4250 H     1 <1>   0.0800 
 29 H        2.4360     2.0680    -1.3490 H     1 <1>   0.0800 
 30 H        3.4280     1.0500     2.6880 H     1 <1>   0.0800 
 31 H        2.4680     1.8430     1.4650 H     1 <1>   0.0800 
 32 H        4.8930    -1.5720     0.9780 H     1 <1>   0.0800 
 33 H        5.5340    -0.0270     1.4310 H     1 <1>   0.0800 
 34 H        4.7740     2.6860    -1.8160 H     1 <1>   0.0800 
 35 H        3.7300    -4.6270     0.4640 H     1 <1>   0.1500 
 36 H       -0.5960    -0.9200    -0.8190 H     1 <1>   0.1500 
 37 H        4.7250    -0.7050    -1.3130 H     1 <1>   0.4500 
 38 H        3.5440     3.4620     0.2170 H     1 <1>   0.0800 
 39 H        5.2850     3.5480     0.2740 H     1 <1>   0.0800 
 40 H        6.4910     1.4170    -0.2320 H     1 <1>   0.0800 
 41 H        6.2900     1.0870    -1.9220 H     1 <1>   0.0800 
 42 H        1.5680    -5.5990     1.0610 H     1 <1>   0.1500 
 43 H       -0.9000    -5.3920     1.1890 H     1 <1>   0.1500 
 44 H       -2.7600    -1.8360    -0.2050 H     1 <1>   0.1500 
 45 H        6.4700    -2.2550    -0.6050 H     1 <1>   0.0800 
 46 H        7.1280    -1.1350    -1.7680 H     1 <1>   0.0800 
 47 H       -2.9360    -4.0620     0.7940 H     1 <1>   0.1500 
@<TRIPOS>BOND
  1   1   2  2   
  2   2   3  am  
  3   2   4  1   
  4   3   5  1   
  5   3   6  1   
  6   4   7  ar  
  7   4   8  ar  
  8   5   9  1   
  9   5  10  1   
 10   5  27  1   
 11   6  11  1   
 12   6  28  1   
 13   6  29  1   
 14   7  12  ar  
 15   8  13  ar  
 16   8  14  ar  
 17   9  15  1   
 18   9  30  1   
 19   9  31  1   
 20  10  16  1   
 21  10  32  1   
 22  10  33  1   
 23  11  17  1   
 24  11  18  1   
 25  11  34  1   
 26  12  19  ar  
 27  12  35  1   
 28  13  19  ar  
 29  13  20  ar  
 30  14  21  ar  
 31  14  36  1   
 32  15  17  1   
 33  16  18  1   
 34  16  22  1   
 35  16  37  1   
 36  17  38  1   
 37  17  39  1   
 38  18  40  1   
 39  18  41  1   
 40  19  42  1   
 41  20  23  ar  
 42  20  43  1   
 43  21  23  ar  
 44  21  44  1   
 45  22  24  1   
 46  22  45  1   
 47  22  46  1   
 48  23  47  1   
 49  24  25  ar  
 50  24  26  ar  
@<TRIPOS>SUBSTRUCTURE
  1 ****   3 GROUP 4 **** **** 0

# MOE 2024.06 (io_trps.svl 2023.06)
