@<TRIPOS>MOLECULE
NONAME
45 47 1 0 0 
SMALL
USER_CHARGES


@<TRIPOS>ATOM
  1 O       -1.2380    -0.1310     0.7050 O.2   1 <1>  -0.5700 
  2 C       -1.7910     0.7190     0.0300 C.2   1 <1>   0.5440 
  3 N       -2.8960     0.3260    -0.6940 N.am  1 <1>  -0.6600 
  4 C       -1.3100     2.0900     0.0340 C.ar  1 <1>   0.0860 
  5 C       -3.0840    -1.1180    -0.9890 C.3   1 <1>   0.1400 
  6 C       -4.1740     1.0830    -0.5930 C.3   1 <1>   0.1400 
  7 C       -0.6520     2.6370     1.1260 C.ar  1 <1>  -0.1500 
  8 C       -1.4560     2.9500    -1.0460 C.ar  1 <1>  -0.1500 
  9 C       -3.8870    -1.7600     0.1650 C.3   1 <1>   0.4230 
 10 C       -5.0090     0.4680     0.5400 C.3   1 <1>  -0.1600 
 11 C       -0.2130     3.9470     1.0970 C.ar  1 <1>   0.1600 
 12 C       -0.9810     4.2460    -0.9780 C.ar  1 <1>   0.1600 
 13 N       -3.9610    -3.2790     0.0990 N.4   1 <1>  -0.9590 
 14 C       -5.2640    -1.0610     0.3770 C.3   1 <1>   0.0000 
 15 N       -0.3680     4.7660     0.0700 N.ar  1 <1>  -0.6200 
 16 C       -5.0450    -3.8750     0.9460 C.3   1 <1>   0.3430 
 17 C       -4.0020    -3.8690    -1.2790 C.3   1 <1>   0.2630 
 18 C       -5.9180    -1.6000     1.6840 C.3   1 <1>  -0.1600 
 19 C       -6.1920    -1.3260    -0.8430 C.3   1 <1>   0.1200 
 20 C       -5.3750    -2.9710     2.1320 C.3   1 <1>  -0.1600 
 21 O       -7.3450    -0.5610    -0.7870 O.3   1 <1>  -0.6800 
 22 H       -3.5880    -1.2180    -1.9320 H     1 <1>   0.0800 
 23 H       -2.1190    -1.5900    -1.0670 H     1 <1>   0.0800 
 24 H       -3.9840     2.1200    -0.3740 H     1 <1>   0.0800 
 25 H       -4.7050     1.0330    -1.5290 H     1 <1>   0.0800 
 26 H       -0.4810     2.0360     2.0010 H     1 <1>   0.1500 
 27 H       -1.9360     2.6090    -1.9450 H     1 <1>   0.1500 
 28 H       -3.3170    -1.5300     1.0510 H     1 <1>   0.0800 
 29 H       -4.4790     0.6520     1.4600 H     1 <1>   0.0800 
 30 H       -5.9390     1.0040     0.6130 H     1 <1>   0.0800 
 31 H        0.2930     4.3430     1.9610 H     1 <1>   0.1500 
 32 H       -1.1110     4.8920    -1.8310 H     1 <1>   0.1500 
 33 H       -3.0720    -3.5850     0.5250 H     1 <1>   0.4500 
 34 H       -5.9390    -4.0020     0.3570 H     1 <1>   0.0800 
 35 H       -4.7410    -4.8470     1.3010 H     1 <1>   0.0800 
 36 H       -4.8900    -3.5510    -1.8010 H     1 <1>   0.0800 
 37 H       -4.0050    -4.9460    -1.2230 H     1 <1>   0.0800 
 38 H       -3.1380    -3.5650    -1.8470 H     1 <1>   0.0800 
 39 H       -5.7600    -0.9130     2.4990 H     1 <1>   0.0800 
 40 H       -6.9850    -1.6720     1.5620 H     1 <1>   0.0800 
 41 H       -6.4940    -2.3560    -0.8940 H     1 <1>   0.0800 
 42 H       -5.7080    -1.0680    -1.7680 H     1 <1>   0.0800 
 43 H       -6.1090    -3.4540     2.7540 H     1 <1>   0.0800 
 44 H       -4.4900    -2.8420     2.7330 H     1 <1>   0.0800 
 45 H       -7.9050    -0.7870    -0.0180 H     1 <1>   0.4000 
@<TRIPOS>BOND
  1   1   2  2   
  2   2   3  am  
  3   2   4  1   
  4   3   5  1   
  5   3   6  1   
  6   4   7  ar  
  7   4   8  ar  
  8   5   9  1   
  9   5  22  1   
 10   5  23  1   
 11   6  10  1   
 12   6  24  1   
 13   6  25  1   
 14   7  11  ar  
 15   7  26  1   
 16   8  12  ar  
 17   8  27  1   
 18   9  13  1   
 19   9  14  1   
 20   9  28  1   
 21  10  14  1   
 22  10  29  1   
 23  10  30  1   
 24  11  15  ar  
 25  11  31  1   
 26  12  15  ar  
 27  12  32  1   
 28  13  16  1   
 29  13  17  1   
 30  13  33  1   
 31  14  18  1   
 32  14  19  1   
 33  16  20  1   
 34  16  34  1   
 35  16  35  1   
 36  17  36  1   
 37  17  37  1   
 38  17  38  1   
 39  18  20  1   
 40  18  39  1   
 41  18  40  1   
 42  19  21  1   
 43  19  41  1   
 44  19  42  1   
 45  20  43  1   
 46  20  44  1   
 47  21  45  1   
@<TRIPOS>SUBSTRUCTURE
  1 ****   3 GROUP 4 **** **** 0

# MOE 2024.06 (io_trps.svl 2023.06)
