@<TRIPOS>MOLECULE
NONAME
40 40 1 0 0 
SMALL
USER_CHARGES


@<TRIPOS>ATOM
  1 O       -0.2080    -0.6120    -1.3590 O.2   1 <1>  -0.5700 
  2 C       -0.1690    -1.3730    -0.4130 C.2   1 <1>   0.7800 
  3 O        1.0010    -1.8070     0.0650 O.3   1 <1>  -0.4300 
  4 N       -1.3060    -1.8220     0.2100 N.am  1 <1>  -0.6600 
  5 C        2.2920    -1.4910    -0.4080 C.3   1 <1>   0.2800 
  6 C       -2.6650    -1.4040    -0.2700 C.3   1 <1>   0.2200 
  7 C       -1.2780    -2.7610     1.3680 C.3   1 <1>   0.1400 
  8 C        3.2490    -2.2640     0.5010 C.3   1 <1>  -0.2400 
  9 C        2.4640    -1.9780    -1.8520 C.3   1 <1>  -0.2400 
 10 C        2.5600     0.0120    -0.2600 C.3   1 <1>  -0.2400 
 11 C       -3.5190    -2.6730    -0.5480 C.3   1 <1>   0.2000 
 12 C       -3.2640    -0.4030     0.7430 C.3   1 <1>  -0.0220 
 13 C       -2.0820    -4.0200     1.0310 C.3   1 <1>  -0.1600 
 14 O       -4.8420    -2.3650    -0.8200 O.3   1 <1>  -0.6800 
 15 C       -3.5180    -3.6800     0.6110 C.3   1 <1>  -0.1600 
 16 C       -4.2340     0.5850     0.1050 C.2   1 <1>  -0.2880 
 17 C       -4.0680     1.9110     0.1040 C.2   1 <1>  -0.3000 
 18 H       -2.5560    -0.8880    -1.2090 H     1 <1>   0.0800 
 19 H       -0.2690    -3.0420     1.6170 H     1 <1>   0.0800 
 20 H       -1.7030    -2.2740     2.2280 H     1 <1>   0.0800 
 21 H        4.2680    -2.0820     0.2120 H     1 <1>   0.0800 
 22 H        3.0590    -3.3200     0.4290 H     1 <1>   0.0800 
 23 H        3.1250    -1.9540     1.5220 H     1 <1>   0.0800 
 24 H        3.4870    -1.8640    -2.1580 H     1 <1>   0.0800 
 25 H        1.8580    -1.4050    -2.5290 H     1 <1>   0.0800 
 26 H        2.1970    -3.0160    -1.9300 H     1 <1>   0.0800 
 27 H        3.5880     0.2250    -0.4880 H     1 <1>   0.0800 
 28 H        2.3600     0.3300     0.7470 H     1 <1>   0.0800 
 29 H        1.9530     0.5830    -0.9380 H     1 <1>   0.0800 
 30 H       -3.1260    -3.1510    -1.4290 H     1 <1>   0.0800 
 31 H       -3.7580    -0.9240     1.5410 H     1 <1>   0.0800 
 32 H       -2.4590     0.1660     1.1750 H     1 <1>   0.0800 
 33 H       -1.5830    -4.5470     0.2350 H     1 <1>   0.0800 
 34 H       -2.1010    -4.6690     1.8890 H     1 <1>   0.0800 
 35 H       -5.2500    -1.9290    -0.0490 H     1 <1>   0.4000 
 36 H       -4.0440    -3.2730     1.4560 H     1 <1>   0.0800 
 37 H       -4.0180    -4.5800     0.2990 H     1 <1>   0.0800 
 38 H       -5.0870     0.1250    -0.3640 H     1 <1>   0.1500 
 39 H       -4.7570     2.6010    -0.3520 H     1 <1>   0.1500 
 40 H       -3.2320     2.4190     0.5530 H     1 <1>   0.1500 
@<TRIPOS>BOND
  1   1   2  2   
  2   2   3  1   
  3   2   4  am  
  4   3   5  1   
  5   4   6  1   
  6   4   7  1   
  7   5   8  1   
  8   5   9  1   
  9   5  10  1   
 10   6  11  1   
 11   6  12  1   
 12   6  18  1   
 13   7  13  1   
 14   7  19  1   
 15   7  20  1   
 16   8  21  1   
 17   8  22  1   
 18   8  23  1   
 19   9  24  1   
 20   9  25  1   
 21   9  26  1   
 22  10  27  1   
 23  10  28  1   
 24  10  29  1   
 25  11  14  1   
 26  11  15  1   
 27  11  30  1   
 28  12  16  1   
 29  12  31  1   
 30  12  32  1   
 31  13  15  1   
 32  13  33  1   
 33  13  34  1   
 34  14  35  1   
 35  15  36  1   
 36  15  37  1   
 37  16  17  2   
 38  16  38  1   
 39  17  39  1   
 40  17  40  1   
@<TRIPOS>SUBSTRUCTURE
  1 ****   4 GROUP 4 **** **** 0

# MOE 2024.06 (io_trps.svl 2023.06)
