@<TRIPOS>MOLECULE
NONAME
54 58 1 0 0 
SMALL
USER_CHARGES


@<TRIPOS>ATOM
  1 O       -2.7370     2.1340    -2.2170 O.2   1 <1>  -0.5700 
  2 C       -2.7760     1.8540    -1.0370 C.2   1 <1>   0.5690 
  3 N       -3.8210     1.0960    -0.5400 N.am  1 <1>  -0.6600 
  4 C       -1.6490     2.4030    -0.1240 C.3   1 <1>   0.2510 
  5 C       -3.9710     0.6050     0.8610 C.3   1 <1>   0.1400 
  6 C       -4.9680     0.7070    -1.4120 C.3   1 <1>   0.1400 
  7 N       -0.3760     1.6010    -0.1120 N.3   1 <1>  -0.8100 
  8 C       -1.3370     3.8600    -0.5280 C.3   1 <1>   0.1200 
  9 C       -4.0790    -0.9210     0.8540 C.3   1 <1>  -0.1600 
 10 C       -5.0800    -0.8160    -1.4530 C.3   1 <1>  -0.1600 
 11 C        0.6370     2.2660     0.7270 C.3   1 <1>   0.1100 
 12 C       -0.5640     0.2050     0.2870 C.3   1 <1>   0.0300 
 13 O       -0.3750     4.4200     0.3260 O.3   1 <1>  -0.5600 
 14 C       -5.2190    -1.4060    -0.0450 C.3   1 <1>   0.4600 
 15 C        0.8410     3.7300     0.3000 C.3   1 <1>   0.1200 
 16 O       -6.4090    -0.9290     0.5450 O.3   1 <1>  -0.5600 
 17 C       -5.2470    -2.9290    -0.0850 C.2   1 <1>  -0.3320 
 18 C       -7.6150    -1.5840     0.2290 C.3   1 <1>   0.1200 
 19 N       -4.2260    -3.7520    -0.4750 N.pl3 1 <1>   0.0330 
 20 C       -6.3110    -3.6780     0.2650 C.2   1 <1>  -0.1810 
 21 C       -7.6000    -3.0410     0.7210 C.3   1 <1>   0.0210 
 22 C       -4.6580    -5.0500    -0.3550 C.ar  1 <1>  -0.1520 
 23 C       -5.9690    -5.0370     0.1130 C.ar  1 <1>   0.0000 
 24 C       -4.0040    -6.2560    -0.6200 C.ar  1 <1>  -0.1500 
 25 C       -6.6410    -6.2460     0.3240 C.ar  1 <1>  -0.1500 
 26 C       -4.6770    -7.4380    -0.4100 C.ar  1 <1>  -0.1500 
 27 C       -5.9950    -7.4320     0.0630 C.ar  1 <1>  -0.1500 
 28 H       -2.0270     2.4600     0.8770 H     1 <1>   0.0800 
 29 H       -3.1430     0.8930     1.4780 H     1 <1>   0.0800 
 30 H       -4.8660     1.0300     1.2870 H     1 <1>   0.0800 
 31 H       -5.8730     1.1320    -1.0110 H     1 <1>   0.0800 
 32 H       -4.8410     1.0850    -2.4120 H     1 <1>   0.0800 
 33 H       -2.2260     4.4610    -0.4620 H     1 <1>   0.0800 
 34 H       -0.9700     3.8990    -1.5390 H     1 <1>   0.0800 
 35 H       -4.2460    -1.2820     1.8530 H     1 <1>   0.0800 
 36 H       -3.1500    -1.3330     0.5110 H     1 <1>   0.0800 
 37 H       -4.1950    -1.2060    -1.9200 H     1 <1>   0.0800 
 38 H       -5.9150    -1.1090    -2.0600 H     1 <1>   0.0800 
 39 H        0.3370     2.2410     1.7610 H     1 <1>   0.0800 
 40 H        1.5740     1.7440     0.6360 H     1 <1>   0.0800 
 41 H        0.3800    -0.3120     0.2500 H     1 <1>   0.0800 
 42 H       -1.2360    -0.2820    -0.3980 H     1 <1>   0.0800 
 43 H       -0.9580     0.1450     1.2860 H     1 <1>   0.0800 
 44 H        1.2450     3.7800    -0.6960 H     1 <1>   0.0800 
 45 H        1.5150     4.2270     0.9750 H     1 <1>   0.0800 
 46 H       -8.4160    -1.0420     0.6990 H     1 <1>   0.0800 
 47 H       -7.7530    -1.5510    -0.8370 H     1 <1>   0.0800 
 48 H       -3.2990    -3.4680    -0.8060 H     1 <1>   0.2700 
 49 H       -7.6620    -3.0700     1.7930 H     1 <1>   0.0800 
 50 H       -8.4400    -3.5710     0.3110 H     1 <1>   0.0800 
 51 H       -2.9920    -6.2510    -0.9820 H     1 <1>   0.1500 
 52 H       -7.6510    -6.2260     0.6870 H     1 <1>   0.1500 
 53 H       -4.1960    -8.3790    -0.6060 H     1 <1>   0.1500 
 54 H       -6.4980    -8.3700     0.2200 H     1 <1>   0.1500 
@<TRIPOS>BOND
  1   1   2  2   
  2   2   3  am  
  3   2   4  1   
  4   3   5  1   
  5   3   6  1   
  6   4   7  1   
  7   4   8  1   
  8   4  28  1   
  9   5   9  1   
 10   5  29  1   
 11   5  30  1   
 12   6  10  1   
 13   6  31  1   
 14   6  32  1   
 15   7  11  1   
 16   7  12  1   
 17   8  13  1   
 18   8  33  1   
 19   8  34  1   
 20   9  14  1   
 21   9  35  1   
 22   9  36  1   
 23  10  14  1   
 24  10  37  1   
 25  10  38  1   
 26  11  15  1   
 27  11  39  1   
 28  11  40  1   
 29  12  41  1   
 30  12  42  1   
 31  12  43  1   
 32  13  15  1   
 33  14  16  1   
 34  14  17  1   
 35  15  44  1   
 36  15  45  1   
 37  16  18  1   
 38  17  19  1   
 39  17  20  2   
 40  18  21  1   
 41  18  46  1   
 42  18  47  1   
 43  19  22  1   
 44  19  48  1   
 45  20  21  1   
 46  20  23  1   
 47  21  49  1   
 48  21  50  1   
 49  22  23  ar  
 50  22  24  ar  
 51  23  25  ar  
 52  24  26  ar  
 53  24  51  1   
 54  25  27  ar  
 55  25  52  1   
 56  26  27  ar  
 57  26  53  1   
 58  27  54  1   
@<TRIPOS>SUBSTRUCTURE
  1 ****   9 GROUP 4 **** **** 0

# MOE 2024.06 (io_trps.svl 2023.06)
