@<TRIPOS>MOLECULE
NONAME
46 49 1 0 0 
SMALL
USER_CHARGES


@<TRIPOS>ATOM
  1 S       -0.5100     0.6860    -1.6690 S.3   1 <1>  -0.0800 
  2 C       -1.4690    -0.4980    -0.7810 C.ar  1 <1>   0.2970 
  3 C       -1.9640     1.5030    -2.2490 C.2   1 <1>  -0.1100 
  4 N       -0.9420    -1.4710    -0.0700 N.ar  1 <1>  -0.5670 
  5 C       -2.8080    -0.2480    -0.9450 C.ar  1 <1>   0.0000 
  6 C       -3.0690     0.8950    -1.7830 C.2   1 <1>  -0.1500 
  7 C       -1.8510    -2.2340     0.5030 C.ar  1 <1>   0.4770 
  8 C       -3.6540    -1.1320    -0.2790 C.ar  1 <1>   0.4100 
  9 N       -3.1720    -2.1250     0.4420 N.ar  1 <1>  -0.6200 
 10 C       -1.3300    -3.3800     1.3380 C.3   1 <1>  -0.0960 
 11 N       -5.0170    -1.0180    -0.3620 N.pl3 1 <1>  -0.8690 
 12 C       -6.0100    -1.7160     0.4980 C.3   1 <1>   0.2890 
 13 C       -6.4070    -3.0850    -0.0980 C.3   1 <1>   0.2000 
 14 C       -7.2270    -0.8050     0.6640 C.3   1 <1>  -0.1600 
 15 O       -5.3070    -3.9310    -0.0900 O.3   1 <1>  -0.6800 
 16 C       -7.5400    -3.7450     0.6970 C.3   1 <1>   0.1400 
 17 C       -8.3060    -1.4930     1.5030 C.3   1 <1>   0.1400 
 18 N       -8.6770    -2.7880     0.8680 N.am  1 <1>  -0.6600 
 19 C       -9.9140    -2.9740     0.2820 C.2   1 <1>   0.5440 
 20 O      -10.6010    -1.9960     0.0510 O.2   1 <1>  -0.5700 
 21 C      -10.4090    -4.2910    -0.0790 C.ar  1 <1>   0.0860 
 22 C      -10.3580    -5.3630     0.8130 C.ar  1 <1>  -0.1500 
 23 C      -10.9630    -4.5260    -1.3370 C.ar  1 <1>  -0.1500 
 24 C      -10.8230    -6.6170     0.4600 C.ar  1 <1>  -0.1500 
 25 C      -11.4300    -5.7770    -1.6970 C.ar  1 <1>  -0.1500 
 26 C      -11.3590    -6.8260    -0.7980 C.ar  1 <1>  -0.1500 
 27 H       -1.8210     2.3610    -2.8830 H     1 <1>   0.1500 
 28 H       -4.0780     1.2000    -1.9910 H     1 <1>   0.1500 
 29 H       -1.9630    -4.2400     1.2170 H     1 <1>   0.0800 
 30 H       -1.3210    -3.0910     2.3710 H     1 <1>   0.0800 
 31 H       -0.3320    -3.6390     1.0360 H     1 <1>   0.0800 
 32 H       -5.4140    -0.3440    -1.0180 H     1 <1>   0.4000 
 33 H       -5.5810    -1.8830     1.4730 H     1 <1>   0.0800 
 34 H       -6.7170    -2.9580    -1.1200 H     1 <1>   0.0800 
 35 H       -6.9310     0.1040     1.1540 H     1 <1>   0.0800 
 36 H       -7.6460    -0.5610    -0.2960 H     1 <1>   0.0800 
 37 H       -4.4950    -3.3610    -0.1010 H     1 <1>   0.4000 
 38 H       -7.1780    -4.0330     1.6690 H     1 <1>   0.0800 
 39 H       -7.8550    -4.6280     0.1710 H     1 <1>   0.0800 
 40 H       -9.1670    -0.8500     1.5860 H     1 <1>   0.0800 
 41 H       -7.9400    -1.6810     2.4970 H     1 <1>   0.0800 
 42 H       -9.9510    -5.2040     1.7960 H     1 <1>   0.1500 
 43 H      -11.0260    -3.7090    -2.0340 H     1 <1>   0.1500 
 44 H      -10.7710    -7.4300     1.1630 H     1 <1>   0.1500 
 45 H      -11.8520    -5.9330    -2.6750 H     1 <1>   0.1500 
 46 H      -11.7220    -7.8010    -1.0760 H     1 <1>   0.1500 
@<TRIPOS>BOND
  1   1   2  1   
  2   1   3  1   
  3   2   4  ar  
  4   2   5  ar  
  5   3   6  2   
  6   3  27  1   
  7   4   7  ar  
  8   5   6  1   
  9   5   8  ar  
 10   6  28  1   
 11   7   9  ar  
 12   7  10  1   
 13   8   9  ar  
 14   8  11  1   
 15  10  29  1   
 16  10  30  1   
 17  10  31  1   
 18  11  12  1   
 19  11  32  1   
 20  12  13  1   
 21  12  14  1   
 22  12  33  1   
 23  13  15  1   
 24  13  16  1   
 25  13  34  1   
 26  14  17  1   
 27  14  35  1   
 28  14  36  1   
 29  15  37  1   
 30  16  18  1   
 31  16  38  1   
 32  16  39  1   
 33  17  18  1   
 34  17  40  1   
 35  17  41  1   
 36  18  19  am  
 37  19  20  2   
 38  19  21  1   
 39  21  22  ar  
 40  21  23  ar  
 41  22  24  ar  
 42  22  42  1   
 43  23  25  ar  
 44  23  43  1   
 45  24  26  ar  
 46  24  44  1   
 47  25  26  ar  
 48  25  45  1   
 49  26  46  1   
@<TRIPOS>SUBSTRUCTURE
  1 ****  13 GROUP 4 **** **** 0

# MOE 2024.06 (io_trps.svl 2023.06)
