@<TRIPOS>MOLECULE
NONAME
51 54 1 0 0 
SMALL
USER_CHARGES


@<TRIPOS>ATOM
  1 O       -2.1740     1.2360     3.2640 O.2   1 <1>  -0.5700 
  2 C       -2.9780     1.1480     2.3530 C.2   1 <1>   0.5410 
  3 C       -3.8000     0.0100     2.1730 C.2   1 <1>  -0.1360 
  4 C       -3.1520     2.1870     1.4010 C.2   1 <1>  -0.1360 
  5 C       -4.7190    -0.0630     1.1690 C.2   1 <1>   0.0910 
  6 C       -4.0700     2.0700     0.4160 C.2   1 <1>  -0.0620 
  7 O       -4.8400     0.9800     0.3200 O.3   1 <1>  -0.1530 
  8 C       -5.5550    -1.2210     0.9220 C.2   1 <1>   0.6160 
  9 C       -4.3200     3.1090    -0.6590 C.3   1 <1>  -0.1020 
 10 O       -5.0500    -2.3230     1.0440 O.2   1 <1>  -0.5700 
 11 N       -6.8930    -1.1530     0.5800 N.am  1 <1>  -0.6600 
 12 C       -7.7620     0.0520     0.7750 C.3   1 <1>   0.1400 
 13 C       -7.6280    -2.4140     0.2480 C.3   1 <1>   0.1400 
 14 C       -8.6190     0.3590    -0.4790 C.3   1 <1>   0.1430 
 15 C       -9.0420    -2.1500    -0.2950 C.3   1 <1>  -0.1600 
 16 C       -9.8140     1.1820    -0.0240 C.ar  1 <1>   0.1670 
 17 C       -9.0510    -0.9300    -1.2250 C.3   1 <1>  -0.1600 
 18 C       -7.9030     1.3400    -1.4440 C.3   1 <1>  -0.1600 
 19 N      -10.8500     0.7190     0.6310 N.ar  1 <1>  -0.6200 
 20 C       -9.6840     2.4930    -0.3690 C.ar  1 <1>  -0.1430 
 21 C       -8.3900     2.7560    -1.0930 C.3   1 <1>  -0.0170 
 22 C      -11.7900     1.6200     0.9280 C.ar  1 <1>   0.7200 
 23 C      -10.6980     3.3490    -0.0210 C.ar  1 <1>   0.1600 
 24 N      -11.7560     2.9230     0.6280 N.ar  1 <1>  -0.6200 
 25 N      -12.9000     1.1620     1.6100 N.pl3 1 <1>  -0.8380 
 26 C      -13.2160    -0.2890     1.7240 C.3   1 <1>   0.1290 
 27 C      -13.8780     2.0900     2.2430 C.3   1 <1>   0.1290 
 28 H       -3.6540    -0.8000     2.8640 H     1 <1>   0.1500 
 29 H       -2.5160     3.0440     1.5160 H     1 <1>   0.1500 
 30 H       -4.1820     2.6700    -1.6310 H     1 <1>   0.0800 
 31 H       -3.6380     3.9340    -0.5550 H     1 <1>   0.0800 
 32 H       -5.3240     3.4830    -0.5840 H     1 <1>   0.0800 
 33 H       -7.1890     0.9160     1.0540 H     1 <1>   0.0800 
 34 H       -8.4240    -0.1600     1.5980 H     1 <1>   0.0800 
 35 H       -7.6840    -3.0370     1.1250 H     1 <1>   0.0800 
 36 H       -7.0610    -2.9460    -0.4980 H     1 <1>   0.0800 
 37 H       -9.7190    -1.9850     0.5270 H     1 <1>   0.0800 
 38 H       -9.3860    -3.0200    -0.8240 H     1 <1>   0.0800 
 39 H       -8.3650    -1.1300    -2.0290 H     1 <1>   0.0800 
 40 H      -10.0290    -0.7970    -1.6540 H     1 <1>   0.0800 
 41 H       -8.2110     1.1340    -2.4540 H     1 <1>   0.0800 
 42 H       -6.8330     1.2510    -1.3980 H     1 <1>   0.0800 
 43 H       -8.5390     3.3550    -1.9750 H     1 <1>   0.0800 
 44 H       -7.7020     3.2450    -0.4260 H     1 <1>   0.0800 
 45 H      -10.6430     4.3930    -0.2750 H     1 <1>   0.1500 
 46 H      -12.8210    -0.8290     0.8820 H     1 <1>   0.0800 
 47 H      -14.2820    -0.4350     1.7490 H     1 <1>   0.0800 
 48 H      -12.7810    -0.6810     2.6270 H     1 <1>   0.0800 
 49 H      -13.3910     3.0000     2.5490 H     1 <1>   0.0800 
 50 H      -14.3140     1.6320     3.1130 H     1 <1>   0.0800 
 51 H      -14.6540     2.3290     1.5380 H     1 <1>   0.0800 
@<TRIPOS>BOND
  1   1   2  2   
  2   2   3  1   
  3   2   4  1   
  4   3   5  2   
  5   3  28  1   
  6   4   6  2   
  7   4  29  1   
  8   5   7  1   
  9   5   8  1   
 10   6   7  1   
 11   6   9  1   
 12   8  10  2   
 13   8  11  am  
 14   9  30  1   
 15   9  31  1   
 16   9  32  1   
 17  11  12  1   
 18  11  13  1   
 19  12  14  1   
 20  12  33  1   
 21  12  34  1   
 22  13  15  1   
 23  13  35  1   
 24  13  36  1   
 25  14  16  1   
 26  14  17  1   
 27  14  18  1   
 28  15  17  1   
 29  15  37  1   
 30  15  38  1   
 31  16  19  ar  
 32  16  20  ar  
 33  17  39  1   
 34  17  40  1   
 35  18  21  1   
 36  18  41  1   
 37  18  42  1   
 38  19  22  ar  
 39  20  21  1   
 40  20  23  ar  
 41  21  43  1   
 42  21  44  1   
 43  22  24  ar  
 44  22  25  1   
 45  23  24  ar  
 46  23  45  1   
 47  25  26  1   
 48  25  27  1   
 49  26  46  1   
 50  26  47  1   
 51  26  48  1   
 52  27  49  1   
 53  27  50  1   
 54  27  51  1   
@<TRIPOS>SUBSTRUCTURE
  1 ****  12 GROUP 4 **** **** 0

# MOE 2024.06 (io_trps.svl 2023.06)
