@<TRIPOS>MOLECULE
NONAME
55 58 1 0 0 
SMALL
USER_CHARGES


@<TRIPOS>ATOM
  1 O       -1.0340     0.1650    -0.4390 O.2   1 <1>  -0.5700 
  2 C       -1.6110     1.2370    -0.4510 C.2   1 <1>   0.7160 
  3 N       -2.9790     1.2530    -0.6410 N.am  1 <1>  -0.6600 
  4 C       -0.8610     2.4480    -0.2450 C.2   1 <1>  -0.0860 
  5 C       -3.6870     0.0050    -1.0600 C.3   1 <1>   0.1400 
  6 C       -3.8250     2.4370    -0.3050 C.3   1 <1>   0.1400 
  7 C       -0.7580     3.5830    -0.9680 C.2   1 <1>  -0.0400 
  8 C       -0.0250     2.7330     0.8210 C.2   1 <1>   0.1080 
  9 C       -4.0000    -0.8910     0.1480 C.3   1 <1>   0.1400 
 10 C       -5.0340     2.1080     0.5830 C.3   1 <1>  -0.1600 
 11 O        0.0230     4.4670    -0.3970 O.3   1 <1>  -0.0190 
 12 C       -1.3880     3.9450    -2.3000 C.3   1 <1>  -0.0600 
 13 N        0.4630     3.9110     0.7090 N.2   1 <1>  -0.4100 
 14 C        0.2840     1.7980     1.9720 C.3   1 <1>  -0.0590 
 15 N       -5.0980    -0.3250     0.9940 N.am  1 <1>  -0.6600 
 16 C       -4.7950     0.9970     1.6120 C.3   1 <1>   0.1400 
 17 C       -6.3150    -0.9270     1.2120 C.2   1 <1>   0.5690 
 18 O       -7.1480    -0.4180     1.9250 O.2   1 <1>  -0.5700 
 19 C       -6.6430    -2.2610     0.5550 C.3   1 <1>  -0.0990 
 20 C       -8.1020    -2.7230     0.7190 C.3   1 <1>   0.0630 
 21 C       -8.2700    -4.0880     0.0890 C.ar  1 <1>  -0.1430 
 22 C       -9.1000    -1.8580    -0.0820 C.3   1 <1>  -0.1600 
 23 C       -8.9670    -4.0150    -1.0920 C.ar  1 <1>  -0.1430 
 24 C       -7.8140    -5.3040     0.5650 C.ar  1 <1>  -0.1500 
 25 C       -9.3730    -2.5970    -1.4030 C.3   1 <1>  -0.0170 
 26 C       -9.2240    -5.1540    -1.8330 C.ar  1 <1>  -0.1500 
 27 C       -8.0660    -6.4520    -0.1710 C.ar  1 <1>  -0.1500 
 28 C       -8.7670    -6.3760    -1.3660 C.ar  1 <1>  -0.1500 
 29 H       -3.0530    -0.5420    -1.7380 H     1 <1>   0.0800 
 30 H       -4.5940     0.2460    -1.5870 H     1 <1>   0.0800 
 31 H       -4.1690     2.8950    -1.2170 H     1 <1>   0.0800 
 32 H       -3.2300     3.1660     0.2170 H     1 <1>   0.0800 
 33 H       -3.1120    -1.0070     0.7460 H     1 <1>   0.0800 
 34 H       -4.2610    -1.8670    -0.2140 H     1 <1>   0.0800 
 35 H       -5.8840     1.8550    -0.0260 H     1 <1>   0.0800 
 36 H       -5.2980     3.0060     1.1130 H     1 <1>   0.0800 
 37 H       -1.9580     3.1210    -2.6880 H     1 <1>   0.0800 
 38 H       -0.6170     4.1940    -3.0060 H     1 <1>   0.0800 
 39 H       -2.0340     4.7950    -2.1780 H     1 <1>   0.0800 
 40 H       -0.6260     1.5070     2.4640 H     1 <1>   0.0800 
 41 H        0.9250     2.2870     2.6830 H     1 <1>   0.0800 
 42 H        0.7810     0.9200     1.6020 H     1 <1>   0.0800 
 43 H       -5.4420     1.1570     2.4590 H     1 <1>   0.0800 
 44 H       -3.7810     1.0170     1.9730 H     1 <1>   0.0800 
 45 H       -6.0000    -3.0040     0.9870 H     1 <1>   0.0800 
 46 H       -6.4290    -2.1980    -0.4950 H     1 <1>   0.0800 
 47 H       -8.3740    -2.7530     1.7610 H     1 <1>   0.0800 
 48 H       -8.7470    -0.8550    -0.2490 H     1 <1>   0.0800 
 49 H      -10.0180    -1.8040     0.4750 H     1 <1>   0.0800 
 50 H       -7.2730    -5.3590     1.4930 H     1 <1>   0.1500 
 51 H       -8.7520    -2.2110    -2.1920 H     1 <1>   0.0800 
 52 H      -10.4090    -2.5330    -1.6840 H     1 <1>   0.0800 
 53 H       -9.7710    -5.0910    -2.7570 H     1 <1>   0.1500 
 54 H       -7.7180    -7.4040     0.1860 H     1 <1>   0.1500 
 55 H       -8.9590    -7.2710    -1.9320 H     1 <1>   0.1500 
@<TRIPOS>BOND
  1   1   2  2   
  2   2   3  am  
  3   2   4  1   
  4   3   5  1   
  5   3   6  1   
  6   4   7  2   
  7   4   8  1   
  8   5   9  1   
  9   5  29  1   
 10   5  30  1   
 11   6  10  1   
 12   6  31  1   
 13   6  32  1   
 14   7  11  1   
 15   7  12  1   
 16   8  13  2   
 17   8  14  1   
 18   9  15  1   
 19   9  33  1   
 20   9  34  1   
 21  10  16  1   
 22  10  35  1   
 23  10  36  1   
 24  11  13  1   
 25  12  37  1   
 26  12  38  1   
 27  12  39  1   
 28  14  40  1   
 29  14  41  1   
 30  14  42  1   
 31  15  16  1   
 32  15  17  am  
 33  16  43  1   
 34  16  44  1   
 35  17  18  2   
 36  17  19  1   
 37  19  20  1   
 38  19  45  1   
 39  19  46  1   
 40  20  21  1   
 41  20  22  1   
 42  20  47  1   
 43  21  23  ar  
 44  21  24  ar  
 45  22  25  1   
 46  22  48  1   
 47  22  49  1   
 48  23  25  1   
 49  23  26  ar  
 50  24  27  ar  
 51  24  50  1   
 52  25  51  1   
 53  25  52  1   
 54  26  28  ar  
 55  26  53  1   
 56  27  28  ar  
 57  27  54  1   
 58  28  55  1   
@<TRIPOS>SUBSTRUCTURE
  1 ****   9 GROUP 4 **** **** 0

# MOE 2024.06 (io_trps.svl 2023.06)
