@<TRIPOS>MOLECULE
NONAME
49 51 1 0 0 
SMALL
USER_CHARGES


@<TRIPOS>ATOM
  1 S        0.7670     0.3500    -1.6810 S.o2  1 <1>   1.3330 
  2 O        1.1300    -0.8840    -2.3410 O.2   1 <1>  -0.6500 
  3 O        0.0280     1.3620    -2.3990 O.2   1 <1>  -0.6500 
  4 N       -0.1240    -0.0410    -0.2870 N.am  1 <1>  -0.8490 
  5 C        2.2700     1.0860    -1.0340 C.3   1 <1>  -0.0550 
  6 C       -0.9870    -1.2100    -0.4900 C.3   1 <1>   0.1160 
  7 C       -0.9220     1.0780     0.2260 C.3   1 <1>   0.1160 
  8 C        3.1680     0.1100    -0.2420 C.3   1 <1>  -0.0800 
  9 C        4.5550     0.6430     0.0950 C.3   1 <1>   0.2200 
 10 C        2.6180    -0.3130     1.1280 C.3   1 <1>   0.1200 
 11 N        4.4860     2.0600     0.5340 N.am  1 <1>  -0.7300 
 12 C        4.8910    -0.2170     1.3040 C.3   1 <1>   0.1200 
 13 O        3.6970    -0.2840     2.0170 O.3   1 <1>  -0.5600 
 14 C        4.8030     3.1500    -0.2160 C.2   1 <1>   0.5440 
 15 O        5.1830     2.9810    -1.3570 O.2   1 <1>  -0.5700 
 16 C        4.6740     4.4840     0.3320 C.ar  1 <1>   0.0860 
 17 C        5.7350     5.4170     0.3660 C.ar  1 <1>   0.0170 
 18 C        3.4320     4.8570     0.8460 C.ar  1 <1>  -0.1500 
 19 C        7.0780     5.1280    -0.0990 C.cat 1 <1>   0.7830 
 20 C        5.4740     6.6870     0.8930 C.ar  1 <1>  -0.1500 
 21 C        3.2090     6.1110     1.3750 C.ar  1 <1>  -0.1500 
 22 N        7.4480     4.3800    -1.1350 N.pl3 1 <1>  -0.7000 
 23 N        8.1960     5.6030     0.4570 N.pl3 1 <1>  -0.7000 
 24 C        4.2360     7.0320     1.3940 C.ar  1 <1>  -0.1500 
 25 C        8.8110     4.3800    -1.2480 C.2   1 <1>   0.2000 
 26 C        9.2820     5.1500    -0.2470 C.2   1 <1>   0.2000 
 27 H        2.8380     1.4590    -1.8640 H     1 <1>   0.0800 
 28 H        2.0140     1.9250    -0.4180 H     1 <1>   0.0800 
 29 H       -1.5300    -1.4360     0.4120 H     1 <1>   0.0800 
 30 H       -0.3900    -2.0690    -0.7460 H     1 <1>   0.0800 
 31 H       -1.6860    -1.0250    -1.2890 H     1 <1>   0.0800 
 32 H       -1.3880     0.8050     1.1570 H     1 <1>   0.0800 
 33 H       -1.6890     1.3500    -0.4820 H     1 <1>   0.0800 
 34 H       -0.2940     1.9350     0.3980 H     1 <1>   0.0800 
 35 H        3.2960    -0.7830    -0.8290 H     1 <1>   0.0800 
 36 H        5.2600     0.5180    -0.7100 H     1 <1>   0.0800 
 37 H        2.2130    -1.3100     1.1020 H     1 <1>   0.0800 
 38 H        1.8740     0.3710     1.4980 H     1 <1>   0.0800 
 39 H        4.1290     2.1580     1.4910 H     1 <1>   0.3700 
 40 H        5.6630     0.2050     1.9230 H     1 <1>   0.0800 
 41 H        5.1600    -1.2170     1.0080 H     1 <1>   0.0800 
 42 H        2.6170     4.1540     0.8260 H     1 <1>   0.1500 
 43 H        6.2460     7.4380     0.9130 H     1 <1>   0.1500 
 44 H        2.2390     6.3760     1.7650 H     1 <1>   0.1500 
 45 H        6.7630     3.8420    -1.7000 H     1 <1>   0.4500 
 46 H        8.2270     6.2000     1.2890 H     1 <1>   0.4500 
 47 H        4.0630     8.0170     1.7970 H     1 <1>   0.1500 
 48 H        9.3470     3.8410    -2.0150 H     1 <1>   0.1500 
 49 H       10.3050     5.3940     0.0000 H     1 <1>   0.1500 
@<TRIPOS>BOND
  1   1   2  2   
  2   1   3  2   
  3   1   4  am  
  4   1   5  1   
  5   4   6  1   
  6   4   7  1   
  7   5   8  1   
  8   5  27  1   
  9   5  28  1   
 10   6  29  1   
 11   6  30  1   
 12   6  31  1   
 13   7  32  1   
 14   7  33  1   
 15   7  34  1   
 16   8   9  1   
 17   8  10  1   
 18   8  35  1   
 19   9  11  1   
 20   9  12  1   
 21   9  36  1   
 22  10  13  1   
 23  10  37  1   
 24  10  38  1   
 25  11  14  am  
 26  11  39  1   
 27  12  13  1   
 28  12  40  1   
 29  12  41  1   
 30  14  15  2   
 31  14  16  1   
 32  16  17  ar  
 33  16  18  ar  
 34  17  19  1   
 35  17  20  ar  
 36  18  21  ar  
 37  18  42  1   
 38  19  22  ar  
 39  19  23  ar  
 40  20  24  ar  
 41  20  43  1   
 42  21  24  ar  
 43  21  44  1   
 44  22  25  1   
 45  22  45  1   
 46  23  26  1   
 47  23  46  1   
 48  24  47  1   
 49  25  26  2   
 50  25  48  1   
 51  26  49  1   
@<TRIPOS>SUBSTRUCTURE
  1 ****  14 GROUP 4 **** **** 0

# MOE 2024.06 (io_trps.svl 2023.06)
