@<TRIPOS>MOLECULE
NONAME
54 56 1 0 0 
SMALL
USER_CHARGES


@<TRIPOS>ATOM
  1 O       -1.7190     1.0470    -1.4790 O.2   1 <1>  -0.5700 
  2 C       -2.4270     1.3400    -0.5330 C.2   1 <1>   0.6900 
  3 N       -3.0240     0.3710     0.2240 N.am  1 <1>  -0.6600 
  4 N       -2.5610     2.6610    -0.2010 N.am  1 <1>  -0.6600 
  5 C       -2.6990    -1.0790     0.0270 C.3   1 <1>   0.1400 
  6 C       -4.3560     0.5770     0.8730 C.3   1 <1>   0.1400 
  7 C       -2.0080     3.0920     1.1110 C.3   1 <1>   0.1400 
  8 C       -2.3780     3.6770    -1.2780 C.3   1 <1>   0.1400 
  9 C       -3.8730    -1.8260    -0.6290 C.3   1 <1>   0.3440 
 10 C       -5.4510    -0.2640     0.1770 C.3   1 <1>   0.2000 
 11 C       -0.5110     3.4390     0.9610 C.3   1 <1>   0.3430 
 12 C       -0.8820     4.0140    -1.4350 C.3   1 <1>   0.3430 
 13 O       -5.0440    -1.6030     0.1110 O.3   1 <1>  -0.5600 
 14 C       -3.5840    -3.3230    -0.7000 C.ar  1 <1>  -0.1440 
 15 C       -6.8150    -0.2130     0.9050 C.3   1 <1>  -0.0800 
 16 N       -0.2600     4.4520    -0.1300 N.4   1 <1>  -0.9590 
 17 C       -3.9370    -4.1830     0.3320 C.ar  1 <1>  -0.1500 
 18 C       -2.9410    -3.8410    -1.8160 C.ar  1 <1>  -0.1500 
 19 C       -7.8630    -1.0910     0.2000 C.3   1 <1>  -0.2400 
 20 C       -7.3680     1.2200     1.0110 C.3   1 <1>  -0.2400 
 21 C        1.2050     4.6910    -0.3050 C.3   1 <1>   0.2630 
 22 C       -3.6510    -5.5350     0.2510 C.ar  1 <1>  -0.1500 
 23 C       -2.6540    -5.1930    -1.8980 C.ar  1 <1>  -0.1500 
 24 C       -3.0080    -6.0410    -0.8650 C.ar  1 <1>  -0.1500 
 25 H       -1.8220    -1.1950    -0.5860 H     1 <1>   0.0800 
 26 H       -2.4900    -1.5290     0.9810 H     1 <1>   0.0800 
 27 H       -4.2940     0.2890     1.9080 H     1 <1>   0.0800 
 28 H       -4.6290     1.6150     0.8310 H     1 <1>   0.0800 
 29 H       -2.5550     3.9440     1.4740 H     1 <1>   0.0800 
 30 H       -2.1160     2.2990     1.8320 H     1 <1>   0.0800 
 31 H       -2.7540     3.2870    -2.2090 H     1 <1>   0.0800 
 32 H       -2.9390     4.5630    -1.0410 H     1 <1>   0.0800 
 33 H       -4.0320    -1.4490    -1.6240 H     1 <1>   0.0800 
 34 H       -5.5840     0.0910    -0.8310 H     1 <1>   0.0800 
 35 H        0.0200     2.5290     0.7330 H     1 <1>   0.0800 
 36 H       -0.1380     3.8110     1.9010 H     1 <1>   0.0800 
 37 H       -0.7680     4.7860    -2.1780 H     1 <1>   0.0800 
 38 H       -0.3790     3.1310    -1.7980 H     1 <1>   0.0800 
 39 H       -6.6760    -0.5920     1.9040 H     1 <1>   0.0800 
 40 H       -0.7100     5.3350     0.1480 H     1 <1>   0.4500 
 41 H       -4.4400    -3.8000     1.2030 H     1 <1>   0.1500 
 42 H       -2.6580    -3.1940    -2.6280 H     1 <1>   0.1500 
 43 H       -8.0180    -0.7600    -0.8120 H     1 <1>   0.0800 
 44 H       -8.8020    -1.0530     0.7230 H     1 <1>   0.0800 
 45 H       -7.5400    -2.1170     0.1760 H     1 <1>   0.0800 
 46 H       -7.4590     1.6630     0.0350 H     1 <1>   0.0800 
 47 H       -6.7330     1.8380     1.6190 H     1 <1>   0.0800 
 48 H       -8.3410     1.2070     1.4700 H     1 <1>   0.0800 
 49 H        1.6990     3.7790    -0.6030 H     1 <1>   0.0800 
 50 H        1.6430     5.0340     0.6180 H     1 <1>   0.0800 
 51 H        1.3760     5.4380    -1.0640 H     1 <1>   0.0800 
 52 H       -3.9310    -6.1910     1.0560 H     1 <1>   0.1500 
 53 H       -2.1550    -5.5840    -2.7680 H     1 <1>   0.1500 
 54 H       -2.7860    -7.0920    -0.9290 H     1 <1>   0.1500 
@<TRIPOS>BOND
  1   1   2  2   
  2   2   3  am  
  3   2   4  am  
  4   3   5  1   
  5   3   6  1   
  6   4   7  1   
  7   4   8  1   
  8   5   9  1   
  9   5  25  1   
 10   5  26  1   
 11   6  10  1   
 12   6  27  1   
 13   6  28  1   
 14   7  11  1   
 15   7  29  1   
 16   7  30  1   
 17   8  12  1   
 18   8  31  1   
 19   8  32  1   
 20   9  13  1   
 21   9  14  1   
 22   9  33  1   
 23  10  13  1   
 24  10  15  1   
 25  10  34  1   
 26  11  16  1   
 27  11  35  1   
 28  11  36  1   
 29  12  16  1   
 30  12  37  1   
 31  12  38  1   
 32  14  17  ar  
 33  14  18  ar  
 34  15  19  1   
 35  15  20  1   
 36  15  39  1   
 37  16  21  1   
 38  16  40  1   
 39  17  22  ar  
 40  17  41  1   
 41  18  23  ar  
 42  18  42  1   
 43  19  43  1   
 44  19  44  1   
 45  19  45  1   
 46  20  46  1   
 47  20  47  1   
 48  20  48  1   
 49  21  49  1   
 50  21  50  1   
 51  21  51  1   
 52  22  24  ar  
 53  22  52  1   
 54  23  24  ar  
 55  23  53  1   
 56  24  54  1   
@<TRIPOS>SUBSTRUCTURE
  1 ****   3 GROUP 4 **** **** 0

# MOE 2024.06 (io_trps.svl 2023.06)
