@<TRIPOS>MOLECULE
NONAME
50 51 1 0 0 
SMALL
USER_CHARGES


@<TRIPOS>ATOM
  1 S        0.4330     0.1210     0.4950 S.o2  1 <1>   1.3330 
  2 O       -0.2660     0.2650     1.7520 O.2   1 <1>  -0.6500 
  3 O        1.8780     0.1070     0.4730 O.2   1 <1>  -0.6500 
  4 N       -0.1140    -1.2960    -0.2640 N.am  1 <1>  -0.8490 
  5 C       -0.1550     1.4110    -0.6010 C.3   1 <1>  -0.0550 
  6 C        0.7850    -1.7760    -1.3190 C.3   1 <1>   0.1160 
  7 C       -0.3770    -2.3730     0.6960 C.3   1 <1>   0.1160 
  8 C        0.1280     2.8280    -0.0750 C.3   1 <1>  -0.0800 
  9 C       -0.4800     3.9070    -0.9660 C.3   1 <1>   0.2000 
 10 C        1.6140     3.1950    -0.0130 C.3   1 <1>   0.1400 
 11 O       -1.8170     4.0880    -0.6530 O.3   1 <1>  -0.6800 
 12 C        0.3420     5.1670    -0.6990 C.3   1 <1>   0.1400 
 13 N        1.6570     4.6610    -0.2360 N.am  1 <1>  -0.6600 
 14 C        2.8020     5.3910    -0.0760 C.2   1 <1>   0.5690 
 15 O        3.8410     4.8620     0.2380 O.2   1 <1>  -0.5700 
 16 C        2.7670     6.8970    -0.3130 C.3   1 <1>  -0.0990 
 17 C        4.0390     7.6390     0.1390 C.3   1 <1>  -0.1600 
 18 C        3.9360     9.1490    -0.1110 C.3   1 <1>  -0.0160 
 19 C        5.2030     9.8540     0.3480 C.ar  1 <1>  -0.1440 
 20 C        5.2940    10.3470     1.6440 C.ar  1 <1>  -0.1500 
 21 C        6.2720    10.0010    -0.5260 C.ar  1 <1>  -0.1500 
 22 C        6.4450    10.9900     2.0680 C.ar  1 <1>  -0.1500 
 23 C        7.4290    10.6420    -0.1150 C.ar  1 <1>  -0.1500 
 24 C        7.4920    11.1260     1.1770 C.ar  1 <1>   0.1900 
 25 F        8.5800    11.7310     1.5710 F     1 <1>  -0.1900 
 26 H        0.2930     1.2920    -1.5670 H     1 <1>   0.0800 
 27 H       -1.2160     1.2980    -0.7160 H     1 <1>   0.0800 
 28 H        0.3450    -2.6210    -1.8220 H     1 <1>   0.0800 
 29 H        1.7330    -2.0730    -0.9000 H     1 <1>   0.0800 
 30 H        0.9560    -1.0000    -2.0440 H     1 <1>   0.0800 
 31 H       -0.7370    -3.2500     0.1840 H     1 <1>   0.0800 
 32 H       -1.1310    -2.0640     1.4000 H     1 <1>   0.0800 
 33 H        0.5210    -2.6200     1.2370 H     1 <1>   0.0800 
 34 H       -0.2660     2.9250     0.9220 H     1 <1>   0.0800 
 35 H       -0.4080     3.6440    -2.0080 H     1 <1>   0.0800 
 36 H        2.1720     2.7070    -0.7940 H     1 <1>   0.0800 
 37 H        2.0480     2.9410     0.9410 H     1 <1>   0.0800 
 38 H       -1.9310     4.2270     0.3080 H     1 <1>   0.4000 
 39 H       -0.1050     5.7570     0.0820 H     1 <1>   0.0800 
 40 H        0.4510     5.7490    -1.5970 H     1 <1>   0.0800 
 41 H        2.6170     7.0620    -1.3630 H     1 <1>   0.0800 
 42 H        1.9260     7.3010     0.2190 H     1 <1>   0.0800 
 43 H        4.2030     7.4610     1.1880 H     1 <1>   0.0800 
 44 H        4.8900     7.2480    -0.3940 H     1 <1>   0.0800 
 45 H        3.0900     9.5500     0.4190 H     1 <1>   0.0800 
 46 H        3.7840     9.3350    -1.1600 H     1 <1>   0.0800 
 47 H        4.4700    10.2310     2.3270 H     1 <1>   0.1500 
 48 H        6.2080     9.6160    -1.5290 H     1 <1>   0.1500 
 49 H        6.5320    11.3780     3.0670 H     1 <1>   0.1500 
 50 H        8.2650    10.7650    -0.7790 H     1 <1>   0.1500 
@<TRIPOS>BOND
  1   1   2  2   
  2   1   3  2   
  3   1   4  am  
  4   1   5  1   
  5   4   6  1   
  6   4   7  1   
  7   5   8  1   
  8   5  26  1   
  9   5  27  1   
 10   6  28  1   
 11   6  29  1   
 12   6  30  1   
 13   7  31  1   
 14   7  32  1   
 15   7  33  1   
 16   8   9  1   
 17   8  10  1   
 18   8  34  1   
 19   9  11  1   
 20   9  12  1   
 21   9  35  1   
 22  10  13  1   
 23  10  36  1   
 24  10  37  1   
 25  11  38  1   
 26  12  13  1   
 27  12  39  1   
 28  12  40  1   
 29  13  14  am  
 30  14  15  2   
 31  14  16  1   
 32  16  17  1   
 33  16  41  1   
 34  16  42  1   
 35  17  18  1   
 36  17  43  1   
 37  17  44  1   
 38  18  19  1   
 39  18  45  1   
 40  18  46  1   
 41  19  20  ar  
 42  19  21  ar  
 43  20  22  ar  
 44  20  47  1   
 45  21  23  ar  
 46  21  48  1   
 47  22  24  ar  
 48  22  49  1   
 49  23  24  ar  
 50  23  50  1   
 51  24  25  1   
@<TRIPOS>SUBSTRUCTURE
  1 ****  14 GROUP 4 **** **** 0

# MOE 2024.06 (io_trps.svl 2023.06)
