@<TRIPOS>MOLECULE
NONAME
54 56 1 0 0 
SMALL
USER_CHARGES


@<TRIPOS>ATOM
  1 S       -0.4370    -0.3500     0.3410 S.3   1 <1>  -0.3320 
  2 C       -0.1240     1.3790     0.7440 C.ar  1 <1>   0.1020 
  3 C       -0.9680    -1.1730     1.9210 C.3   1 <1>   0.1310 
  4 C        0.1580     2.2280    -0.3090 C.ar  1 <1>  -0.1500 
  5 C       -0.1620     1.8500     2.0470 C.ar  1 <1>  -0.1500 
  6 C       -1.3650    -2.6240     1.6720 C.2   1 <1>   0.5690 
  7 C        0.4020     3.5700    -0.0700 C.ar  1 <1>   0.0830 
  8 C        0.0810     3.1920     2.2880 C.ar  1 <1>  -0.1500 
  9 O       -0.7620    -3.4750     2.2830 O.2   1 <1>  -0.5700 
 10 N       -2.3890    -2.9740     0.8210 N.am  1 <1>  -0.6600 
 11 O        0.6700     4.3460    -1.1500 O.3   1 <1>  -0.3630 
 12 C        0.3610     4.0510     1.2380 C.ar  1 <1>  -0.1500 
 13 C       -2.6160    -4.3980     0.4520 C.3   1 <1>   0.1400 
 14 C       -3.3700    -2.0230     0.2250 C.3   1 <1>   0.1400 
 15 C        0.9490     5.7210    -1.0170 C.3   1 <1>   0.0400 
 16 C       -4.0330    -4.8340     0.8820 C.3   1 <1>   0.4230 
 17 C       -4.7800    -2.4390     0.6620 C.3   1 <1>  -0.1600 
 18 N       -4.3040    -6.3220     0.6900 N.4   1 <1>  -0.9590 
 19 C       -5.1400    -3.9080     0.2950 C.3   1 <1>   0.0000 
 20 C       -5.7580    -6.6860     0.6970 C.3   1 <1>   0.3430 
 21 C       -3.6250    -6.9550    -0.4890 C.3   1 <1>   0.2630 
 22 C       -6.5070    -4.2650     0.9510 C.3   1 <1>  -0.1600 
 23 C       -5.2170    -4.0730    -1.2500 C.3   1 <1>   0.1200 
 24 C       -6.5680    -5.6930     1.5280 C.3   1 <1>  -0.1600 
 25 O       -6.0480    -3.1260    -1.8260 O.3   1 <1>  -0.6800 
 26 H       -0.1310    -1.1300     2.5930 H     1 <1>   0.0800 
 27 H       -1.7940    -0.6160     2.3200 H     1 <1>   0.0800 
 28 H        0.1900     1.8530    -1.3150 H     1 <1>   0.1500 
 29 H       -0.3710     1.2020     2.8740 H     1 <1>   0.1500 
 30 H        0.0540     3.5700     3.2960 H     1 <1>   0.1500 
 31 H        0.5450     5.0860     1.4560 H     1 <1>   0.1500 
 32 H       -2.4840    -4.4940    -0.6100 H     1 <1>   0.0800 
 33 H       -1.8910    -5.0280     0.9360 H     1 <1>   0.0800 
 34 H       -3.1830    -1.0140     0.5510 H     1 <1>   0.0800 
 35 H       -3.2830    -2.0380    -0.8490 H     1 <1>   0.0800 
 36 H        1.1350     6.1210    -1.9970 H     1 <1>   0.0800 
 37 H        1.8230     5.8430    -0.4010 H     1 <1>   0.0800 
 38 H        0.0960     6.2100    -0.5790 H     1 <1>   0.0800 
 39 H       -4.0610    -4.6610     1.9460 H     1 <1>   0.0800 
 40 H       -4.8370    -2.3020     1.7290 H     1 <1>   0.0800 
 41 H       -5.4890    -1.7550     0.2290 H     1 <1>   0.0800 
 42 H       -3.8990    -6.7640     1.5300 H     1 <1>   0.4500 
 43 H       -6.1410    -6.6790    -0.3110 H     1 <1>   0.0800 
 44 H       -5.8850    -7.6820     1.0920 H     1 <1>   0.0800 
 45 H       -3.9670    -6.5070    -1.4080 H     1 <1>   0.0800 
 46 H       -3.8420    -8.0110    -0.5220 H     1 <1>   0.0800 
 47 H       -2.5560    -6.8340    -0.4220 H     1 <1>   0.0800 
 48 H       -6.7300    -3.5850     1.7570 H     1 <1>   0.0800 
 49 H       -7.3020    -4.1440     0.2360 H     1 <1>   0.0800 
 50 H       -5.5950    -5.0410    -1.5280 H     1 <1>   0.0800 
 51 H       -4.2520    -3.9430    -1.7070 H     1 <1>   0.0800 
 52 H       -7.5950    -6.0140     1.5630 H     1 <1>   0.0800 
 53 H       -6.2030    -5.7000     2.5410 H     1 <1>   0.0800 
 54 H       -6.9780    -3.2250    -1.5420 H     1 <1>   0.4000 
@<TRIPOS>BOND
  1   1   2  1   
  2   1   3  1   
  3   2   4  ar  
  4   2   5  ar  
  5   3   6  1   
  6   3  26  1   
  7   3  27  1   
  8   4   7  ar  
  9   4  28  1   
 10   5   8  ar  
 11   5  29  1   
 12   6   9  2   
 13   6  10  am  
 14   7  11  1   
 15   7  12  ar  
 16   8  12  ar  
 17   8  30  1   
 18  10  13  1   
 19  10  14  1   
 20  11  15  1   
 21  12  31  1   
 22  13  16  1   
 23  13  32  1   
 24  13  33  1   
 25  14  17  1   
 26  14  34  1   
 27  14  35  1   
 28  15  36  1   
 29  15  37  1   
 30  15  38  1   
 31  16  18  1   
 32  16  19  1   
 33  16  39  1   
 34  17  19  1   
 35  17  40  1   
 36  17  41  1   
 37  18  20  1   
 38  18  21  1   
 39  18  42  1   
 40  19  22  1   
 41  19  23  1   
 42  20  24  1   
 43  20  43  1   
 44  20  44  1   
 45  21  45  1   
 46  21  46  1   
 47  21  47  1   
 48  22  24  1   
 49  22  48  1   
 50  22  49  1   
 51  23  25  1   
 52  23  50  1   
 53  23  51  1   
 54  24  52  1   
 55  24  53  1   
 56  25  54  1   
@<TRIPOS>SUBSTRUCTURE
  1 ****  14 GROUP 4 **** **** 0

# MOE 2024.06 (io_trps.svl 2023.06)
