@<TRIPOS>MOLECULE
NONAME
42 44 1 0 0 
SMALL
USER_CHARGES


@<TRIPOS>ATOM
  1 O       -0.5090     0.7230     1.7480 O.2   1 <1>  -0.5700 
  2 C       -0.4570     1.5170     0.8300 C.2   1 <1>   0.5440 
  3 N       -1.5880     1.7040     0.0890 N.am  1 <1>  -0.7300 
  4 C        0.7750     2.2160     0.5060 C.ar  1 <1>   0.0860 
  5 C       -2.9240     1.1270     0.3900 C.3   1 <1>   0.2200 
  6 C        0.7740     3.4670    -0.1170 C.ar  1 <1>  -0.1500 
  7 C        2.0160     1.6540     0.8080 C.ar  1 <1>  -0.1500 
  8 C       -3.0300    -0.3430    -0.0720 C.3   1 <1>   0.2000 
  9 C       -3.9860     1.9970    -0.2890 C.3   1 <1>  -0.1600 
 10 C        1.9540     4.1160    -0.4340 C.ar  1 <1>  -0.1500 
 11 C        3.1990     2.2980     0.4940 C.ar  1 <1>  -0.1500 
 12 O       -2.1730    -1.1400     0.6730 O.3   1 <1>  -0.6800 
 13 C       -4.4530    -0.8910     0.0930 C.3   1 <1>   0.1400 
 14 C       -5.3880     1.4290    -0.0610 C.3   1 <1>   0.1400 
 15 C        3.1700     3.5310    -0.1310 C.ar  1 <1>  -0.1500 
 16 N       -5.4490     0.0240    -0.5570 N.am  1 <1>  -0.6600 
 17 C       -6.3900    -0.3540    -1.4890 C.2   1 <1>   0.5690 
 18 O       -7.0520     0.4680    -2.0780 O.2   1 <1>  -0.5700 
 19 C       -6.6320    -1.7970    -1.8590 C.3   1 <1>   0.1570 
 20 N       -7.2460    -2.4900    -0.7280 N.pl3 1 <1>   0.5800 
 21 N       -8.5000    -2.3160    -0.3410 N.2   1 <1>  -0.4180 
 22 N       -6.6070    -3.4010    -0.0170 N.2   1 <1>  -0.7070 
 23 N       -8.6810    -3.1070     0.6420 N.2   1 <1>  -0.2270 
 24 C       -7.5270    -3.7390     0.8080 C.2   1 <1>   0.3660 
 25 H       -1.5200     2.2200    -0.7890 H     1 <1>   0.3700 
 26 H       -3.0880     1.1590     1.4550 H     1 <1>   0.0800 
 27 H       -0.1600     3.9450    -0.3490 H     1 <1>   0.1500 
 28 H        2.0490     0.6950     1.2970 H     1 <1>   0.1500 
 29 H       -2.7360    -0.4230    -1.1030 H     1 <1>   0.0800 
 30 H       -3.9470     2.9920     0.1160 H     1 <1>   0.0800 
 31 H       -3.8070     2.0500    -1.3480 H     1 <1>   0.0800 
 32 H        1.9300     5.0790    -0.9150 H     1 <1>   0.1500 
 33 H        4.1430     1.8400     0.7370 H     1 <1>   0.1500 
 34 H       -1.4660    -0.5670     1.0770 H     1 <1>   0.4000 
 35 H       -4.6880    -0.9700     1.1410 H     1 <1>   0.0800 
 36 H       -4.4850    -1.8750    -0.3360 H     1 <1>   0.0800 
 37 H       -6.1120     2.0470    -0.5660 H     1 <1>   0.0800 
 38 H       -5.6250     1.4400     0.9890 H     1 <1>   0.0800 
 39 H        4.0890     4.0340    -0.3760 H     1 <1>   0.1500 
 40 H       -5.7120    -2.2800    -2.1210 H     1 <1>   0.0800 
 41 H       -7.3060    -1.8480    -2.6920 H     1 <1>   0.0800 
 42 H       -7.4010    -4.4770     1.5830 H     1 <1>   0.1500 
@<TRIPOS>BOND
  1   1   2  2   
  2   2   3  am  
  3   2   4  1   
  4   3   5  1   
  5   3  25  1   
  6   4   6  ar  
  7   4   7  ar  
  8   5   8  1   
  9   5   9  1   
 10   5  26  1   
 11   6  10  ar  
 12   6  27  1   
 13   7  11  ar  
 14   7  28  1   
 15   8  12  1   
 16   8  13  1   
 17   8  29  1   
 18   9  14  1   
 19   9  30  1   
 20   9  31  1   
 21  10  15  ar  
 22  10  32  1   
 23  11  15  ar  
 24  11  33  1   
 25  12  34  1   
 26  13  16  1   
 27  13  35  1   
 28  13  36  1   
 29  14  16  1   
 30  14  37  1   
 31  14  38  1   
 32  15  39  1   
 33  16  17  am  
 34  17  18  2   
 35  17  19  1   
 36  19  20  1   
 37  19  40  1   
 38  19  41  1   
 39  20  21  1   
 40  20  22  1   
 41  21  23  2   
 42  22  24  2   
 43  23  24  1   
 44  24  42  1   
@<TRIPOS>SUBSTRUCTURE
  1 ****   8 GROUP 4 **** **** 0

# MOE 2024.06 (io_trps.svl 2023.06)
