@<TRIPOS>MOLECULE
NONAME
46 47 1 0 0 
SMALL
USER_CHARGES


@<TRIPOS>ATOM
  1 O        2.7690    -0.1710     1.9880 O.co2 1 <1>  -0.9000 
  2 C        2.7840    -0.3480     0.7670 C.2   1 <1>   0.9060 
  3 O        3.3810    -1.3010     0.2580 O.co2 1 <1>  -0.9000 
  4 C        2.2180     0.7450    -0.1630 C.3   1 <1>  -0.1060 
  5 C        3.2350     0.8460    -1.3270 C.3   1 <1>   0.2000 
  6 C        2.2100     2.1090     0.5870 C.3   1 <1>  -0.1600 
  7 C        0.7910     0.3020    -0.5960 C.3   1 <1>  -0.1600 
  8 O        2.8950     1.8850    -2.1990 O.3   1 <1>  -0.6800 
  9 C        4.6280     1.1680    -0.7480 C.3   1 <1>   0.3430 
 10 C        3.6170     2.4690     1.0860 C.3   1 <1>   0.3430 
 11 C       -0.0510     1.2770    -1.4410 C.3   1 <1>  -0.1600 
 12 N        4.5790     2.5060    -0.0610 N.4   1 <1>  -0.9590 
 13 C       -1.4630     0.7230    -1.6500 C.3   1 <1>  -0.2400 
 14 C        5.9160     2.9780     0.3860 C.3   1 <1>   0.3430 
 15 C        6.8430     3.2810    -0.7920 C.3   1 <1>  -0.0170 
 16 C        8.1180     3.9100    -0.2640 C.ar  1 <1>  -0.1440 
 17 C        8.2500     5.2900    -0.2120 C.ar  1 <1>  -0.1500 
 18 C        9.1590     3.1090     0.1800 C.ar  1 <1>  -0.1500 
 19 C        9.4090     5.8620     0.2830 C.ar  1 <1>  -0.1500 
 20 C       10.3180     3.6810     0.6750 C.ar  1 <1>  -0.1500 
 21 C       10.4430     5.0580     0.7280 C.ar  1 <1>  -0.1500 
 22 H        3.2700    -0.0730    -1.8880 H     1 <1>   0.0800 
 23 H        1.5550     2.0410     1.4390 H     1 <1>   0.0800 
 24 H        1.8450     2.9030    -0.0360 H     1 <1>   0.0800 
 25 H        0.8740    -0.6340    -1.1250 H     1 <1>   0.0800 
 26 H        0.2400     0.0890     0.3060 H     1 <1>   0.0800 
 27 H        1.9970     1.7110    -2.5470 H     1 <1>   0.4000 
 28 H        5.3350     1.1790    -1.5570 H     1 <1>   0.0800 
 29 H        4.9270     0.3990    -0.0530 H     1 <1>   0.0800 
 30 H        3.9410     1.7370     1.8100 H     1 <1>   0.0800 
 31 H        3.5850     3.4290     1.5740 H     1 <1>   0.0800 
 32 H       -0.1310     2.2300    -0.9480 H     1 <1>   0.0800 
 33 H        0.3900     1.4240    -2.4080 H     1 <1>   0.0800 
 34 H        4.1680     3.1310    -0.7720 H     1 <1>   0.4500 
 35 H       -1.9590     0.5890    -0.7040 H     1 <1>   0.0800 
 36 H       -1.4250    -0.2260    -2.1550 H     1 <1>   0.0800 
 37 H       -2.0440     1.4050    -2.2450 H     1 <1>   0.0800 
 38 H        5.7990     3.8800     0.9650 H     1 <1>   0.0800 
 39 H        6.3710     2.2360     1.0210 H     1 <1>   0.0800 
 40 H        7.0900     2.3790    -1.3220 H     1 <1>   0.0800 
 41 H        6.3620     3.9600    -1.4740 H     1 <1>   0.0800 
 42 H        7.4570     5.9310    -0.5570 H     1 <1>   0.1500 
 43 H        9.0810     2.0360     0.1450 H     1 <1>   0.1500 
 44 H        9.5080     6.9330     0.3210 H     1 <1>   0.1500 
 45 H       11.1240     3.0570     1.0190 H     1 <1>   0.1500 
 46 H       11.3450     5.5030     1.1120 H     1 <1>   0.1500 
@<TRIPOS>BOND
  1   1   2  ar  
  2   2   3  ar  
  3   2   4  1   
  4   4   5  1   
  5   4   6  1   
  6   4   7  1   
  7   5   8  1   
  8   5   9  1   
  9   5  22  1   
 10   6  10  1   
 11   6  23  1   
 12   6  24  1   
 13   7  11  1   
 14   7  25  1   
 15   7  26  1   
 16   8  27  1   
 17   9  12  1   
 18   9  28  1   
 19   9  29  1   
 20  10  12  1   
 21  10  30  1   
 22  10  31  1   
 23  11  13  1   
 24  11  32  1   
 25  11  33  1   
 26  12  14  1   
 27  12  34  1   
 28  13  35  1   
 29  13  36  1   
 30  13  37  1   
 31  14  15  1   
 32  14  38  1   
 33  14  39  1   
 34  15  16  1   
 35  15  40  1   
 36  15  41  1   
 37  16  17  ar  
 38  16  18  ar  
 39  17  19  ar  
 40  17  42  1   
 41  18  20  ar  
 42  18  43  1   
 43  19  21  ar  
 44  19  44  1   
 45  20  21  ar  
 46  20  45  1   
 47  21  46  1   
@<TRIPOS>SUBSTRUCTURE
  1 ****  12 GROUP 4 **** **** 0

# MOE 2024.06 (io_trps.svl 2023.06)
