@<TRIPOS>MOLECULE
NONAME
42 43 1 0 0 
SMALL
USER_CHARGES


@<TRIPOS>ATOM
  1 S       -0.2420     0.1950     0.0890 S.o2  1 <1>   1.3330 
  2 O       -0.1730    -0.5250     1.3410 O.2   1 <1>  -0.6500 
  3 O       -0.8830     1.4890     0.0460 O.2   1 <1>  -0.6500 
  4 N       -1.0010    -0.8140    -1.0470 N.am  1 <1>  -0.8490 
  5 C        1.4050     0.3790    -0.5960 C.3   1 <1>  -0.0550 
  6 C       -2.4430    -0.5670    -1.1350 C.3   1 <1>   0.1160 
  7 C       -0.7520    -2.2410    -0.8170 C.3   1 <1>   0.1160 
  8 C        2.3020     1.3440     0.2050 C.3   1 <1>  -0.0800 
  9 C        3.5940     1.6350    -0.5400 C.3   1 <1>   0.2200 
 10 C        2.8130     0.7150     1.5070 C.3   1 <1>   0.1200 
 11 N        4.1390     2.9290    -0.0720 N.am  1 <1>  -0.7300 
 12 C        4.4910     0.5020    -0.0620 C.3   1 <1>   0.1200 
 13 O        4.0980     0.2260     1.2490 O.3   1 <1>  -0.5600 
 14 C        4.3340     4.0350    -0.8480 C.2   1 <1>   0.5440 
 15 O        4.0700     3.9590    -2.0320 O.2   1 <1>  -0.5700 
 16 C        4.8590     5.2640    -0.2780 C.ar  1 <1>   0.0860 
 17 C        5.5240     6.1920    -1.0810 C.ar  1 <1>  -0.1500 
 18 C        4.7240     5.5700     1.0800 C.ar  1 <1>  -0.1500 
 19 C        6.0370     7.3600    -0.5460 C.ar  1 <1>   0.0820 
 20 C        5.2380     6.7380     1.6160 C.ar  1 <1>  -0.1500 
 21 O        6.6730     8.2390    -1.3320 O.3   1 <1>  -0.5330 
 22 C        5.9000     7.6370     0.8010 C.ar  1 <1>  -0.1500 
 23 H        1.8760    -0.5820    -0.6610 H     1 <1>   0.0800 
 24 H        1.3030     0.7600    -1.5940 H     1 <1>   0.0800 
 25 H       -2.8890    -1.2110    -1.8730 H     1 <1>   0.0800 
 26 H       -2.6260     0.4540    -1.4270 H     1 <1>   0.0800 
 27 H       -2.9120    -0.7420    -0.1800 H     1 <1>   0.0800 
 28 H       -1.1760    -2.8240    -1.6170 H     1 <1>   0.0800 
 29 H       -1.1910    -2.5550     0.1160 H     1 <1>   0.0800 
 30 H        0.3060    -2.4340    -0.7810 H     1 <1>   0.0800 
 31 H        1.7520     2.2510     0.3940 H     1 <1>   0.0800 
 32 H        3.4780     1.6360    -1.6110 H     1 <1>   0.0800 
 33 H        2.2030    -0.0960     1.8640 H     1 <1>   0.0800 
 34 H        2.8990     1.4580     2.2810 H     1 <1>   0.0800 
 35 H        4.4830     2.9130     0.8900 H     1 <1>   0.3700 
 36 H        5.5350     0.7620    -0.0810 H     1 <1>   0.0800 
 37 H        4.3280    -0.3870    -0.6460 H     1 <1>   0.0800 
 38 H        5.6330     5.9860    -2.1300 H     1 <1>   0.1500 
 39 H        4.2010     4.8910     1.7290 H     1 <1>   0.1500 
 40 H        5.1230     6.9510     2.6650 H     1 <1>   0.1500 
 41 H        6.7000     7.9690    -2.2680 H     1 <1>   0.4500 
 42 H        6.3070     8.5500     1.2000 H     1 <1>   0.1500 
@<TRIPOS>BOND
  1   1   2  2   
  2   1   3  2   
  3   1   4  am  
  4   1   5  1   
  5   4   6  1   
  6   4   7  1   
  7   5   8  1   
  8   5  23  1   
  9   5  24  1   
 10   6  25  1   
 11   6  26  1   
 12   6  27  1   
 13   7  28  1   
 14   7  29  1   
 15   7  30  1   
 16   8   9  1   
 17   8  10  1   
 18   8  31  1   
 19   9  11  1   
 20   9  12  1   
 21   9  32  1   
 22  10  13  1   
 23  10  33  1   
 24  10  34  1   
 25  11  14  am  
 26  11  35  1   
 27  12  13  1   
 28  12  36  1   
 29  12  37  1   
 30  14  15  2   
 31  14  16  1   
 32  16  17  ar  
 33  16  18  ar  
 34  17  19  ar  
 35  17  38  1   
 36  18  20  ar  
 37  18  39  1   
 38  19  21  1   
 39  19  22  ar  
 40  20  22  ar  
 41  20  40  1   
 42  21  41  1   
 43  22  42  1   
@<TRIPOS>SUBSTRUCTURE
  1 ****  11 GROUP 4 **** **** 0

# MOE 2024.06 (io_trps.svl 2023.06)
