@<TRIPOS>MOLECULE
NONAME
52 55 1 0 0 
SMALL
USER_CHARGES


@<TRIPOS>ATOM
  1 O        0.3100    -0.3860    -0.7240 O.2   1 <1>  -0.5700 
  2 C        0.1750    -1.5880    -0.8540 C.2   1 <1>   0.5440 
  3 N       -0.7690    -2.0220    -1.7350 N.am  1 <1>  -0.5390 
  4 C        0.9500    -2.5700    -0.1350 C.ar  1 <1>   0.0860 
  5 C       -1.0480    -3.3510    -1.9190 C.2   1 <1>  -0.0410 
  6 C        0.6960    -3.9430    -0.3460 C.ar  1 <1>   0.0280 
  7 C        1.9610    -2.1880     0.7510 C.ar  1 <1>  -0.1500 
  8 C       -0.3890    -4.3290    -1.2280 C.2   1 <1>  -0.0140 
  9 C        1.5310    -4.8670     0.2990 C.ar  1 <1>  -0.1500 
 10 C        2.7400    -3.1200     1.3980 C.ar  1 <1>  -0.1500 
 11 C       -0.7990    -5.7040    -1.3860 C.2   1 <1>   0.6160 
 12 C        2.5280    -4.4680     1.1620 C.ar  1 <1>  -0.1500 
 13 O       -1.0710    -6.1390    -2.4890 O.2   1 <1>  -0.5700 
 14 N       -1.0150    -6.5480    -0.3160 N.am  1 <1>  -0.6600 
 15 C       -1.7170    -6.0800     0.9160 C.3   1 <1>   0.1400 
 16 C       -1.0830    -8.0250    -0.5210 C.3   1 <1>   0.1400 
 17 C       -3.1890    -6.5650     0.9360 C.3   1 <1>   0.4230 
 18 C       -2.5500    -8.4870    -0.5500 C.3   1 <1>   0.3430 
 19 N       -3.3080    -8.0630     0.6930 N.4   1 <1>  -0.9590 
 20 C       -4.0370    -5.7750    -0.0900 C.3   1 <1>   0.1200 
 21 C       -4.7650    -8.4440     0.6570 C.3   1 <1>   0.4230 
 22 O       -5.3660    -6.2070    -0.0530 O.3   1 <1>  -0.5600 
 23 C       -5.5570    -7.5640    -0.3420 C.3   1 <1>   0.1200 
 24 C       -4.9270    -9.9490     0.3860 C.3   1 <1>  -0.1600 
 25 C       -6.3400   -10.4550     0.7150 C.3   1 <1>  -0.1600 
 26 C       -6.4380   -11.9700     0.5130 C.3   1 <1>  -0.2400 
 27 H       -1.2440    -1.2740    -2.2490 H     1 <1>   0.3700 
 28 H       -1.8230    -3.5940    -2.6310 H     1 <1>   0.1500 
 29 H        2.1340    -1.1380     0.9210 H     1 <1>   0.1500 
 30 H        1.4150    -5.9200     0.1230 H     1 <1>   0.1500 
 31 H        3.5170    -2.8070     2.0760 H     1 <1>   0.1500 
 32 H        3.1520    -5.1960     1.6510 H     1 <1>   0.1500 
 33 H       -1.2010    -6.4600     1.7810 H     1 <1>   0.0800 
 34 H       -1.6930    -5.0050     0.9780 H     1 <1>   0.0800 
 35 H       -0.6060    -8.2940    -1.4500 H     1 <1>   0.0800 
 36 H       -0.5520    -8.5240     0.2700 H     1 <1>   0.0800 
 37 H       -3.5920    -6.3360     1.9090 H     1 <1>   0.0800 
 38 H       -2.5720    -9.5600    -0.6490 H     1 <1>   0.0800 
 39 H       -3.0160    -8.0650    -1.4260 H     1 <1>   0.0800 
 40 H       -2.8860    -8.5430     1.4960 H     1 <1>   0.4500 
 41 H       -3.6620    -5.8940    -1.0920 H     1 <1>   0.0800 
 42 H       -4.0330    -4.7270     0.1520 H     1 <1>   0.0800 
 43 H       -5.1830    -8.2530     1.6320 H     1 <1>   0.0800 
 44 H       -6.6110    -7.7600    -0.2600 H     1 <1>   0.0800 
 45 H       -5.2560    -7.7490    -1.3580 H     1 <1>   0.0800 
 46 H       -4.7190   -10.1680    -0.6470 H     1 <1>   0.0800 
 47 H       -4.2310   -10.4940     1.0000 H     1 <1>   0.0800 
 48 H       -6.5870   -10.2260     1.7390 H     1 <1>   0.0800 
 49 H       -7.0710    -9.9800     0.0820 H     1 <1>   0.0800 
 50 H       -5.7480   -12.4880     1.1570 H     1 <1>   0.0800 
 51 H       -6.2240   -12.2340    -0.5080 H     1 <1>   0.0800 
 52 H       -7.4330   -12.3080     0.7460 H     1 <1>   0.0800 
@<TRIPOS>BOND
  1   1   2  2   
  2   2   3  am  
  3   2   4  1   
  4   3   5  1   
  5   3  27  1   
  6   4   6  ar  
  7   4   7  ar  
  8   5   8  2   
  9   5  28  1   
 10   6   8  1   
 11   6   9  ar  
 12   7  10  ar  
 13   7  29  1   
 14   8  11  1   
 15   9  12  ar  
 16   9  30  1   
 17  10  12  ar  
 18  10  31  1   
 19  11  13  2   
 20  11  14  am  
 21  12  32  1   
 22  14  15  1   
 23  14  16  1   
 24  15  17  1   
 25  15  33  1   
 26  15  34  1   
 27  16  18  1   
 28  16  35  1   
 29  16  36  1   
 30  17  19  1   
 31  17  20  1   
 32  17  37  1   
 33  18  19  1   
 34  18  38  1   
 35  18  39  1   
 36  19  21  1   
 37  19  40  1   
 38  20  22  1   
 39  20  41  1   
 40  20  42  1   
 41  21  23  1   
 42  21  24  1   
 43  21  43  1   
 44  22  23  1   
 45  23  44  1   
 46  23  45  1   
 47  24  25  1   
 48  24  46  1   
 49  24  47  1   
 50  25  26  1   
 51  25  48  1   
 52  25  49  1   
 53  26  50  1   
 54  26  51  1   
 55  26  52  1   
@<TRIPOS>SUBSTRUCTURE
  1 ****  14 GROUP 4 **** **** 0

# MOE 2024.06 (io_trps.svl 2023.06)
