@<TRIPOS>MOLECULE
NONAME
47 48 1 0 0 
SMALL
USER_CHARGES


@<TRIPOS>ATOM
  1 O       -0.0400     1.1550     1.3400 O.2   1 <1>  -0.5700 
  2 C       -0.1260     2.3310     1.0900 C.2   1 <1>   0.5690 
  3 N       -1.2220     3.0350     1.4380 N.am  1 <1>  -0.7300 
  4 C        0.9950     3.0430     0.3350 C.3   1 <1>   0.1810 
  5 C       -1.4500     4.4540     1.0640 C.3   1 <1>   0.3640 
  6 O        0.9810     4.4350     0.5540 O.3   1 <1>  -0.5600 
  7 C       -2.7470     4.5160     0.2560 C.ar  1 <1>  -0.1440 
  8 C       -0.2620     5.0780     0.2730 C.3   1 <1>   0.2610 
  9 C       -2.9950     3.6220    -0.7800 C.ar  1 <1>  -0.1500 
 10 C       -3.7010     5.4800     0.5500 C.ar  1 <1>  -0.1500 
 11 C       -0.1500     6.5820     0.5680 C.2   1 <1>   0.5690 
 12 C       -4.1730     3.6910    -1.5030 C.ar  1 <1>  -0.1500 
 13 C       -4.8790     5.5500    -0.1720 C.ar  1 <1>  -0.1500 
 14 O       -1.1480     7.2610     0.6480 O.2   1 <1>  -0.5700 
 15 N        1.0850     7.1270     0.7380 N.am  1 <1>  -0.7300 
 16 C       -5.1170     4.6550    -1.1990 C.ar  1 <1>  -0.1500 
 17 C        1.3850     8.5500     0.9850 C.3   1 <1>   0.1400 
 18 C        2.4850     9.0010     0.0240 C.3   1 <1>  -0.1600 
 19 C        2.8110    10.4970     0.2010 C.3   1 <1>  -0.0990 
 20 C        3.9050    11.0160    -0.7290 C.2   1 <1>   0.5690 
 21 O        4.5670    10.2090    -1.3390 O.2   1 <1>  -0.5700 
 22 N        4.1220    12.3690    -0.8520 N.am  1 <1>  -0.6600 
 23 C        3.4090    13.4230    -0.0780 C.3   1 <1>   0.0600 
 24 C        5.1270    12.9030    -1.8140 C.3   1 <1>   0.0600 
 25 H       -1.9990     2.5440     1.8830 H     1 <1>   0.3700 
 26 H        0.8970     2.8600    -0.7190 H     1 <1>   0.0800 
 27 H        1.9450     2.6670     0.6700 H     1 <1>   0.0800 
 28 H       -1.5810     5.0130     1.9760 H     1 <1>   0.0800 
 29 H       -0.4460     4.9690    -0.7800 H     1 <1>   0.0800 
 30 H       -2.2760     2.8620    -1.0310 H     1 <1>   0.1500 
 31 H       -3.5300     6.1920     1.3410 H     1 <1>   0.1500 
 32 H       -4.3570     2.9930    -2.3010 H     1 <1>   0.1500 
 33 H       -5.6090     6.3050     0.0640 H     1 <1>   0.1500 
 34 H        1.8840     6.4850     0.7110 H     1 <1>   0.3700 
 35 H       -6.0330     4.7100    -1.7610 H     1 <1>   0.1500 
 36 H        0.4970     9.1410     0.8330 H     1 <1>   0.0800 
 37 H        1.7080     8.6720     2.0050 H     1 <1>   0.0800 
 38 H        3.3740     8.4220     0.2020 H     1 <1>   0.0800 
 39 H        2.1640     8.8310    -0.9900 H     1 <1>   0.0800 
 40 H        3.1270    10.6720     1.2120 H     1 <1>   0.0800 
 41 H        1.9170    11.0640     0.0190 H     1 <1>   0.0800 
 42 H        4.1030    14.1910     0.2150 H     1 <1>   0.0800 
 43 H        2.9620    13.0210     0.8120 H     1 <1>   0.0800 
 44 H        2.6410    13.8620    -0.6910 H     1 <1>   0.0800 
 45 H        4.6630    13.6230    -2.4640 H     1 <1>   0.0800 
 46 H        5.5390    12.1150    -2.4210 H     1 <1>   0.0800 
 47 H        5.9300    13.3750    -1.2760 H     1 <1>   0.0800 
@<TRIPOS>BOND
  1   1   2  2   
  2   2   3  am  
  3   2   4  1   
  4   3   5  1   
  5   3  25  1   
  6   4   6  1   
  7   4  26  1   
  8   4  27  1   
  9   5   7  1   
 10   5   8  1   
 11   5  28  1   
 12   6   8  1   
 13   7   9  ar  
 14   7  10  ar  
 15   8  11  1   
 16   8  29  1   
 17   9  12  ar  
 18   9  30  1   
 19  10  13  ar  
 20  10  31  1   
 21  11  14  2   
 22  11  15  am  
 23  12  16  ar  
 24  12  32  1   
 25  13  16  ar  
 26  13  33  1   
 27  15  17  1   
 28  15  34  1   
 29  16  35  1   
 30  17  18  1   
 31  17  36  1   
 32  17  37  1   
 33  18  19  1   
 34  18  38  1   
 35  18  39  1   
 36  19  20  1   
 37  19  40  1   
 38  19  41  1   
 39  20  21  2   
 40  20  22  am  
 41  22  23  1   
 42  22  24  1   
 43  23  42  1   
 44  23  43  1   
 45  23  44  1   
 46  24  45  1   
 47  24  46  1   
 48  24  47  1   
@<TRIPOS>SUBSTRUCTURE
  1 ****  11 GROUP 4 **** **** 0

# MOE 2024.06 (io_trps.svl 2023.06)
