@<TRIPOS>MOLECULE
NONAME
42 45 1 0 0 
SMALL
USER_CHARGES


@<TRIPOS>ATOM
  1 CL      -1.7440    -0.2720     2.4890 Cl    1 <1>  -0.1240 
  2 C       -1.8530    -1.3550     1.1290 C.2   1 <1>   0.1640 
  3 S       -1.7180    -3.0660     1.4760 S.3   1 <1>  -0.0800 
  4 C       -2.0280    -1.1190    -0.1820 C.2   1 <1>  -0.1500 
  5 C       -1.9110    -3.4490    -0.2340 C.2   1 <1>  -0.1400 
  6 C       -2.0610    -2.3220    -0.9630 C.2   1 <1>  -0.1500 
  7 C       -1.8840    -4.9150    -0.6130 C.3   1 <1>   0.5230 
  8 N       -2.9870    -5.6080     0.1020 N.4   1 <1>  -0.9590 
  9 C       -4.3400    -5.0900    -0.3170 C.3   1 <1>   0.3430 
 10 C       -2.9110    -7.0990    -0.0560 C.3   1 <1>   0.3430 
 11 C       -5.4920    -5.8320     0.3920 C.3   1 <1>   0.1900 
 12 C       -4.0860    -7.8140     0.6410 C.3   1 <1>   0.1100 
 13 N       -5.3890    -7.2980     0.1670 N.3   1 <1>  -0.8100 
 14 C       -6.8450    -5.2950    -0.1080 C.3   1 <1>   0.1200 
 15 C       -6.5600    -7.9990     0.7700 C.3   1 <1>   0.2850 
 16 O       -7.8780    -5.9580     0.5470 O.3   1 <1>  -0.5600 
 17 C       -6.5070    -9.5050     0.4250 C.3   1 <1>  -0.1950 
 18 C       -7.8850    -7.3390     0.3120 C.3   1 <1>   0.1200 
 19 C       -6.6640   -10.0120    -0.9770 C.3   1 <1>  -0.2000 
 20 C       -7.7040   -10.3350     0.0570 C.3   1 <1>  -0.2000 
 21 H       -2.1340    -0.1460    -0.6300 H     1 <1>   0.1500 
 22 H       -2.1920    -2.2640    -2.0310 H     1 <1>   0.1500 
 23 H       -0.9340    -5.3360    -0.3270 H     1 <1>   0.0800 
 24 H       -2.0030    -5.0230    -1.6790 H     1 <1>   0.0800 
 25 H       -2.8750    -5.3830     1.1000 H     1 <1>   0.4500 
 26 H       -4.4140    -4.0380    -0.0960 H     1 <1>   0.0800 
 27 H       -4.4630    -5.2160    -1.3800 H     1 <1>   0.0800 
 28 H       -2.9400    -7.3550    -1.1030 H     1 <1>   0.0800 
 29 H       -1.9830    -7.4670     0.3510 H     1 <1>   0.0800 
 30 H       -5.4330    -5.6240     1.4470 H     1 <1>   0.0800 
 31 H       -4.0070    -7.7000     1.7090 H     1 <1>   0.0800 
 32 H       -4.0050    -8.8630     0.4130 H     1 <1>   0.0800 
 33 H       -6.9580    -5.4430    -1.1680 H     1 <1>   0.0800 
 34 H       -6.9450    -4.2470     0.1130 H     1 <1>   0.0800 
 35 H       -6.5210    -7.9040     1.8420 H     1 <1>   0.0800 
 36 H       -5.8090   -10.0180     1.0620 H     1 <1>   0.1000 
 37 H       -8.7110    -7.7530     0.8610 H     1 <1>   0.0800 
 38 H       -8.0520    -7.5040    -0.7380 H     1 <1>   0.0800 
 39 H       -6.9100    -9.3170    -1.7610 H     1 <1>   0.1000 
 40 H       -6.0140   -10.7990    -1.3190 H     1 <1>   0.1000 
 41 H       -7.7600   -11.3470     0.4210 H     1 <1>   0.1000 
 42 H       -8.6810    -9.9040    -0.0720 H     1 <1>   0.1000 
@<TRIPOS>BOND
  1   1   2  1   
  2   2   3  1   
  3   2   4  2   
  4   3   5  1   
  5   4   6  1   
  6   4  21  1   
  7   5   6  2   
  8   5   7  1   
  9   6  22  1   
 10   7   8  1   
 11   7  23  1   
 12   7  24  1   
 13   8   9  1   
 14   8  10  1   
 15   8  25  1   
 16   9  11  1   
 17   9  26  1   
 18   9  27  1   
 19  10  12  1   
 20  10  28  1   
 21  10  29  1   
 22  11  13  1   
 23  11  14  1   
 24  11  30  1   
 25  12  13  1   
 26  12  31  1   
 27  12  32  1   
 28  13  15  1   
 29  14  16  1   
 30  14  33  1   
 31  14  34  1   
 32  15  17  1   
 33  15  18  1   
 34  15  35  1   
 35  16  18  1   
 36  17  19  1   
 37  17  20  1   
 38  17  36  1   
 39  18  37  1   
 40  18  38  1   
 41  19  20  1   
 42  19  39  1   
 43  19  40  1   
 44  20  41  1   
 45  20  42  1   
@<TRIPOS>SUBSTRUCTURE
  1 ****   9 GROUP 4 **** **** 0

# MOE 2024.06 (io_trps.svl 2023.06)
