@<TRIPOS>MOLECULE
NONAME
54 55 1 0 0 
SMALL
USER_CHARGES


@<TRIPOS>ATOM
  1 S        0.5860     0.4100     0.5090 S.o2  1 <1>   1.3330 
  2 O       -0.2310    -0.7440     0.2090 O.2   1 <1>  -0.6500 
  3 O        0.8060     0.7920     1.8850 O.2   1 <1>  -0.6500 
  4 N        2.1030     0.1680    -0.2160 N.am  1 <1>  -0.8490 
  5 C       -0.0630     1.8340    -0.3680 C.3   1 <1>  -0.0550 
  6 C        3.0590    -0.4620     0.7000 C.3   1 <1>   0.1160 
  7 C        2.0330    -0.6000    -1.4650 C.3   1 <1>   0.1160 
  8 C        0.8380     3.0860    -0.2990 C.3   1 <1>  -0.0800 
  9 C        0.3890     4.2310    -1.2120 C.3   1 <1>   0.2000 
 10 C        0.9330     3.7250     1.0940 C.3   1 <1>   0.1400 
 11 O       -0.9830     4.3930    -1.0990 O.3   1 <1>  -0.6800 
 12 C        1.0640     5.4600    -0.6100 C.3   1 <1>   0.1400 
 13 N        1.0830     5.1820     0.8480 N.am  1 <1>  -0.6600 
 14 C        1.2080     6.0860     1.8670 C.2   1 <1>   0.5690 
 15 O        1.1640     5.7410     3.0220 O.2   1 <1>  -0.5700 
 16 C        1.4000     7.5660     1.5780 C.3   1 <1>  -0.0990 
 17 C        2.8290     7.8930     1.1160 C.3   1 <1>  -0.1600 
 18 C        3.0140     9.3920     0.8930 C.3   1 <1>   0.1200 
 19 O        4.2790     9.5810     0.3590 O.3   1 <1>  -0.5600 
 20 C        4.6180    10.9160     0.1430 C.3   1 <1>   0.2630 
 21 C        6.0080    10.9940    -0.4710 C.ar  1 <1>  -0.1440 
 22 C        6.9520    11.8740     0.0390 C.ar  1 <1>  -0.1500 
 23 C        6.3450    10.1950    -1.5540 C.ar  1 <1>  -0.1500 
 24 C        8.2120    11.9560    -0.5280 C.ar  1 <1>  -0.1500 
 25 C        7.6050    10.2760    -2.1220 C.ar  1 <1>  -0.1500 
 26 C        8.5390    11.1580    -1.6100 C.ar  1 <1>  -0.1500 
 27 H       -0.1980     1.5690    -1.3980 H     1 <1>   0.0800 
 28 H       -1.0320     2.0700     0.0270 H     1 <1>   0.0800 
 29 H        4.0120    -0.5930     0.2150 H     1 <1>   0.0800 
 30 H        2.6910    -1.4220     1.0240 H     1 <1>   0.0800 
 31 H        3.2070     0.1610     1.5660 H     1 <1>   0.0800 
 32 H        3.0050    -0.6460    -1.9260 H     1 <1>   0.0800 
 33 H        1.3530    -0.1290    -2.1530 H     1 <1>   0.0800 
 34 H        1.6890    -1.6030    -1.2720 H     1 <1>   0.0800 
 35 H        1.8360     2.8120    -0.5950 H     1 <1>   0.0800 
 36 H        0.6340     4.0770    -2.2490 H     1 <1>   0.0800 
 37 H        1.7760     3.3450     1.6480 H     1 <1>   0.0800 
 38 H        0.0350     3.5550     1.6660 H     1 <1>   0.0800 
 39 H       -1.1900     4.6770    -0.1850 H     1 <1>   0.4000 
 40 H        0.5300     6.3620    -0.8520 H     1 <1>   0.0800 
 41 H        2.0770     5.5290    -0.9660 H     1 <1>   0.0800 
 42 H        0.6840     7.8800     0.8420 H     1 <1>   0.0800 
 43 H        1.1900     8.1080     2.4830 H     1 <1>   0.0800 
 44 H        3.0430     7.3750     0.1990 H     1 <1>   0.0800 
 45 H        3.5280     7.5610     1.8640 H     1 <1>   0.0800 
 46 H        2.9430     9.9260     1.8260 H     1 <1>   0.0800 
 47 H        2.2870     9.7680     0.1930 H     1 <1>   0.0800 
 48 H        3.8980    11.3510    -0.5290 H     1 <1>   0.0800 
 49 H        4.5920    11.4310     1.0880 H     1 <1>   0.0800 
 50 H        6.7120    12.5000     0.8800 H     1 <1>   0.1500 
 51 H        5.6220     9.5040    -1.9510 H     1 <1>   0.1500 
 52 H        8.9390    12.6410    -0.1270 H     1 <1>   0.1500 
 53 H        7.8560     9.6510    -2.9610 H     1 <1>   0.1500 
 54 H        9.5180    11.2210    -2.0500 H     1 <1>   0.1500 
@<TRIPOS>BOND
  1   1   2  2   
  2   1   3  2   
  3   1   4  am  
  4   1   5  1   
  5   4   6  1   
  6   4   7  1   
  7   5   8  1   
  8   5  27  1   
  9   5  28  1   
 10   6  29  1   
 11   6  30  1   
 12   6  31  1   
 13   7  32  1   
 14   7  33  1   
 15   7  34  1   
 16   8   9  1   
 17   8  10  1   
 18   8  35  1   
 19   9  11  1   
 20   9  12  1   
 21   9  36  1   
 22  10  13  1   
 23  10  37  1   
 24  10  38  1   
 25  11  39  1   
 26  12  13  1   
 27  12  40  1   
 28  12  41  1   
 29  13  14  am  
 30  14  15  2   
 31  14  16  1   
 32  16  17  1   
 33  16  42  1   
 34  16  43  1   
 35  17  18  1   
 36  17  44  1   
 37  17  45  1   
 38  18  19  1   
 39  18  46  1   
 40  18  47  1   
 41  19  20  1   
 42  20  21  1   
 43  20  48  1   
 44  20  49  1   
 45  21  22  ar  
 46  21  23  ar  
 47  22  24  ar  
 48  22  50  1   
 49  23  25  ar  
 50  23  51  1   
 51  24  26  ar  
 52  24  52  1   
 53  25  26  ar  
 54  25  53  1   
 55  26  54  1   
@<TRIPOS>SUBSTRUCTURE
  1 ****  12 GROUP 4 **** **** 0

# MOE 2024.06 (io_trps.svl 2023.06)
