@<TRIPOS>MOLECULE
NONAME
59 61 1 0 0 
SMALL
USER_CHARGES


@<TRIPOS>ATOM
  1 O        0.4020     1.5080     1.3310 O.2   1 <1>  -0.5700 
  2 C        0.2910     2.4280     0.5530 C.2   1 <1>   0.5690 
  3 N       -0.9110     3.0640     0.3630 N.am  1 <1>  -0.6600 
  4 C        1.5240     2.8760    -0.2280 C.3   1 <1>  -0.0990 
  5 C       -2.1430     2.6100     1.0770 C.3   1 <1>   0.1400 
  6 C       -1.1630     4.1950    -0.5730 C.3   1 <1>   0.1400 
  7 C        2.7970     2.0540     0.0500 C.3   1 <1>  -0.1600 
  8 C       -3.2240     2.1380     0.0710 C.3   1 <1>   0.0000 
  9 C       -2.2150     3.7800    -1.6080 C.3   1 <1>  -0.1600 
 10 C        3.9900     2.5620    -0.7700 C.3   1 <1>  -0.0160 
 11 C       -4.5160     1.6790     0.7780 C.3   1 <1>   0.2000 
 12 C       -3.5050     3.2700    -0.9410 C.3   1 <1>  -0.1600 
 13 C       -2.7770     0.8390    -0.6230 C.3   1 <1>  -0.1600 
 14 C        5.2310     1.7330    -0.4840 C.ar  1 <1>  -0.1440 
 15 O       -4.8270     2.4400     1.8910 O.3   1 <1>  -0.6800 
 16 C       -4.3070     0.2170     1.1810 C.3   1 <1>  -0.1600 
 17 C       -3.1110    -0.2840     0.3610 C.3   1 <1>  -0.1600 
 18 C        5.5250     0.6220    -1.2590 C.ar  1 <1>  -0.1500 
 19 C        6.0800     2.0790     0.5540 C.ar  1 <1>  -0.1500 
 20 C        6.6560    -0.1390    -1.0110 C.ar  1 <1>  -0.1440 
 21 C        7.2110     1.3270     0.8130 C.ar  1 <1>  -0.1500 
 22 C        7.5090     0.2130     0.0320 C.ar  1 <1>   0.0820 
 23 C        6.9560    -1.3540    -1.8770 C.3   1 <1>  -0.0970 
 24 O        8.6070    -0.5630     0.2390 O.3   1 <1>  -0.3630 
 25 C        9.5120    -0.3000     1.2840 C.3   1 <1>   0.1200 
 26 C       10.6060    -1.3620     1.2370 C.3   1 <1>  -0.2400 
 27 H        1.2940     2.8090    -1.2750 H     1 <1>   0.0800 
 28 H        1.7150     3.9040     0.0170 H     1 <1>   0.0800 
 29 H       -1.9120     1.8190     1.7680 H     1 <1>   0.0800 
 30 H       -2.5180     3.4410     1.6490 H     1 <1>   0.0800 
 31 H       -1.5270     5.0360    -0.0070 H     1 <1>   0.0800 
 32 H       -0.2650     4.5010    -1.0760 H     1 <1>   0.0800 
 33 H        3.0370     2.1070     1.0980 H     1 <1>   0.0800 
 34 H        2.6150     1.0200    -0.1910 H     1 <1>   0.0800 
 35 H       -2.4470     4.6250    -2.2330 H     1 <1>   0.0800 
 36 H       -1.8010     3.0140    -2.2390 H     1 <1>   0.0800 
 37 H        4.1860     3.5920    -0.5280 H     1 <1>   0.0800 
 38 H        3.7600     2.5110    -1.8200 H     1 <1>   0.0800 
 39 H       -5.3450     1.7440     0.0930 H     1 <1>   0.0800 
 40 H       -4.1930     2.9330    -1.6970 H     1 <1>   0.0800 
 41 H       -3.9740     4.0880    -0.4200 H     1 <1>   0.0800 
 42 H       -3.3500     0.6910    -1.5220 H     1 <1>   0.0800 
 43 H       -1.7320     0.8360    -0.8820 H     1 <1>   0.0800 
 44 H       -4.2080     2.2350     2.6160 H     1 <1>   0.4000 
 45 H       -4.0940     0.1180     2.2310 H     1 <1>   0.0800 
 46 H       -5.1880    -0.3520     0.9430 H     1 <1>   0.0800 
 47 H       -2.2690    -0.4490     1.0130 H     1 <1>   0.0800 
 48 H       -3.3340    -1.2030    -0.1530 H     1 <1>   0.0800 
 49 H        4.8650     0.3490    -2.0620 H     1 <1>   0.1500 
 50 H        5.8600     2.9350     1.1660 H     1 <1>   0.1500 
 51 H        7.8440     1.6250     1.6250 H     1 <1>   0.1500 
 52 H        6.1990    -1.4950    -2.6260 H     1 <1>   0.0800 
 53 H        7.0020    -2.2350    -1.2630 H     1 <1>   0.0800 
 54 H        7.9050    -1.2240    -2.3650 H     1 <1>   0.0800 
 55 H        9.9270     0.6820     1.1350 H     1 <1>   0.0800 
 56 H        8.9770    -0.3450     2.2160 H     1 <1>   0.0800 
 57 H       11.1210    -1.3190     0.2940 H     1 <1>   0.0800 
 58 H       10.1770    -2.3390     1.3680 H     1 <1>   0.0800 
 59 H       11.3160    -1.1890     2.0250 H     1 <1>   0.0800 
@<TRIPOS>BOND
  1   1   2  2   
  2   2   3  am  
  3   2   4  1   
  4   3   5  1   
  5   3   6  1   
  6   4   7  1   
  7   4  27  1   
  8   4  28  1   
  9   5   8  1   
 10   5  29  1   
 11   5  30  1   
 12   6   9  1   
 13   6  31  1   
 14   6  32  1   
 15   7  10  1   
 16   7  33  1   
 17   7  34  1   
 18   8  11  1   
 19   8  12  1   
 20   8  13  1   
 21   9  12  1   
 22   9  35  1   
 23   9  36  1   
 24  10  14  1   
 25  10  37  1   
 26  10  38  1   
 27  11  15  1   
 28  11  16  1   
 29  11  39  1   
 30  12  40  1   
 31  12  41  1   
 32  13  17  1   
 33  13  42  1   
 34  13  43  1   
 35  14  18  ar  
 36  14  19  ar  
 37  15  44  1   
 38  16  17  1   
 39  16  45  1   
 40  16  46  1   
 41  17  47  1   
 42  17  48  1   
 43  18  20  ar  
 44  18  49  1   
 45  19  21  ar  
 46  19  50  1   
 47  20  22  ar  
 48  20  23  1   
 49  21  22  ar  
 50  21  51  1   
 51  22  24  1   
 52  23  52  1   
 53  23  53  1   
 54  23  54  1   
 55  24  25  1   
 56  25  26  1   
 57  25  55  1   
 58  25  56  1   
 59  26  57  1   
 60  26  58  1   
 61  26  59  1   
@<TRIPOS>SUBSTRUCTURE
  1 ****   7 GROUP 4 **** **** 0

# MOE 2024.06 (io_trps.svl 2023.06)
