@<TRIPOS>MOLECULE
NONAME
44 45 1 0 0 
SMALL
USER_CHARGES


@<TRIPOS>ATOM
  1 O        0.7000    -1.2480    -2.1000 O.2   1 <1>  -0.5700 
  2 C        1.2710    -1.7410    -1.1520 C.2   1 <1>   0.5440 
  3 N        2.2160    -0.9670    -0.5670 N.am  1 <1>  -0.8000 
  4 C        0.9700    -3.0840    -0.6880 C.ar  1 <1>   0.0860 
  5 C        1.3240    -3.5340     0.5870 C.ar  1 <1>  -0.1500 
  6 C        0.3040    -3.9950    -1.5110 C.ar  1 <1>  -0.1500 
  7 C        1.0400    -4.8180     1.0080 C.ar  1 <1>  -0.1500 
  8 C        0.0180    -5.2800    -1.0910 C.ar  1 <1>  -0.1500 
  9 C        0.3810    -5.7180     0.1760 C.ar  1 <1>   0.1170 
 10 N        0.0670    -7.0280     0.5470 N.am  1 <1>  -0.5470 
 11 C        0.2250    -7.7470     1.6980 C.2   1 <1>   0.5690 
 12 O        0.7140    -7.3180     2.7140 O.2   1 <1>  -0.5700 
 13 C       -0.2640    -9.1960     1.6570 C.3   1 <1>   0.1710 
 14 N       -1.3430    -9.4470     0.6450 N.3   1 <1>  -0.8100 
 15 C       -1.4320   -10.9010     0.3750 C.3   1 <1>   0.1100 
 16 C       -2.6270    -8.8780     1.1000 C.3   1 <1>   0.1100 
 17 C       -2.2640   -11.2100    -0.8720 C.3   1 <1>   0.0960 
 18 C       -3.2240    -8.0200    -0.0120 C.3   1 <1>  -0.2400 
 19 N       -2.3020   -12.6640    -1.0980 N.pl3 1 <1>   0.3140 
 20 N       -1.1970   -13.3720    -1.3970 N.2   1 <1>  -0.7070 
 21 C       -3.3880   -13.4610    -1.0350 C.2   1 <1>  -0.3020 
 22 C       -1.6070   -14.5970    -1.5200 C.2   1 <1>   0.1390 
 23 C       -2.9740   -14.7170    -1.3040 C.2   1 <1>  -0.1500 
 24 H        2.3990    -0.0450    -0.9630 H     1 <1>   0.3700 
 25 H        2.8570    -1.2950     0.1530 H     1 <1>   0.3700 
 26 H        1.8240    -2.8680     1.2660 H     1 <1>   0.1500 
 27 H        0.0090    -3.6800    -2.4980 H     1 <1>   0.1500 
 28 H        1.3340    -5.1180     1.9970 H     1 <1>   0.1500 
 29 H       -0.4950    -5.9500    -1.7570 H     1 <1>   0.1500 
 30 H       -0.4440    -7.5840    -0.1460 H     1 <1>   0.3700 
 31 H       -0.6030    -9.4800     2.6370 H     1 <1>   0.0800 
 32 H        0.5950    -9.7990     1.4230 H     1 <1>   0.0800 
 33 H       -1.8490   -11.4080     1.2300 H     1 <1>   0.0800 
 34 H       -0.4410   -11.2890     0.2050 H     1 <1>   0.0800 
 35 H       -2.4840    -8.2540     1.9680 H     1 <1>   0.0800 
 36 H       -3.3170    -9.6590     1.3760 H     1 <1>   0.0800 
 37 H       -1.8170   -10.7470    -1.7320 H     1 <1>   0.0800 
 38 H       -3.2710   -10.8610    -0.7540 H     1 <1>   0.0800 
 39 H       -2.5960    -7.1720    -0.2110 H     1 <1>   0.0800 
 40 H       -4.1860    -7.6520     0.2990 H     1 <1>   0.0800 
 41 H       -3.3540    -8.5840    -0.9160 H     1 <1>   0.0800 
 42 H       -4.3750   -13.1000    -0.8100 H     1 <1>   0.1500 
 43 H       -0.9540   -15.4190    -1.7630 H     1 <1>   0.1500 
 44 H       -3.5460   -15.6270    -1.3490 H     1 <1>   0.1500 
@<TRIPOS>BOND
  1   1   2  2   
  2   2   3  am  
  3   2   4  1   
  4   3  24  1   
  5   3  25  1   
  6   4   5  ar  
  7   4   6  ar  
  8   5   7  ar  
  9   5  26  1   
 10   6   8  ar  
 11   6  27  1   
 12   7   9  ar  
 13   7  28  1   
 14   8   9  ar  
 15   8  29  1   
 16   9  10  1   
 17  10  11  am  
 18  10  30  1   
 19  11  12  2   
 20  11  13  1   
 21  13  14  1   
 22  13  31  1   
 23  13  32  1   
 24  14  15  1   
 25  14  16  1   
 26  15  17  1   
 27  15  33  1   
 28  15  34  1   
 29  16  18  1   
 30  16  35  1   
 31  16  36  1   
 32  17  19  1   
 33  17  37  1   
 34  17  38  1   
 35  18  39  1   
 36  18  40  1   
 37  18  41  1   
 38  19  20  1   
 39  19  21  1   
 40  20  22  2   
 41  21  23  2   
 42  21  42  1   
 43  22  23  1   
 44  22  43  1   
 45  23  44  1   
@<TRIPOS>SUBSTRUCTURE
  1 ****  10 GROUP 4 **** **** 0

# MOE 2024.06 (io_trps.svl 2023.06)
