@<TRIPOS>MOLECULE
NONAME
51 53 1 0 0 
SMALL
USER_CHARGES


@<TRIPOS>ATOM
  1 F       -1.7220     0.3830    -2.4980 F     1 <1>  -0.1900 
  2 C       -2.5830    -0.4010    -1.8990 C.ar  1 <1>   0.1900 
  3 C       -2.5130    -0.5420    -0.5270 C.ar  1 <1>  -0.1500 
  4 C       -3.5270    -1.0570    -2.6610 C.ar  1 <1>  -0.1500 
  5 C       -3.4190    -1.3700     0.1180 C.ar  1 <1>  -0.1440 
  6 C       -4.4300    -1.8810    -2.0140 C.ar  1 <1>  -0.1500 
  7 C       -4.3910    -2.0470    -0.6320 C.ar  1 <1>   0.1000 
  8 C       -3.3190    -1.5130     1.6310 C.3   1 <1>  -0.0960 
  9 N       -5.3370    -2.8940    -0.0590 N.pl3 1 <1>  -0.8380 
 10 C       -6.4210    -2.3230     0.7590 C.3   1 <1>   0.2090 
 11 C       -4.9740    -4.3010     0.1840 C.3   1 <1>   0.2090 
 12 C       -7.6780    -3.1370     0.4690 C.3   1 <1>  -0.1600 
 13 C       -6.2120    -5.1440    -0.1080 C.3   1 <1>  -0.1600 
 14 C       -7.4180    -4.6300     0.6930 C.3   1 <1>   0.4230 
 15 N       -8.6390    -5.3620     0.2940 N.4   1 <1>  -0.9060 
 16 C       -8.6890    -6.7950     0.6200 C.3   1 <1>   0.5660 
 17 C       -9.8460    -7.3660    -0.1840 C.ar  1 <1>  -0.1430 
 18 C       -8.8340    -7.0010     2.1380 C.3   1 <1>  -0.1600 
 19 C      -11.1780    -7.1080     0.0980 C.ar  1 <1>  -0.1500 
 20 C       -9.6040    -8.1840    -1.2730 C.ar  1 <1>  -0.1500 
 21 C       -8.9310    -8.4840     2.5280 C.3   1 <1>  -0.2400 
 22 C      -12.1660    -7.6580    -0.7020 C.ar  1 <1>   0.1600 
 23 C      -10.6670    -8.6810    -2.0080 C.ar  1 <1>   0.1600 
 24 N      -11.9360    -8.4300    -1.7480 N.ar  1 <1>  -0.6200 
 25 H       -1.7560    -0.0070     0.0160 H     1 <1>   0.1500 
 26 H       -3.5510    -0.9230    -3.7270 H     1 <1>   0.1500 
 27 H       -5.1790    -2.4040    -2.5790 H     1 <1>   0.1500 
 28 H       -2.4020    -1.0880     1.9970 H     1 <1>   0.0800 
 29 H       -3.3400    -2.5500     1.9100 H     1 <1>   0.0800 
 30 H       -4.1400    -1.0040     2.1000 H     1 <1>   0.0800 
 31 H       -6.5700    -1.2880     0.4940 H     1 <1>   0.0800 
 32 H       -6.1580    -2.3770     1.8020 H     1 <1>   0.0800 
 33 H       -4.6560    -4.4220     1.2060 H     1 <1>   0.0800 
 34 H       -4.1600    -4.5850    -0.4640 H     1 <1>   0.0800 
 35 H       -7.9600    -2.9510    -0.5530 H     1 <1>   0.0800 
 36 H       -8.4640    -2.7910     1.1150 H     1 <1>   0.0800 
 37 H       -5.9840    -6.1620     0.1480 H     1 <1>   0.0800 
 38 H       -6.4080    -5.0850    -1.1640 H     1 <1>   0.0800 
 39 H       -7.2240    -4.7820     1.7430 H     1 <1>   0.0800 
 40 H       -8.7570    -5.2810    -0.7220 H     1 <1>   0.4500 
 41 H       -9.4640    -4.9190     0.7050 H     1 <1>   0.4500 
 42 H       -7.7820    -7.2760     0.2910 H     1 <1>   0.0800 
 43 H       -9.7100    -6.4940     2.5030 H     1 <1>   0.0800 
 44 H       -7.9760    -6.5910     2.6400 H     1 <1>   0.0800 
 45 H      -11.4790    -6.4960     0.9280 H     1 <1>   0.1500 
 46 H       -8.6050    -8.4510    -1.5680 H     1 <1>   0.1500 
 47 H       -9.8100    -8.9430     2.1050 H     1 <1>   0.0800 
 48 H       -8.9930    -8.5810     3.5990 H     1 <1>   0.0800 
 49 H       -8.0660    -9.0300     2.1930 H     1 <1>   0.0800 
 50 H      -13.1990    -7.4540    -0.4720 H     1 <1>   0.1500 
 51 H      -10.4640    -9.3190    -2.8540 H     1 <1>   0.1500 
@<TRIPOS>BOND
  1   1   2  1   
  2   2   3  ar  
  3   2   4  ar  
  4   3   5  ar  
  5   3  25  1   
  6   4   6  ar  
  7   4  26  1   
  8   5   7  ar  
  9   5   8  1   
 10   6   7  ar  
 11   6  27  1   
 12   7   9  1   
 13   8  28  1   
 14   8  29  1   
 15   8  30  1   
 16   9  10  1   
 17   9  11  1   
 18  10  12  1   
 19  10  31  1   
 20  10  32  1   
 21  11  13  1   
 22  11  33  1   
 23  11  34  1   
 24  12  14  1   
 25  12  35  1   
 26  12  36  1   
 27  13  14  1   
 28  13  37  1   
 29  13  38  1   
 30  14  15  1   
 31  14  39  1   
 32  15  16  1   
 33  15  40  1   
 34  15  41  1   
 35  16  17  1   
 36  16  18  1   
 37  16  42  1   
 38  17  19  ar  
 39  17  20  ar  
 40  18  21  1   
 41  18  43  1   
 42  18  44  1   
 43  19  22  ar  
 44  19  45  1   
 45  20  23  ar  
 46  20  46  1   
 47  21  47  1   
 48  21  48  1   
 49  21  49  1   
 50  22  24  ar  
 51  22  50  1   
 52  23  24  ar  
 53  23  51  1   
@<TRIPOS>SUBSTRUCTURE
  1 ****  13 GROUP 4 **** **** 0

# MOE 2024.06 (io_trps.svl 2023.06)
