@<TRIPOS>MOLECULE
NONAME
52 55 1 0 0 
SMALL
USER_CHARGES


@<TRIPOS>ATOM
  1 S       -1.3380     0.1700    -0.0150 S.3   1 <1>  -0.3320 
  2 C       -0.0320     1.2920     0.5140 C.ar  1 <1>   0.1020 
  3 C       -2.0770    -0.5590     1.5280 C.3   1 <1>   0.1310 
  4 C        0.5780     2.0500    -0.4670 C.ar  1 <1>  -0.1500 
  5 C        0.3560     1.4000     1.8410 C.ar  1 <1>  -0.1500 
  6 C       -3.2580    -1.4670     1.2050 C.2   1 <1>   0.5690 
  7 C        1.5880     2.9350    -0.1290 C.ar  1 <1>   0.0830 
  8 C        1.3660     2.2840     2.1800 C.ar  1 <1>  -0.1500 
  9 O       -3.0860    -2.6560     1.3440 O.2   1 <1>  -0.5700 
 10 N       -4.4800    -0.9650     0.8230 N.am  1 <1>  -0.6600 
 11 O        2.1400     3.6470    -1.1430 O.3   1 <1>  -0.3630 
 12 C        1.9810     3.0500     1.2030 C.ar  1 <1>  -0.1500 
 13 C       -4.7800     0.4860     0.5950 C.3   1 <1>   0.1400 
 14 C       -5.6260    -1.9070     0.6380 C.3   1 <1>   0.1400 
 15 C        3.2110     4.5360    -0.9180 C.3   1 <1>   0.0400 
 16 C       -5.4690     0.7260    -0.7680 C.3   1 <1>   0.1440 
 17 C       -6.9020    -1.1950     0.1650 C.3   1 <1>  -0.1600 
 18 C       -5.9460     2.1690    -0.7670 C.ar  1 <1>   0.1670 
 19 C       -6.6110    -0.2920    -1.0430 C.3   1 <1>  -0.1600 
 20 C       -4.4370     0.7410    -1.9280 C.3   1 <1>  -0.1600 
 21 N       -7.0070     2.6250    -0.1360 N.ar  1 <1>  -0.6200 
 22 C       -5.1180     2.9720    -1.4930 C.ar  1 <1>  -0.1430 
 23 C       -3.9700     2.1970    -2.0910 C.3   1 <1>  -0.0170 
 24 C       -7.2130     3.9270    -0.2800 C.ar  1 <1>   0.4770 
 25 C       -5.4250     4.3080    -1.5720 C.ar  1 <1>   0.1600 
 26 N       -6.4850     4.7990    -0.9630 N.ar  1 <1>  -0.6200 
 27 C       -8.4290     4.4880     0.4170 C.3   1 <1>  -0.0970 
 28 H       -2.3840     0.2520     2.1600 H     1 <1>   0.0800 
 29 H       -1.3010    -1.1270     2.0070 H     1 <1>   0.0800 
 30 H        0.2740     1.9550    -1.4920 H     1 <1>   0.1500 
 31 H       -0.1040     0.8120     2.6110 H     1 <1>   0.1500 
 32 H        1.6770     2.3760     3.2070 H     1 <1>   0.1500 
 33 H        2.7610     3.7270     1.4960 H     1 <1>   0.1500 
 34 H       -3.8920     1.0860     0.6530 H     1 <1>   0.0800 
 35 H       -5.4390     0.8190     1.3790 H     1 <1>   0.0800 
 36 H       -5.8170    -2.4180     1.5670 H     1 <1>   0.0800 
 37 H       -5.3410    -2.6470    -0.0910 H     1 <1>   0.0800 
 38 H        3.4930     4.9660    -1.8620 H     1 <1>   0.0800 
 39 H        4.0390     3.9880    -0.5040 H     1 <1>   0.0800 
 40 H        2.8870     5.3120    -0.2460 H     1 <1>   0.0800 
 41 H       -7.3100    -0.6110     0.9720 H     1 <1>   0.0800 
 42 H       -7.6390    -1.9310    -0.1020 H     1 <1>   0.0800 
 43 H       -6.3420    -0.9330    -1.8630 H     1 <1>   0.0800 
 44 H       -7.5100     0.2270    -1.3280 H     1 <1>   0.0800 
 45 H       -4.9220     0.4590    -2.8460 H     1 <1>   0.0800 
 46 H       -3.6200     0.0630    -1.7600 H     1 <1>   0.0800 
 47 H       -3.8070     2.4490    -3.1240 H     1 <1>   0.0800 
 48 H       -3.0730     2.3760    -1.5230 H     1 <1>   0.0800 
 49 H       -4.8010     4.9800    -2.1350 H     1 <1>   0.1500 
 50 H       -8.7430     3.8320     1.2080 H     1 <1>   0.0800 
 51 H       -9.2270     4.5910    -0.2940 H     1 <1>   0.0800 
 52 H       -8.2000     5.4510     0.8320 H     1 <1>   0.0800 
@<TRIPOS>BOND
  1   1   2  1   
  2   1   3  1   
  3   2   4  ar  
  4   2   5  ar  
  5   3   6  1   
  6   3  28  1   
  7   3  29  1   
  8   4   7  ar  
  9   4  30  1   
 10   5   8  ar  
 11   5  31  1   
 12   6   9  2   
 13   6  10  am  
 14   7  11  1   
 15   7  12  ar  
 16   8  12  ar  
 17   8  32  1   
 18  10  13  1   
 19  10  14  1   
 20  11  15  1   
 21  12  33  1   
 22  13  16  1   
 23  13  34  1   
 24  13  35  1   
 25  14  17  1   
 26  14  36  1   
 27  14  37  1   
 28  15  38  1   
 29  15  39  1   
 30  15  40  1   
 31  16  18  1   
 32  16  19  1   
 33  16  20  1   
 34  17  19  1   
 35  17  41  1   
 36  17  42  1   
 37  18  21  ar  
 38  18  22  ar  
 39  19  43  1   
 40  19  44  1   
 41  20  23  1   
 42  20  45  1   
 43  20  46  1   
 44  21  24  ar  
 45  22  23  1   
 46  22  25  ar  
 47  23  47  1   
 48  23  48  1   
 49  24  26  ar  
 50  24  27  1   
 51  25  26  ar  
 52  25  49  1   
 53  27  50  1   
 54  27  51  1   
 55  27  52  1   
@<TRIPOS>SUBSTRUCTURE
  1 ****  13 GROUP 4 **** **** 0

# MOE 2024.06 (io_trps.svl 2023.06)
