@<TRIPOS>MOLECULE
NONAME
41 43 1 0 0 
SMALL
USER_CHARGES


@<TRIPOS>ATOM
  1 F        0.5500     0.3120     0.5270 F     1 <1>  -0.1900 
  2 C        1.1910    -0.7010    -0.0090 C.ar  1 <1>   0.1900 
  3 C        0.6720    -2.0050     0.0800 C.ar  1 <1>   0.4100 
  4 C        2.3790    -0.4340    -0.6440 C.ar  1 <1>  -0.1500 
  5 N        1.3180    -3.0500    -0.4460 N.ar  1 <1>  -0.6200 
  6 N       -0.5400    -2.2900     0.7080 N.pl3 1 <1>  -0.8380 
  7 C        3.0300    -1.5240    -1.1850 C.ar  1 <1>  -0.1500 
  8 C        2.4660    -2.7830    -1.0570 C.ar  1 <1>   0.1600 
  9 C       -0.7600    -3.6400     1.3100 C.3   1 <1>   0.2090 
 10 C       -1.7900    -1.7000     0.1470 C.3   1 <1>   0.2090 
 11 C       -1.3010    -4.6140     0.2320 C.3   1 <1>   0.4230 
 12 C       -2.3670    -2.6510    -0.9110 C.3   1 <1>  -0.1600 
 13 N       -1.4720    -6.0370     0.6930 N.4   1 <1>  -0.9590 
 14 C       -2.6270    -4.0770    -0.3470 C.3   1 <1>  -0.1060 
 15 C       -1.8580    -6.9360    -0.4220 C.3   1 <1>   0.3430 
 16 C       -0.3430    -6.5730     1.4960 C.3   1 <1>   0.2630 
 17 C       -3.6790    -4.0360     0.7770 C.2   1 <1>   0.9060 
 18 C       -3.0970    -4.9920    -1.5040 C.3   1 <1>  -0.1600 
 19 C       -3.1640    -6.4620    -1.0640 C.3   1 <1>  -0.1600 
 20 O       -3.6140    -4.8740     1.6930 O.co2 1 <1>  -0.9000 
 21 O       -4.5660    -3.1840     0.7470 O.co2 1 <1>  -0.9000 
 22 H        2.7700     0.5660    -0.7080 H     1 <1>   0.1500 
 23 H        3.9670    -1.3990    -1.6980 H     1 <1>   0.1500 
 24 H        2.9910    -3.6200    -1.4850 H     1 <1>   0.1500 
 25 H        0.1770    -3.9930     1.6990 H     1 <1>   0.0800 
 26 H       -1.4540    -3.5510     2.1280 H     1 <1>   0.0800 
 27 H       -2.5030    -1.5470     0.9410 H     1 <1>   0.0800 
 28 H       -1.5870    -0.7430    -0.3010 H     1 <1>   0.0800 
 29 H       -0.5740    -4.6130    -0.5630 H     1 <1>   0.0800 
 30 H       -3.2890    -2.2340    -1.2770 H     1 <1>   0.0800 
 31 H       -1.6810    -2.6930    -1.7390 H     1 <1>   0.0800 
 32 H       -2.3250    -5.9380     1.3080 H     1 <1>   0.4500 
 33 H       -1.0760    -6.9450    -1.1630 H     1 <1>   0.0800 
 34 H       -1.9920    -7.9390    -0.0510 H     1 <1>   0.0800 
 35 H        0.5660    -6.5590     0.9170 H     1 <1>   0.0800 
 36 H       -0.5530    -7.5860     1.7990 H     1 <1>   0.0800 
 37 H       -0.2020    -5.9780     2.3830 H     1 <1>   0.0800 
 38 H       -4.0700    -4.6720    -1.8380 H     1 <1>   0.0800 
 39 H       -2.4180    -4.9040    -2.3350 H     1 <1>   0.0800 
 40 H       -3.3840    -7.0800    -1.9160 H     1 <1>   0.0800 
 41 H       -3.9680    -6.5940    -0.3600 H     1 <1>   0.0800 
@<TRIPOS>BOND
  1   1   2  1   
  2   2   3  ar  
  3   2   4  ar  
  4   3   5  ar  
  5   3   6  1   
  6   4   7  ar  
  7   4  22  1   
  8   5   8  ar  
  9   6   9  1   
 10   6  10  1   
 11   7   8  ar  
 12   7  23  1   
 13   8  24  1   
 14   9  11  1   
 15   9  25  1   
 16   9  26  1   
 17  10  12  1   
 18  10  27  1   
 19  10  28  1   
 20  11  13  1   
 21  11  14  1   
 22  11  29  1   
 23  12  14  1   
 24  12  30  1   
 25  12  31  1   
 26  13  15  1   
 27  13  16  1   
 28  13  32  1   
 29  14  17  1   
 30  14  18  1   
 31  15  19  1   
 32  15  33  1   
 33  15  34  1   
 34  16  35  1   
 35  16  36  1   
 36  16  37  1   
 37  17  20  ar  
 38  17  21  ar  
 39  18  19  1   
 40  18  38  1   
 41  18  39  1   
 42  19  40  1   
 43  19  41  1   
@<TRIPOS>SUBSTRUCTURE
  1 ****  11 GROUP 4 **** **** 0

# MOE 2024.06 (io_trps.svl 2023.06)
