@<TRIPOS>MOLECULE
NONAME
45 47 1 0 0 
SMALL
USER_CHARGES


@<TRIPOS>ATOM
  1 S       -3.0990    -4.0130     3.0530 S.3   1 <1>  -0.0800 
  2 C       -3.2150    -4.0930     1.3060 C.2   1 <1>  -0.1100 
  3 C       -3.0950    -2.2600     3.0150 C.2   1 <1>  -0.1100 
  4 C       -3.2570    -2.8570     0.7710 C.2   1 <1>  -0.1810 
  5 C       -3.1800    -1.8090     1.7500 C.2   1 <1>  -0.1500 
  6 C       -3.3880    -2.5660    -0.7090 C.3   1 <1>   0.5240 
  7 N       -4.8040    -2.7980    -1.0650 N.4   1 <1>  -0.9590 
  8 C       -5.0350    -3.0750    -2.5130 C.3   1 <1>   0.3430 
  9 C       -5.7650    -1.8330    -0.4660 C.3   1 <1>   0.3430 
 10 C       -6.3460    -3.8660    -2.7350 C.3   1 <1>   0.1400 
 11 C       -6.9120    -2.5830     0.2230 C.3   1 <1>  -0.1600 
 12 N       -6.9410    -4.4010    -1.4620 N.am  1 <1>  -0.6600 
 13 C       -7.7860    -3.4390    -0.7070 C.3   1 <1>   0.1400 
 14 C       -6.3890    -5.4930    -0.8300 C.2   1 <1>   0.5440 
 15 O       -5.1850    -5.6340    -0.9390 O.2   1 <1>  -0.5700 
 16 C       -7.1720    -6.3770     0.0160 C.ar  1 <1>   0.0860 
 17 C       -8.4890    -6.7070    -0.2990 C.ar  1 <1>  -0.1500 
 18 C       -6.6280    -6.9230     1.1830 C.ar  1 <1>  -0.1500 
 19 C       -9.2040    -7.5330     0.5410 C.ar  1 <1>   0.1900 
 20 C       -7.3580    -7.7530     2.0220 C.ar  1 <1>  -0.1430 
 21 F      -10.4380    -7.8240     0.2310 F     1 <1>  -0.1900 
 22 C       -8.6680    -8.0630     1.6970 C.ar  1 <1>  -0.1500 
 23 C       -6.7290    -8.3230     3.2810 C.3   1 <1>  -0.0970 
 24 H       -3.2470    -5.0760     0.8660 H     1 <1>   0.1500 
 25 H       -3.0220    -1.7470     3.9590 H     1 <1>   0.1500 
 26 H       -3.1860    -0.7680     1.4750 H     1 <1>   0.1500 
 27 H       -2.7570    -3.2490    -1.2550 H     1 <1>   0.0800 
 28 H       -3.0900    -1.5550    -0.9320 H     1 <1>   0.0800 
 29 H       -5.0190    -3.7200    -0.6320 H     1 <1>   0.4500 
 30 H       -4.2250    -3.6800    -2.8890 H     1 <1>   0.0800 
 31 H       -5.0530    -2.1600    -3.0800 H     1 <1>   0.0800 
 32 H       -6.1550    -1.1750    -1.2260 H     1 <1>   0.0800 
 33 H       -5.2630    -1.2300     0.2730 H     1 <1>   0.0800 
 34 H       -6.1400    -4.6910    -3.3970 H     1 <1>   0.0800 
 35 H       -7.0640    -3.2380    -3.2330 H     1 <1>   0.0800 
 36 H       -7.5480    -1.8560     0.6940 H     1 <1>   0.0800 
 37 H       -6.5130    -3.1970     1.0120 H     1 <1>   0.0800 
 38 H       -8.3260    -2.8110    -1.3950 H     1 <1>   0.0800 
 39 H       -8.5140    -3.9740    -0.1190 H     1 <1>   0.0800 
 40 H       -8.9520    -6.3290    -1.1920 H     1 <1>   0.1500 
 41 H       -5.6070    -6.6910     1.4330 H     1 <1>   0.1500 
 42 H       -9.2650    -8.7040     2.3210 H     1 <1>   0.1500 
 43 H       -5.9220    -7.6990     3.6210 H     1 <1>   0.0800 
 44 H       -6.3450    -9.3080     3.0830 H     1 <1>   0.0800 
 45 H       -7.4590    -8.3890     4.0680 H     1 <1>   0.0800 
@<TRIPOS>BOND
  1   1   2  1   
  2   1   3  1   
  3   2   4  2   
  4   2  24  1   
  5   3   5  2   
  6   3  25  1   
  7   4   5  1   
  8   4   6  1   
  9   5  26  1   
 10   6   7  1   
 11   6  27  1   
 12   6  28  1   
 13   7   8  1   
 14   7   9  1   
 15   7  29  1   
 16   8  10  1   
 17   8  30  1   
 18   8  31  1   
 19   9  11  1   
 20   9  32  1   
 21   9  33  1   
 22  10  12  1   
 23  10  34  1   
 24  10  35  1   
 25  11  13  1   
 26  11  36  1   
 27  11  37  1   
 28  12  13  1   
 29  12  14  am  
 30  13  38  1   
 31  13  39  1   
 32  14  15  2   
 33  14  16  1   
 34  16  17  ar  
 35  16  18  ar  
 36  17  19  ar  
 37  17  40  1   
 38  18  20  ar  
 39  18  41  1   
 40  19  21  1   
 41  19  22  ar  
 42  20  22  ar  
 43  20  23  1   
 44  22  42  1   
 45  23  43  1   
 46  23  44  1   
 47  23  45  1   
@<TRIPOS>SUBSTRUCTURE
  1 ****  14 GROUP 4 **** **** 0

# MOE 2024.06 (io_trps.svl 2023.06)
