@<TRIPOS>MOLECULE
NONAME
54 57 1 0 0 
SMALL
USER_CHARGES


@<TRIPOS>ATOM
  1 O        1.7160     1.6980     1.0620 O.3   1 <1>  -0.0190 
  2 N        2.3260     0.5540     1.1050 N.2   1 <1>  -0.4100 
  3 C        0.7630     1.7120     0.1690 C.2   1 <1>  -0.0400 
  4 C        1.7430    -0.1940     0.2380 C.2   1 <1>   0.1080 
  5 C        0.7200     0.5000    -0.4040 C.2   1 <1>  -0.1500 
  6 C       -0.0470     2.9760    -0.0520 C.3   1 <1>   0.0200 
  7 C        2.1240    -1.6320    -0.0390 C.3   1 <1>  -0.0590 
  8 C        0.8460     4.0980    -0.6170 C.3   1 <1>  -0.0800 
  9 C        0.1460     5.4200    -0.9470 C.3   1 <1>   0.2000 
 10 C        1.9950     4.4950     0.3250 C.3   1 <1>   0.3430 
 11 O       -0.7250     5.7530     0.0860 O.3   1 <1>  -0.6800 
 12 C        1.3020     6.4170    -0.8920 C.3   1 <1>   0.3430 
 13 N        2.0440     5.9920     0.3340 N.4   1 <1>  -0.9590 
 14 C        3.3700     6.5930     0.6430 C.3   1 <1>   0.4230 
 15 C        3.2040     8.0820     0.9510 C.3   1 <1>  -0.1600 
 16 C        4.3820     6.3900    -0.4910 C.3   1 <1>  -0.1600 
 17 C        4.5510     8.7180     1.2900 C.3   1 <1>   0.3430 
 18 C        5.7220     7.0410    -0.1410 C.3   1 <1>   0.3430 
 19 N        5.5160     8.4810     0.1760 N.4   1 <1>  -0.9590 
 20 C        6.8130     9.1780     0.4500 C.3   1 <1>   0.5230 
 21 C        6.6930    10.6170    -0.0160 C.2   1 <1>  -0.0400 
 22 O        5.7290    11.3750     0.4740 O.3   1 <1>  -0.2800 
 23 C        7.4350    11.3150    -0.9040 C.2   1 <1>  -0.1500 
 24 C        5.8360    12.5670    -0.0810 C.2   1 <1>  -0.0100 
 25 C        6.8710    12.5960    -0.9460 C.2   1 <1>  -0.1500 
 26 H        0.0760     0.1140    -1.1730 H     1 <1>   0.1500 
 27 H       -0.8440     2.7620    -0.7430 H     1 <1>   0.0800 
 28 H       -0.4890     3.2670     0.8860 H     1 <1>   0.0800 
 29 H        1.2860    -2.2750     0.1520 H     1 <1>   0.0800 
 30 H        2.9390    -1.9260     0.5970 H     1 <1>   0.0800 
 31 H        2.4280    -1.7400    -1.0640 H     1 <1>   0.0800 
 32 H        1.2950     3.7290    -1.5230 H     1 <1>   0.0800 
 33 H       -0.3830     5.4280    -1.8860 H     1 <1>   0.0800 
 34 H        2.9190     4.0680    -0.0320 H     1 <1>   0.0800 
 35 H        1.8080     4.1270     1.3220 H     1 <1>   0.0800 
 36 H       -1.6130     5.3520    -0.0480 H     1 <1>   0.4000 
 37 H        0.9360     7.4280    -0.8200 H     1 <1>   0.0800 
 38 H        1.9190     6.3080    -1.7680 H     1 <1>   0.0800 
 39 H        1.3830     6.2470     1.0890 H     1 <1>   0.4500 
 40 H        3.7570     6.1130     1.5300 H     1 <1>   0.0800 
 41 H        2.7760     8.6070     0.1150 H     1 <1>   0.0800 
 42 H        2.5500     8.2070     1.7960 H     1 <1>   0.0800 
 43 H        4.5530     5.3410    -0.6500 H     1 <1>   0.0800 
 44 H        4.0240     6.8170    -1.4110 H     1 <1>   0.0800 
 45 H        4.9360     8.2930     2.2050 H     1 <1>   0.0800 
 46 H        4.4150     9.7770     1.4480 H     1 <1>   0.0800 
 47 H        6.3990     6.9390    -0.9760 H     1 <1>   0.0800 
 48 H        6.1590     6.5390     0.7080 H     1 <1>   0.0800 
 49 H        5.1570     8.9760    -0.6560 H     1 <1>   0.4500 
 50 H        7.0480     9.1500     1.5010 H     1 <1>   0.0800 
 51 H        7.6150     8.7080    -0.0950 H     1 <1>   0.0800 
 52 H        8.2900    11.0090    -1.4840 H     1 <1>   0.1500 
 53 H        5.1390    13.3410     0.1940 H     1 <1>   0.1500 
 54 H        7.2180    13.4160    -1.5520 H     1 <1>   0.1500 
@<TRIPOS>BOND
  1   1   2  1   
  2   1   3  1   
  3   2   4  2   
  4   3   5  2   
  5   3   6  1   
  6   4   5  1   
  7   4   7  1   
  8   5  26  1   
  9   6   8  1   
 10   6  27  1   
 11   6  28  1   
 12   7  29  1   
 13   7  30  1   
 14   7  31  1   
 15   8   9  1   
 16   8  10  1   
 17   8  32  1   
 18   9  11  1   
 19   9  12  1   
 20   9  33  1   
 21  10  13  1   
 22  10  34  1   
 23  10  35  1   
 24  11  36  1   
 25  12  13  1   
 26  12  37  1   
 27  12  38  1   
 28  13  14  1   
 29  13  39  1   
 30  14  15  1   
 31  14  16  1   
 32  14  40  1   
 33  15  17  1   
 34  15  41  1   
 35  15  42  1   
 36  16  18  1   
 37  16  43  1   
 38  16  44  1   
 39  17  19  1   
 40  17  45  1   
 41  17  46  1   
 42  18  19  1   
 43  18  47  1   
 44  18  48  1   
 45  19  20  1   
 46  19  49  1   
 47  20  21  1   
 48  20  50  1   
 49  20  51  1   
 50  21  22  1   
 51  21  23  2   
 52  22  24  1   
 53  23  25  1   
 54  23  52  1   
 55  24  25  2   
 56  24  53  1   
 57  25  54  1   
@<TRIPOS>SUBSTRUCTURE
  1 ****  14 GROUP 4 **** **** 0

# MOE 2024.06 (io_trps.svl 2023.06)
