@<TRIPOS>MOLECULE
NONAME
49 51 1 0 0 
SMALL
USER_CHARGES


@<TRIPOS>ATOM
  1 S       -0.0910    -0.2200     0.7270 S.o2  1 <1>   1.3330 
  2 O       -0.5040     1.1450     0.9300 O.2   1 <1>  -0.6500 
  3 O        0.4900    -0.9720     1.8120 O.2   1 <1>  -0.6500 
  4 N       -1.4830    -1.0170     0.2460 N.am  1 <1>  -0.9140 
  5 C        0.9490    -0.3130    -0.7130 C.3   1 <1>  -0.1350 
  6 C       -1.4610    -2.4590     0.4560 C.3   1 <1>   0.1960 
  7 C       -2.7580    -3.0520    -0.0890 C.3   1 <1>  -0.0990 
  8 C       -2.8000    -4.5630     0.0360 C.2   1 <1>   0.5690 
  9 O       -1.8800    -5.1380     0.5660 O.2   1 <1>  -0.5700 
 10 N       -3.8750    -5.2490    -0.4510 N.am  1 <1>  -0.6600 
 11 C       -5.0960    -4.6820    -1.0800 C.3   1 <1>   0.1400 
 12 C       -4.0040    -6.7230    -0.3220 C.3   1 <1>   0.1400 
 13 C       -6.1560    -5.7580    -0.8640 C.3   1 <1>   0.2000 
 14 C       -5.3630    -7.0690    -0.9480 C.3   1 <1>  -0.0800 
 15 O       -6.6650    -5.5980     0.4160 O.3   1 <1>  -0.6800 
 16 C       -6.0640    -8.2840    -0.3050 C.3   1 <1>  -0.0160 
 17 C       -5.3900    -9.6500    -0.4920 C.ar  1 <1>  -0.1440 
 18 C       -5.8780   -10.7740     0.2210 C.ar  1 <1>   0.0000 
 19 C       -4.3310    -9.8630    -1.3300 C.ar  1 <1>  -0.1500 
 20 C       -5.2250   -12.0170     0.0340 C.ar  1 <1>   0.3100 
 21 C       -6.9830   -10.7400     1.1050 C.ar  1 <1>  -0.1500 
 22 C       -3.7600   -11.1360    -1.4450 C.ar  1 <1>   0.1600 
 23 N       -4.1690   -12.1810    -0.8000 N.ar  1 <1>  -0.6200 
 24 C       -5.6840   -13.1430     0.7350 C.ar  1 <1>  -0.1500 
 25 C       -7.4080   -11.8570     1.7730 C.ar  1 <1>  -0.1500 
 26 C       -6.7510   -13.0760     1.5890 C.ar  1 <1>  -0.1500 
 27 H       -2.1980    -0.6140     0.8510 H     1 <1>   0.4200 
 28 H        0.4570     0.1390    -1.5520 H     1 <1>   0.0800 
 29 H        1.1700    -1.3350    -0.9480 H     1 <1>   0.0800 
 30 H        1.8700     0.2060    -0.5330 H     1 <1>   0.0800 
 31 H       -0.6200    -2.8920    -0.0610 H     1 <1>   0.0800 
 32 H       -1.3650    -2.6840     1.5070 H     1 <1>   0.0800 
 33 H       -2.8520    -2.7950    -1.1270 H     1 <1>   0.0800 
 34 H       -3.5880    -2.6430     0.4550 H     1 <1>   0.0800 
 35 H       -5.3900    -3.7450    -0.6400 H     1 <1>   0.0800 
 36 H       -4.9170    -4.5490    -2.1330 H     1 <1>   0.0800 
 37 H       -3.1890    -7.2140    -0.8250 H     1 <1>   0.0800 
 38 H       -3.9800    -6.9870     0.7230 H     1 <1>   0.0800 
 39 H       -6.9700    -5.7010    -1.5670 H     1 <1>   0.0800 
 40 H       -5.2100    -7.2700    -1.9930 H     1 <1>   0.0800 
 41 H       -5.9180    -5.5330     1.0460 H     1 <1>   0.4000 
 42 H       -7.0620    -8.3490    -0.7030 H     1 <1>   0.0800 
 43 H       -6.1510    -8.0980     0.7510 H     1 <1>   0.0800 
 44 H       -3.8950    -9.0890    -1.9290 H     1 <1>   0.1500 
 45 H       -7.5110    -9.8190     1.2620 H     1 <1>   0.1500 
 46 H       -2.9250   -11.2530    -2.1150 H     1 <1>   0.1500 
 47 H       -5.1640   -14.0700     0.5750 H     1 <1>   0.1500 
 48 H       -8.2490   -11.8130     2.4430 H     1 <1>   0.1500 
 49 H       -7.0930   -13.9480     2.1190 H     1 <1>   0.1500 
@<TRIPOS>BOND
  1   1   2  2   
  2   1   3  2   
  3   1   4  am  
  4   1   5  1   
  5   4   6  1   
  6   4  27  1   
  7   5  28  1   
  8   5  29  1   
  9   5  30  1   
 10   6   7  1   
 11   6  31  1   
 12   6  32  1   
 13   7   8  1   
 14   7  33  1   
 15   7  34  1   
 16   8   9  2   
 17   8  10  am  
 18  10  11  1   
 19  10  12  1   
 20  11  13  1   
 21  11  35  1   
 22  11  36  1   
 23  12  14  1   
 24  12  37  1   
 25  12  38  1   
 26  13  14  1   
 27  13  15  1   
 28  13  39  1   
 29  14  16  1   
 30  14  40  1   
 31  15  41  1   
 32  16  17  1   
 33  16  42  1   
 34  16  43  1   
 35  17  18  ar  
 36  17  19  ar  
 37  18  20  ar  
 38  18  21  ar  
 39  19  22  ar  
 40  19  44  1   
 41  20  23  ar  
 42  20  24  ar  
 43  21  25  ar  
 44  21  45  1   
 45  22  23  ar  
 46  22  46  1   
 47  24  26  ar  
 48  24  47  1   
 49  25  26  ar  
 50  25  48  1   
 51  26  49  1   
@<TRIPOS>SUBSTRUCTURE
  1 ****  12 GROUP 4 **** **** 0

# MOE 2024.06 (io_trps.svl 2023.06)
