@<TRIPOS>MOLECULE
NONAME
47 49 1 0 0 
SMALL
USER_CHARGES


@<TRIPOS>ATOM
  1 O        0.6710     0.0550     0.5900 O.3   1 <1>  -0.6800 
  2 C        1.8640    -0.1070    -0.1020 C.3   1 <1>   0.2000 
  3 C        2.5330    -1.4230     0.2850 C.3   1 <1>  -0.0800 
  4 C        2.8790     0.9680     0.2840 C.3   1 <1>   0.2090 
  5 C        4.0190    -1.1670     0.0230 C.3   1 <1>   0.2090 
  6 C        1.9750    -2.6430    -0.4690 C.3   1 <1>  -0.0170 
  7 N        4.2110     0.3000     0.1800 N.pl3 1 <1>  -0.8380 
  8 C        2.6800    -3.9320    -0.0710 C.ar  1 <1>   0.1660 
  9 C        5.3880     0.9530     0.2320 C.ar  1 <1>   0.4100 
 10 N        3.8530    -4.1660    -0.6390 N.ar  1 <1>  -0.6200 
 11 C        2.0840    -4.7970     0.8460 C.ar  1 <1>   0.1600 
 12 N        5.3460     2.2810     0.4070 N.ar  1 <1>  -0.6200 
 13 C        6.6190     0.2960     0.1110 C.ar  1 <1>  -0.1500 
 14 C        4.3770    -5.3150    -0.2430 C.ar  1 <1>   0.1600 
 15 N        2.6090    -5.9420     1.2480 N.ar  1 <1>  -0.6200 
 16 C        6.4660     2.9340     0.4680 C.ar  1 <1>   0.5280 
 17 C        7.7760     1.0120     0.1780 C.ar  1 <1>   0.2180 
 18 C        3.7750    -6.1730     0.6700 C.ar  1 <1>   0.1600 
 19 N        7.6750     2.3440     0.3610 N.ar  1 <1>  -0.1790 
 20 C        6.4130     4.4420     0.6690 C.3   1 <1>  -0.0170 
 21 C        9.1520     0.3790     0.0570 C.3   1 <1>  -0.0970 
 22 C        6.8440     5.2180    -0.5880 C.3   1 <1>  -0.1600 
 23 C        6.7660     6.7300    -0.3590 C.3   1 <1>  -0.2400 
 24 H       -0.0120    -0.5570     0.2580 H     1 <1>   0.4000 
 25 H        1.6670    -0.0520    -1.1590 H     1 <1>   0.0800 
 26 H        2.4190    -1.5710     1.3460 H     1 <1>   0.0800 
 27 H        2.7220     1.2850     1.3010 H     1 <1>   0.0800 
 28 H        2.8200     1.8110    -0.3820 H     1 <1>   0.0800 
 29 H        4.2780    -1.4490    -0.9840 H     1 <1>   0.0800 
 30 H        4.6270    -1.7180     0.7200 H     1 <1>   0.0800 
 31 H        2.0870    -2.5020    -1.5300 H     1 <1>   0.0800 
 32 H        0.9230    -2.7350    -0.2650 H     1 <1>   0.0800 
 33 H        1.1300    -4.5320     1.2670 H     1 <1>   0.1500 
 34 H        6.6320    -0.7660    -0.0360 H     1 <1>   0.1500 
 35 H        5.3280    -5.5940    -0.6600 H     1 <1>   0.1500 
 36 H        4.2790    -7.0870     0.9310 H     1 <1>   0.1500 
 37 H        8.5090     2.9260     0.4160 H     1 <1>   0.4570 
 38 H        5.4030     4.7210     0.9200 H     1 <1>   0.0800 
 39 H        7.0340     4.7140     1.5040 H     1 <1>   0.0800 
 40 H        9.0650    -0.6850    -0.0830 H     1 <1>   0.0800 
 41 H        9.7270     0.5530     0.9490 H     1 <1>   0.0800 
 42 H        9.6800     0.7840    -0.7890 H     1 <1>   0.0800 
 43 H        7.8520     4.9620    -0.8680 H     1 <1>   0.0800 
 44 H        6.1950     4.9570    -1.4080 H     1 <1>   0.0800 
 45 H        7.4200     7.0340     0.4400 H     1 <1>   0.0800 
 46 H        5.7600     7.0260    -0.1150 H     1 <1>   0.0800 
 47 H        7.0600     7.2540    -1.2530 H     1 <1>   0.0800 
@<TRIPOS>BOND
  1   1   2  1   
  2   1  24  1   
  3   2   3  1   
  4   2   4  1   
  5   2  25  1   
  6   3   5  1   
  7   3   6  1   
  8   3  26  1   
  9   4   7  1   
 10   4  27  1   
 11   4  28  1   
 12   5   7  1   
 13   5  29  1   
 14   5  30  1   
 15   6   8  1   
 16   6  31  1   
 17   6  32  1   
 18   7   9  1   
 19   8  10  ar  
 20   8  11  ar  
 21   9  12  ar  
 22   9  13  ar  
 23  10  14  ar  
 24  11  15  ar  
 25  11  33  1   
 26  12  16  ar  
 27  13  17  ar  
 28  13  34  1   
 29  14  18  ar  
 30  14  35  1   
 31  15  18  ar  
 32  16  19  ar  
 33  16  20  1   
 34  17  19  ar  
 35  17  21  1   
 36  18  36  1   
 37  19  37  1   
 38  20  22  1   
 39  20  38  1   
 40  20  39  1   
 41  21  40  1   
 42  21  41  1   
 43  21  42  1   
 44  22  23  1   
 45  22  43  1   
 46  22  44  1   
 47  23  45  1   
 48  23  46  1   
 49  23  47  1   
@<TRIPOS>SUBSTRUCTURE
  1 ****   7 GROUP 4 **** **** 0

# MOE 2024.06 (io_trps.svl 2023.06)
