@<TRIPOS>MOLECULE
NONAME
50 52 1 0 0 
SMALL
USER_CHARGES


@<TRIPOS>ATOM
  1 S        0.8330     0.1780    -0.6460 S.o2  1 <1>   1.3330 
  2 O        2.2260     0.5650    -0.6370 O.2   1 <1>  -0.6500 
  3 O        0.1610    -0.0300    -1.9060 O.2   1 <1>  -0.6500 
  4 N        0.6080    -1.1680     0.3570 N.am  1 <1>  -0.8490 
  5 C       -0.0360     1.4870     0.2150 C.3   1 <1>  -0.0550 
  6 C       -0.6230    -1.9140     0.0660 C.3   1 <1>   0.1160 
  7 C        1.7550    -2.0830     0.3360 C.3   1 <1>   0.1160 
  8 C       -0.0090     2.8180    -0.5710 C.3   1 <1>  -0.0800 
  9 C       -0.6920     4.0030     0.1110 C.3   1 <1>   0.2000 
 10 C        1.4130     3.3190    -0.8760 C.3   1 <1>   0.3430 
 11 O       -0.3290     4.0410     1.4550 O.3   1 <1>  -0.6800 
 12 C       -0.0530     5.2000    -0.5990 C.3   1 <1>   0.3430 
 13 N        1.3740     4.8120    -0.8390 N.4   1 <1>  -0.9590 
 14 C        2.2580     5.3240     0.2460 C.3   1 <1>   0.4860 
 15 C        2.2950     6.8400     0.1820 C.ar  1 <1>  -0.1440 
 16 C        3.0080     7.4890    -0.8160 C.ar  1 <1>  -0.1500 
 17 C        1.6180     7.5940     1.1290 C.ar  1 <1>  -0.1500 
 18 C        3.0350     8.8710    -0.8690 C.ar  1 <1>  -0.1500 
 19 C        1.6480     8.9750     1.0760 C.ar  1 <1>  -0.1500 
 20 C        2.3560     9.6330     0.0750 C.ar  1 <1>  -0.0230 
 21 N        2.3900    11.0520     0.0220 N.pl3 1 <1>   0.3260 
 22 C        1.3680    11.9320     0.1950 C.2   1 <1>   0.0360 
 23 C        3.4550    11.8520    -0.2140 C.2   1 <1>  -0.3020 
 24 N        1.7000    13.1780     0.0900 N.2   1 <1>  -0.5650 
 25 C        3.0200    13.1290    -0.1690 C.2   1 <1>   0.0770 
 26 H       -1.0550     1.1900     0.3690 H     1 <1>   0.0800 
 27 H        0.4190     1.6180     1.1790 H     1 <1>   0.0800 
 28 H       -0.7570    -2.7040     0.7850 H     1 <1>   0.0800 
 29 H       -0.5790    -2.3440    -0.9220 H     1 <1>   0.0800 
 30 H       -1.4770    -1.2600     0.1180 H     1 <1>   0.0800 
 31 H        1.5840    -2.9120     1.0020 H     1 <1>   0.0800 
 32 H        2.6450    -1.5710     0.6610 H     1 <1>   0.0800 
 33 H        1.9180    -2.4590    -0.6610 H     1 <1>   0.0800 
 34 H       -0.4950     2.6540    -1.5190 H     1 <1>   0.0800 
 35 H       -1.7660     3.9990     0.0330 H     1 <1>   0.0800 
 36 H        1.7420     2.9580    -1.8380 H     1 <1>   0.0800 
 37 H        2.0940     2.9500    -0.1250 H     1 <1>   0.0800 
 38 H       -0.9380     3.5030     2.0060 H     1 <1>   0.4000 
 39 H       -0.1450     6.0990    -0.0110 H     1 <1>   0.0800 
 40 H       -0.5460     5.3490    -1.5450 H     1 <1>   0.0800 
 41 H        1.7020     5.2190    -1.7230 H     1 <1>   0.4500 
 42 H        1.8870     5.0060     1.2080 H     1 <1>   0.0800 
 43 H        3.2570     4.9390     0.1230 H     1 <1>   0.0800 
 44 H        3.5550     6.9310    -1.5580 H     1 <1>   0.1500 
 45 H        1.0670     7.1120     1.9210 H     1 <1>   0.1500 
 46 H        3.5900     9.3630    -1.6510 H     1 <1>   0.1500 
 47 H        1.1230     9.5460     1.8240 H     1 <1>   0.1500 
 48 H        0.3700    11.5920     0.4000 H     1 <1>   0.1500 
 49 H        4.4410    11.4700    -0.3920 H     1 <1>   0.1500 
 50 H        3.5930    14.0320    -0.3090 H     1 <1>   0.1500 
@<TRIPOS>BOND
  1   1   2  2   
  2   1   3  2   
  3   1   4  am  
  4   1   5  1   
  5   4   6  1   
  6   4   7  1   
  7   5   8  1   
  8   5  26  1   
  9   5  27  1   
 10   6  28  1   
 11   6  29  1   
 12   6  30  1   
 13   7  31  1   
 14   7  32  1   
 15   7  33  1   
 16   8   9  1   
 17   8  10  1   
 18   8  34  1   
 19   9  11  1   
 20   9  12  1   
 21   9  35  1   
 22  10  13  1   
 23  10  36  1   
 24  10  37  1   
 25  11  38  1   
 26  12  13  1   
 27  12  39  1   
 28  12  40  1   
 29  13  14  1   
 30  13  41  1   
 31  14  15  1   
 32  14  42  1   
 33  14  43  1   
 34  15  16  ar  
 35  15  17  ar  
 36  16  18  ar  
 37  16  44  1   
 38  17  19  ar  
 39  17  45  1   
 40  18  20  ar  
 41  18  46  1   
 42  19  20  ar  
 43  19  47  1   
 44  20  21  1   
 45  21  22  1   
 46  21  23  1   
 47  22  24  2   
 48  22  48  1   
 49  23  25  2   
 50  23  49  1   
 51  24  25  1   
 52  25  50  1   
@<TRIPOS>SUBSTRUCTURE
  1 ****  14 GROUP 4 **** **** 0

# MOE 2024.06 (io_trps.svl 2023.06)
