@<TRIPOS>MOLECULE
NONAME
46 49 1 0 0 
SMALL
USER_CHARGES


@<TRIPOS>ATOM
  1 O       -1.1180     0.6420     2.1630 O.3   1 <1>  -0.5600 
  2 C        0.0180     0.5230     1.3690 C.3   1 <1>   0.1200 
  3 C       -2.2050     1.0260     1.3720 C.3   1 <1>   0.1200 
  4 C       -0.1290     1.6420     0.3470 C.3   1 <1>   0.2890 
  5 C       -1.6240     1.5810     0.0590 C.3   1 <1>  -0.0800 
  6 N        0.1740     2.9300     1.0310 N.pl3 1 <1>  -0.8690 
  7 C       -1.9370     0.6700    -1.1440 C.3   1 <1>  -0.0170 
  8 C        0.7810     4.0240     0.5500 C.ar  1 <1>   0.4610 
  9 C       -3.4320     0.6070    -1.4200 C.ar  1 <1>  -0.1440 
 10 N        1.0070     5.0510     1.3710 N.ar  1 <1>  -0.1790 
 11 C        1.2010     4.1650    -0.7960 C.ar  1 <1>  -0.1500 
 12 C       -4.1090     1.6550    -2.0100 C.ar  1 <1>  -0.1500 
 13 C       -4.1890    -0.5030    -1.1000 C.ar  1 <1>  -0.1500 
 14 C        1.6260     6.2290     0.9920 C.ar  1 <1>   0.3610 
 15 C        1.8170     5.2930    -1.2450 C.ar  1 <1>  -0.1440 
 16 C       -5.4710     1.5500    -2.2380 C.ar  1 <1>   0.1600 
 17 C       -5.5480    -0.5060    -1.3700 C.ar  1 <1>   0.1600 
 18 C        2.0520     6.3770    -0.3420 C.ar  1 <1>   0.0000 
 19 C        1.8310     7.2600     1.9150 C.ar  1 <1>  -0.1500 
 20 C        2.2540     5.4020    -2.7010 C.3   1 <1>  -0.0970 
 21 N       -6.2070     0.4950    -1.9290 N.ar  1 <1>  -0.6200 
 22 C        2.6790     7.5830    -0.6990 C.ar  1 <1>  -0.1500 
 23 C        2.4470     8.4280     1.5340 C.ar  1 <1>  -0.1500 
 24 C        2.8720     8.5860     0.2190 C.ar  1 <1>  -0.1500 
 25 H        0.9000     0.6180     1.9770 H     1 <1>   0.0800 
 26 H       -0.0010    -0.4460     0.8990 H     1 <1>   0.0800 
 27 H       -2.8320     0.1650     1.2180 H     1 <1>   0.0800 
 28 H       -2.7600     1.7770     1.9080 H     1 <1>   0.0800 
 29 H        0.4920     1.4850    -0.5180 H     1 <1>   0.0800 
 30 H       -2.0200     2.5600    -0.1430 H     1 <1>   0.0800 
 31 H       -0.1720     2.8510     1.9980 H     1 <1>   0.4000 
 32 H       -1.5640    -0.3240    -0.9690 H     1 <1>   0.0800 
 33 H       -1.4450     1.0490    -2.0230 H     1 <1>   0.0800 
 34 H        0.7150     4.9580     2.3380 H     1 <1>   0.4570 
 35 H        1.0160     3.3490    -1.4680 H     1 <1>   0.1500 
 36 H       -3.5950     2.5540    -2.2980 H     1 <1>   0.1500 
 37 H       -3.7420    -1.3670    -0.6440 H     1 <1>   0.1500 
 38 H       -5.9830     2.3780    -2.6980 H     1 <1>   0.1500 
 39 H       -6.1230    -1.3790    -1.1130 H     1 <1>   0.1500 
 40 H        1.5070     7.1500     2.9340 H     1 <1>   0.1500 
 41 H        2.0070     4.5110    -3.2510 H     1 <1>   0.0800 
 42 H        3.3190     5.5450    -2.7610 H     1 <1>   0.0800 
 43 H        1.7640     6.2330    -3.1770 H     1 <1>   0.0800 
 44 H        3.0190     7.7350    -1.7080 H     1 <1>   0.1500 
 45 H        2.6080     9.2280     2.2400 H     1 <1>   0.1500 
 46 H        3.3550     9.5060    -0.0720 H     1 <1>   0.1500 
@<TRIPOS>BOND
  1   1   2  1   
  2   1   3  1   
  3   2   4  1   
  4   2  25  1   
  5   2  26  1   
  6   3   5  1   
  7   3  27  1   
  8   3  28  1   
  9   4   5  1   
 10   4   6  1   
 11   4  29  1   
 12   5   7  1   
 13   5  30  1   
 14   6   8  1   
 15   6  31  1   
 16   7   9  1   
 17   7  32  1   
 18   7  33  1   
 19   8  10  ar  
 20   8  11  ar  
 21   9  12  ar  
 22   9  13  ar  
 23  10  14  ar  
 24  10  34  1   
 25  11  15  ar  
 26  11  35  1   
 27  12  16  ar  
 28  12  36  1   
 29  13  17  ar  
 30  13  37  1   
 31  14  18  ar  
 32  14  19  ar  
 33  15  18  ar  
 34  15  20  1   
 35  16  21  ar  
 36  16  38  1   
 37  17  21  ar  
 38  17  39  1   
 39  18  22  ar  
 40  19  23  ar  
 41  19  40  1   
 42  20  41  1   
 43  20  42  1   
 44  20  43  1   
 45  22  24  ar  
 46  22  44  1   
 47  23  24  ar  
 48  23  45  1   
 49  24  46  1   
@<TRIPOS>SUBSTRUCTURE
  1 ****   6 GROUP 4 **** **** 0

# MOE 2024.06 (io_trps.svl 2023.06)
