@<TRIPOS>MOLECULE
NONAME
39 40 1 0 0 
SMALL
USER_CHARGES


@<TRIPOS>ATOM
  1 O       -2.0060     0.3900    -1.8650 O.2   1 <1>  -0.5700 
  2 C       -1.7950     0.4240    -0.6570 C.2   1 <1>   0.5690 
  3 N       -1.7970    -0.7180     0.0790 N.am  1 <1>  -0.7300 
  4 C       -1.5430     1.7660     0.0600 C.3   1 <1>   0.2010 
  5 C       -1.9950    -2.0790    -0.4740 C.3   1 <1>   0.2200 
  6 N       -1.8420     2.9400    -0.7670 N.am  1 <1>  -0.7300 
  7 C       -3.4010    -2.5940    -0.1900 C.3   1 <1>  -0.0800 
  8 C       -1.1730    -3.0590     0.3510 C.3   1 <1>   0.1200 
  9 C       -1.7760     4.2170    -0.4180 C.2   1 <1>   0.5690 
 10 C       -3.2820    -3.1670     1.2280 C.3   1 <1>   0.1200 
 11 C       -4.5430    -1.5770    -0.3730 C.3   1 <1>  -0.0170 
 12 O       -1.9150    -3.2450     1.5170 O.3   1 <1>  -0.5600 
 13 O       -2.0570     5.0800    -1.2310 O.2   1 <1>  -0.5700 
 14 C       -1.3510     4.5940     0.9900 C.3   1 <1>  -0.1790 
 15 C       -5.8950    -2.2350    -0.1510 C.ar  1 <1>  -0.1440 
 16 C       -6.5090    -2.9790    -1.1390 C.ar  1 <1>  -0.1500 
 17 C       -6.5790    -2.1260     1.0430 C.ar  1 <1>  -0.1500 
 18 C       -7.7390    -3.5660    -0.8900 C.ar  1 <1>   0.1600 
 19 C       -7.8060    -2.7530     1.1890 C.ar  1 <1>   0.1600 
 20 N       -8.4010    -3.4720     0.2520 N.ar  1 <1>  -0.6200 
 21 H       -1.6650    -0.7140     1.0940 H     1 <1>   0.3700 
 22 H       -0.4960     1.7900     0.3640 H     1 <1>   0.0800 
 23 H       -2.1630     1.7880     0.9560 H     1 <1>   0.0800 
 24 H       -1.7420    -2.1090    -1.5210 H     1 <1>   0.0800 
 25 H       -2.1160     2.7610    -1.7250 H     1 <1>   0.3700 
 26 H       -3.5840    -3.4210    -0.8540 H     1 <1>   0.0800 
 27 H       -0.1940    -2.6870     0.5940 H     1 <1>   0.0800 
 28 H       -1.0930    -4.0100    -0.1480 H     1 <1>   0.0800 
 29 H       -3.7100    -4.1530     1.2950 H     1 <1>   0.0800 
 30 H       -3.7340    -2.5240     1.9610 H     1 <1>   0.0800 
 31 H       -4.5030    -1.1710    -1.3690 H     1 <1>   0.0800 
 32 H       -4.4310    -0.7570     0.3130 H     1 <1>   0.0800 
 33 H       -0.3510     4.2110     1.1820 H     1 <1>   0.0800 
 34 H       -2.0570     4.1780     1.7060 H     1 <1>   0.0800 
 35 H       -1.3450     5.6800     1.0790 H     1 <1>   0.0800 
 36 H       -6.0440    -3.1070    -2.0990 H     1 <1>   0.1500 
 37 H       -6.1740    -1.5600     1.8610 H     1 <1>   0.1500 
 38 H       -8.2030    -4.1420    -1.6720 H     1 <1>   0.1500 
 39 H       -8.3250    -2.6570     2.1270 H     1 <1>   0.1500 
@<TRIPOS>BOND
  1   1   2  2   
  2   2   3  am  
  3   2   4  1   
  4   3   5  1   
  5   3  21  1   
  6   4   6  1   
  7   4  22  1   
  8   4  23  1   
  9   5   7  1   
 10   5   8  1   
 11   5  24  1   
 12   6   9  am  
 13   6  25  1   
 14   7  10  1   
 15   7  11  1   
 16   7  26  1   
 17   8  12  1   
 18   8  27  1   
 19   8  28  1   
 20   9  13  2   
 21   9  14  1   
 22  10  12  1   
 23  10  29  1   
 24  10  30  1   
 25  11  15  1   
 26  11  31  1   
 27  11  32  1   
 28  14  33  1   
 29  14  34  1   
 30  14  35  1   
 31  15  16  ar  
 32  15  17  ar  
 33  16  18  ar  
 34  16  36  1   
 35  17  19  ar  
 36  17  37  1   
 37  18  20  ar  
 38  18  38  1   
 39  19  20  ar  
 40  19  39  1   
@<TRIPOS>SUBSTRUCTURE
  1 ****  11 GROUP 4 **** **** 0

# MOE 2024.06 (io_trps.svl 2023.06)
