@<TRIPOS>MOLECULE
NONAME
41 42 1 0 0 
SMALL
USER_CHARGES


@<TRIPOS>ATOM
  1 S       -0.3450    -0.1040    -0.9500 S.o2  1 <1>   1.3330 
  2 O       -1.1360    -1.2330    -0.5160 O.2   1 <1>  -0.6500 
  3 O       -0.1100     0.1060    -2.3610 O.2   1 <1>  -0.6500 
  4 N        1.1660    -0.2170    -0.1800 N.am  1 <1>  -0.8490 
  5 C       -1.0540     1.4040    -0.2830 C.3   1 <1>  -0.0550 
  6 C        2.1400    -0.9660    -0.9810 C.3   1 <1>   0.1160 
  7 C        1.0890    -0.7880     1.1690 C.3   1 <1>   0.1160 
  8 C       -0.3320     2.6960    -0.7240 C.3   1 <1>  -0.0800 
  9 C       -1.0330     3.9860    -0.2840 C.3   1 <1>   0.2000 
 10 C        1.1020     2.8410    -0.1940 C.3   1 <1>   0.2090 
 11 O       -1.4000     3.8620     1.0490 O.3   1 <1>  -0.6800 
 12 C        0.0680     5.0410    -0.3740 C.3   1 <1>   0.2090 
 13 N        1.2890     4.2970     0.0050 N.pl3 1 <1>  -0.8220 
 14 C        2.4960     4.9240     0.1930 C.2   1 <1>   0.4620 
 15 S        3.9340     3.9570     0.4920 S.3   1 <1>  -0.0800 
 16 N        2.7190     6.1870     0.1840 N.2   1 <1>  -0.5650 
 17 C        4.8770     5.4190     0.6030 C.2   1 <1>  -0.1400 
 18 C        4.0520     6.4640     0.4130 C.2   1 <1>   0.0460 
 19 C        6.3590     5.2520     0.8770 C.3   1 <1>  -0.0600 
 20 C        4.4250     7.9310     0.4220 C.3   1 <1>  -0.0590 
 21 H       -2.0730     1.4670    -0.6100 H     1 <1>   0.0800 
 22 H       -1.0700     1.3440     0.7880 H     1 <1>   0.0800 
 23 H        3.0880    -1.0070    -0.4730 H     1 <1>   0.0800 
 24 H        2.2890    -0.4790    -1.9300 H     1 <1>   0.0800 
 25 H        1.7870    -1.9690    -1.1580 H     1 <1>   0.0800 
 26 H        2.0570    -0.7530     1.6410 H     1 <1>   0.0800 
 27 H        0.7570    -1.8130     1.1270 H     1 <1>   0.0800 
 28 H        0.3970    -0.2270     1.7730 H     1 <1>   0.0800 
 29 H       -0.2770     2.7080    -1.7990 H     1 <1>   0.0800 
 30 H       -1.9060     4.2260    -0.8650 H     1 <1>   0.0800 
 31 H        1.8200     2.4500    -0.8960 H     1 <1>   0.0800 
 32 H        1.2180     2.3430     0.7540 H     1 <1>   0.0800 
 33 H       -0.5860     3.9670     1.5870 H     1 <1>   0.4000 
 34 H       -0.1100     5.8760     0.2820 H     1 <1>   0.0800 
 35 H        0.1720     5.3930    -1.3860 H     1 <1>   0.0800 
 36 H        6.8480     6.2060     0.9260 H     1 <1>   0.0800 
 37 H        6.8110     4.6720     0.0930 H     1 <1>   0.0800 
 38 H        6.5010     4.7430     1.8130 H     1 <1>   0.0800 
 39 H        5.4730     8.0640     0.6060 H     1 <1>   0.0800 
 40 H        3.8680     8.4360     1.1900 H     1 <1>   0.0800 
 41 H        4.1780     8.3680    -0.5280 H     1 <1>   0.0800 
@<TRIPOS>BOND
  1   1   2  2   
  2   1   3  2   
  3   1   4  am  
  4   1   5  1   
  5   4   6  1   
  6   4   7  1   
  7   5   8  1   
  8   5  21  1   
  9   5  22  1   
 10   6  23  1   
 11   6  24  1   
 12   6  25  1   
 13   7  26  1   
 14   7  27  1   
 15   7  28  1   
 16   8   9  1   
 17   8  10  1   
 18   8  29  1   
 19   9  11  1   
 20   9  12  1   
 21   9  30  1   
 22  10  13  1   
 23  10  31  1   
 24  10  32  1   
 25  11  33  1   
 26  12  13  1   
 27  12  34  1   
 28  12  35  1   
 29  13  14  1   
 30  14  15  1   
 31  14  16  2   
 32  15  17  1   
 33  16  18  1   
 34  17  18  2   
 35  17  19  1   
 36  18  20  1   
 37  19  36  1   
 38  19  37  1   
 39  19  38  1   
 40  20  39  1   
 41  20  40  1   
 42  20  41  1   
@<TRIPOS>SUBSTRUCTURE
  1 ****  10 GROUP 4 **** **** 0

# MOE 2024.06 (io_trps.svl 2023.06)
