@<TRIPOS>MOLECULE
NONAME
47 50 1 0 0 
SMALL
USER_CHARGES


@<TRIPOS>ATOM
  1 CL      -0.9360    -1.5500    -3.1750 Cl    1 <1>  -0.1770 
  2 C       -2.0220    -1.7110    -1.8180 C.ar  1 <1>   0.1770 
  3 C       -2.8400    -0.6540    -1.4570 C.ar  1 <1>   0.1600 
  4 C       -2.0620    -2.8920    -1.1150 C.ar  1 <1>  -0.1500 
  5 N       -3.6920    -0.6930    -0.4400 N.ar  1 <1>  -0.6200 
  6 C       -2.9500    -2.9690    -0.0510 C.ar  1 <1>   0.0860 
  7 C       -3.7140    -1.8360     0.2330 C.ar  1 <1>   0.1600 
  8 C       -3.0780    -4.1680     0.7470 C.2   1 <1>   0.5440 
  9 O       -2.0720    -4.6890     1.1840 O.2   1 <1>  -0.5700 
 10 N       -4.3050    -4.7390     1.0140 N.am  1 <1>  -0.6600 
 11 C       -4.4660    -5.7910     2.0580 C.3   1 <1>   0.1400 
 12 C       -5.5220    -4.5390     0.1780 C.3   1 <1>   0.1400 
 13 C       -4.8180    -7.1210     1.3900 C.3   1 <1>  -0.1600 
 14 C       -5.8760    -5.8580    -0.5120 C.3   1 <1>  -0.1600 
 15 C       -6.0630    -7.0030     0.4980 C.3   1 <1>   0.4240 
 16 O       -7.1110    -6.6460     1.3690 O.3   1 <1>  -0.5600 
 17 C       -6.3410    -8.3420    -0.2200 C.ar  1 <1>  -0.1430 
 18 C       -8.4150    -6.9090     0.9510 C.3   1 <1>   0.1200 
 19 C       -7.5470    -9.0140    -0.0490 C.ar  1 <1>  -0.1430 
 20 C       -5.3850    -8.9010    -1.0620 C.ar  1 <1>  -0.1500 
 21 C       -8.6080    -8.4190     0.8550 C.3   1 <1>  -0.0170 
 22 C       -7.7860   -10.2170    -0.6950 C.ar  1 <1>  -0.1500 
 23 C       -5.6230   -10.0990    -1.7100 C.ar  1 <1>  -0.1500 
 24 C       -6.8210   -10.7670    -1.5320 C.ar  1 <1>   0.0830 
 25 O       -6.9750   -11.9370    -2.2020 O.3   1 <1>  -0.3620 
 26 C       -8.1500   -12.7060    -2.0730 C.3   1 <1>   0.0400 
 27 H       -2.7870     0.2570    -2.0290 H     1 <1>   0.1500 
 28 H       -1.4310    -3.7240    -1.3750 H     1 <1>   0.1500 
 29 H       -4.3860    -1.8870     1.0730 H     1 <1>   0.1500 
 30 H       -5.2530    -5.4990     2.7330 H     1 <1>   0.0800 
 31 H       -3.5620    -5.9010     2.6330 H     1 <1>   0.0800 
 32 H       -5.3620    -3.7830    -0.5690 H     1 <1>   0.0800 
 33 H       -6.3360    -4.2230     0.8100 H     1 <1>   0.0800 
 34 H       -4.9920    -7.8710     2.1380 H     1 <1>   0.0800 
 35 H       -3.9700    -7.4340     0.8100 H     1 <1>   0.0800 
 36 H       -5.0810    -6.1050    -1.1910 H     1 <1>   0.0800 
 37 H       -6.7650    -5.7390    -1.1020 H     1 <1>   0.0800 
 38 H       -8.5870    -6.4360     0.0010 H     1 <1>   0.0800 
 39 H       -9.0860    -6.4900     1.6810 H     1 <1>   0.0800 
 40 H       -4.4420    -8.4100    -1.2230 H     1 <1>   0.1500 
 41 H       -9.5880    -8.6270     0.4670 H     1 <1>   0.0800 
 42 H       -8.5330    -8.8530     1.8360 H     1 <1>   0.0800 
 43 H       -8.7240   -10.7130    -0.5390 H     1 <1>   0.1500 
 44 H       -4.8790   -10.5260    -2.3580 H     1 <1>   0.1500 
 45 H       -8.0410   -13.5850    -2.6820 H     1 <1>   0.0800 
 46 H       -8.9870   -12.1240    -2.4160 H     1 <1>   0.0800 
 47 H       -8.2710   -12.9880    -1.0420 H     1 <1>   0.0800 
@<TRIPOS>BOND
  1   1   2  1   
  2   2   3  ar  
  3   2   4  ar  
  4   3   5  ar  
  5   3  27  1   
  6   4   6  ar  
  7   4  28  1   
  8   5   7  ar  
  9   6   7  ar  
 10   6   8  1   
 11   7  29  1   
 12   8   9  2   
 13   8  10  am  
 14  10  11  1   
 15  10  12  1   
 16  11  13  1   
 17  11  30  1   
 18  11  31  1   
 19  12  14  1   
 20  12  32  1   
 21  12  33  1   
 22  13  15  1   
 23  13  34  1   
 24  13  35  1   
 25  14  15  1   
 26  14  36  1   
 27  14  37  1   
 28  15  16  1   
 29  15  17  1   
 30  16  18  1   
 31  17  19  ar  
 32  17  20  ar  
 33  18  21  1   
 34  18  38  1   
 35  18  39  1   
 36  19  21  1   
 37  19  22  ar  
 38  20  23  ar  
 39  20  40  1   
 40  21  41  1   
 41  21  42  1   
 42  22  24  ar  
 43  22  43  1   
 44  23  24  ar  
 45  23  44  1   
 46  24  25  1   
 47  25  26  1   
 48  26  45  1   
 49  26  46  1   
 50  26  47  1   
@<TRIPOS>SUBSTRUCTURE
  1 ****  14 GROUP 4 **** **** 0

# MOE 2024.06 (io_trps.svl 2023.06)
