@<TRIPOS>MOLECULE
NONAME
39 40 1 0 0 
SMALL
USER_CHARGES


@<TRIPOS>ATOM
  1 O       -1.4160    -0.3150     0.9910 O.2   1 <1>  -0.5700 
  2 C       -2.1800     0.6390     1.0770 C.2   1 <1>   0.7160 
  3 N       -3.4860     0.3560     1.4440 N.am  1 <1>  -0.6600 
  4 C       -1.7180     1.9900     0.7500 C.2   1 <1>   0.2030 
  5 C       -3.8630    -1.0010     1.9280 C.3   1 <1>   0.3200 
  6 C       -4.6450     1.2300     1.0890 C.3   1 <1>   0.1400 
  7 N       -2.1700     3.1060     1.2970 N.2   1 <1>  -0.7070 
  8 C       -0.7240     2.3000    -0.2010 C.2   1 <1>  -0.1810 
  9 C       -4.2070    -1.8870     0.7430 C.2   1 <1>   0.0060 
 10 C       -4.8240     1.3120    -0.4320 C.3   1 <1>   0.1200 
 11 N       -1.4880     4.0970     0.7150 N.pl3 1 <1>   0.3000 
 12 C       -0.6090     3.6440    -0.1970 C.2   1 <1>  -0.3320 
 13 C        0.0470     1.3000    -1.0490 C.3   1 <1>  -0.0590 
 14 N       -5.3930    -2.3110     0.4420 N.2   1 <1>  -0.5650 
 15 N       -3.2510    -2.2910    -0.1190 N.pl3 1 <1>   0.0330 
 16 O       -6.0960     1.7840    -0.7240 O.3   1 <1>  -0.6800 
 17 C        0.2830     4.5790    -0.9980 C.3   1 <1>   0.0200 
 18 C       -5.1980    -3.0360    -0.6780 C.2   1 <1>   0.0770 
 19 C       -3.8950    -3.0330    -1.0370 C.2   1 <1>  -0.3020 
 20 C        1.3650     5.1810    -0.1010 C.3   1 <1>  -0.2400 
 21 H       -4.7110    -0.9330     2.5860 H     1 <1>   0.0800 
 22 H       -3.0510    -1.4360     2.4830 H     1 <1>   0.0800 
 23 H       -4.5030     2.2160     1.4930 H     1 <1>   0.0800 
 24 H       -5.5410     0.8220     1.5230 H     1 <1>   0.0800 
 25 H       -4.7240     0.3410    -0.8870 H     1 <1>   0.0800 
 26 H       -4.1100     1.9940    -0.8600 H     1 <1>   0.0800 
 27 H       -1.6380     5.0830     0.9590 H     1 <1>   0.2700 
 28 H       -0.6380     0.6760    -1.5950 H     1 <1>   0.0800 
 29 H        0.6520     0.6770    -0.4140 H     1 <1>   0.0800 
 30 H        0.6910     1.7950    -1.7500 H     1 <1>   0.0800 
 31 H       -2.2570    -2.0310    -0.0600 H     1 <1>   0.2700 
 32 H       -6.7610     1.0930    -0.5340 H     1 <1>   0.4000 
 33 H       -0.3110     5.3640    -1.4340 H     1 <1>   0.0800 
 34 H        0.7530     4.0450    -1.8040 H     1 <1>   0.0800 
 35 H       -6.0180    -3.5280    -1.1750 H     1 <1>   0.1500 
 36 H       -3.4060    -3.5040    -1.8700 H     1 <1>   0.1500 
 37 H        0.9240     5.7650     0.6870 H     1 <1>   0.0800 
 38 H        2.0140     5.8140    -0.6780 H     1 <1>   0.0800 
 39 H        1.9530     4.3950     0.3410 H     1 <1>   0.0800 
@<TRIPOS>BOND
  1   1   2  2   
  2   2   3  am  
  3   2   4  1   
  4   3   5  1   
  5   3   6  1   
  6   4   7  2   
  7   4   8  1   
  8   5   9  1   
  9   5  21  1   
 10   5  22  1   
 11   6  10  1   
 12   6  23  1   
 13   6  24  1   
 14   7  11  1   
 15   8  12  2   
 16   8  13  1   
 17   9  14  2   
 18   9  15  1   
 19  10  16  1   
 20  10  25  1   
 21  10  26  1   
 22  11  12  1   
 23  11  27  1   
 24  12  17  1   
 25  13  28  1   
 26  13  29  1   
 27  13  30  1   
 28  14  18  1   
 29  15  19  1   
 30  15  31  1   
 31  16  32  1   
 32  17  20  1   
 33  17  33  1   
 34  17  34  1   
 35  18  19  2   
 36  18  35  1   
 37  19  36  1   
 38  20  37  1   
 39  20  38  1   
 40  20  39  1   
@<TRIPOS>SUBSTRUCTURE
  1 ****   2 GROUP 4 **** **** 0

# MOE 2024.06 (io_trps.svl 2023.06)
