@<TRIPOS>MOLECULE
NONAME
46 49 1 0 0 
SMALL
USER_CHARGES


@<TRIPOS>ATOM
  1 O       -0.1160     0.0360     0.5540 O.2   1 <1>  -0.5700 
  2 C        0.9160    -0.5870     0.4880 C.2   1 <1>   0.5690 
  3 N        2.1270     0.0240     0.5740 N.am  1 <1>  -0.5100 
  4 C        0.8570    -2.0920     0.2990 C.3   1 <1>  -0.0990 
  5 C        2.4220     1.4890     0.4520 C.3   1 <1>   0.2250 
  6 C        3.4320    -0.3240    -0.0770 C.3   1 <1>   0.2250 
  7 C       -0.3610    -2.7200     0.9940 C.3   1 <1>   0.0200 
  8 C        3.5130     1.1350    -0.5880 C.3   1 <1>   0.2580 
  9 C       -0.3540    -4.2280     0.8520 C.2   1 <1>   0.2980 
 10 O        4.7670     1.7140    -0.2810 O.3   1 <1>  -0.3400 
 11 O        0.5410    -4.9160     1.5110 O.3   1 <1>  -0.0190 
 12 N       -1.1460    -4.9090     0.1330 N.2   1 <1>  -0.5650 
 13 C        5.0100     3.0290    -0.5090 C.ar  1 <1>   0.0820 
 14 N        0.2990    -6.1470     1.1820 N.2   1 <1>  -0.4100 
 15 C       -0.7000    -6.1480     0.3700 C.2   1 <1>   0.5150 
 16 C        6.2080     3.5320    -0.0320 C.ar  1 <1>  -0.1500 
 17 C        4.1310     3.8750    -1.1820 C.ar  1 <1>  -0.1500 
 18 C       -1.3090    -7.3060    -0.2480 C.2   1 <1>   0.1410 
 19 C        6.5410     4.8630    -0.2130 C.ar  1 <1>   0.0820 
 20 C        4.4590     5.2070    -1.3650 C.ar  1 <1>  -0.1500 
 21 O       -0.8550    -8.5340    -0.0120 O.3   1 <1>  -0.2800 
 22 C       -2.3610    -7.3920    -1.1080 C.2   1 <1>  -0.1500 
 23 O        7.7350     5.2680     0.2890 O.3   1 <1>  -0.3620 
 24 C        5.6580     5.7050    -0.8840 C.ar  1 <1>  -0.1500 
 25 C       -1.5850    -9.3920    -0.6960 C.2   1 <1>  -0.0100 
 26 C       -2.5390    -8.7470    -1.3980 C.2   1 <1>  -0.1500 
 27 C        8.1740     6.6010     0.1520 C.3   1 <1>   0.0400 
 28 H        1.7540    -2.5310     0.6960 H     1 <1>   0.0800 
 29 H        0.8130    -2.3020    -0.7540 H     1 <1>   0.0800 
 30 H        2.8050     1.8830     1.3770 H     1 <1>   0.0000 
 31 H        1.5910     2.0340     0.0410 H     1 <1>   0.0000 
 32 H        3.3060    -1.0520    -0.8580 H     1 <1>   0.0000 
 33 H        4.1730    -0.5770     0.6600 H     1 <1>   0.0000 
 34 H       -1.2670    -2.3330     0.5590 H     1 <1>   0.0800 
 35 H       -0.3610    -2.4660     2.0390 H     1 <1>   0.0800 
 36 H        3.2440     1.2590    -1.6230 H     1 <1>   0.0000 
 37 H        6.8900     2.8840     0.4860 H     1 <1>   0.1500 
 38 H        3.1950     3.5220    -1.5710 H     1 <1>   0.1500 
 39 H        3.7790     5.8600    -1.8850 H     1 <1>   0.1500 
 40 H       -2.9500    -6.5810    -1.4980 H     1 <1>   0.1500 
 41 H        5.8850     6.7420    -1.0400 H     1 <1>   0.1500 
 42 H       -1.3570   -10.4410    -0.6240 H     1 <1>   0.1500 
 43 H       -3.2900    -9.1580    -2.0500 H     1 <1>   0.1500 
 44 H        9.1390     6.6840     0.6200 H     1 <1>   0.0800 
 45 H        7.4730     7.2520     0.6430 H     1 <1>   0.0800 
 46 H        8.2540     6.8370    -0.8940 H     1 <1>   0.0800 
@<TRIPOS>BOND
  1   1   2  2   
  2   2   3  am  
  3   2   4  1   
  4   3   5  1   
  5   3   6  1   
  6   4   7  1   
  7   4  28  1   
  8   4  29  1   
  9   5   8  1   
 10   5  30  1   
 11   5  31  1   
 12   6   8  1   
 13   6  32  1   
 14   6  33  1   
 15   7   9  1   
 16   7  34  1   
 17   7  35  1   
 18   8  10  1   
 19   8  36  1   
 20   9  11  1   
 21   9  12  2   
 22  10  13  1   
 23  11  14  1   
 24  12  15  1   
 25  13  16  ar  
 26  13  17  ar  
 27  14  15  2   
 28  15  18  1   
 29  16  19  ar  
 30  16  37  1   
 31  17  20  ar  
 32  17  38  1   
 33  18  21  1   
 34  18  22  2   
 35  19  23  1   
 36  19  24  ar  
 37  20  24  ar  
 38  20  39  1   
 39  21  25  1   
 40  22  26  1   
 41  22  40  1   
 42  23  27  1   
 43  24  41  1   
 44  25  26  2   
 45  25  42  1   
 46  26  43  1   
 47  27  44  1   
 48  27  45  1   
 49  27  46  1   
@<TRIPOS>SUBSTRUCTURE
  1 ****   3 GROUP 4 **** **** 0

# MOE 2024.06 (io_trps.svl 2023.06)
