@<TRIPOS>MOLECULE
NONAME
50 52 1 0 0 
SMALL
USER_CHARGES


@<TRIPOS>ATOM
  1 F       -2.0820    -0.7200    -1.9430 F     1 <1>  -0.1900 
  2 C       -2.1820     0.2180    -1.0350 C.ar  1 <1>   0.1900 
  3 C       -3.4370     0.7400    -0.7570 C.ar  1 <1>  -0.1440 
  4 C       -1.0250     0.6330    -0.3850 C.ar  1 <1>  -0.1440 
  5 C       -3.4890     1.7180     0.2230 C.ar  1 <1>   0.1900 
  6 C       -4.6910     0.2810    -1.4890 C.3   1 <1>   0.2540 
  7 C       -1.1290     1.6140     0.5910 C.ar  1 <1>  -0.1500 
  8 C        0.3340     0.0380    -0.7310 C.3   1 <1>  -0.0960 
  9 F       -4.6370     2.2600     0.5330 F     1 <1>  -0.1900 
 10 C       -2.3650     2.1600     0.8990 C.ar  1 <1>  -0.1500 
 11 N       -5.4380    -0.7240    -0.7050 N.3   1 <1>  -0.8100 
 12 C       -4.6670    -1.9590    -0.4900 C.3   1 <1>   0.1100 
 13 C       -6.7440    -0.9850    -1.3310 C.3   1 <1>   0.1100 
 14 C       -5.4520    -2.9460     0.4040 C.3   1 <1>   0.4230 
 15 C       -7.5660    -1.9260    -0.4420 C.3   1 <1>  -0.1600 
 16 N       -4.6460    -4.1700     0.8200 N.4   1 <1>  -0.9590 
 17 C       -6.8560    -3.2790    -0.1720 C.3   1 <1>   0.0000 
 18 C       -5.4820    -5.3100     1.3170 C.3   1 <1>   0.3430 
 19 C       -3.6600    -4.6610    -0.1980 C.3   1 <1>   0.2630 
 20 C       -7.6700    -4.0770     0.8890 C.3   1 <1>  -0.1600 
 21 C       -6.7220    -4.0960    -1.4890 C.3   1 <1>   0.1200 
 22 C       -6.7920    -4.8090     1.9230 C.3   1 <1>  -0.1600 
 23 O       -7.9400    -4.2360    -2.1340 O.3   1 <1>  -0.6800 
 24 H       -4.4360    -0.1210    -2.4550 H     1 <1>   0.0800 
 25 H       -5.3210     1.1390    -1.6550 H     1 <1>   0.0800 
 26 H       -0.2530     1.9600     1.1140 H     1 <1>   0.1500 
 27 H        1.1120     0.4760    -0.1320 H     1 <1>   0.0800 
 28 H        0.5600     0.2200    -1.7670 H     1 <1>   0.0800 
 29 H        0.3270    -1.0230    -0.5600 H     1 <1>   0.0800 
 30 H       -2.4600     2.9220     1.6520 H     1 <1>   0.1500 
 31 H       -4.4310    -2.3970    -1.4430 H     1 <1>   0.0800 
 32 H       -3.7520    -1.7130     0.0180 H     1 <1>   0.0800 
 33 H       -7.2810    -0.0560    -1.4370 H     1 <1>   0.0800 
 34 H       -6.6150    -1.4080    -2.3130 H     1 <1>   0.0800 
 35 H       -5.6490    -2.3940     1.3090 H     1 <1>   0.0800 
 36 H       -7.7460    -1.4100     0.4860 H     1 <1>   0.0800 
 37 H       -8.5260    -2.0840    -0.9010 H     1 <1>   0.0800 
 38 H       -4.0980    -3.8450     1.6300 H     1 <1>   0.4500 
 39 H       -5.7170    -5.9730     0.5000 H     1 <1>   0.0800 
 40 H       -4.9310    -5.8750     2.0530 H     1 <1>   0.0800 
 41 H       -4.1670    -4.9730    -1.0960 H     1 <1>   0.0800 
 42 H       -3.1060    -5.5000     0.1920 H     1 <1>   0.0800 
 43 H       -2.9580    -3.8830    -0.4520 H     1 <1>   0.0800 
 44 H       -8.3260    -3.4180     1.4350 H     1 <1>   0.0800 
 45 H       -8.3090    -4.7930     0.4030 H     1 <1>   0.0800 
 46 H       -6.3460    -5.0850    -1.3010 H     1 <1>   0.0800 
 47 H       -6.0640    -3.6110    -2.1860 H     1 <1>   0.0800 
 48 H       -7.3410    -5.6440     2.3230 H     1 <1>   0.0800 
 49 H       -6.5690    -4.1550     2.7490 H     1 <1>   0.0800 
 50 H       -8.6080    -4.6770    -1.5720 H     1 <1>   0.4000 
@<TRIPOS>BOND
  1   1   2  1   
  2   2   3  ar  
  3   2   4  ar  
  4   3   5  ar  
  5   3   6  1   
  6   4   7  ar  
  7   4   8  1   
  8   5   9  1   
  9   5  10  ar  
 10   6  11  1   
 11   6  24  1   
 12   6  25  1   
 13   7  10  ar  
 14   7  26  1   
 15   8  27  1   
 16   8  28  1   
 17   8  29  1   
 18  10  30  1   
 19  11  12  1   
 20  11  13  1   
 21  12  14  1   
 22  12  31  1   
 23  12  32  1   
 24  13  15  1   
 25  13  33  1   
 26  13  34  1   
 27  14  16  1   
 28  14  17  1   
 29  14  35  1   
 30  15  17  1   
 31  15  36  1   
 32  15  37  1   
 33  16  18  1   
 34  16  19  1   
 35  16  38  1   
 36  17  20  1   
 37  17  21  1   
 38  18  22  1   
 39  18  39  1   
 40  18  40  1   
 41  19  41  1   
 42  19  42  1   
 43  19  43  1   
 44  20  22  1   
 45  20  44  1   
 46  20  45  1   
 47  21  23  1   
 48  21  46  1   
 49  21  47  1   
 50  22  48  1   
 51  22  49  1   
 52  23  50  1   
@<TRIPOS>SUBSTRUCTURE
  1 ****  12 GROUP 4 **** **** 0

# MOE 2024.06 (io_trps.svl 2023.06)
