@<TRIPOS>MOLECULE
NONAME
33 34 1 0 0 
SMALL
USER_CHARGES


@<TRIPOS>ATOM
  1 S        0.1410    -0.1360    -0.4540 S.3   1 <1>  -0.0800 
  2 C        1.1540     1.1370     0.2230 C.2   1 <1>  -0.0450 
  3 C        0.3390    -1.1940     0.9400 C.2   1 <1>  -0.0450 
  4 C        1.3660     2.3390    -0.5410 C.2   1 <1>   0.7150 
  5 C        1.5900     0.7240     1.4450 C.2   1 <1>  -0.1500 
  6 C       -0.2980    -2.4780     0.9800 C.2   1 <1>   0.5940 
  7 C        1.1400    -0.5620     1.8370 C.2   1 <1>  -0.1500 
  8 O        0.8150     2.5140    -1.6070 O.2   1 <1>  -0.5700 
  9 N        2.2250     3.2830    -0.0430 N.am  1 <1>  -0.4940 
 10 O       -0.1810    -3.2270     1.9170 O.2   1 <1>  -0.5700 
 11 C       -1.1570    -2.9440    -0.1770 C.3   1 <1>  -0.1790 
 12 C        2.5050     4.5510    -0.5010 C.2   1 <1>   0.4420 
 13 S        3.7580     5.4080     0.3320 S.3   1 <1>  -0.0800 
 14 N        1.9910     5.2430    -1.4500 N.2   1 <1>  -0.3380 
 15 C        3.4630     6.7410    -0.7360 C.2   1 <1>   0.1980 
 16 N        2.5420     6.4890    -1.5790 N.2   1 <1>  -0.3380 
 17 C        4.3180     7.9990    -0.5660 C.3   1 <1>   0.3800 
 18 O        4.4030     8.3170     0.7960 O.3   1 <1>  -0.5600 
 19 C        3.7320     9.2080    -1.3050 C.3   1 <1>  -0.2400 
 20 C        5.5460     9.0130     1.1890 C.3   1 <1>   0.0400 
 21 H        2.2240     1.2910     2.1030 H     1 <1>   0.1500 
 22 H        1.4220    -0.9920     2.7840 H     1 <1>   0.1500 
 23 H        2.7280     3.0080     0.7910 H     1 <1>   0.3700 
 24 H       -1.9770    -2.2650    -0.3210 H     1 <1>   0.0800 
 25 H       -1.5510    -3.9220     0.0320 H     1 <1>   0.0800 
 26 H       -0.5690    -2.9930    -1.0730 H     1 <1>   0.0800 
 27 H        5.3070     7.7820    -0.9330 H     1 <1>   0.0800 
 28 H        2.7590     9.4400    -0.9090 H     1 <1>   0.0800 
 29 H        3.6250     8.9760    -2.3490 H     1 <1>   0.0800 
 30 H        4.3720    10.0650    -1.2160 H     1 <1>   0.0800 
 31 H        5.4910     9.1690     2.2520 H     1 <1>   0.0800 
 32 H        5.5810     9.9660     0.6900 H     1 <1>   0.0800 
 33 H        6.4190     8.4290     0.9560 H     1 <1>   0.0800 
@<TRIPOS>BOND
  1   1   2  1   
  2   1   3  1   
  3   2   4  1   
  4   2   5  2   
  5   3   6  1   
  6   3   7  2   
  7   4   8  2   
  8   4   9  am  
  9   5   7  1   
 10   5  21  1   
 11   6  10  2   
 12   6  11  1   
 13   7  22  1   
 14   9  12  1   
 15   9  23  1   
 16  11  24  1   
 17  11  25  1   
 18  11  26  1   
 19  12  13  1   
 20  12  14  2   
 21  13  15  1   
 22  14  16  1   
 23  15  16  2   
 24  15  17  1   
 25  17  18  1   
 26  17  19  1   
 27  17  27  1   
 28  18  20  1   
 29  19  28  1   
 30  19  29  1   
 31  19  30  1   
 32  20  31  1   
 33  20  32  1   
 34  20  33  1   
@<TRIPOS>SUBSTRUCTURE
  1 ****   9 GROUP 4 **** **** 0

# MOE 2024.06 (io_trps.svl 2023.06)
