@<TRIPOS>MOLECULE
NONAME
48 49 1 0 0 
SMALL
USER_CHARGES


@<TRIPOS>ATOM
  1 F       -3.1020    -3.5020    -2.7430 F     1 <1>  -0.3400 
  2 C       -2.3580    -3.9730    -1.7520 C.3   1 <1>   1.0200 
  3 F       -1.4620    -4.7810    -2.2990 F     1 <1>  -0.3400 
  4 F       -1.6890    -2.9380    -1.2630 F     1 <1>  -0.3400 
  5 C       -3.1950    -4.6760    -0.6840 C.3   1 <1>  -0.1600 
  6 C       -4.2510    -3.7610    -0.0210 C.3   1 <1>  -0.0990 
  7 C       -5.0820    -4.4550     1.0500 C.2   1 <1>   0.5690 
  8 O       -4.7950    -5.5910     1.3510 O.2   1 <1>  -0.5700 
  9 N       -6.1310    -3.8030     1.6420 N.am  1 <1>  -0.6600 
 10 C       -7.0320    -4.5390     2.5770 C.3   1 <1>   0.1400 
 11 C       -6.6000    -2.4340     1.2930 C.3   1 <1>   0.1400 
 12 C       -8.0530    -5.4100     1.8250 C.3   1 <1>   0.1400 
 13 C       -7.7260    -2.4690     0.2520 C.3   1 <1>  -0.1600 
 14 N       -8.5770    -4.7820     0.5650 N.am  1 <1>  -0.6600 
 15 C       -8.9330    -3.3380     0.6340 C.3   1 <1>   0.1400 
 16 C       -8.6250    -5.4600    -0.6390 C.2   1 <1>   0.5440 
 17 O       -8.9590    -4.8590    -1.6430 O.2   1 <1>  -0.5700 
 18 C       -8.2830    -6.8670    -0.7320 C.ar  1 <1>   0.0860 
 19 C       -9.2420    -7.8870    -0.6770 C.ar  1 <1>  -0.1440 
 20 C       -6.9440    -7.2340    -0.8660 C.ar  1 <1>  -0.1500 
 21 C       -8.8520    -9.2140    -0.7560 C.ar  1 <1>  -0.1500 
 22 C      -10.7280    -7.5710    -0.5350 C.3   1 <1>  -0.0170 
 23 C       -6.5600    -8.5580    -0.9390 C.ar  1 <1>  -0.1500 
 24 C       -7.5170    -9.5530    -0.8850 C.ar  1 <1>  -0.1500 
 25 C      -11.3800    -7.4090    -1.9100 C.3   1 <1>  -0.2400 
 26 H       -2.5260    -5.0530     0.0680 H     1 <1>   0.0800 
 27 H       -3.6850    -5.5150    -1.1410 H     1 <1>   0.0800 
 28 H       -4.9200    -3.3940    -0.7780 H     1 <1>   0.0800 
 29 H       -3.7590    -2.9210     0.4350 H     1 <1>   0.0800 
 30 H       -7.5530    -3.8400     3.2060 H     1 <1>   0.0800 
 31 H       -6.4440    -5.1690     3.2230 H     1 <1>   0.0800 
 32 H       -5.7830    -1.8450     0.9160 H     1 <1>   0.0800 
 33 H       -6.9520    -1.9470     2.1860 H     1 <1>   0.0800 
 34 H       -8.8790    -5.6290     2.4770 H     1 <1>   0.0800 
 35 H       -7.5710    -6.3450     1.6020 H     1 <1>   0.0800 
 36 H       -7.3390    -2.8000    -0.6960 H     1 <1>   0.0800 
 37 H       -8.0740    -1.4630     0.1100 H     1 <1>   0.0800 
 38 H       -9.7370    -3.1440    -0.0570 H     1 <1>   0.0800 
 39 H       -9.2850    -3.0890     1.6190 H     1 <1>   0.0800 
 40 H       -6.1980    -6.4610    -0.9050 H     1 <1>   0.1500 
 41 H       -9.5900    -9.9970    -0.7190 H     1 <1>   0.1500 
 42 H      -10.8720    -6.6730     0.0400 H     1 <1>   0.0800 
 43 H      -11.2180    -8.3690    -0.0030 H     1 <1>   0.0800 
 44 H       -5.5190    -8.8140    -1.0370 H     1 <1>   0.1500 
 45 H       -7.2250   -10.5870    -0.9440 H     1 <1>   0.1500 
 46 H      -10.9200    -6.5950    -2.4440 H     1 <1>   0.0800 
 47 H      -12.4290    -7.1990    -1.8020 H     1 <1>   0.0800 
 48 H      -11.2620    -8.3080    -2.4870 H     1 <1>   0.0800 
@<TRIPOS>BOND
  1   1   2  1   
  2   2   3  1   
  3   2   4  1   
  4   2   5  1   
  5   5   6  1   
  6   5  26  1   
  7   5  27  1   
  8   6   7  1   
  9   6  28  1   
 10   6  29  1   
 11   7   8  2   
 12   7   9  am  
 13   9  10  1   
 14   9  11  1   
 15  10  12  1   
 16  10  30  1   
 17  10  31  1   
 18  11  13  1   
 19  11  32  1   
 20  11  33  1   
 21  12  14  1   
 22  12  34  1   
 23  12  35  1   
 24  13  15  1   
 25  13  36  1   
 26  13  37  1   
 27  14  15  1   
 28  14  16  am  
 29  15  38  1   
 30  15  39  1   
 31  16  17  2   
 32  16  18  1   
 33  18  19  ar  
 34  18  20  ar  
 35  19  21  ar  
 36  19  22  1   
 37  20  23  ar  
 38  20  40  1   
 39  21  24  ar  
 40  21  41  1   
 41  22  25  1   
 42  22  42  1   
 43  22  43  1   
 44  23  24  ar  
 45  23  44  1   
 46  24  45  1   
 47  25  46  1   
 48  25  47  1   
 49  25  48  1   
@<TRIPOS>SUBSTRUCTURE
  1 ****  20 GROUP 4 **** **** 0

# MOE 2024.06 (io_trps.svl 2023.06)
