@<TRIPOS>MOLECULE
NONAME
55 58 1 0 0 
SMALL
USER_CHARGES


@<TRIPOS>ATOM
  1 O        0.7820     1.0270    -1.0380 O.2   1 <1>  -0.5700 
  2 C        1.2040    -0.0770    -0.7780 C.2   1 <1>   0.5690 
  3 N        2.2460    -0.2160     0.1110 N.am  1 <1>  -0.6600 
  4 C        0.5630    -1.2700    -1.5150 C.3   1 <1>   0.1710 
  5 C        2.5450     0.8650     1.1070 C.3   1 <1>   0.1400 
  6 C        3.1200    -1.4220     0.1980 C.3   1 <1>   0.1400 
  7 N        0.2800    -2.4760    -0.6890 N.3   1 <1>  -0.8100 
  8 C        3.9430     1.5310     0.9700 C.3   1 <1>   0.4230 
  9 C        4.5790    -1.0830    -0.1820 C.3   1 <1>  -0.0800 
 10 C       -0.6910    -2.1640     0.3920 C.3   1 <1>   0.1100 
 11 C       -0.2570    -3.5710    -1.5350 C.3   1 <1>   0.1100 
 12 N        4.5520     1.5050    -0.4200 N.4   1 <1>  -0.9590 
 13 C        4.9320     1.0030     2.0320 C.3   1 <1>   0.1200 
 14 C        5.5370    -1.0570     1.0190 C.3   1 <1>   0.1200 
 15 C        4.6860     0.1580    -1.0850 C.3   1 <1>   0.3430 
 16 C       -1.0360    -3.4000     1.2450 C.3   1 <1>   0.2090 
 17 C       -0.5990    -4.8370    -0.7240 C.3   1 <1>   0.2090 
 18 C        3.7750     2.4140    -1.3230 C.3   1 <1>   0.2630 
 19 O        4.9710    -0.3880     2.0950 O.3   1 <1>  -0.5600 
 20 N       -1.5480    -4.5060     0.3810 N.pl3 1 <1>  -0.8380 
 21 C       -2.8700    -4.9000     0.3660 C.ar  1 <1>   0.7200 
 22 N       -3.1750    -5.9690    -0.3710 N.ar  1 <1>  -0.6200 
 23 N       -3.7310    -4.1790     1.0840 N.ar  1 <1>  -0.6200 
 24 C       -4.4320    -6.3370    -0.3730 C.ar  1 <1>   0.1600 
 25 C       -4.9820    -4.5690     1.0610 C.ar  1 <1>   0.1600 
 26 C       -5.3930    -5.6610     0.3370 C.ar  1 <1>  -0.1500 
 27 H        1.2230    -1.5450    -2.3170 H     1 <1>   0.0800 
 28 H       -0.3560    -0.9270    -1.9590 H     1 <1>   0.0800 
 29 H        1.8030     1.6400     1.0290 H     1 <1>   0.0800 
 30 H        2.4400     0.4560     2.0970 H     1 <1>   0.0800 
 31 H        3.0650    -1.8380     1.1910 H     1 <1>   0.0800 
 32 H        2.7660    -2.1810    -0.4770 H     1 <1>   0.0800 
 33 H        3.7990     2.5670     1.2270 H     1 <1>   0.0800 
 34 H        4.9170    -1.9050    -0.7870 H     1 <1>   0.0800 
 35 H       -0.2820    -1.4100     1.0400 H     1 <1>   0.0800 
 36 H       -1.6040    -1.7800    -0.0310 H     1 <1>   0.0800 
 37 H       -1.1510    -3.2420    -2.0360 H     1 <1>   0.0800 
 38 H        0.4690    -3.8320    -2.2850 H     1 <1>   0.0800 
 39 H        5.5000     1.8900    -0.3300 H     1 <1>   0.4500 
 40 H        4.6060     1.3370     3.0020 H     1 <1>   0.0800 
 41 H        5.9270     1.3790     1.8720 H     1 <1>   0.0800 
 42 H        6.4880    -0.6130     0.7770 H     1 <1>   0.0800 
 43 H        5.7160    -2.0660     1.3520 H     1 <1>   0.0800 
 44 H        3.9190     0.0670    -1.8370 H     1 <1>   0.0800 
 45 H        5.6320     0.1240    -1.6000 H     1 <1>   0.0800 
 46 H       -1.7510    -3.1270     2.0010 H     1 <1>   0.0800 
 47 H       -0.1480    -3.7350     1.7510 H     1 <1>   0.0800 
 48 H        0.3020    -5.2440    -0.3020 H     1 <1>   0.0800 
 49 H       -1.0100    -5.5760    -1.3870 H     1 <1>   0.0800 
 50 H        2.7700     2.0470    -1.4500 H     1 <1>   0.0800 
 51 H        4.2420     2.4730    -2.2920 H     1 <1>   0.0800 
 52 H        3.7240     3.4070    -0.9060 H     1 <1>   0.0800 
 53 H       -4.7030    -7.2010    -0.9560 H     1 <1>   0.1500 
 54 H       -5.6960    -4.0040     1.6350 H     1 <1>   0.1500 
 55 H       -6.4200    -5.9720     0.3270 H     1 <1>   0.1500 
@<TRIPOS>BOND
  1   1   2  2   
  2   2   3  am  
  3   2   4  1   
  4   3   5  1   
  5   3   6  1   
  6   4   7  1   
  7   4  27  1   
  8   4  28  1   
  9   5   8  1   
 10   5  29  1   
 11   5  30  1   
 12   6   9  1   
 13   6  31  1   
 14   6  32  1   
 15   7  10  1   
 16   7  11  1   
 17   8  12  1   
 18   8  13  1   
 19   8  33  1   
 20   9  14  1   
 21   9  15  1   
 22   9  34  1   
 23  10  16  1   
 24  10  35  1   
 25  10  36  1   
 26  11  17  1   
 27  11  37  1   
 28  11  38  1   
 29  12  15  1   
 30  12  18  1   
 31  12  39  1   
 32  13  19  1   
 33  13  40  1   
 34  13  41  1   
 35  14  19  1   
 36  14  42  1   
 37  14  43  1   
 38  15  44  1   
 39  15  45  1   
 40  16  20  1   
 41  16  46  1   
 42  16  47  1   
 43  17  20  1   
 44  17  48  1   
 45  17  49  1   
 46  18  50  1   
 47  18  51  1   
 48  18  52  1   
 49  20  21  1   
 50  21  22  ar  
 51  21  23  ar  
 52  22  24  ar  
 53  23  25  ar  
 54  24  26  ar  
 55  24  53  1   
 56  25  26  ar  
 57  25  54  1   
 58  26  55  1   
@<TRIPOS>SUBSTRUCTURE
  1 ****   7 GROUP 4 **** **** 0

# MOE 2024.06 (io_trps.svl 2023.06)
