@<TRIPOS>MOLECULE
NONAME
72 75 1 0 0 
SMALL
USER_CHARGES


@<TRIPOS>ATOM
  1 O       -3.2040    -1.9850     0.5530 O.3   1 <1>  -0.5600 
  2 C       -2.7710    -1.1690     1.6100 C.3   1 <1>   0.1200 
  3 C       -3.2890    -1.3250    -0.6810 C.3   1 <1>   0.1200 
  4 C       -3.6810     0.0740     1.7660 C.3   1 <1>   0.3430 
  5 C       -4.2850    -0.1440    -0.6060 C.3   1 <1>   0.3430 
  6 N       -4.8230     0.0300     0.7900 N.4   1 <1>  -0.9590 
  7 C       -5.7670     1.1680     0.9540 C.3   1 <1>   0.3430 
  8 C       -7.1180     0.8430     0.3090 C.3   1 <1>  -0.1600 
  9 C       -8.0860     2.0110     0.5090 C.3   1 <1>   0.1200 
 10 O       -9.3330     1.6960    -0.0840 O.3   1 <1>  -0.3630 
 11 C      -10.2460     2.6910    -0.2800 C.ar  1 <1>   0.0830 
 12 C      -11.2970     2.4530    -1.1600 C.ar  1 <1>  -0.1430 
 13 C      -10.1630     3.9260     0.3610 C.ar  1 <1>  -0.1500 
 14 C      -12.2280     3.4500    -1.4180 C.ar  1 <1>  -0.1500 
 15 C      -11.4500     1.1060    -1.8320 C.3   1 <1>   0.4860 
 16 C      -11.0990     4.9110     0.1060 C.ar  1 <1>  -0.1500 
 17 C      -12.1280     4.6760    -0.7860 C.ar  1 <1>  -0.1500 
 18 N      -11.8260     0.1000    -0.7950 N.4   1 <1>  -0.9590 
 19 C      -11.8860    -1.2900    -1.3770 C.3   1 <1>   0.3430 
 20 C      -13.1090     0.4920    -0.1310 C.3   1 <1>   0.3430 
 21 C      -12.3510    -2.3860    -0.3630 C.3   1 <1>   0.4230 
 22 C      -13.4760    -0.5340     0.9440 C.3   1 <1>  -0.1600 
 23 N      -12.3940    -3.8140    -0.9080 N.4   1 <1>  -0.9590 
 24 C      -13.6440    -1.9810     0.4050 C.3   1 <1>   0.0000 
 25 C      -13.1590    -4.7730    -0.0370 C.3   1 <1>   0.3430 
 26 C      -12.8970    -3.9410    -2.3190 C.3   1 <1>   0.2630 
 27 C      -13.8090    -2.9340     1.6220 C.3   1 <1>  -0.1600 
 28 C      -14.9390    -2.0610    -0.4560 C.3   1 <1>   0.1200 
 29 C      -13.1550    -4.3180     1.4230 C.3   1 <1>  -0.1600 
 30 O      -14.7790    -1.4410    -1.6870 O.3   1 <1>  -0.6800 
 31 H       -2.7930    -1.7600     2.5090 H     1 <1>   0.0800 
 32 H       -1.7510    -0.8760     1.4260 H     1 <1>   0.0800 
 33 H       -2.3060    -0.9820    -0.9580 H     1 <1>   0.0800 
 34 H       -3.6130    -2.0410    -1.4160 H     1 <1>   0.0800 
 35 H       -3.0910     0.9620     1.6060 H     1 <1>   0.0800 
 36 H       -4.0540     0.1090     2.7770 H     1 <1>   0.0800 
 37 H       -5.0920    -0.3280    -1.2950 H     1 <1>   0.0800 
 38 H       -3.7850     0.7560    -0.9260 H     1 <1>   0.0800 
 39 H       -5.2980    -0.8600     1.0050 H     1 <1>   0.4500 
 40 H       -5.9200     1.3570     2.0050 H     1 <1>   0.0800 
 41 H       -5.3480     2.0580     0.5110 H     1 <1>   0.0800 
 42 H       -7.5320    -0.0360     0.7700 H     1 <1>   0.0800 
 43 H       -6.9930     0.6810    -0.7460 H     1 <1>   0.0800 
 44 H       -7.7010     2.8980     0.0320 H     1 <1>   0.0800 
 45 H       -8.2530     2.2020     1.5570 H     1 <1>   0.0800 
 46 H       -9.3850     4.1530     1.0660 H     1 <1>   0.1500 
 47 H      -13.0390     3.2920    -2.1090 H     1 <1>   0.1500 
 48 H      -10.5140     0.8370    -2.2930 H     1 <1>   0.0800 
 49 H      -12.2090     1.1600    -2.5960 H     1 <1>   0.0800 
 50 H      -11.0280     5.8660     0.6000 H     1 <1>   0.1500 
 51 H      -12.8500     5.4510    -0.9870 H     1 <1>   0.1500 
 52 H      -11.0770     0.1930    -0.0910 H     1 <1>   0.4500 
 53 H      -12.5720    -1.2800    -2.2070 H     1 <1>   0.0800 
 54 H      -10.9130    -1.5550    -1.7520 H     1 <1>   0.0800 
 55 H      -13.0040     1.4640     0.3290 H     1 <1>   0.0800 
 56 H      -13.8990     0.5570    -0.8620 H     1 <1>   0.0800 
 57 H      -11.5840    -2.3920     0.3940 H     1 <1>   0.0800 
 58 H      -12.7140    -0.4980     1.7030 H     1 <1>   0.0800 
 59 H      -14.3920    -0.2170     1.4130 H     1 <1>   0.0800 
 60 H      -11.4240    -4.1670    -0.9040 H     1 <1>   0.4500 
 61 H      -14.1820    -4.8350    -0.3720 H     1 <1>   0.0800 
 62 H      -12.7310    -5.7610    -0.1120 H     1 <1>   0.0800 
 63 H      -13.9140    -3.5900    -2.3920 H     1 <1>   0.0800 
 64 H      -12.8730    -4.9730    -2.6330 H     1 <1>   0.0800 
 65 H      -12.2870    -3.3700    -2.9990 H     1 <1>   0.0800 
 66 H      -13.3770    -2.5060     2.5120 H     1 <1>   0.0800 
 67 H      -14.8570    -3.0670     1.8410 H     1 <1>   0.0800 
 68 H      -15.7570    -1.5780     0.0550 H     1 <1>   0.0800 
 69 H      -15.2260    -3.0810    -0.6420 H     1 <1>   0.0800 
 70 H      -13.6830    -5.0440     2.0190 H     1 <1>   0.0800 
 71 H      -12.1400    -4.3050     1.7830 H     1 <1>   0.0800 
 72 H      -15.6510    -1.3540    -2.1390 H     1 <1>   0.4000 
@<TRIPOS>BOND
  1   1   2  1   
  2   1   3  1   
  3   2   4  1   
  4   2  31  1   
  5   2  32  1   
  6   3   5  1   
  7   3  33  1   
  8   3  34  1   
  9   4   6  1   
 10   4  35  1   
 11   4  36  1   
 12   5   6  1   
 13   5  37  1   
 14   5  38  1   
 15   6   7  1   
 16   6  39  1   
 17   7   8  1   
 18   7  40  1   
 19   7  41  1   
 20   8   9  1   
 21   8  42  1   
 22   8  43  1   
 23   9  10  1   
 24   9  44  1   
 25   9  45  1   
 26  10  11  1   
 27  11  12  ar  
 28  11  13  ar  
 29  12  14  ar  
 30  12  15  1   
 31  13  16  ar  
 32  13  46  1   
 33  14  17  ar  
 34  14  47  1   
 35  15  18  1   
 36  15  48  1   
 37  15  49  1   
 38  16  17  ar  
 39  16  50  1   
 40  17  51  1   
 41  18  19  1   
 42  18  20  1   
 43  18  52  1   
 44  19  21  1   
 45  19  53  1   
 46  19  54  1   
 47  20  22  1   
 48  20  55  1   
 49  20  56  1   
 50  21  23  1   
 51  21  24  1   
 52  21  57  1   
 53  22  24  1   
 54  22  58  1   
 55  22  59  1   
 56  23  25  1   
 57  23  26  1   
 58  23  60  1   
 59  24  27  1   
 60  24  28  1   
 61  25  29  1   
 62  25  61  1   
 63  25  62  1   
 64  26  63  1   
 65  26  64  1   
 66  26  65  1   
 67  27  29  1   
 68  27  66  1   
 69  27  67  1   
 70  28  30  1   
 71  28  68  1   
 72  28  69  1   
 73  29  70  1   
 74  29  71  1   
 75  30  72  1   
@<TRIPOS>SUBSTRUCTURE
  1 ****  18 GROUP 4 **** **** 0

# MOE 2024.06 (io_trps.svl 2023.06)
