@<TRIPOS>MOLECULE
NONAME
39 41 1 0 0 
SMALL
USER_CHARGES


@<TRIPOS>ATOM
  1 O       -2.7790     1.8080    -0.9220 O.2   1 <1>  -0.5700 
  2 C       -2.3730     1.3020     0.0980 C.2   1 <1>   0.5690 
  3 N       -2.1050    -0.0260     0.1750 N.am  1 <1>  -0.7300 
  4 C       -2.1530     2.1830     1.3020 C.3   1 <1>   0.1570 
  5 C       -2.1660    -0.9730    -0.9650 C.3   1 <1>   0.2200 
  6 N       -0.7890     2.7040     1.2410 N.pl3 1 <1>   0.3140 
  7 C       -3.3460    -1.9280    -0.8320 C.3   1 <1>  -0.0800 
  8 C       -1.0050    -1.9500    -0.8420 C.3   1 <1>   0.1200 
  9 N        0.1610     2.3800     2.1000 N.2   1 <1>  -0.4180 
 10 C       -0.2630     3.5320     0.3410 C.2   1 <1>   0.2700 
 11 C       -2.7960    -3.0400     0.0700 C.3   1 <1>   0.1200 
 12 C       -4.6650    -1.3050    -0.3390 C.3   1 <1>  -0.0170 
 13 O       -1.4110    -2.8580     0.1340 O.3   1 <1>  -0.5600 
 14 N        1.2110     3.0090     1.7170 N.2   1 <1>   0.0000 
 15 N        0.9700     3.7330     0.6230 N.2   1 <1>  -0.3380 
 16 N       -0.9120     4.0920    -0.7480 N.pl3 1 <1>  -0.8840 
 17 C       -5.7870    -2.3310    -0.3500 C.ar  1 <1>  -0.1440 
 18 C       -6.4750    -2.6400    -1.5060 C.ar  1 <1>  -0.1500 
 19 C       -6.1750    -3.0090     0.7880 C.ar  1 <1>  -0.1500 
 20 C       -7.4850    -3.5870    -1.4710 C.ar  1 <1>   0.1600 
 21 C       -7.1990    -3.9390     0.7160 C.ar  1 <1>   0.1600 
 22 N       -7.8620    -4.2460    -0.3870 N.ar  1 <1>  -0.6200 
 23 H       -1.7180    -0.4530     1.0230 H     1 <1>   0.3700 
 24 H       -2.2820     1.6250     2.2090 H     1 <1>   0.0800 
 25 H       -2.8400     3.0070     1.2840 H     1 <1>   0.0800 
 26 H       -2.1600    -0.4460    -1.9050 H     1 <1>   0.0800 
 27 H       -3.5250    -2.3630    -1.8000 H     1 <1>   0.0800 
 28 H       -0.0860    -1.4760    -0.5420 H     1 <1>   0.0800 
 29 H       -0.8580    -2.4920    -1.7600 H     1 <1>   0.0800 
 30 H       -3.0020    -4.0170    -0.3330 H     1 <1>   0.0800 
 31 H       -3.1800    -2.9730     1.0730 H     1 <1>   0.0800 
 32 H       -4.9320    -0.4810    -0.9790 H     1 <1>   0.0800 
 33 H       -4.5500    -0.9160     0.6570 H     1 <1>   0.0800 
 34 H       -1.6100     3.4950    -1.2200 H     1 <1>   0.4000 
 35 H       -0.2790     4.5380    -1.4180 H     1 <1>   0.4000 
 36 H       -6.2370    -2.1530    -2.4350 H     1 <1>   0.1500 
 37 H       -5.6950    -2.8250     1.7310 H     1 <1>   0.1500 
 38 H       -8.0110    -3.8140    -2.3820 H     1 <1>   0.1500 
 39 H       -7.4890    -4.4580     1.6130 H     1 <1>   0.1500 
@<TRIPOS>BOND
  1   1   2  2   
  2   2   3  am  
  3   2   4  1   
  4   3   5  1   
  5   3  23  1   
  6   4   6  1   
  7   4  24  1   
  8   4  25  1   
  9   5   7  1   
 10   5   8  1   
 11   5  26  1   
 12   6   9  1   
 13   6  10  1   
 14   7  11  1   
 15   7  12  1   
 16   7  27  1   
 17   8  13  1   
 18   8  28  1   
 19   8  29  1   
 20   9  14  2   
 21  10  15  2   
 22  10  16  1   
 23  11  13  1   
 24  11  30  1   
 25  11  31  1   
 26  12  17  1   
 27  12  32  1   
 28  12  33  1   
 29  14  15  1   
 30  16  34  1   
 31  16  35  1   
 32  17  18  ar  
 33  17  19  ar  
 34  18  20  ar  
 35  18  36  1   
 36  19  21  ar  
 37  19  37  1   
 38  20  22  ar  
 39  20  38  1   
 40  21  22  ar  
 41  21  39  1   
@<TRIPOS>SUBSTRUCTURE
  1 ****   3 GROUP 4 **** **** 0

# MOE 2024.06 (io_trps.svl 2023.06)
