@<TRIPOS>MOLECULE
NONAME
45 47 1 0 0 
SMALL
USER_CHARGES


@<TRIPOS>ATOM
  1 S        0.4180     1.3090     0.2060 S.o2  1 <1>   1.0900 
  2 O        1.0980     0.0650     0.4730 O.2   1 <1>  -0.6500 
  3 O        1.0800     2.4360    -0.4070 O.2   1 <1>  -0.6500 
  4 C       -1.0750     0.9930    -0.7050 C.3   1 <1>  -0.0550 
  5 C       -0.4180     1.8910     1.6750 C.3   1 <1>  -0.0550 
  6 C       -2.1240     1.9480    -0.1340 C.3   1 <1>   0.0250 
  7 C       -1.9310     1.9080     1.3980 C.3   1 <1>  -0.1600 
  8 S       -3.7930     1.5430    -0.6870 S.o2  1 <1>   1.3330 
  9 O       -3.8800     1.7730    -2.1110 O.2   1 <1>  -0.6500 
 10 O       -4.1210     0.2430    -0.1500 O.2   1 <1>  -0.6500 
 11 N       -4.7400     2.7110     0.0950 N.am  1 <1>  -0.8490 
 12 C       -4.8020     3.9730    -0.6510 C.3   1 <1>   0.1960 
 13 C       -6.0860     2.2150     0.4030 C.3   1 <1>   0.1960 
 14 C       -5.4820     5.0490     0.1910 C.3   1 <1>  -0.1600 
 15 C       -6.8380     3.2310     1.2630 C.3   1 <1>  -0.1600 
 16 C       -6.8870     4.6160     0.6190 C.3   1 <1>   0.4180 
 17 O       -7.3340     5.4810     1.6280 O.3   1 <1>  -0.5600 
 18 C       -7.8650     4.6300    -0.5600 C.2   1 <1>  -0.2880 
 19 C       -7.8360     6.7270     1.2330 C.3   1 <1>   0.1200 
 20 C       -8.8790     5.4900    -0.6770 C.2   1 <1>  -0.2760 
 21 C       -9.1020     6.5530     0.3840 C.3   1 <1>  -0.0220 
 22 C       -9.8780     5.4920    -1.8200 C.3   1 <1>  -0.1020 
 23 H       -1.3910    -0.0210    -0.5400 H     1 <1>   0.0800 
 24 H       -0.9360     1.1470    -1.7590 H     1 <1>   0.0800 
 25 H       -0.0810     2.8850     1.9030 H     1 <1>   0.0800 
 26 H       -0.2000     1.2590     2.5150 H     1 <1>   0.0800 
 27 H       -1.8800     2.9380    -0.4720 H     1 <1>   0.0800 
 28 H       -2.4110     2.7450     1.8760 H     1 <1>   0.0800 
 29 H       -2.3670     1.0020     1.7860 H     1 <1>   0.0800 
 30 H       -5.3370     3.8300    -1.5770 H     1 <1>   0.0800 
 31 H       -3.8060     4.3020    -0.8950 H     1 <1>   0.0800 
 32 H       -6.0190     1.2930     0.9570 H     1 <1>   0.0800 
 33 H       -6.6220     2.0130    -0.5100 H     1 <1>   0.0800 
 34 H       -5.5400     5.9530    -0.3860 H     1 <1>   0.0800 
 35 H       -4.8840     5.2350     1.0640 H     1 <1>   0.0800 
 36 H       -6.3410     3.2990     2.2140 H     1 <1>   0.0800 
 37 H       -7.8400     2.8830     1.4330 H     1 <1>   0.0800 
 38 H       -7.6670     3.8720    -1.2940 H     1 <1>   0.1500 
 39 H       -7.0750     7.2450     0.6770 H     1 <1>   0.0800 
 40 H       -8.0570     7.2890     2.1230 H     1 <1>   0.0800 
 41 H       -9.3380     7.4960    -0.0750 H     1 <1>   0.0800 
 42 H       -9.9250     6.2700     1.0150 H     1 <1>   0.0800 
 43 H      -10.8740     5.3430    -1.4410 H     1 <1>   0.0800 
 44 H       -9.6570     4.7010    -2.5150 H     1 <1>   0.0800 
 45 H       -9.8410     6.4290    -2.3460 H     1 <1>   0.0800 
@<TRIPOS>BOND
  1   1   2  2   
  2   1   3  2   
  3   1   4  1   
  4   1   5  1   
  5   4   6  1   
  6   4  23  1   
  7   4  24  1   
  8   5   7  1   
  9   5  25  1   
 10   5  26  1   
 11   6   7  1   
 12   6   8  1   
 13   6  27  1   
 14   7  28  1   
 15   7  29  1   
 16   8   9  2   
 17   8  10  2   
 18   8  11  am  
 19  11  12  1   
 20  11  13  1   
 21  12  14  1   
 22  12  30  1   
 23  12  31  1   
 24  13  15  1   
 25  13  32  1   
 26  13  33  1   
 27  14  16  1   
 28  14  34  1   
 29  14  35  1   
 30  15  16  1   
 31  15  36  1   
 32  15  37  1   
 33  16  17  1   
 34  16  18  1   
 35  17  19  1   
 36  18  20  2   
 37  18  38  1   
 38  19  21  1   
 39  19  39  1   
 40  19  40  1   
 41  20  21  1   
 42  20  22  1   
 43  21  41  1   
 44  21  42  1   
 45  22  43  1   
 46  22  44  1   
 47  22  45  1   
@<TRIPOS>SUBSTRUCTURE
  1 ****  11 GROUP 4 **** **** 0

# MOE 2024.06 (io_trps.svl 2023.06)
