@<TRIPOS>MOLECULE
NONAME
24 25 1 0 0 
SMALL
USER_CHARGES


@<TRIPOS>ATOM
  1 N       -0.1530    -0.1740    -0.1650 N.ar  1 <1>  -0.6200 
  2 C       -0.1990    -1.4560     0.1360 C.ar  1 <1>   0.1600 
  3 C       -1.3220     0.4420    -0.2210 C.ar  1 <1>   0.1600 
  4 C       -1.3620    -2.1810     0.3660 C.ar  1 <1>  -0.1080 
  5 C       -2.5460    -0.1680     0.0110 C.ar  1 <1>  -0.1430 
  6 C       -2.5730    -1.5130     0.3140 C.ar  1 <1>  -0.1500 
  7 C       -1.2960    -3.6710     0.6760 C.3   1 <1>   0.1080 
  8 C       -3.8410     0.6260    -0.0650 C.3   1 <1>  -0.0960 
  9 C       -0.3480    -4.4750    -0.2460 C.3   1 <1>   0.4720 
 10 C       -2.4210    -4.5180     0.0350 C.3   1 <1>   0.4720 
 11 N       -1.3870    -5.5560    -0.2830 N.4   1 <1>  -0.8440 
 12 H        0.7580    -1.9460     0.2000 H     1 <1>   0.1500 
 13 H       -1.3010     1.4920    -0.4620 H     1 <1>   0.1500 
 14 H       -3.5140    -1.9980     0.5040 H     1 <1>   0.1500 
 15 H       -1.1500    -3.8890     1.7200 H     1 <1>   0.0000 
 16 H       -3.6430     1.6830    -0.0490 H     1 <1>   0.0800 
 17 H       -4.4730     0.3890     0.7720 H     1 <1>   0.0800 
 18 H       -4.3650     0.3900    -0.9740 H     1 <1>   0.0800 
 19 H        0.5630    -4.7980     0.2240 H     1 <1>   0.0000 
 20 H       -0.2210    -4.0280    -1.2160 H     1 <1>   0.0000 
 21 H       -2.8200    -4.0820    -0.8630 H     1 <1>   0.0000 
 22 H       -3.1600    -4.8750     0.7290 H     1 <1>   0.0000 
 23 H       -1.2710    -6.2440     0.4680 H     1 <1>   0.4500 
 24 H       -1.5040    -5.9810    -1.2100 H     1 <1>   0.4500 
@<TRIPOS>BOND
  1   1   2  ar  
  2   1   3  ar  
  3   2   4  ar  
  4   2  12  1   
  5   3   5  ar  
  6   3  13  1   
  7   4   6  ar  
  8   4   7  1   
  9   5   6  ar  
 10   5   8  1   
 11   6  14  1   
 12   7   9  1   
 13   7  10  1   
 14   7  15  1   
 15   8  16  1   
 16   8  17  1   
 17   8  18  1   
 18   9  11  1   
 19   9  19  1   
 20   9  20  1   
 21  10  11  1   
 22  10  21  1   
 23  10  22  1   
 24  11  23  1   
 25  11  24  1   
@<TRIPOS>SUBSTRUCTURE
  1 ****   4 GROUP 4 **** **** 0

# MOE 2024.06 (io_trps.svl 2023.06)
