@<TRIPOS>MOLECULE
NONAME
52 54 1 0 0 
SMALL
USER_CHARGES


@<TRIPOS>ATOM
  1 O        1.6500     0.6770    -0.3730 O.2   1 <1>  -0.5700 
  2 C        2.3350    -0.2900    -0.0720 C.2   1 <1>   0.7160 
  3 N        3.6980    -0.2050    -0.3120 N.am  1 <1>  -0.6600 
  4 C        1.6930    -1.4690     0.5140 C.2   1 <1>   0.1410 
  5 C        4.6510    -1.3510    -0.1660 C.3   1 <1>   0.1400 
  6 C        4.3460     1.0850    -0.6780 C.3   1 <1>   0.1400 
  7 N        2.2480    -2.2250     1.5150 N.2   1 <1>  -0.5650 
  8 C        0.4660    -2.0020     0.2120 C.2   1 <1>  -0.3320 
  9 C        5.4430    -1.2950     1.1510 C.3   1 <1>   0.1400 
 10 C        4.6660     1.9140     0.5730 C.3   1 <1>  -0.1600 
 11 C        1.3770    -3.1370     1.7760 C.2   1 <1>   0.0360 
 12 N        0.2700    -3.0540     1.0160 N.pl3 1 <1>   0.0330 
 13 C       -0.5690    -1.5640    -0.8140 C.3   1 <1>  -0.0600 
 14 N        6.1280     0.0250     1.3380 N.am  1 <1>  -0.6600 
 15 C        5.1980     1.1100     1.7680 C.3   1 <1>   0.1400 
 16 C        7.4600     0.1720     1.0430 C.2   1 <1>   0.5690 
 17 O        8.1370    -0.7620     0.6810 O.2   1 <1>  -0.5700 
 18 C        8.1490     1.5210     1.1080 C.3   1 <1>  -0.0990 
 19 C        8.3250     2.0940    -0.3000 C.3   1 <1>   0.0210 
 20 C        8.7580     3.5440    -0.2280 C.2   1 <1>   0.1080 
 21 N        7.8990     4.5010    -0.0690 N.2   1 <1>  -0.7070 
 22 C       10.0680     4.0140    -0.3090 C.2   1 <1>  -0.1810 
 23 N        8.6430     5.6210    -0.0500 N.pl3 1 <1>   0.3000 
 24 C        9.9590     5.3560    -0.1920 C.2   1 <1>  -0.3320 
 25 C       11.3120     3.1610    -0.4870 C.3   1 <1>  -0.0590 
 26 C       11.0180     6.4460    -0.2030 C.3   1 <1>  -0.0600 
 27 H        5.3470    -1.3400    -0.9860 H     1 <1>   0.0800 
 28 H        4.1210    -2.2840    -0.2210 H     1 <1>   0.0800 
 29 H        3.7040     1.6490    -1.3330 H     1 <1>   0.0800 
 30 H        5.2570     0.8830    -1.2140 H     1 <1>   0.0800 
 31 H        6.1690    -2.0890     1.1520 H     1 <1>   0.0800 
 32 H        4.7790    -1.4770     1.9770 H     1 <1>   0.0800 
 33 H        3.7700     2.4220     0.8830 H     1 <1>   0.0800 
 34 H        5.3740     2.6790     0.3120 H     1 <1>   0.0800 
 35 H        1.5000    -3.9010     2.5240 H     1 <1>   0.1500 
 36 H       -0.5490    -3.6690     1.0560 H     1 <1>   0.2700 
 37 H       -0.1900    -0.7660    -1.4260 H     1 <1>   0.0800 
 38 H       -1.4570    -1.2150    -0.3180 H     1 <1>   0.0800 
 39 H       -0.8270    -2.3860    -1.4580 H     1 <1>   0.0800 
 40 H        4.3590     0.6650     2.2770 H     1 <1>   0.0800 
 41 H        5.6760     1.7630     2.4760 H     1 <1>   0.0800 
 42 H        9.1140     1.3940     1.5620 H     1 <1>   0.0800 
 43 H        7.6010     2.2150     1.7130 H     1 <1>   0.0800 
 44 H        7.3950     2.0470    -0.8350 H     1 <1>   0.0800 
 45 H        9.0450     1.5130    -0.8460 H     1 <1>   0.0800 
 46 H        8.2250     6.5510     0.0610 H     1 <1>   0.2700 
 47 H       11.3520     2.4090     0.2800 H     1 <1>   0.0800 
 48 H       12.2020     3.7580    -0.4250 H     1 <1>   0.0800 
 49 H       11.2880     2.6790    -1.4480 H     1 <1>   0.0800 
 50 H       11.9970     6.0290    -0.3460 H     1 <1>   0.0800 
 51 H       11.0090     6.9780     0.7310 H     1 <1>   0.0800 
 52 H       10.8250     7.1390    -1.0020 H     1 <1>   0.0800 
@<TRIPOS>BOND
  1   1   2  2   
  2   2   3  am  
  3   2   4  1   
  4   3   5  1   
  5   3   6  1   
  6   4   7  1   
  7   4   8  2   
  8   5   9  1   
  9   5  27  1   
 10   5  28  1   
 11   6  10  1   
 12   6  29  1   
 13   6  30  1   
 14   7  11  2   
 15   8  12  1   
 16   8  13  1   
 17   9  14  1   
 18   9  31  1   
 19   9  32  1   
 20  10  15  1   
 21  10  33  1   
 22  10  34  1   
 23  11  12  1   
 24  11  35  1   
 25  12  36  1   
 26  13  37  1   
 27  13  38  1   
 28  13  39  1   
 29  14  15  1   
 30  14  16  am  
 31  15  40  1   
 32  15  41  1   
 33  16  17  2   
 34  16  18  1   
 35  18  19  1   
 36  18  42  1   
 37  18  43  1   
 38  19  20  1   
 39  19  44  1   
 40  19  45  1   
 41  20  21  2   
 42  20  22  1   
 43  21  23  1   
 44  22  24  2   
 45  22  25  1   
 46  23  24  1   
 47  23  46  1   
 48  24  26  1   
 49  25  47  1   
 50  25  48  1   
 51  25  49  1   
 52  26  50  1   
 53  26  51  1   
 54  26  52  1   
@<TRIPOS>SUBSTRUCTURE
  1 ****  10 GROUP 4 **** **** 0

# MOE 2024.06 (io_trps.svl 2023.06)
