@<TRIPOS>MOLECULE
NONAME
51 53 1 0 0 
SMALL
USER_CHARGES


@<TRIPOS>ATOM
  1 S        0.0460     0.0390     0.1000 S.o2  1 <1>   1.3330 
  2 O        0.0290    -0.7990     1.2780 O.2   1 <1>  -0.6500 
  3 O       -0.6550     1.3030     0.1100 O.2   1 <1>  -0.6500 
  4 N       -0.5210    -0.8820    -1.2080 N.am  1 <1>  -0.8490 
  5 C        1.7450     0.3750    -0.3660 C.3   1 <1>  -0.0550 
  6 C       -0.2360    -2.3150    -1.0800 C.3   1 <1>   0.1160 
  7 C       -1.9510    -0.6780    -1.4560 C.3   1 <1>   0.1160 
  8 C        2.4710     1.3210     0.6120 C.3   1 <1>  -0.0800 
  9 C        3.8380     1.7270     0.0790 C.3   1 <1>   0.2200 
 10 C        2.8040     0.6320     1.9470 C.3   1 <1>   0.1200 
 11 N        4.1720     3.0720     0.6030 N.am  1 <1>  -0.7300 
 12 C        4.7430     0.7010     0.7430 C.3   1 <1>   0.1200 
 13 O        4.1960     0.5290     2.0100 O.3   1 <1>  -0.5600 
 14 C        4.3470     4.1840    -0.1530 C.2   1 <1>   0.5690 
 15 O        4.2850     4.1470    -1.3560 O.2   1 <1>  -0.5700 
 16 C        4.6410     5.5100     0.5180 C.3   1 <1>   0.0690 
 17 C        5.8980     6.1720    -0.0340 C.2   1 <1>   0.1820 
 18 N        6.4090     7.3420     0.5050 N.pl3 1 <1>  -0.6290 
 19 C        6.6990     5.8060    -1.0580 C.2   1 <1>   0.2000 
 20 C        7.5190     7.6600    -0.2090 C.cat 1 <1>   0.7910 
 21 C        6.0000     8.1570     1.5390 C.2   1 <1>   0.2290 
 22 N        7.7030     6.7300    -1.1590 N.pl3 1 <1>  -0.7000 
 23 C        8.2780     8.8130     0.0910 C.2   1 <1>  -0.1290 
 24 C        6.7140     9.2770     1.8500 C.2   1 <1>  -0.1500 
 25 C        7.8710     9.6180     1.1220 C.2   1 <1>  -0.1500 
 26 C        9.5240     9.1540    -0.7190 C.3   1 <1>  -0.1020 
 27 H        2.2850    -0.5480    -0.4470 H     1 <1>   0.0800 
 28 H        1.7340     0.8340    -1.3360 H     1 <1>   0.0800 
 29 H       -0.5320    -2.8330    -1.9770 H     1 <1>   0.0800 
 30 H       -0.7700    -2.7320    -0.2420 H     1 <1>   0.0800 
 31 H        0.8190    -2.4730    -0.9300 H     1 <1>   0.0800 
 32 H       -2.2720    -1.2630    -2.3010 H     1 <1>   0.0800 
 33 H       -2.1430     0.3600    -1.6750 H     1 <1>   0.0800 
 34 H       -2.5260    -0.9590    -0.5890 H     1 <1>   0.0800 
 35 H        1.8480     2.1850     0.7710 H     1 <1>   0.0800 
 36 H        3.9080     1.7040    -0.9960 H     1 <1>   0.0800 
 37 H        2.3940    -0.3600     2.0210 H     1 <1>   0.0800 
 38 H        2.4740     1.2180     2.7880 H     1 <1>   0.0800 
 39 H        4.2510     3.0830     1.6250 H     1 <1>   0.3700 
 40 H        5.7630     1.0310     0.8280 H     1 <1>   0.0800 
 41 H        4.7020    -0.2450     0.2310 H     1 <1>   0.0800 
 42 H        3.8000     6.1590     0.3600 H     1 <1>   0.0800 
 43 H        4.7570     5.3550     1.5740 H     1 <1>   0.0800 
 44 H        6.6180     4.9560    -1.7200 H     1 <1>   0.1500 
 45 H        5.1110     7.8860     2.0870 H     1 <1>   0.1500 
 46 H        8.4620     6.7340    -1.8420 H     1 <1>   0.4500 
 47 H        6.4050     9.9210     2.6570 H     1 <1>   0.1500 
 48 H        8.4110    10.5100     1.3970 H     1 <1>   0.1500 
 49 H       10.2510     8.3640    -0.6410 H     1 <1>   0.0800 
 50 H        9.9790    10.0610    -0.3600 H     1 <1>   0.0800 
 51 H        9.2710     9.2960    -1.7550 H     1 <1>   0.0800 
@<TRIPOS>BOND
  1   1   2  2   
  2   1   3  2   
  3   1   4  am  
  4   1   5  1   
  5   4   6  1   
  6   4   7  1   
  7   5   8  1   
  8   5  27  1   
  9   5  28  1   
 10   6  29  1   
 11   6  30  1   
 12   6  31  1   
 13   7  32  1   
 14   7  33  1   
 15   7  34  1   
 16   8   9  1   
 17   8  10  1   
 18   8  35  1   
 19   9  11  1   
 20   9  12  1   
 21   9  36  1   
 22  10  13  1   
 23  10  37  1   
 24  10  38  1   
 25  11  14  am  
 26  11  39  1   
 27  12  13  1   
 28  12  40  1   
 29  12  41  1   
 30  14  15  2   
 31  14  16  1   
 32  16  17  1   
 33  16  42  1   
 34  16  43  1   
 35  17  18  1   
 36  17  19  2   
 37  18  20  ar  
 38  18  21  1   
 39  19  22  1   
 40  19  44  1   
 41  20  22  ar  
 42  20  23  1   
 43  21  24  2   
 44  21  45  1   
 45  22  46  1   
 46  23  25  2   
 47  23  26  1   
 48  24  25  1   
 49  24  47  1   
 50  25  48  1   
 51  26  49  1   
 52  26  50  1   
 53  26  51  1   
@<TRIPOS>SUBSTRUCTURE
  1 ****  14 GROUP 4 **** **** 0

# MOE 2024.06 (io_trps.svl 2023.06)
