@<TRIPOS>MOLECULE
NONAME
45 47 1 0 0 
SMALL
USER_CHARGES


@<TRIPOS>ATOM
  1 CL      -3.6980     2.0230     3.1140 Cl    1 <1>  -0.1230 
  2 C       -2.9170     1.8650     1.5490 C.2   1 <1>   0.1230 
  3 C       -2.9980     0.7660     0.6880 C.2   1 <1>   0.2030 
  4 C       -2.1520     2.7950     0.9550 C.2   1 <1>  -0.3020 
  5 N       -2.3090     1.0350    -0.4150 N.2   1 <1>  -0.7070 
  6 C       -3.7380    -0.4460     1.0060 C.2   1 <1>   0.7160 
  7 N       -1.7930     2.2650    -0.2300 N.pl3 1 <1>   0.3000 
  8 O       -3.6260    -0.9500     2.1130 O.2   1 <1>  -0.5700 
  9 N       -4.6090    -1.0490     0.1130 N.am  1 <1>  -0.6600 
 10 C       -5.3990    -2.2590     0.4940 C.3   1 <1>   0.1400 
 11 C       -5.0560    -0.4040    -1.1510 C.3   1 <1>   0.1400 
 12 C       -6.7590    -1.8820     1.1040 C.3   1 <1>   0.1400 
 13 C       -6.0570     0.7280    -0.8810 C.3   1 <1>  -0.1600 
 14 N       -7.5410    -0.9560     0.2200 N.am  1 <1>  -0.6600 
 15 C       -7.0730     0.4570     0.2390 C.3   1 <1>   0.1400 
 16 C       -8.5450    -1.3690    -0.6280 C.2   1 <1>   0.5440 
 17 O       -9.0640    -0.5610    -1.3730 O.2   1 <1>  -0.5700 
 18 C       -8.9740    -2.7480    -0.6640 C.ar  1 <1>   0.0860 
 19 C       -9.8460    -3.2840     0.2890 C.ar  1 <1>   0.1670 
 20 C       -8.5010    -3.6000    -1.6500 C.ar  1 <1>  -0.1500 
 21 N      -10.2160    -4.5530     0.3400 N.ar  1 <1>  -0.6200 
 22 C      -10.4400    -2.4040     1.3770 C.3   1 <1>  -0.0970 
 23 C       -8.8960    -4.9180    -1.6140 C.ar  1 <1>  -0.1500 
 24 C       -9.7430    -5.3460    -0.6060 C.ar  1 <1>   0.1670 
 25 C      -10.1870    -6.7910    -0.5400 C.3   1 <1>  -0.0970 
 26 H       -1.8570     3.7690     1.2950 H     1 <1>   0.1500 
 27 H       -1.1960     2.7200    -0.9340 H     1 <1>   0.2700 
 28 H       -4.8460    -2.8470     1.2060 H     1 <1>   0.0800 
 29 H       -5.5550    -2.8770    -0.3730 H     1 <1>   0.0800 
 30 H       -5.5320    -1.1440    -1.7720 H     1 <1>   0.0800 
 31 H       -4.2110    -0.0300    -1.7020 H     1 <1>   0.0800 
 32 H       -6.5920    -1.4090     2.0570 H     1 <1>   0.0800 
 33 H       -7.3140    -2.7830     1.2940 H     1 <1>   0.0800 
 34 H       -6.5980     0.9210    -1.7910 H     1 <1>   0.0800 
 35 H       -5.5190     1.6280    -0.6460 H     1 <1>   0.0800 
 36 H       -7.9160     1.1190     0.1290 H     1 <1>   0.0800 
 37 H       -6.6190     0.6670     1.1920 H     1 <1>   0.0800 
 38 H       -7.8450    -3.2300    -2.4180 H     1 <1>   0.1500 
 39 H      -10.6400    -1.4140     1.0080 H     1 <1>   0.0800 
 40 H       -9.7610    -2.3420     2.2060 H     1 <1>   0.0800 
 41 H      -11.3680    -2.8220     1.7230 H     1 <1>   0.0800 
 42 H       -8.5500    -5.6070    -2.3630 H     1 <1>   0.1500 
 43 H       -9.8840    -7.2170     0.3990 H     1 <1>   0.0800 
 44 H       -9.7600    -7.3670    -1.3390 H     1 <1>   0.0800 
 45 H      -11.2590    -6.8390    -0.6100 H     1 <1>   0.0800 
@<TRIPOS>BOND
  1   1   2  1   
  2   2   3  1   
  3   2   4  2   
  4   3   5  2   
  5   3   6  1   
  6   4   7  1   
  7   4  26  1   
  8   5   7  1   
  9   6   8  2   
 10   6   9  am  
 11   7  27  1   
 12   9  10  1   
 13   9  11  1   
 14  10  12  1   
 15  10  28  1   
 16  10  29  1   
 17  11  13  1   
 18  11  30  1   
 19  11  31  1   
 20  12  14  1   
 21  12  32  1   
 22  12  33  1   
 23  13  15  1   
 24  13  34  1   
 25  13  35  1   
 26  14  15  1   
 27  14  16  am  
 28  15  36  1   
 29  15  37  1   
 30  16  17  2   
 31  16  18  1   
 32  18  19  ar  
 33  18  20  ar  
 34  19  21  ar  
 35  19  22  1   
 36  20  23  ar  
 37  20  38  1   
 38  21  24  ar  
 39  22  39  1   
 40  22  40  1   
 41  22  41  1   
 42  23  24  ar  
 43  23  42  1   
 44  24  25  1   
 45  25  43  1   
 46  25  44  1   
 47  25  45  1   
@<TRIPOS>SUBSTRUCTURE
  1 ****  14 GROUP 4 **** **** 0

# MOE 2024.06 (io_trps.svl 2023.06)
