@<TRIPOS>MOLECULE
NONAME
48 51 1 0 0 
SMALL
USER_CHARGES


@<TRIPOS>ATOM
  1 O        1.6200    -1.3390     1.6000 O.2   1 <1>  -0.5700 
  2 C        1.9180    -1.4160     0.4240 C.2   1 <1>   0.5440 
  3 N        2.6460    -0.3830    -0.1350 N.am  1 <1>  -0.6600 
  4 C        1.4660    -2.5720    -0.3250 C.ar  1 <1>   0.0860 
  5 C        2.8740     0.8920     0.6620 C.3   1 <1>   0.2200 
  6 C        3.2410    -0.4710    -1.5120 C.3   1 <1>   0.1400 
  7 C        0.1070    -2.7650    -0.6530 C.ar  1 <1>   0.0170 
  8 C        2.3950    -3.5380    -0.7140 C.ar  1 <1>  -0.1500 
  9 C        2.6050     2.1740    -0.1440 C.3   1 <1>   0.1200 
 10 C        4.2870     0.9200     1.2900 C.3   1 <1>   0.3430 
 11 C        4.4340     0.4700    -1.7800 C.3   1 <1>  -0.0800 
 12 C       -0.9420    -1.8610    -0.2270 C.cat 1 <1>   0.7830 
 13 C       -0.2380    -3.8930    -1.4050 C.ar  1 <1>  -0.1500 
 14 C        2.0270    -4.6430    -1.4530 C.ar  1 <1>  -0.1500 
 15 O        3.7470     2.5730    -0.8370 O.3   1 <1>  -0.5600 
 16 N        5.2440    -0.0230     0.6110 N.4   1 <1>  -0.9590 
 17 C        3.9880     1.9170    -2.0340 C.3   1 <1>   0.1200 
 18 C        5.6100     0.4010    -0.7800 C.3   1 <1>   0.3430 
 19 N       -1.0330    -1.2290     0.9410 N.pl3 1 <1>  -0.7000 
 20 N       -2.0220    -1.5320    -0.9400 N.pl3 1 <1>  -0.7000 
 21 C        0.7050    -4.8160    -1.8060 C.ar  1 <1>  -0.1500 
 22 C        6.4600    -0.2350     1.4500 C.3   1 <1>   0.2630 
 23 C       -2.1900    -0.4990     0.9810 C.2   1 <1>   0.2000 
 24 C       -2.8110    -0.6880    -0.2000 C.2   1 <1>   0.2000 
 25 H        2.1690     0.9270     1.4740 H     1 <1>   0.0800 
 26 H        3.5800    -1.4760    -1.6880 H     1 <1>   0.0800 
 27 H        2.4670    -0.2700    -2.2330 H     1 <1>   0.0800 
 28 H        3.4270    -3.4320    -0.4290 H     1 <1>   0.1500 
 29 H        2.3720     2.9740     0.5370 H     1 <1>   0.0800 
 30 H        1.7770     2.0600    -0.8220 H     1 <1>   0.0800 
 31 H        4.1880     0.6350     2.3250 H     1 <1>   0.0800 
 32 H        4.6730     1.9260     1.2670 H     1 <1>   0.0800 
 33 H        4.8380     0.1550    -2.7250 H     1 <1>   0.0800 
 34 H       -1.2650    -4.0760    -1.6760 H     1 <1>   0.1500 
 35 H        2.7620    -5.3750    -1.7510 H     1 <1>   0.1500 
 36 H        4.7180    -0.9050     0.5340 H     1 <1>   0.4500 
 37 H        3.1070     1.9700    -2.6520 H     1 <1>   0.0800 
 38 H        4.7740     2.4610    -2.5310 H     1 <1>   0.0800 
 39 H        6.0920     1.3650    -0.7450 H     1 <1>   0.0800 
 40 H        6.3300    -0.3020    -1.1670 H     1 <1>   0.0800 
 41 H       -0.3000    -1.2910     1.6710 H     1 <1>   0.4500 
 42 H       -2.2280    -1.8660    -1.8870 H     1 <1>   0.4500 
 43 H        0.4140    -5.6800    -2.3840 H     1 <1>   0.1500 
 44 H        7.0040     0.6900     1.5610 H     1 <1>   0.0800 
 45 H        7.1100    -0.9630     0.9920 H     1 <1>   0.0800 
 46 H        6.1830    -0.5910     2.4290 H     1 <1>   0.0800 
 47 H       -2.4930     0.0980     1.8290 H     1 <1>   0.1500 
 48 H       -3.7490    -0.2810    -0.5500 H     1 <1>   0.1500 
@<TRIPOS>BOND
  1   1   2  2   
  2   2   3  am  
  3   2   4  1   
  4   3   5  1   
  5   3   6  1   
  6   4   7  ar  
  7   4   8  ar  
  8   5   9  1   
  9   5  10  1   
 10   5  25  1   
 11   6  11  1   
 12   6  26  1   
 13   6  27  1   
 14   7  12  1   
 15   7  13  ar  
 16   8  14  ar  
 17   8  28  1   
 18   9  15  1   
 19   9  29  1   
 20   9  30  1   
 21  10  16  1   
 22  10  31  1   
 23  10  32  1   
 24  11  17  1   
 25  11  18  1   
 26  11  33  1   
 27  12  19  ar  
 28  12  20  ar  
 29  13  21  ar  
 30  13  34  1   
 31  14  21  ar  
 32  14  35  1   
 33  15  17  1   
 34  16  18  1   
 35  16  22  1   
 36  16  36  1   
 37  17  37  1   
 38  17  38  1   
 39  18  39  1   
 40  18  40  1   
 41  19  23  1   
 42  19  41  1   
 43  20  24  1   
 44  20  42  1   
 45  21  43  1   
 46  22  44  1   
 47  22  45  1   
 48  22  46  1   
 49  23  24  2   
 50  23  47  1   
 51  24  48  1   
@<TRIPOS>SUBSTRUCTURE
  1 ****   2 GROUP 4 **** **** 0

# MOE 2024.06 (io_trps.svl 2023.06)
