@<TRIPOS>MOLECULE
NONAME
42 44 1 0 0 
SMALL
USER_CHARGES


@<TRIPOS>ATOM
  1 F       -3.1370     0.5040     1.8860 F     1 <1>  -0.1900 
  2 C       -2.8350     0.8250     0.6560 C.ar  1 <1>   0.1900 
  3 C       -2.6740    -0.1660    -0.2980 C.ar  1 <1>   0.0860 
  4 C       -2.6800     2.1640     0.3450 C.ar  1 <1>   0.1600 
  5 C       -2.8290    -1.5760    -0.0320 C.2   1 <1>   0.5440 
  6 C       -2.3340     0.3110    -1.5570 C.ar  1 <1>  -0.1500 
  7 N       -2.3680     2.6110    -0.8640 N.ar  1 <1>  -0.6200 
  8 O       -1.8670    -2.3100    -0.1540 O.2   1 <1>  -0.5700 
  9 N       -4.0440    -2.1180     0.3120 N.am  1 <1>  -0.6600 
 10 C       -2.1990     1.6700    -1.7840 C.ar  1 <1>   0.1600 
 11 C       -5.3370    -1.3970     0.2740 C.3   1 <1>   0.1400 
 12 C       -4.2530    -3.5720     0.4720 C.3   1 <1>   0.1400 
 13 C       -6.3990    -2.4360     0.6690 C.3   1 <1>  -0.0800 
 14 C       -5.7600    -3.7950     0.3260 C.3   1 <1>  -0.0800 
 15 C       -7.8300    -2.2140     0.0880 C.3   1 <1>   0.2800 
 16 C       -6.1550    -4.2440    -1.0890 C.3   1 <1>  -0.1600 
 17 O       -7.7640    -1.5240    -1.1080 O.3   1 <1>  -0.6800 
 18 C       -8.4900    -3.5700    -0.2290 C.3   1 <1>  -0.1600 
 19 C       -8.7370    -1.3930     1.0310 C.3   1 <1>  -0.1600 
 20 C       -7.6780    -4.4350    -1.2180 C.3   1 <1>  -0.1600 
 21 C       -8.2410     0.0260     1.3630 C.3   1 <1>  -0.2400 
 22 H       -2.8190     2.8930     1.1240 H     1 <1>   0.1500 
 23 H       -2.1750    -0.3890    -2.3580 H     1 <1>   0.1500 
 24 H       -1.9360     2.0050    -2.7740 H     1 <1>   0.1500 
 25 H       -5.3350    -0.5700     0.9600 H     1 <1>   0.0800 
 26 H       -5.4840    -1.0310    -0.7260 H     1 <1>   0.0800 
 27 H       -3.6910    -4.1240    -0.2630 H     1 <1>   0.0800 
 28 H       -3.9250    -3.8590     1.4560 H     1 <1>   0.0800 
 29 H       -6.4720    -2.4110     1.7420 H     1 <1>   0.0800 
 30 H       -6.0740    -4.5510     1.0240 H     1 <1>   0.0800 
 31 H       -5.8370    -3.4910    -1.7910 H     1 <1>   0.0800 
 32 H       -5.6520    -5.1600    -1.3470 H     1 <1>   0.0800 
 33 H       -8.6550    -1.4730    -1.4980 H     1 <1>   0.4000 
 34 H       -8.5830    -4.1140     0.6950 H     1 <1>   0.0800 
 35 H       -9.4860    -3.4280    -0.6060 H     1 <1>   0.0800 
 36 H       -9.7170    -1.3180     0.5930 H     1 <1>   0.0800 
 37 H       -8.8520    -1.9330     1.9540 H     1 <1>   0.0800 
 38 H       -7.9260    -5.4700    -1.0530 H     1 <1>   0.0800 
 39 H       -7.9650    -4.1920    -2.2260 H     1 <1>   0.0800 
 40 H       -8.0630     0.5890     0.4640 H     1 <1>   0.0800 
 41 H       -7.3350    -0.0090     1.9390 H     1 <1>   0.0800 
 42 H       -8.9840     0.5440     1.9440 H     1 <1>   0.0800 
@<TRIPOS>BOND
  1   1   2  1   
  2   2   3  ar  
  3   2   4  ar  
  4   3   5  1   
  5   3   6  ar  
  6   4   7  ar  
  7   4  22  1   
  8   5   8  2   
  9   5   9  am  
 10   6  10  ar  
 11   6  23  1   
 12   7  10  ar  
 13   9  11  1   
 14   9  12  1   
 15  10  24  1   
 16  11  13  1   
 17  11  25  1   
 18  11  26  1   
 19  12  14  1   
 20  12  27  1   
 21  12  28  1   
 22  13  14  1   
 23  13  15  1   
 24  13  29  1   
 25  14  16  1   
 26  14  30  1   
 27  15  17  1   
 28  15  18  1   
 29  15  19  1   
 30  16  20  1   
 31  16  31  1   
 32  16  32  1   
 33  17  33  1   
 34  18  20  1   
 35  18  34  1   
 36  18  35  1   
 37  19  21  1   
 38  19  36  1   
 39  19  37  1   
 40  20  38  1   
 41  20  39  1   
 42  21  40  1   
 43  21  41  1   
 44  21  42  1   
@<TRIPOS>SUBSTRUCTURE
  1 ****  11 GROUP 4 **** **** 0

# MOE 2024.06 (io_trps.svl 2023.06)
