@<TRIPOS>MOLECULE
NONAME
57 60 1 0 0 
SMALL
USER_CHARGES


@<TRIPOS>ATOM
  1 O       -2.2380     1.3050    -2.5520 O.2   1 <1>  -0.5700 
  2 C       -2.0650     1.5130    -1.3690 C.2   1 <1>   0.5440 
  3 N       -2.3200     0.4730    -0.5000 N.am  1 <1>  -0.6600 
  4 C       -1.6640     2.8280    -0.9320 C.ar  1 <1>   0.0860 
  5 C       -2.7930     0.6480     0.9060 C.3   1 <1>   0.1400 
  6 C       -2.2940    -0.9470    -0.9590 C.3   1 <1>   0.1400 
  7 C       -0.6580     3.0740     0.0020 C.ar  1 <1>   0.3100 
  8 C       -2.3020     3.9400    -1.4440 C.ar  1 <1>   0.1600 
  9 C       -4.1740    -0.0170     1.1140 C.3   1 <1>   0.4230 
 10 C       -3.6770    -1.5930    -0.7760 C.3   1 <1>   0.3430 
 11 N       -0.4090     4.3090     0.4160 N.ar  1 <1>  -0.6200 
 12 C        0.1450     2.0130     0.5730 C.ar  1 <1>   0.0000 
 13 N       -2.0460     5.1660    -1.0510 N.ar  1 <1>  -0.6200 
 14 N       -4.1930    -1.4630     0.6430 N.4   1 <1>  -0.9590 
 15 C       -5.2830     0.8020     0.4140 C.3   1 <1>   0.1200 
 16 C       -1.1050     5.2810    -0.1330 C.ar  1 <1>   0.4770 
 17 C        0.2550     1.8680     1.9560 C.ar  1 <1>  -0.1500 
 18 C        0.8290     1.0960    -0.2270 C.ar  1 <1>  -0.1500 
 19 C       -5.5800    -2.0190     0.8230 C.3   1 <1>   0.4230 
 20 O       -6.5300     0.2020     0.6190 O.3   1 <1>  -0.5600 
 21 C       -0.8000     6.6850     0.3310 C.3   1 <1>  -0.0970 
 22 C        0.9840     0.8360     2.5170 C.ar  1 <1>  -0.1500 
 23 C        1.5590     0.0620     0.3280 C.ar  1 <1>  -0.1500 
 24 C       -6.6430    -1.1130     0.1520 C.3   1 <1>   0.1200 
 25 C       -5.6460    -3.4780     0.3420 C.3   1 <1>  -0.1600 
 26 C        1.6330    -0.0740     1.7030 C.ar  1 <1>  -0.1500 
 27 C       -6.9070    -4.2020     0.8410 C.3   1 <1>  -0.1600 
 28 C       -6.8960    -5.6720     0.4120 C.3   1 <1>  -0.2400 
 29 H       -2.0760     0.2040     1.5750 H     1 <1>   0.0800 
 30 H       -2.8620     1.6930     1.1540 H     1 <1>   0.0800 
 31 H       -2.0090    -1.0060    -1.9960 H     1 <1>   0.0800 
 32 H       -1.5560    -1.4890    -0.3930 H     1 <1>   0.0800 
 33 H       -3.0570     3.8080    -2.2020 H     1 <1>   0.1500 
 34 H       -4.3890     0.0090     2.1700 H     1 <1>   0.0800 
 35 H       -3.6100    -2.6330    -1.0500 H     1 <1>   0.0800 
 36 H       -4.3610    -1.1170    -1.4590 H     1 <1>   0.0800 
 37 H       -3.5620    -1.9950     1.2540 H     1 <1>   0.4500 
 38 H       -5.1060     0.8860    -0.6450 H     1 <1>   0.0800 
 39 H       -5.3310     1.7940     0.8290 H     1 <1>   0.0800 
 40 H       -0.2310     2.5840     2.5970 H     1 <1>   0.1500 
 41 H        0.7940     1.1950    -1.2990 H     1 <1>   0.1500 
 42 H       -5.8030    -2.0240     1.8780 H     1 <1>   0.0800 
 43 H       -0.5110     7.2860    -0.5110 H     1 <1>   0.0800 
 44 H       -0.0010     6.6820     1.0490 H     1 <1>   0.0800 
 45 H       -1.6760     7.1110     0.7820 H     1 <1>   0.0800 
 46 H        1.0570     0.7450     3.5880 H     1 <1>   0.1500 
 47 H        2.0790    -0.6340    -0.3080 H     1 <1>   0.1500 
 48 H       -7.6330    -1.4520     0.3990 H     1 <1>   0.0800 
 49 H       -6.5420    -1.1110    -0.9190 H     1 <1>   0.0800 
 50 H       -5.6340    -3.5190    -0.7330 H     1 <1>   0.0800 
 51 H       -4.7900    -4.0110     0.7170 H     1 <1>   0.0800 
 52 H        2.2070    -0.8760     2.1370 H     1 <1>   0.1500 
 53 H       -6.9610    -4.1550     1.9160 H     1 <1>   0.0800 
 54 H       -7.7940    -3.7380     0.4430 H     1 <1>   0.0800 
 55 H       -6.0430    -6.1850     0.8220 H     1 <1>   0.0800 
 56 H       -6.8700    -5.7570    -0.6600 H     1 <1>   0.0800 
 57 H       -7.7860    -6.1640     0.7670 H     1 <1>   0.0800 
@<TRIPOS>BOND
  1   1   2  2   
  2   2   3  am  
  3   2   4  1   
  4   3   5  1   
  5   3   6  1   
  6   4   7  ar  
  7   4   8  ar  
  8   5   9  1   
  9   5  29  1   
 10   5  30  1   
 11   6  10  1   
 12   6  31  1   
 13   6  32  1   
 14   7  11  ar  
 15   7  12  1   
 16   8  13  ar  
 17   8  33  1   
 18   9  14  1   
 19   9  15  1   
 20   9  34  1   
 21  10  14  1   
 22  10  35  1   
 23  10  36  1   
 24  11  16  ar  
 25  12  17  ar  
 26  12  18  ar  
 27  13  16  ar  
 28  14  19  1   
 29  14  37  1   
 30  15  20  1   
 31  15  38  1   
 32  15  39  1   
 33  16  21  1   
 34  17  22  ar  
 35  17  40  1   
 36  18  23  ar  
 37  18  41  1   
 38  19  24  1   
 39  19  25  1   
 40  19  42  1   
 41  20  24  1   
 42  21  43  1   
 43  21  44  1   
 44  21  45  1   
 45  22  26  ar  
 46  22  46  1   
 47  23  26  ar  
 48  23  47  1   
 49  24  48  1   
 50  24  49  1   
 51  25  27  1   
 52  25  50  1   
 53  25  51  1   
 54  26  52  1   
 55  27  28  1   
 56  27  53  1   
 57  27  54  1   
 58  28  55  1   
 59  28  56  1   
 60  28  57  1   
@<TRIPOS>SUBSTRUCTURE
  1 ****   3 GROUP 4 **** **** 0

# MOE 2024.06 (io_trps.svl 2023.06)
