@<TRIPOS>MOLECULE
Untitled Document
45 47 1 0 0 
SMALL
USER_CHARGES


@<TRIPOS>ATOM
  1 F        2.1460     0.5710     0.2700 F     1 <1>  -0.3400 
  2 C        1.9870    -0.7440     0.3300 C.3   1 <1>   0.8800 
  3 F        0.8090    -0.9450     0.9020 F     1 <1>  -0.3400 
  4 O        2.9740    -1.2670     1.1910 O.3   1 <1>  -0.3630 
  5 C        4.1540    -1.5630     0.6060 C.ar  1 <1>   0.0830 
  6 C        4.2590    -2.6720    -0.2570 C.ar  1 <1>   0.0830 
  7 C        5.2520    -0.7860     0.8570 C.ar  1 <1>  -0.1500 
  8 O        3.1870    -3.4610    -0.4820 O.3   1 <1>  -0.3630 
  9 C        5.4470    -2.9470    -0.8750 C.ar  1 <1>  -0.1500 
 10 C        6.4910    -1.0570     0.2430 C.ar  1 <1>   0.0000 
 11 C        2.8060    -4.2870     0.5960 C.3   1 <1>   0.8800 
 12 C        6.5880    -2.1510    -0.6430 C.ar  1 <1>   0.0000 
 13 C        7.6360    -0.2700     0.4750 C.ar  1 <1>  -0.1500 
 14 F        3.5320    -5.3950     0.5450 F     1 <1>  -0.3400 
 15 F        1.5520    -4.6620     0.3900 F     1 <1>  -0.3400 
 16 C        7.8270    -2.4050    -1.2590 C.ar  1 <1>  -0.1500 
 17 C        8.8450    -0.5280    -0.1290 C.ar  1 <1>  -0.1430 
 18 C        8.9190    -1.6210    -1.0130 C.ar  1 <1>  -0.1500 
 19 C       10.1070     0.3330     0.1010 C.3   1 <1>   0.6040 
 20 O        9.9260     1.0920     1.2470 O.3   1 <1>  -0.6800 
 21 C       11.3130    -0.5830     0.3900 C.2   1 <1>   0.0460 
 22 C       10.3480     1.3130    -1.0940 C.3   1 <1>  -0.0800 
 23 N       11.4360    -1.2130     1.5720 N.2   1 <1>  -0.2270 
 24 C       12.3620    -0.9170    -0.3870 C.2   1 <1>  -0.3020 
 25 C       11.5230     2.2920    -0.8720 C.3   1 <1>  -0.2400 
 26 C        9.1010     2.1430    -1.4690 C.3   1 <1>  -0.2400 
 27 N       12.5160    -1.9100     1.5500 N.2   1 <1>  -0.4180 
 28 N       13.0960    -1.7410     0.3610 N.pl3 1 <1>   0.3000 
 29 H        2.0000    -1.1710    -0.6570 H     1 <1>   0.0800 
 30 H        5.1780     0.0510     1.5270 H     1 <1>   0.1500 
 31 H        5.5260    -3.7850    -1.5440 H     1 <1>   0.1500 
 32 H        2.9010    -3.8160     1.5590 H     1 <1>   0.0800 
 33 H        7.5280     0.5620     1.1490 H     1 <1>   0.1500 
 34 H        7.9010    -3.2390    -1.9340 H     1 <1>   0.1500 
 35 H        9.8510    -1.8460    -1.5020 H     1 <1>   0.1500 
 36 H       10.1580     0.5030     1.9930 H     1 <1>   0.4000 
 37 H       10.5860     0.7080    -1.9500 H     1 <1>   0.0800 
 38 H       12.6240    -0.6290    -1.3880 H     1 <1>   0.1500 
 39 H       11.3020     2.9650    -0.0620 H     1 <1>   0.0800 
 40 H       11.6950     2.8770    -1.7580 H     1 <1>   0.0800 
 41 H       12.4320     1.7720    -0.6350 H     1 <1>   0.0800 
 42 H        8.7790     2.7370    -0.6310 H     1 <1>   0.0800 
 43 H        8.2890     1.5050    -1.7680 H     1 <1>   0.0800 
 44 H        9.3200     2.8020    -2.2900 H     1 <1>   0.0800 
 45 H       13.9780    -2.2000     0.1080 H     1 <1>   0.2700 
@<TRIPOS>BOND
  1   1   2  1   
  2   2   3  1   
  3   2   4  1   
  4   2  29  1   
  5   4   5  1   
  6   5   6  ar  
  7   5   7  ar  
  8   6   8  1   
  9   6   9  ar  
 10   7  10  ar  
 11   7  30  1   
 12   8  11  1   
 13   9  12  ar  
 14   9  31  1   
 15  10  12  ar  
 16  10  13  ar  
 17  11  14  1   
 18  11  15  1   
 19  11  32  1   
 20  12  16  ar  
 21  13  17  ar  
 22  13  33  1   
 23  16  18  ar  
 24  16  34  1   
 25  17  18  ar  
 26  17  19  1   
 27  18  35  1   
 28  19  20  1   
 29  19  21  1   
 30  19  22  1   
 31  20  36  1   
 32  21  23  1   
 33  21  24  2   
 34  22  25  1   
 35  22  26  1   
 36  22  37  1   
 37  23  27  2   
 38  24  28  1   
 39  24  38  1   
 40  25  39  1   
 41  25  40  1   
 42  25  41  1   
 43  26  42  1   
 44  26  43  1   
 45  26  44  1   
 46  27  28  1   
 47  28  45  1   
@<TRIPOS>SUBSTRUCTURE
  1 ****  10 GROUP 4 **** **** 0

# MOE 2024.06 (io_trps.svl 2023.06)
