@<TRIPOS>MOLECULE
NONAME
42 44 1 0 0 
SMALL
USER_CHARGES


@<TRIPOS>ATOM
  1 O       -2.4720     1.1110    -1.8060 O.2   1 <1>  -0.5700 
  2 C       -2.2360     1.1170    -0.6230 C.2   1 <1>   0.5690 
  3 N       -2.2690    -0.0120     0.1220 N.am  1 <1>  -0.7300 
  4 C       -1.8870     2.4240     0.0420 C.3   1 <1>  -0.0990 
  5 C       -2.5780    -1.3610    -0.4030 C.3   1 <1>   0.2200 
  6 C       -0.6210     3.0080    -0.5890 C.3   1 <1>   0.0960 
  7 C       -3.9740    -1.7630     0.0400 C.3   1 <1>  -0.0800 
  8 C       -1.7160    -2.3970     0.3100 C.3   1 <1>   0.1200 
  9 N       -0.2390     4.2590     0.0890 N.pl3 1 <1>   0.3140 
 10 C       -3.7200    -2.3140     1.4470 C.3   1 <1>   0.1200 
 11 C       -4.5830    -2.8200    -0.9020 C.3   1 <1>  -0.0170 
 12 O       -2.3740    -2.6920     1.5060 O.3   1 <1>  -0.5600 
 13 N        0.2590     4.2630     1.3390 N.2   1 <1>  -0.7070 
 14 C       -0.3370     5.5100    -0.4020 C.2   1 <1>  -0.3020 
 15 C       -5.9910    -3.2040    -0.4740 C.ar  1 <1>  -0.1440 
 16 C        0.4690     5.5150     1.6100 C.2   1 <1>   0.1390 
 17 C        0.1140     6.3470     0.5560 C.2   1 <1>  -0.1500 
 18 C       -7.0690    -2.3710    -0.6960 C.ar  1 <1>  -0.1500 
 19 C       -6.2660    -4.4010     0.1560 C.ar  1 <1>  -0.1500 
 20 C       -8.3320    -2.7620    -0.2850 C.ar  1 <1>   0.1600 
 21 C       -7.5680    -4.6960     0.5270 C.ar  1 <1>   0.1600 
 22 N       -8.6080    -3.9040     0.3230 N.ar  1 <1>  -0.6200 
 23 H       -2.0750     0.0140     1.1260 H     1 <1>   0.3700 
 24 H       -2.7080     3.1050    -0.0900 H     1 <1>   0.0800 
 25 H       -1.7300     2.2680     1.0940 H     1 <1>   0.0800 
 26 H       -2.4460    -1.3870    -1.4720 H     1 <1>   0.0800 
 27 H       -0.7820     3.2100    -1.6330 H     1 <1>   0.0800 
 28 H        0.1940     2.3150    -0.4930 H     1 <1>   0.0800 
 29 H       -4.6310    -0.9110     0.0720 H     1 <1>   0.0800 
 30 H       -0.7240    -2.0390     0.5210 H     1 <1>   0.0800 
 31 H       -1.6600    -3.3050    -0.2630 H     1 <1>   0.0800 
 32 H       -4.3330    -3.1660     1.6860 H     1 <1>   0.0800 
 33 H       -3.8730    -1.5490     2.1880 H     1 <1>   0.0800 
 34 H       -3.9630    -3.6990    -0.9290 H     1 <1>   0.0800 
 35 H       -4.6250    -2.4240    -1.9020 H     1 <1>   0.0800 
 36 H       -0.7130     5.7310    -1.3840 H     1 <1>   0.1500 
 37 H        0.8720     5.8580     2.5480 H     1 <1>   0.1500 
 38 H        0.1930     7.4190     0.5390 H     1 <1>   0.1500 
 39 H       -6.9390    -1.4230    -1.1860 H     1 <1>   0.1500 
 40 H       -5.4830    -5.1080     0.3630 H     1 <1>   0.1500 
 41 H       -9.1610    -2.0990    -0.4670 H     1 <1>   0.1500 
 42 H       -7.7630    -5.6340     1.0180 H     1 <1>   0.1500 
@<TRIPOS>BOND
  1   1   2  2   
  2   2   3  am  
  3   2   4  1   
  4   3   5  1   
  5   3  23  1   
  6   4   6  1   
  7   4  24  1   
  8   4  25  1   
  9   5   7  1   
 10   5   8  1   
 11   5  26  1   
 12   6   9  1   
 13   6  27  1   
 14   6  28  1   
 15   7  10  1   
 16   7  11  1   
 17   7  29  1   
 18   8  12  1   
 19   8  30  1   
 20   8  31  1   
 21   9  13  1   
 22   9  14  1   
 23  10  12  1   
 24  10  32  1   
 25  10  33  1   
 26  11  15  1   
 27  11  34  1   
 28  11  35  1   
 29  13  16  2   
 30  14  17  2   
 31  14  36  1   
 32  15  18  ar  
 33  15  19  ar  
 34  16  17  1   
 35  16  37  1   
 36  17  38  1   
 37  18  20  ar  
 38  18  39  1   
 39  19  21  ar  
 40  19  40  1   
 41  20  22  ar  
 42  20  41  1   
 43  21  22  ar  
 44  21  42  1   
@<TRIPOS>SUBSTRUCTURE
  1 ****   3 GROUP 4 **** **** 0

# MOE 2024.06 (io_trps.svl 2023.06)
