@<TRIPOS>MOLECULE
NONAME
51 54 1 0 0 
SMALL
USER_CHARGES


@<TRIPOS>ATOM
  1 O       -2.5850     0.6990    -2.6180 O.2   1 <1>  -0.5700 
  2 C       -2.2760     1.0430    -1.5030 C.2   1 <1>   0.5690 
  3 N       -2.0000     0.1320    -0.5350 N.am  1 <1>  -0.7300 
  4 C       -2.2290     2.5240    -1.1660 C.3   1 <1>   0.0820 
  5 C       -1.9540    -1.3360    -0.7350 C.3   1 <1>   0.2200 
  6 C       -0.8780     2.9970    -0.6410 C.2   1 <1>  -0.1810 
  7 C       -3.1510    -2.0220    -0.0920 C.3   1 <1>  -0.0800 
  8 C       -0.8190    -1.9120     0.1010 C.3   1 <1>   0.1200 
  9 C       -0.6180     4.2640    -0.0560 C.ar  1 <1>   0.0000 
 10 C        0.2940     2.3310    -0.6370 C.2   1 <1>  -0.0100 
 11 C       -2.7090    -2.1990     1.3650 C.3   1 <1>   0.1200 
 12 C       -4.5060    -1.3110    -0.2620 C.3   1 <1>  -0.0160 
 13 O       -1.3270    -1.9860     1.3980 O.3   1 <1>  -0.5600 
 14 C       -1.3390     5.4310     0.2360 C.ar  1 <1>  -0.1440 
 15 C        0.7310     4.2190     0.2640 C.ar  1 <1>   0.1400 
 16 O        1.2640     3.0510    -0.0920 O.3   1 <1>  -0.2800 
 17 C       -5.6330    -2.1440     0.3280 C.ar  1 <1>  -0.1440 
 18 C       -0.6790     6.4860     0.8420 C.ar  1 <1>  -0.1500 
 19 C       -2.8150     5.5610    -0.1000 C.3   1 <1>  -0.0970 
 20 C        1.3930     5.2760     0.8700 C.ar  1 <1>  -0.1500 
 21 C       -6.1350    -1.9130     1.5930 C.ar  1 <1>  -0.1500 
 22 C       -6.2120    -3.1810    -0.3760 C.ar  1 <1>  -0.1500 
 23 C        0.6790     6.4190     1.1630 C.ar  1 <1>  -0.1440 
 24 C       -7.1570    -2.7100     2.0810 C.ar  1 <1>   0.1600 
 25 C       -7.2310    -3.9180     0.2040 C.ar  1 <1>   0.1600 
 26 C        1.3480     7.6090     1.8270 C.3   1 <1>  -0.0970 
 27 N       -7.7160    -3.7080     1.4170 N.ar  1 <1>  -0.6200 
 28 H       -1.7210     0.4340     0.4040 H     1 <1>   0.3700 
 29 H       -2.4780     3.0870    -2.0470 H     1 <1>   0.0800 
 30 H       -2.9830     2.7100    -0.4260 H     1 <1>   0.0800 
 31 H       -1.8510    -1.5740    -1.7810 H     1 <1>   0.0800 
 32 H       -3.2330    -3.0050    -0.5220 H     1 <1>   0.0800 
 33 H        0.0640    -1.2980     0.0900 H     1 <1>   0.0800 
 34 H       -0.5780    -2.9110    -0.2180 H     1 <1>   0.0800 
 35 H        0.5430     1.3480    -0.9960 H     1 <1>   0.1500 
 36 H       -2.9200    -3.1910     1.7280 H     1 <1>   0.0800 
 37 H       -3.1640    -1.4710     2.0130 H     1 <1>   0.0800 
 38 H       -4.6940    -1.1480    -1.3090 H     1 <1>   0.0800 
 39 H       -4.4890    -0.3480     0.2160 H     1 <1>   0.0800 
 40 H       -1.2150     7.3890     1.0760 H     1 <1>   0.1500 
 41 H       -3.1680     6.5550     0.1050 H     1 <1>   0.0800 
 42 H       -3.3890     4.8710     0.4910 H     1 <1>   0.0800 
 43 H       -2.9750     5.3590    -1.1430 H     1 <1>   0.0800 
 44 H        2.4380     5.1780     1.0950 H     1 <1>   0.1500 
 45 H       -5.7430    -1.1220     2.2050 H     1 <1>   0.1500 
 46 H       -5.8810    -3.4220    -1.3700 H     1 <1>   0.1500 
 47 H       -7.5360    -2.5150     3.0690 H     1 <1>   0.1500 
 48 H       -7.6710    -4.7220    -0.3610 H     1 <1>   0.1500 
 49 H        0.8680     7.8220     2.7650 H     1 <1>   0.0800 
 50 H        1.2730     8.4730     1.1920 H     1 <1>   0.0800 
 51 H        2.3890     7.4100     2.0130 H     1 <1>   0.0800 
@<TRIPOS>BOND
  1   1   2  2   
  2   2   3  am  
  3   2   4  1   
  4   3   5  1   
  5   3  28  1   
  6   4   6  1   
  7   4  29  1   
  8   4  30  1   
  9   5   7  1   
 10   5   8  1   
 11   5  31  1   
 12   6   9  1   
 13   6  10  2   
 14   7  11  1   
 15   7  12  1   
 16   7  32  1   
 17   8  13  1   
 18   8  33  1   
 19   8  34  1   
 20   9  14  ar  
 21   9  15  ar  
 22  10  16  1   
 23  10  35  1   
 24  11  13  1   
 25  11  36  1   
 26  11  37  1   
 27  12  17  1   
 28  12  38  1   
 29  12  39  1   
 30  14  18  ar  
 31  14  19  1   
 32  15  16  1   
 33  15  20  ar  
 34  17  21  ar  
 35  17  22  ar  
 36  18  23  ar  
 37  18  40  1   
 38  19  41  1   
 39  19  42  1   
 40  19  43  1   
 41  20  23  ar  
 42  20  44  1   
 43  21  24  ar  
 44  21  45  1   
 45  22  25  ar  
 46  22  46  1   
 47  23  26  1   
 48  24  27  ar  
 49  24  47  1   
 50  25  27  ar  
 51  25  48  1   
 52  26  49  1   
 53  26  50  1   
 54  26  51  1   
@<TRIPOS>SUBSTRUCTURE
  1 ****   3 GROUP 4 **** **** 0

# MOE 2024.06 (io_trps.svl 2023.06)
