@<TRIPOS>MOLECULE
NONAME
47 49 1 0 0 
SMALL
USER_CHARGES


@<TRIPOS>ATOM
  1 O       -0.6090     0.2590     0.0170 O.2   1 <1>  -0.5700 
  2 C       -1.5930     0.9260     0.2900 C.2   1 <1>   0.5440 
  3 N       -2.7800     0.2420     0.4980 N.am  1 <1>  -0.6600 
  4 C       -1.4570     2.3840     0.3550 C.ar  1 <1>   0.3960 
  5 C       -2.8200    -1.2340     0.7530 C.3   1 <1>   0.1400 
  6 C       -4.1440     0.8500     0.4080 C.3   1 <1>   0.1400 
  7 N       -2.2390     3.1290     1.1590 N.ar  1 <1>  -0.6200 
  8 C       -0.4730     2.9870    -0.4410 C.ar  1 <1>   0.1600 
  9 C       -3.7950    -1.9390    -0.2040 C.3   1 <1>   0.3440 
 10 C       -5.0690     0.0270    -0.5230 C.3   1 <1>   0.2000 
 11 C       -1.9750     4.4210     1.1030 C.ar  1 <1>   0.1600 
 12 N       -0.2150     4.2840    -0.5070 N.ar  1 <1>  -0.6200 
 13 O       -5.0540    -1.3240    -0.1380 O.3   1 <1>  -0.5600 
 14 C       -3.9270    -3.4170     0.1510 C.ar  1 <1>  -0.1430 
 15 C       -6.5450     0.5260    -0.5790 C.3   1 <1>   0.0000 
 16 C       -0.9960     4.9820     0.2960 C.ar  1 <1>   0.1600 
 17 C       -4.8710    -3.8610     1.0680 C.ar  1 <1>  -0.1500 
 18 C       -3.0790    -4.3420    -0.4420 C.ar  1 <1>  -0.1500 
 19 C       -7.2500     0.4090     0.7850 C.3   1 <1>  -0.2400 
 20 C       -6.6130     1.9950    -1.0360 C.3   1 <1>  -0.2400 
 21 C       -7.3330    -0.3150    -1.6010 C.3   1 <1>  -0.2400 
 22 C       -4.9650    -5.2050     1.3870 C.ar  1 <1>  -0.1500 
 23 C       -3.1720    -5.6860    -0.1260 C.ar  1 <1>  -0.1500 
 24 C       -4.1150    -6.1190     0.7900 C.ar  1 <1>  -0.1500 
 25 H       -1.8440    -1.6720     0.6410 H     1 <1>   0.0800 
 26 H       -3.1390    -1.4080     1.7650 H     1 <1>   0.0800 
 27 H       -4.5650     0.9000     1.3960 H     1 <1>   0.0800 
 28 H       -4.0770     1.8490     0.0220 H     1 <1>   0.0800 
 29 H        0.1320     2.3460    -1.0600 H     1 <1>   0.1500 
 30 H       -3.4350    -1.8500    -1.2150 H     1 <1>   0.0800 
 31 H       -4.6670     0.0800    -1.5200 H     1 <1>   0.0800 
 32 H       -2.5610     5.0720     1.7280 H     1 <1>   0.1500 
 33 H       -0.8540     6.0490     0.3160 H     1 <1>   0.1500 
 34 H       -5.5390    -3.1580     1.5360 H     1 <1>   0.1500 
 35 H       -2.3400    -4.0200    -1.1550 H     1 <1>   0.1500 
 36 H       -8.2830     0.6970     0.7020 H     1 <1>   0.0800 
 37 H       -6.7880     1.0400     1.5210 H     1 <1>   0.0800 
 38 H       -7.2150    -0.6070     1.1390 H     1 <1>   0.0800 
 39 H       -7.6360     2.3000    -1.1670 H     1 <1>   0.0800 
 40 H       -6.1020     2.1230    -1.9750 H     1 <1>   0.0800 
 41 H       -6.1680     2.6520    -0.3100 H     1 <1>   0.0800 
 42 H       -8.3480     0.0290    -1.6810 H     1 <1>   0.0800 
 43 H       -7.3550    -1.3490    -1.3020 H     1 <1>   0.0800 
 44 H       -6.8760    -0.2570    -2.5730 H     1 <1>   0.0800 
 45 H       -5.7010    -5.5380     2.0970 H     1 <1>   0.1500 
 46 H       -2.5110    -6.3960    -0.5910 H     1 <1>   0.1500 
 47 H       -4.1880    -7.1640     1.0370 H     1 <1>   0.1500 
@<TRIPOS>BOND
  1   1   2  2   
  2   2   3  am  
  3   2   4  1   
  4   3   5  1   
  5   3   6  1   
  6   4   7  ar  
  7   4   8  ar  
  8   5   9  1   
  9   5  25  1   
 10   5  26  1   
 11   6  10  1   
 12   6  27  1   
 13   6  28  1   
 14   7  11  ar  
 15   8  12  ar  
 16   8  29  1   
 17   9  13  1   
 18   9  14  1   
 19   9  30  1   
 20  10  13  1   
 21  10  15  1   
 22  10  31  1   
 23  11  16  ar  
 24  11  32  1   
 25  12  16  ar  
 26  14  17  ar  
 27  14  18  ar  
 28  15  19  1   
 29  15  20  1   
 30  15  21  1   
 31  16  33  1   
 32  17  22  ar  
 33  17  34  1   
 34  18  23  ar  
 35  18  35  1   
 36  19  36  1   
 37  19  37  1   
 38  19  38  1   
 39  20  39  1   
 40  20  40  1   
 41  20  41  1   
 42  21  42  1   
 43  21  43  1   
 44  21  44  1   
 45  22  24  ar  
 46  22  45  1   
 47  23  24  ar  
 48  23  46  1   
 49  24  47  1   
@<TRIPOS>SUBSTRUCTURE
  1 ****   3 GROUP 4 **** **** 0

# MOE 2024.06 (io_trps.svl 2023.06)
