@<TRIPOS>MOLECULE
NONAME
39 41 1 0 0 
SMALL
USER_CHARGES


@<TRIPOS>ATOM
  1 O       -1.1770     0.4140     1.5630 O.2   1 <1>  -0.5700 
  2 C       -1.7550     0.9500     0.6310 C.2   1 <1>   0.5440 
  3 N       -2.6350     0.1610    -0.0880 N.am  1 <1>  -0.6600 
  4 C       -1.5140     2.3710     0.3480 C.ar  1 <1>   0.3960 
  5 C       -3.6790     0.6430    -1.0280 C.3   1 <1>   0.1400 
  6 C       -2.7880    -1.2980     0.1420 C.3   1 <1>   0.1400 
  7 N       -1.6220     2.8420    -0.9100 N.ar  1 <1>  -0.6200 
  8 C       -1.1670     3.2120     1.4100 C.ar  1 <1>  -0.1500 
  9 C       -4.7560    -0.4390    -0.9790 C.3   1 <1>   0.2000 
 10 C       -3.9590    -1.7280    -0.7510 C.3   1 <1>  -0.0800 
 11 C       -1.3830     4.1240    -1.0680 C.ar  1 <1>   0.3920 
 12 C       -0.9270     4.5570     1.2170 C.ar  1 <1>  -0.1500 
 13 O       -5.5630    -0.1930     0.1230 O.3   1 <1>  -0.6800 
 14 C       -4.7640    -2.9140    -0.1900 C.3   1 <1>  -0.0170 
 15 O       -1.4900     4.5400    -2.3150 O.3   1 <1>  -0.5320 
 16 C       -1.0420     5.0200    -0.0720 C.ar  1 <1>  -0.1500 
 17 C       -3.8930    -4.1560    -0.0810 C.ar  1 <1>  -0.1440 
 18 C       -3.6670    -4.9820    -1.1630 C.ar  1 <1>  -0.1500 
 19 C       -3.2790    -4.5190     1.1010 C.ar  1 <1>  -0.1500 
 20 C       -2.8580    -6.0970    -1.0160 C.ar  1 <1>   0.1600 
 21 C       -2.4880    -5.6550     1.1410 C.ar  1 <1>   0.1600 
 22 N       -2.2620    -6.4520     0.1100 N.ar  1 <1>  -0.6200 
 23 H       -4.0680     1.6060    -0.7450 H     1 <1>   0.0800 
 24 H       -3.2570     0.7000    -2.0160 H     1 <1>   0.0800 
 25 H       -1.8820    -1.8200    -0.1160 H     1 <1>   0.0800 
 26 H       -3.0110    -1.4670     1.1810 H     1 <1>   0.0800 
 27 H       -1.0850     2.7970     2.3990 H     1 <1>   0.1500 
 28 H       -5.3740    -0.4640    -1.8590 H     1 <1>   0.0800 
 29 H       -3.5430    -2.0220    -1.6980 H     1 <1>   0.0800 
 30 H       -0.6610     5.2080     2.0320 H     1 <1>   0.1500 
 31 H       -4.9870    -0.0220     0.8950 H     1 <1>   0.4000 
 32 H       -5.5980    -3.1190    -0.8400 H     1 <1>   0.0800 
 33 H       -5.1650    -2.6720     0.7790 H     1 <1>   0.0800 
 34 H       -1.6940     3.7760    -2.8790 H     1 <1>   0.4500 
 35 H       -0.8710     6.0520    -0.3180 H     1 <1>   0.1500 
 36 H       -4.1110    -4.7700    -2.1180 H     1 <1>   0.1500 
 37 H       -3.4070    -3.9310     1.9920 H     1 <1>   0.1500 
 38 H       -2.6930    -6.7300    -1.8710 H     1 <1>   0.1500 
 39 H       -2.0170    -5.9220     2.0720 H     1 <1>   0.1500 
@<TRIPOS>BOND
  1   1   2  2   
  2   2   3  am  
  3   2   4  1   
  4   3   5  1   
  5   3   6  1   
  6   4   7  ar  
  7   4   8  ar  
  8   5   9  1   
  9   5  23  1   
 10   5  24  1   
 11   6  10  1   
 12   6  25  1   
 13   6  26  1   
 14   7  11  ar  
 15   8  12  ar  
 16   8  27  1   
 17   9  10  1   
 18   9  13  1   
 19   9  28  1   
 20  10  14  1   
 21  10  29  1   
 22  11  15  1   
 23  11  16  ar  
 24  12  16  ar  
 25  12  30  1   
 26  13  31  1   
 27  14  17  1   
 28  14  32  1   
 29  14  33  1   
 30  15  34  1   
 31  16  35  1   
 32  17  18  ar  
 33  17  19  ar  
 34  18  20  ar  
 35  18  36  1   
 36  19  21  ar  
 37  19  37  1   
 38  20  22  ar  
 39  20  38  1   
 40  21  22  ar  
 41  21  39  1   
@<TRIPOS>SUBSTRUCTURE
  1 ****   3 GROUP 4 **** **** 0

# MOE 2024.06 (io_trps.svl 2023.06)
