@<TRIPOS>MOLECULE
NONAME
46 49 1 0 0 
SMALL
USER_CHARGES


@<TRIPOS>ATOM
  1 S       -0.9710     2.1960     0.4310 S.3   1 <1>  -0.0800 
  2 C        0.5330     2.4170    -0.4500 C.2   1 <1>  -0.0450 
  3 C       -1.9160     2.6770    -0.9670 C.2   1 <1>  -0.1100 
  4 C        0.2810     2.8270    -1.7090 C.2   1 <1>  -0.1500 
  5 C        1.8270     2.1310     0.2990 C.3   1 <1>   0.0850 
  6 C       -1.1120     2.9750    -2.0030 C.2   1 <1>  -0.1500 
  7 C        2.0610     3.1710     1.4030 C.2   1 <1>   0.6300 
  8 C        2.3540     0.7210     0.3840 C.3   1 <1>  -0.1900 
  9 C        3.0290     1.7030    -0.5160 C.3   1 <1>  -0.2000 
 10 O        1.8600     2.9030     2.5640 O.2   1 <1>  -0.5700 
 11 N        2.4960     4.4020     1.0370 N.am  1 <1>  -0.7300 
 12 C        3.1200     0.2420     1.6260 C.3   1 <1>  -0.1450 
 13 C        1.5650    -0.4300    -0.2580 C.3   1 <1>  -0.1450 
 14 C        2.7540     5.5050     1.9710 C.3   1 <1>   0.3210 
 15 C        3.8570     6.3600     1.3860 C.2   1 <1>  -0.1810 
 16 C        5.1900     5.9890     1.2630 C.2   1 <1>   0.1390 
 17 C        3.8060     7.6060     0.8690 C.2   1 <1>  -0.3020 
 18 N        5.9080     6.9180     0.7170 N.2   1 <1>  -0.7070 
 19 N        5.0570     7.9470     0.4680 N.pl3 1 <1>   0.5930 
 20 C        5.4620     9.1720    -0.1390 C.ar  1 <1>  -0.0230 
 21 C        6.5050     9.1920    -1.0610 C.ar  1 <1>  -0.1500 
 22 C        4.8290    10.3780     0.1730 C.ar  1 <1>  -0.1500 
 23 C        6.8740    10.3880    -1.6420 C.ar  1 <1>   0.1900 
 24 C        5.2140    11.5700    -0.4220 C.ar  1 <1>  -0.1500 
 25 F        7.8510    10.3930    -2.5090 F     1 <1>  -0.1900 
 26 C        6.2480    11.5820    -1.3420 C.ar  1 <1>  -0.1500 
 27 H       -2.9870     2.6850    -0.8600 H     1 <1>   0.1500 
 28 H        1.0240     3.0350    -2.4580 H     1 <1>   0.1500 
 29 H       -1.4410     3.2950    -2.9760 H     1 <1>   0.1500 
 30 H        4.0000     2.0750    -0.2390 H     1 <1>   0.1000 
 31 H        2.9280     1.5780    -1.5790 H     1 <1>   0.1000 
 32 H        2.6210     4.6250     0.0500 H     1 <1>   0.3700 
 33 H        3.7470     1.0200     2.0240 H     1 <1>   0.0800 
 34 H        3.7440    -0.5980     1.3810 H     1 <1>   0.0800 
 35 H        2.4250    -0.0530     2.3920 H     1 <1>   0.0800 
 36 H        1.0990    -0.1220    -1.1770 H     1 <1>   0.0800 
 37 H        0.7970    -0.7660     0.4150 H     1 <1>   0.0800 
 38 H        2.2190    -1.2550    -0.4760 H     1 <1>   0.0800 
 39 H        3.0480     5.1190     2.9330 H     1 <1>   0.0800 
 40 H        1.8560     6.0860     2.0910 H     1 <1>   0.0800 
 41 H        5.5870     5.0380     1.5790 H     1 <1>   0.1500 
 42 H        2.9660     8.2650     0.7570 H     1 <1>   0.1500 
 43 H        7.0250     8.2860    -1.3220 H     1 <1>   0.1500 
 44 H        4.0290    10.3940     0.8920 H     1 <1>   0.1500 
 45 H        4.7120    12.4880    -0.1670 H     1 <1>   0.1500 
 46 H        6.5660    12.4930    -1.8170 H     1 <1>   0.1500 
@<TRIPOS>BOND
  1   1   2  1   
  2   1   3  1   
  3   2   4  2   
  4   2   5  1   
  5   3   6  2   
  6   3  27  1   
  7   4   6  1   
  8   4  28  1   
  9   5   7  1   
 10   5   8  1   
 11   5   9  1   
 12   6  29  1   
 13   7  10  2   
 14   7  11  am  
 15   8   9  1   
 16   8  12  1   
 17   8  13  1   
 18   9  30  1   
 19   9  31  1   
 20  11  14  1   
 21  11  32  1   
 22  12  33  1   
 23  12  34  1   
 24  12  35  1   
 25  13  36  1   
 26  13  37  1   
 27  13  38  1   
 28  14  15  1   
 29  14  39  1   
 30  14  40  1   
 31  15  16  1   
 32  15  17  2   
 33  16  18  2   
 34  16  41  1   
 35  17  19  1   
 36  17  42  1   
 37  18  19  1   
 38  19  20  1   
 39  20  21  ar  
 40  20  22  ar  
 41  21  23  ar  
 42  21  43  1   
 43  22  24  ar  
 44  22  44  1   
 45  23  25  1   
 46  23  26  ar  
 47  24  26  ar  
 48  24  45  1   
 49  26  46  1   
@<TRIPOS>SUBSTRUCTURE
  1 ****  11 GROUP 4 **** **** 0

# MOE 2024.06 (io_trps.svl 2023.06)
