@<TRIPOS>MOLECULE
NONAME
48 51 1 0 0 
SMALL
USER_CHARGES


@<TRIPOS>ATOM
  1 O        0.4820     1.4710    -1.2040 O.3   1 <1>  -0.0190 
  2 N        1.0840     0.3430    -1.4330 N.2   1 <1>  -0.4100 
  3 C        0.7700     1.9440    -0.0210 C.2   1 <1>  -0.0400 
  4 C        1.7550     0.0720    -0.3720 C.2   1 <1>   0.1080 
  5 C        1.5970     1.0760     0.5800 C.2   1 <1>  -0.1500 
  6 C        0.1950     3.2760     0.4210 C.3   1 <1>   0.0200 
  7 C        2.5990    -1.1710    -0.1940 C.3   1 <1>  -0.0590 
  8 C        0.3840     4.3360    -0.6820 C.3   1 <1>  -0.0800 
  9 C        0.0270     5.7720    -0.2980 C.3   1 <1>   0.2000 
 10 C        1.8260     4.4140    -1.2010 C.3   1 <1>   0.3430 
 11 O        0.5750     6.0670     0.9580 O.3   1 <1>  -0.5600 
 12 C        0.7970     6.5770    -1.3450 C.3   1 <1>   0.3430 
 13 N        2.0870     5.8460    -1.5250 N.4   1 <1>  -0.9590 
 14 C       -0.3580     6.3740     1.9520 C.3   1 <1>   0.0400 
 15 C        3.1380     6.4350    -0.6490 C.3   1 <1>   0.5230 
 16 C        3.5460     7.7790    -1.2260 C.2   1 <1>   0.0070 
 17 N        3.4320     8.0900    -2.4830 N.2   1 <1>  -0.5650 
 18 N        4.0660     8.7660    -0.4570 N.pl3 1 <1>   0.2940 
 19 C        3.9100     9.3480    -2.5390 C.2   1 <1>   0.0770 
 20 C        4.2980     9.7720    -1.3170 C.2   1 <1>  -0.3020 
 21 C        4.3310     8.7680     1.0000 C.3   1 <1>  -0.0910 
 22 C        3.2100     8.5230     1.9700 C.3   1 <1>  -0.2000 
 23 C        3.8010     9.8910     1.8410 C.3   1 <1>  -0.2000 
 24 H        2.0500     1.1050     1.5550 H     1 <1>   0.1500 
 25 H       -0.8530     3.1540     0.6300 H     1 <1>   0.0800 
 26 H        0.6850     3.5720     1.3320 H     1 <1>   0.0800 
 27 H        3.6150    -0.8990     0.0220 H     1 <1>   0.0800 
 28 H        2.5800    -1.7600    -1.0930 H     1 <1>   0.0800 
 29 H        2.2100    -1.7620     0.6150 H     1 <1>   0.0800 
 30 H       -0.2330     4.0550    -1.5180 H     1 <1>   0.0800 
 31 H       -1.0310     5.9760    -0.3170 H     1 <1>   0.0800 
 32 H        1.9430     3.7880    -2.0710 H     1 <1>   0.0800 
 33 H        2.5070     4.0750    -0.4360 H     1 <1>   0.0800 
 34 H        0.9430     7.5990    -1.0340 H     1 <1>   0.0800 
 35 H        0.2490     6.5680    -2.2730 H     1 <1>   0.0800 
 36 H        2.4310     6.0070    -2.4870 H     1 <1>   0.4500 
 37 H        0.1730     6.5540     2.8700 H     1 <1>   0.0800 
 38 H       -1.0310     5.5430     2.0830 H     1 <1>   0.0800 
 39 H       -0.9030     7.2600     1.6720 H     1 <1>   0.0800 
 40 H        2.7650     6.5520     0.3550 H     1 <1>   0.0800 
 41 H        4.0010     5.7920    -0.6240 H     1 <1>   0.0800 
 42 H        3.9540     9.8950    -3.4690 H     1 <1>   0.1500 
 43 H        4.7200    10.7140    -1.0150 H     1 <1>   0.1500 
 44 H        5.3170     8.4010     1.2290 H     1 <1>   0.1000 
 45 H        2.1980     8.3930     1.6260 H     1 <1>   0.1000 
 46 H        3.4050     7.9870     2.8840 H     1 <1>   0.1000 
 47 H        4.3970    10.2610     2.6580 H     1 <1>   0.1000 
 48 H        3.2130    10.6660     1.3780 H     1 <1>   0.1000 
@<TRIPOS>BOND
  1   1   2  1   
  2   1   3  1   
  3   2   4  2   
  4   3   5  2   
  5   3   6  1   
  6   4   5  1   
  7   4   7  1   
  8   5  24  1   
  9   6   8  1   
 10   6  25  1   
 11   6  26  1   
 12   7  27  1   
 13   7  28  1   
 14   7  29  1   
 15   8   9  1   
 16   8  10  1   
 17   8  30  1   
 18   9  11  1   
 19   9  12  1   
 20   9  31  1   
 21  10  13  1   
 22  10  32  1   
 23  10  33  1   
 24  11  14  1   
 25  12  13  1   
 26  12  34  1   
 27  12  35  1   
 28  13  15  1   
 29  13  36  1   
 30  14  37  1   
 31  14  38  1   
 32  14  39  1   
 33  15  16  1   
 34  15  40  1   
 35  15  41  1   
 36  16  17  2   
 37  16  18  1   
 38  17  19  1   
 39  18  20  1   
 40  18  21  1   
 41  19  20  2   
 42  19  42  1   
 43  20  43  1   
 44  21  22  1   
 45  21  23  1   
 46  21  44  1   
 47  22  23  1   
 48  22  45  1   
 49  22  46  1   
 50  23  47  1   
 51  23  48  1   
@<TRIPOS>SUBSTRUCTURE
  1 ****  13 GROUP 4 **** **** 0

# MOE 2024.06 (io_trps.svl 2023.06)
