@<TRIPOS>MOLECULE
NONAME
54 57 1 0 0 
SMALL
USER_CHARGES


@<TRIPOS>ATOM
  1 O        2.0210    -0.1990    -0.7040 O.3   1 <1>  -0.5600 
  2 C        2.8870    -1.1820    -0.1850 C.3   1 <1>   0.4240 
  3 C        0.7610    -0.0670    -0.1110 C.3   1 <1>   0.1200 
  4 C        2.1340    -2.4710     0.1930 C.ar  1 <1>  -0.1440 
  5 C        3.6340    -0.5740     1.0210 C.3   1 <1>  -0.1600 
  6 C        3.8910    -1.4520    -1.3110 C.3   1 <1>  -0.1600 
  7 C       -0.0400    -1.3420    -0.3540 C.3   1 <1>  -0.0160 
  8 C        0.7510    -2.5480     0.1130 C.ar  1 <1>  -0.1440 
  9 C        2.8310    -3.5920     0.6240 C.ar  1 <1>  -0.1500 
 10 C        4.7890     0.3560     0.6320 C.3   1 <1>   0.3430 
 11 C        4.5710    -0.1690    -1.8020 C.3   1 <1>   0.3430 
 12 C        0.0920    -3.7180     0.4540 C.ar  1 <1>  -0.1500 
 13 C        2.1920    -4.7700     0.9690 C.ar  1 <1>   0.0830 
 14 N        4.5770     0.8770    -0.7410 N.4   1 <1>  -0.9590 
 15 C        0.7910    -4.8420     0.8890 C.ar  1 <1>   0.0830 
 16 O        3.0470    -5.7600     1.3630 O.3   1 <1>  -0.3630 
 17 C        5.3630     2.0980    -1.0510 C.3   1 <1>   0.5230 
 18 O        0.1330    -5.9870     1.2390 O.3   1 <1>  -0.3630 
 19 C        2.6480    -7.0980     1.5550 C.3   1 <1>   0.0400 
 20 C        4.7340     3.2750    -0.3120 C.2   1 <1>   0.0060 
 21 C       -1.2730    -6.0980     1.2050 C.3   1 <1>   0.0400 
 22 N        5.3390     4.4810    -0.1930 N.pl3 1 <1>   0.0330 
 23 N        3.5680     3.2270     0.2570 N.2   1 <1>  -0.5650 
 24 C        4.4780     5.2390     0.5090 C.2   1 <1>  -0.3320 
 25 C        3.4060     4.4600     0.7720 C.2   1 <1>   0.0770 
 26 C        4.7410     6.6860     0.8840 C.3   1 <1>  -0.0600 
 27 H        0.2690     0.7780    -0.5610 H     1 <1>   0.0800 
 28 H        0.8780     0.1180     0.9430 H     1 <1>   0.0800 
 29 H        4.0510    -1.3600     1.6230 H     1 <1>   0.0800 
 30 H        2.9480    -0.0470     1.6560 H     1 <1>   0.0800 
 31 H        3.3890    -1.9310    -2.1320 H     1 <1>   0.0800 
 32 H        4.6470    -2.1340    -0.9680 H     1 <1>   0.0800 
 33 H       -0.2570    -1.4340    -1.4030 H     1 <1>   0.0800 
 34 H       -0.9720    -1.2790     0.1790 H     1 <1>   0.0800 
 35 H        3.9020    -3.5780     0.7030 H     1 <1>   0.1500 
 36 H        5.7200    -0.1840     0.6720 H     1 <1>   0.0800 
 37 H        4.8350     1.1720     1.3370 H     1 <1>   0.0800 
 38 H        4.0250     0.2050    -2.6540 H     1 <1>   0.0800 
 39 H        5.5760    -0.3960    -2.1160 H     1 <1>   0.0800 
 40 H       -0.9770    -3.7320     0.3740 H     1 <1>   0.1500 
 41 H        3.5990     1.2370    -0.6950 H     1 <1>   0.4500 
 42 H        5.3270     2.2980    -2.1090 H     1 <1>   0.0800 
 43 H        6.3890     1.9680    -0.7510 H     1 <1>   0.0800 
 44 H        3.5280    -7.6880     1.7360 H     1 <1>   0.0800 
 45 H        2.1490    -7.4450     0.6670 H     1 <1>   0.0800 
 46 H        1.9950    -7.1470     2.4070 H     1 <1>   0.0800 
 47 H       -1.5370    -7.0860     1.5360 H     1 <1>   0.0800 
 48 H       -1.6120    -5.9490     0.1950 H     1 <1>   0.0800 
 49 H       -1.6980    -5.3660     1.8700 H     1 <1>   0.0800 
 50 H        6.2500     4.7860    -0.5520 H     1 <1>   0.2700 
 51 H        2.5130     4.7300     1.3140 H     1 <1>   0.1500 
 52 H        4.8730     7.2850     0.0000 H     1 <1>   0.0800 
 53 H        5.6250     6.7610     1.4930 H     1 <1>   0.0800 
 54 H        3.9100     7.0820     1.4420 H     1 <1>   0.0800 
@<TRIPOS>BOND
  1   1   2  1   
  2   1   3  1   
  3   2   4  1   
  4   2   5  1   
  5   2   6  1   
  6   3   7  1   
  7   3  27  1   
  8   3  28  1   
  9   4   8  ar  
 10   4   9  ar  
 11   5  10  1   
 12   5  29  1   
 13   5  30  1   
 14   6  11  1   
 15   6  31  1   
 16   6  32  1   
 17   7   8  1   
 18   7  33  1   
 19   7  34  1   
 20   8  12  ar  
 21   9  13  ar  
 22   9  35  1   
 23  10  14  1   
 24  10  36  1   
 25  10  37  1   
 26  11  14  1   
 27  11  38  1   
 28  11  39  1   
 29  12  15  ar  
 30  12  40  1   
 31  13  15  ar  
 32  13  16  1   
 33  14  17  1   
 34  14  41  1   
 35  15  18  1   
 36  16  19  1   
 37  17  20  1   
 38  17  42  1   
 39  17  43  1   
 40  18  21  1   
 41  19  44  1   
 42  19  45  1   
 43  19  46  1   
 44  20  22  1   
 45  20  23  2   
 46  21  47  1   
 47  21  48  1   
 48  21  49  1   
 49  22  24  1   
 50  22  50  1   
 51  23  25  1   
 52  24  25  2   
 53  24  26  1   
 54  25  51  1   
 55  26  52  1   
 56  26  53  1   
 57  26  54  1   
@<TRIPOS>SUBSTRUCTURE
  1 ****   2 GROUP 4 **** **** 0

# MOE 2024.06 (io_trps.svl 2023.06)
