@<TRIPOS>MOLECULE
NONAME
63 66 1 0 0 
SMALL
USER_CHARGES


@<TRIPOS>ATOM
  1 O       -0.2970     0.6110     1.6850 O.2   1 <1>  -0.5700 
  2 C       -0.5700     1.7720     1.4900 C.2   1 <1>   0.5690 
  3 N        0.0360     2.7220     2.2440 N.am  1 <1>  -0.7300 
  4 C       -1.5850     2.1670     0.3800 C.3   1 <1>   0.2510 
  5 C       -0.1510     4.1730     2.0310 C.3   1 <1>   0.1400 
  6 N       -1.8480     3.6550     0.2770 N.3   1 <1>  -0.8100 
  7 C       -2.9140     1.4190     0.6260 C.3   1 <1>  -0.0990 
  8 C       -0.6390     4.4490     0.6000 C.3   1 <1>   0.1100 
  9 C       -2.5410     4.0660    -0.9610 C.3   1 <1>   0.1900 
 10 C       -3.6120     0.9030    -0.6210 C.2   1 <1>   0.5690 
 11 C       -1.6190     4.0830    -2.1850 C.3   1 <1>  -0.2400 
 12 C       -3.2060     5.4270    -0.7560 C.3   1 <1>  -0.2400 
 13 O       -3.0160     0.9180    -1.6740 O.2   1 <1>  -0.5700 
 14 N       -4.8880     0.4010    -0.5350 N.am  1 <1>  -0.6600 
 15 C       -5.5970    -0.1200    -1.7360 C.3   1 <1>   0.1400 
 16 C       -5.6480     0.1710     0.7250 C.3   1 <1>   0.1400 
 17 C       -5.7830    -1.6310    -1.5850 C.3   1 <1>  -0.1600 
 18 C       -5.8230    -1.3360     0.9210 C.3   1 <1>  -0.1600 
 19 C       -6.5180    -1.9930    -0.2850 C.3   1 <1>   0.4240 
 20 O       -7.7990    -1.4190    -0.4130 O.3   1 <1>  -0.5600 
 21 C       -6.5900    -3.5270    -0.1190 C.ar  1 <1>  -0.1430 
 22 C       -8.8270    -1.9510     0.3630 C.3   1 <1>   0.1200 
 23 C       -7.8120    -4.1870    -0.0290 C.ar  1 <1>  -0.1430 
 24 C       -5.4240    -4.2820    -0.0500 C.ar  1 <1>  -0.1500 
 25 C       -9.0950    -3.3830    -0.0890 C.3   1 <1>  -0.0170 
 26 C       -7.8650    -5.5640     0.1160 C.ar  1 <1>  -0.1500 
 27 C       -5.4750    -5.6560     0.0970 C.ar  1 <1>  -0.1500 
 28 C       -6.6920    -6.3080     0.1800 C.ar  1 <1>   0.0830 
 29 O       -6.6550    -7.6570     0.3210 O.3   1 <1>  -0.3630 
 30 C       -7.8390    -8.4190     0.3940 C.3   1 <1>   0.0400 
 31 H        0.6690     2.4080     2.9810 H     1 <1>   0.3700 
 32 H       -1.1340     1.8250    -0.5330 H     1 <1>   0.0800 
 33 H        0.7810     4.6840     2.1950 H     1 <1>   0.0800 
 34 H       -0.8760     4.5470     2.7340 H     1 <1>   0.0800 
 35 H       -3.5710     2.0700     1.1710 H     1 <1>   0.0800 
 36 H       -2.7350     0.5540     1.2350 H     1 <1>   0.0800 
 37 H        0.1520     4.2100    -0.0910 H     1 <1>   0.0800 
 38 H       -0.8480     5.4990     0.5170 H     1 <1>   0.0800 
 39 H       -3.3390     3.3750    -1.1590 H     1 <1>   0.0800 
 40 H       -0.8550     4.8320    -2.0950 H     1 <1>   0.0800 
 41 H       -2.2010     4.3060    -3.0610 H     1 <1>   0.0800 
 42 H       -1.1680     3.1190    -2.3340 H     1 <1>   0.0800 
 43 H       -2.4840     6.2190    -0.7040 H     1 <1>   0.0800 
 44 H       -3.7930     5.4130     0.1450 H     1 <1>   0.0800 
 45 H       -3.8620     5.6310    -1.5820 H     1 <1>   0.0800 
 46 H       -5.0410     0.0890    -2.6340 H     1 <1>   0.0800 
 47 H       -6.5550     0.3640    -1.8210 H     1 <1>   0.0800 
 48 H       -6.6110     0.6470     0.6460 H     1 <1>   0.0800 
 49 H       -5.1420     0.5860     1.5770 H     1 <1>   0.0800 
 50 H       -4.8110    -2.0860    -1.6030 H     1 <1>   0.0800 
 51 H       -6.3360    -2.0170    -2.4210 H     1 <1>   0.0800 
 52 H       -6.3790    -1.5300     1.8180 H     1 <1>   0.0800 
 53 H       -4.8500    -1.7700     1.0550 H     1 <1>   0.0800 
 54 H       -9.7010    -1.3410     0.2160 H     1 <1>   0.0800 
 55 H       -8.5440    -1.9190     1.4000 H     1 <1>   0.0800 
 56 H       -4.4600    -3.8080    -0.1110 H     1 <1>   0.1500 
 57 H       -9.4720    -3.3760    -1.0970 H     1 <1>   0.0800 
 58 H       -9.8400    -3.8220     0.5490 H     1 <1>   0.0800 
 59 H       -8.8220    -6.0440     0.1770 H     1 <1>   0.1500 
 60 H       -4.5690    -6.2320     0.1490 H     1 <1>   0.1500 
 61 H       -7.5640    -9.4530     0.4940 H     1 <1>   0.0800 
 62 H       -8.4010    -8.2760    -0.5120 H     1 <1>   0.0800 
 63 H       -8.4040    -8.1050     1.2540 H     1 <1>   0.0800 
@<TRIPOS>BOND
  1   1   2  2   
  2   2   3  am  
  3   2   4  1   
  4   3   5  1   
  5   3  31  1   
  6   4   6  1   
  7   4   7  1   
  8   4  32  1   
  9   5   8  1   
 10   5  33  1   
 11   5  34  1   
 12   6   8  1   
 13   6   9  1   
 14   7  10  1   
 15   7  35  1   
 16   7  36  1   
 17   8  37  1   
 18   8  38  1   
 19   9  11  1   
 20   9  12  1   
 21   9  39  1   
 22  10  13  2   
 23  10  14  am  
 24  11  40  1   
 25  11  41  1   
 26  11  42  1   
 27  12  43  1   
 28  12  44  1   
 29  12  45  1   
 30  14  15  1   
 31  14  16  1   
 32  15  17  1   
 33  15  46  1   
 34  15  47  1   
 35  16  18  1   
 36  16  48  1   
 37  16  49  1   
 38  17  19  1   
 39  17  50  1   
 40  17  51  1   
 41  18  19  1   
 42  18  52  1   
 43  18  53  1   
 44  19  20  1   
 45  19  21  1   
 46  20  22  1   
 47  21  23  ar  
 48  21  24  ar  
 49  22  25  1   
 50  22  54  1   
 51  22  55  1   
 52  23  25  1   
 53  23  26  ar  
 54  24  27  ar  
 55  24  56  1   
 56  25  57  1   
 57  25  58  1   
 58  26  28  ar  
 59  26  59  1   
 60  27  28  ar  
 61  27  60  1   
 62  28  29  1   
 63  29  30  1   
 64  30  61  1   
 65  30  62  1   
 66  30  63  1   
@<TRIPOS>SUBSTRUCTURE
  1 ****  14 GROUP 4 **** **** 0

# MOE 2024.06 (io_trps.svl 2023.06)
