@<TRIPOS>MOLECULE
NONAME
45 46 1 0 0 
SMALL
USER_CHARGES


@<TRIPOS>ATOM
  1 S       -0.1010    -0.0420     0.2370 S.o2  1 <1>   1.3330 
  2 O       -0.7500     1.2480     0.1820 O.2   1 <1>  -0.6500 
  3 O       -0.0600    -0.7670     1.4880 O.2   1 <1>  -0.6500 
  4 N       -0.8210    -1.0520    -0.9220 N.am  1 <1>  -0.8490 
  5 C        1.5630     0.1570    -0.4020 C.3   1 <1>  -0.0550 
  6 C       -0.5720    -2.4790    -0.6890 C.3   1 <1>   0.1160 
  7 C       -2.2620    -0.8120    -1.0520 C.3   1 <1>   0.1160 
  8 C        2.4290     1.1320     0.4210 C.3   1 <1>  -0.0800 
  9 C        3.7420     1.4270    -0.2860 C.3   1 <1>   0.2200 
 10 C        2.9010     0.5140     1.7440 C.3   1 <1>   0.1200 
 11 N        4.2620     2.7310     0.1810 N.am  1 <1>  -0.7300 
 12 C        4.6330     0.3080     0.2360 C.3   1 <1>   0.1200 
 13 O        4.2090     0.0610     1.5420 O.3   1 <1>  -0.5600 
 14 C        4.4440     3.8300    -0.6010 C.2   1 <1>   0.6160 
 15 O        4.1550     3.7640    -1.7790 O.2   1 <1>  -0.5700 
 16 C        4.9700     5.0350    -0.0270 C.2   1 <1>  -0.1360 
 17 C        5.2240     6.1990    -0.6700 C.2   1 <1>  -0.1780 
 18 C        5.7490     7.4340    -0.1400 C.ar  1 <1>   0.0280 
 19 C        6.0580     8.4810    -1.0060 C.ar  1 <1>  -0.1500 
 20 C        5.9680     7.6430     1.2230 C.ar  1 <1>  -0.1500 
 21 C        6.5630     9.6810    -0.5400 C.ar  1 <1>  -0.1500 
 22 C        6.4740     8.8400     1.6960 C.ar  1 <1>  -0.1500 
 23 C        6.7740     9.8630     0.8150 C.ar  1 <1>  -0.1500 
 24 H        2.0440    -0.8000    -0.4530 H     1 <1>   0.0800 
 25 H        1.4840     0.5370    -1.4030 H     1 <1>   0.0800 
 26 H       -0.9690    -3.0610    -1.5020 H     1 <1>   0.0800 
 27 H       -1.0370    -2.7970     0.2310 H     1 <1>   0.0800 
 28 H        0.4860    -2.6650    -0.6220 H     1 <1>   0.0800 
 29 H       -2.6820    -1.4570    -1.8050 H     1 <1>   0.0800 
 30 H       -2.4410     0.2090    -1.3470 H     1 <1>   0.0800 
 31 H       -2.7580    -0.9920    -0.1120 H     1 <1>   0.0800 
 32 H        1.8680     2.0370     0.5870 H     1 <1>   0.0800 
 33 H        3.6610     1.4120    -1.3610 H     1 <1>   0.0800 
 34 H        2.2990    -0.3160     2.0710 H     1 <1>   0.0800 
 35 H        2.9310     1.2560     2.5230 H     1 <1>   0.0800 
 36 H        4.5500     2.7400     1.1600 H     1 <1>   0.3700 
 37 H        5.6760     0.5730     0.2360 H     1 <1>   0.0800 
 38 H        4.4860    -0.5940    -0.3320 H     1 <1>   0.0800 
 39 H        5.1660     4.9490     1.0210 H     1 <1>   0.1500 
 40 H        5.0170     6.2370    -1.7270 H     1 <1>   0.1500 
 41 H        5.9010     8.3560    -2.0620 H     1 <1>   0.1500 
 42 H        5.7400     6.8690     1.9290 H     1 <1>   0.1500 
 43 H        6.7940    10.4730    -1.2300 H     1 <1>   0.1500 
 44 H        6.6340     8.9790     2.7510 H     1 <1>   0.1500 
 45 H        7.1670    10.7950     1.1810 H     1 <1>   0.1500 
@<TRIPOS>BOND
  1   1   2  2   
  2   1   3  2   
  3   1   4  am  
  4   1   5  1   
  5   4   6  1   
  6   4   7  1   
  7   5   8  1   
  8   5  24  1   
  9   5  25  1   
 10   6  26  1   
 11   6  27  1   
 12   6  28  1   
 13   7  29  1   
 14   7  30  1   
 15   7  31  1   
 16   8   9  1   
 17   8  10  1   
 18   8  32  1   
 19   9  11  1   
 20   9  12  1   
 21   9  33  1   
 22  10  13  1   
 23  10  34  1   
 24  10  35  1   
 25  11  14  am  
 26  11  36  1   
 27  12  13  1   
 28  12  37  1   
 29  12  38  1   
 30  14  15  2   
 31  14  16  1   
 32  16  17  2   
 33  16  39  1   
 34  17  18  1   
 35  17  40  1   
 36  18  19  ar  
 37  18  20  ar  
 38  19  21  ar  
 39  19  41  1   
 40  20  22  ar  
 41  20  42  1   
 42  21  23  ar  
 43  21  43  1   
 44  22  23  ar  
 45  22  44  1   
 46  23  45  1   
@<TRIPOS>SUBSTRUCTURE
  1 ****  11 GROUP 4 **** **** 0

# MOE 2024.06 (io_trps.svl 2023.06)
