@<TRIPOS>MOLECULE
NONAME
44 46 1 0 0 
SMALL
USER_CHARGES


@<TRIPOS>ATOM
  1 F       -0.6230    -1.5080     0.9150 F     1 <1>  -0.1900 
  2 C       -1.8300    -1.7230     0.4380 C.ar  1 <1>   0.1900 
  3 C       -2.8080    -0.7400     0.3510 C.ar  1 <1>   0.3920 
  4 C       -2.1360    -2.9860     0.0080 C.ar  1 <1>   0.1600 
  5 O       -2.6710     0.5520     0.7320 O.3   1 <1>  -0.3630 
  6 N       -3.9950    -1.0260    -0.1360 N.ar  1 <1>  -0.6200 
  7 N       -3.3220    -3.2800    -0.4800 N.ar  1 <1>  -0.6200 
  8 C       -1.4890     1.1110     1.2620 C.3   1 <1>   0.0400 
  9 C       -4.2050    -2.2780    -0.5320 C.ar  1 <1>   0.7200 
 10 N       -5.4520    -2.5770    -1.0430 N.pl3 1 <1>  -0.8380 
 11 C       -5.6940    -3.8300    -1.8180 C.3   1 <1>   0.2090 
 12 C       -6.6560    -1.7650    -0.7310 C.3   1 <1>   0.2090 
 13 C       -6.1070    -4.9830    -0.8870 C.3   1 <1>   0.2090 
 14 C       -7.6110    -2.5360     0.1820 C.3   1 <1>  -0.1600 
 15 N       -7.5460    -4.9850    -0.4250 N.pl3 1 <1>  -0.8380 
 16 C       -8.3180    -3.7030    -0.5130 C.3   1 <1>   0.2090 
 17 C       -8.1030    -6.1190     0.0790 C.ar  1 <1>   0.1000 
 18 C       -9.4390    -6.4650    -0.1670 C.ar  1 <1>  -0.1500 
 19 C       -7.3630    -7.0060     0.8730 C.ar  1 <1>  -0.1500 
 20 C       -9.9890    -7.6100     0.3520 C.ar  1 <1>   0.2180 
 21 C       -7.9320    -8.1430     1.3790 C.ar  1 <1>   0.2110 
 22 N       -9.2310    -8.4330     1.1180 N.ar  1 <1>  -0.1790 
 23 C      -11.4350    -7.9960     0.0910 C.3   1 <1>  -0.0970 
 24 H       -1.3970    -3.7640     0.0650 H     1 <1>   0.1500 
 25 H       -1.6740     2.1520     1.4590 H     1 <1>   0.0800 
 26 H       -0.6990     1.0130     0.5400 H     1 <1>   0.0800 
 27 H       -1.2420     0.6070     2.1790 H     1 <1>   0.0800 
 28 H       -4.7890    -4.1080    -2.3280 H     1 <1>   0.0800 
 29 H       -6.4430    -3.6710    -2.5730 H     1 <1>   0.0800 
 30 H       -7.1500    -1.4970    -1.6490 H     1 <1>   0.0800 
 31 H       -6.3840    -0.8470    -0.2400 H     1 <1>   0.0800 
 32 H       -5.4590    -4.9640    -0.0290 H     1 <1>   0.0800 
 33 H       -5.9260    -5.9040    -1.4110 H     1 <1>   0.0800 
 34 H       -8.3680    -1.8410     0.4950 H     1 <1>   0.0800 
 35 H       -7.1000    -2.8710     1.0670 H     1 <1>   0.0800 
 36 H       -8.5150    -3.4640    -1.5440 H     1 <1>   0.0800 
 37 H       -9.2670    -3.8360    -0.0250 H     1 <1>   0.0800 
 38 H      -10.0270    -5.8150    -0.7890 H     1 <1>   0.1500 
 39 H       -6.3370    -6.7730     1.0940 H     1 <1>   0.1500 
 40 H       -7.3610    -8.8200     1.9940 H     1 <1>   0.1500 
 41 H       -9.6480    -9.2860     1.5020 H     1 <1>   0.4570 
 42 H      -11.9170    -7.2610    -0.5290 H     1 <1>   0.0800 
 43 H      -11.9800    -8.0610     1.0170 H     1 <1>   0.0800 
 44 H      -11.4860    -8.9440    -0.4150 H     1 <1>   0.0800 
@<TRIPOS>BOND
  1   1   2  1   
  2   2   3  ar  
  3   2   4  ar  
  4   3   5  1   
  5   3   6  ar  
  6   4   7  ar  
  7   4  24  1   
  8   5   8  1   
  9   6   9  ar  
 10   7   9  ar  
 11   8  25  1   
 12   8  26  1   
 13   8  27  1   
 14   9  10  1   
 15  10  11  1   
 16  10  12  1   
 17  11  13  1   
 18  11  28  1   
 19  11  29  1   
 20  12  14  1   
 21  12  30  1   
 22  12  31  1   
 23  13  15  1   
 24  13  32  1   
 25  13  33  1   
 26  14  16  1   
 27  14  34  1   
 28  14  35  1   
 29  15  16  1   
 30  15  17  1   
 31  16  36  1   
 32  16  37  1   
 33  17  18  ar  
 34  17  19  ar  
 35  18  20  ar  
 36  18  38  1   
 37  19  21  ar  
 38  19  39  1   
 39  20  22  ar  
 40  20  23  1   
 41  21  22  ar  
 42  21  40  1   
 43  22  41  1   
 44  23  42  1   
 45  23  43  1   
 46  23  44  1   
@<TRIPOS>SUBSTRUCTURE
  1 ****  13 GROUP 4 **** **** 0

# MOE 2024.06 (io_trps.svl 2023.06)
