@<TRIPOS>MOLECULE
NONAME
52 56 1 0 0 
SMALL
USER_CHARGES


@<TRIPOS>ATOM
  1 O       -0.4370     0.7790    -0.5230 O.2   1 <1>  -0.5700 
  2 C       -1.5010     1.0020    -1.0330 C.2   1 <1>   0.6590 
  3 O       -1.7050     2.1280    -1.7010 O.3   1 <1>  -0.4300 
  4 C       -2.6520     0.0050    -0.9950 C.3   1 <1>  -0.0190 
  5 C       -2.9390     2.8190    -1.7290 C.3   1 <1>   0.3810 
  6 C       -3.9580     0.7120    -0.5600 C.3   1 <1>   0.0000 
  7 C       -2.3670    -1.2900    -0.1980 C.3   1 <1>  -0.1600 
  8 C       -2.8910     3.9320    -0.6900 C.2   1 <1>  -0.1810 
  9 C       -4.1520     1.8730    -1.5640 C.3   1 <1>  -0.1600 
 10 C       -5.1260    -0.3160    -0.6770 C.3   1 <1>  -0.0800 
 11 C       -3.8500     1.2850     0.8780 C.3   1 <1>  -0.2400 
 12 C       -3.5320    -2.2850    -0.3140 C.3   1 <1>   0.2000 
 13 C       -1.8960     4.2540     0.1670 C.2   1 <1>  -0.0100 
 14 C       -3.9080     4.8670    -0.4400 C.2   1 <1>  -0.1500 
 15 C       -4.8470    -1.6200     0.1400 C.3   1 <1>  -0.0800 
 16 C       -6.5510     0.2420    -0.3990 C.3   1 <1>  -0.1600 
 17 O       -3.6400    -2.6400    -1.6740 O.3   1 <1>  -0.4300 
 18 O       -2.2310     5.2880     0.9110 O.3   1 <1>  -0.2800 
 19 C       -3.4410     5.6600     0.5470 C.2   1 <1>  -0.0100 
 20 C       -6.0730    -2.5730     0.1390 C.3   1 <1>  -0.0190 
 21 C       -7.6100    -0.8770    -0.3030 C.3   1 <1>   0.2000 
 22 C       -3.2340    -3.7780    -2.2200 C.2   1 <1>   0.6590 
 23 C       -6.6850    -2.7060    -1.2390 C.2   1 <1>   0.6590 
 24 C       -7.2220    -1.8350     0.8210 C.3   1 <1>  -0.1600 
 25 O       -7.5130    -1.6950    -1.4500 O.3   1 <1>  -0.4300 
 26 O       -2.7550    -3.7820    -3.3200 O.2   1 <1>  -0.5700 
 27 C       -3.4060    -5.0680    -1.4510 C.3   1 <1>  -0.1790 
 28 O       -6.5080    -3.6180    -2.0010 O.2   1 <1>  -0.5700 
 29 H       -2.7700    -0.2960    -2.0220 H     1 <1>   0.0800 
 30 H       -3.0000     3.2870    -2.6960 H     1 <1>   0.0800 
 31 H       -2.1940    -1.0510     0.8360 H     1 <1>   0.0800 
 32 H       -1.4690    -1.7550    -0.5690 H     1 <1>   0.0800 
 33 H       -5.0130     2.4570    -1.2940 H     1 <1>   0.0800 
 34 H       -4.3630     1.4620    -2.5360 H     1 <1>   0.0800 
 35 H       -5.1450    -0.6070    -1.7150 H     1 <1>   0.0800 
 36 H       -4.6840     1.9250     1.0990 H     1 <1>   0.0800 
 37 H       -2.9590     1.8700     1.0080 H     1 <1>   0.0800 
 38 H       -3.8130     0.5190     1.6270 H     1 <1>   0.0800 
 39 H       -3.3320    -3.1600     0.2790 H     1 <1>   0.0800 
 40 H       -0.9280     3.8020     0.3090 H     1 <1>   0.1500 
 41 H       -4.8560     4.9250    -0.9440 H     1 <1>   0.1500 
 42 H       -4.6960    -1.3590     1.1700 H     1 <1>   0.0800 
 43 H       -6.8420     0.9210    -1.1790 H     1 <1>   0.0800 
 44 H       -6.5650     0.7890     0.5250 H     1 <1>   0.0800 
 45 H       -3.8930     6.5020     1.0430 H     1 <1>   0.1500 
 46 H       -5.8710    -3.5260     0.5920 H     1 <1>   0.0800 
 47 H       -8.6140    -0.4960    -0.2100 H     1 <1>   0.0800 
 48 H       -6.9440    -1.3290     1.7290 H     1 <1>   0.0800 
 49 H       -8.0410    -2.5030     1.0280 H     1 <1>   0.0800 
 50 H       -4.3880    -5.1090    -1.0200 H     1 <1>   0.0800 
 51 H       -2.6600    -5.1430    -0.6830 H     1 <1>   0.0800 
 52 H       -3.2940    -5.8970    -2.1240 H     1 <1>   0.0800 
@<TRIPOS>BOND
  1   1   2  2   
  2   2   3  1   
  3   2   4  1   
  4   3   5  1   
  5   4   6  1   
  6   4   7  1   
  7   4  29  1   
  8   5   8  1   
  9   5   9  1   
 10   5  30  1   
 11   6   9  1   
 12   6  10  1   
 13   6  11  1   
 14   7  12  1   
 15   7  31  1   
 16   7  32  1   
 17   8  13  2   
 18   8  14  1   
 19   9  33  1   
 20   9  34  1   
 21  10  15  1   
 22  10  16  1   
 23  10  35  1   
 24  11  36  1   
 25  11  37  1   
 26  11  38  1   
 27  12  15  1   
 28  12  17  1   
 29  12  39  1   
 30  13  18  1   
 31  13  40  1   
 32  14  19  2   
 33  14  41  1   
 34  15  20  1   
 35  15  42  1   
 36  16  21  1   
 37  16  43  1   
 38  16  44  1   
 39  17  22  1   
 40  18  19  1   
 41  19  45  1   
 42  20  23  1   
 43  20  24  1   
 44  20  46  1   
 45  21  24  1   
 46  21  25  1   
 47  21  47  1   
 48  22  26  2   
 49  22  27  1   
 50  23  25  1   
 51  23  28  2   
 52  24  48  1   
 53  24  49  1   
 54  27  50  1   
 55  27  51  1   
 56  27  52  1   
@<TRIPOS>SUBSTRUCTURE
  1 ****   6 GROUP 4 **** **** 0

# MOE 2024.06 (io_trps.svl 2023.06)
