@<TRIPOS>MOLECULE
NONAME
45 46 1 0 0 
SMALL
USER_CHARGES


@<TRIPOS>ATOM
  1 O        0.5420     1.5520     0.3280 O.3   1 <1>  -0.5600 
  2 C       -0.3910     2.5670     0.6260 C.3   1 <1>   0.2000 
  3 C       -0.0500     0.2890     0.1670 C.3   1 <1>   0.1200 
  4 C       -1.4620     2.6250    -0.4820 C.3   1 <1>   0.1200 
  5 C        0.3720     3.8960     0.7890 C.3   1 <1>   0.3430 
  6 C       -1.1450     0.3430    -0.9140 C.3   1 <1>   0.1200 
  7 O       -2.0510     1.3710    -0.6320 O.3   1 <1>  -0.5600 
  8 N        1.6230     3.8990    -0.0380 N.4   1 <1>  -0.9590 
  9 C        2.7650     4.5060     0.6980 C.3   1 <1>   0.5230 
 10 C        1.4080     4.4980    -1.3880 C.3   1 <1>   0.2630 
 11 C        2.5270     5.9910     0.8570 C.2   1 <1>  -0.3320 
 12 N        3.1160     6.9620     0.1200 N.pl3 1 <1>   0.0480 
 13 C        1.7260     6.6220     1.7470 C.2   1 <1>   0.0770 
 14 C        2.5990     8.1130     0.6030 C.2   1 <1>   0.0360 
 15 C        4.1460     6.8640    -0.9440 C.3   1 <1>   0.0960 
 16 N        1.7580     7.9480     1.5690 N.2   1 <1>  -0.5650 
 17 C        5.5440     6.5600    -0.3710 C.3   1 <1>  -0.0800 
 18 C        6.0390     7.6730     0.5640 C.3   1 <1>  -0.2400 
 19 C        6.5460     6.3740    -1.5170 C.3   1 <1>  -0.2400 
 20 H       -0.8760     2.3260     1.5570 H     1 <1>   0.0800 
 21 H       -0.4700    -0.0220     1.1090 H     1 <1>   0.0800 
 22 H        0.7180    -0.4100    -0.1140 H     1 <1>   0.0800 
 23 H       -1.0420     2.9150    -1.4270 H     1 <1>   0.0800 
 24 H       -2.2420     3.3190    -0.2200 H     1 <1>   0.0800 
 25 H        0.6350     3.9870     1.8290 H     1 <1>   0.0800 
 26 H       -0.2580     4.7340     0.5420 H     1 <1>   0.0800 
 27 H       -1.6940    -0.5830    -0.9380 H     1 <1>   0.0800 
 28 H       -0.7160     0.5150    -1.8860 H     1 <1>   0.0800 
 29 H        1.8180     2.8830    -0.1480 H     1 <1>   0.4500 
 30 H        3.6850     4.3350     0.1630 H     1 <1>   0.0800 
 31 H        2.8540     4.0490     1.6710 H     1 <1>   0.0800 
 32 H        1.1290     5.5360    -1.2940 H     1 <1>   0.0800 
 33 H        0.6260     3.9750    -1.9130 H     1 <1>   0.0800 
 34 H        2.3110     4.4340    -1.9730 H     1 <1>   0.0800 
 35 H        1.1110     6.1990     2.5240 H     1 <1>   0.1500 
 36 H        2.8790     9.0770     0.2110 H     1 <1>   0.1500 
 37 H        4.1750     7.7970    -1.4800 H     1 <1>   0.0800 
 38 H        3.8590     6.0950    -1.6350 H     1 <1>   0.0800 
 39 H        5.5070     5.6380     0.1840 H     1 <1>   0.0800 
 40 H        6.0740     8.6180     0.0510 H     1 <1>   0.0800 
 41 H        7.0290     7.4470     0.9220 H     1 <1>   0.0800 
 42 H        5.3970     7.7720     1.4220 H     1 <1>   0.0800 
 43 H        6.6350     7.2760    -2.0970 H     1 <1>   0.0800 
 44 H        6.2400     5.5750    -2.1690 H     1 <1>   0.0800 
 45 H        7.5190     6.1290    -1.1250 H     1 <1>   0.0800 
@<TRIPOS>BOND
  1   1   2  1   
  2   1   3  1   
  3   2   4  1   
  4   2   5  1   
  5   2  20  1   
  6   3   6  1   
  7   3  21  1   
  8   3  22  1   
  9   4   7  1   
 10   4  23  1   
 11   4  24  1   
 12   5   8  1   
 13   5  25  1   
 14   5  26  1   
 15   6   7  1   
 16   6  27  1   
 17   6  28  1   
 18   8   9  1   
 19   8  10  1   
 20   8  29  1   
 21   9  11  1   
 22   9  30  1   
 23   9  31  1   
 24  10  32  1   
 25  10  33  1   
 26  10  34  1   
 27  11  12  1   
 28  11  13  2   
 29  12  14  1   
 30  12  15  1   
 31  13  16  1   
 32  13  35  1   
 33  14  16  2   
 34  14  36  1   
 35  15  17  1   
 36  15  37  1   
 37  15  38  1   
 38  17  18  1   
 39  17  19  1   
 40  17  39  1   
 41  18  40  1   
 42  18  41  1   
 43  18  42  1   
 44  19  43  1   
 45  19  44  1   
 46  19  45  1   
@<TRIPOS>SUBSTRUCTURE
  1 ****   8 GROUP 4 **** **** 0

# MOE 2024.06 (io_trps.svl 2023.06)
