@<TRIPOS>MOLECULE
NONAME
46 47 1 0 0 
SMALL
USER_CHARGES


@<TRIPOS>ATOM
  1 S        0.3640     0.3730    -1.3670 S.o2  1 <1>   1.3330 
  2 O        0.5750    -0.8970    -2.0250 O.2   1 <1>  -0.6500 
  3 O       -0.5430     1.3380    -1.9440 O.2   1 <1>  -0.6500 
  4 N       -0.1790     0.0550     0.2120 N.am  1 <1>  -0.8490 
  5 C        1.9680     1.1410    -1.1200 C.3   1 <1>  -0.0550 
  6 C       -0.7870     1.2220     0.8630 C.3   1 <1>   0.1160 
  7 C       -1.1130    -1.0760     0.2570 C.3   1 <1>   0.1160 
  8 C        3.0460     0.1880    -0.5590 C.3   1 <1>  -0.0800 
  9 C        4.4560     0.7590    -0.5260 C.3   1 <1>   0.2200 
 10 C        2.8290    -0.2640     0.8920 C.3   1 <1>   0.1200 
 11 N        4.4480     2.1580    -0.0350 N.am  1 <1>  -0.7300 
 12 C        5.0860    -0.1250     0.5390 C.3   1 <1>   0.1200 
 13 O        4.0890    -0.2840     1.5000 O.3   1 <1>  -0.5600 
 14 C        4.6140     3.2810    -0.8020 C.2   1 <1>   0.7150 
 15 O        4.6600     3.1170    -2.0090 O.2   1 <1>  -0.5700 
 16 C        4.7100     4.6010    -0.1920 C.2   1 <1>   0.2930 
 17 S        4.5930     4.6930     1.5650 S.3   1 <1>  -0.0800 
 18 N        4.8690     5.7700    -0.7230 N.2   1 <1>  -0.5650 
 19 C        4.7810     6.4130     1.4960 C.2   1 <1>  -0.1100 
 20 C        4.9130     6.7850     0.2130 C.2   1 <1>   0.0460 
 21 C        5.1030     8.2050    -0.3180 C.3   1 <1>   0.1010 
 22 C        6.5250     8.3850    -0.8640 C.3   1 <1>  -0.2400 
 23 C        4.8140     9.2750     0.7440 C.3   1 <1>  -0.2400 
 24 H        2.3120     1.5060    -2.0700 H     1 <1>   0.0800 
 25 H        1.8590     1.9900    -0.4750 H     1 <1>   0.0800 
 26 H       -1.0300     0.9900     1.8850 H     1 <1>   0.0800 
 27 H       -1.6870     1.5150     0.3470 H     1 <1>   0.0800 
 28 H       -0.1010     2.0510     0.8560 H     1 <1>   0.0800 
 29 H       -1.4310    -1.2590     1.2680 H     1 <1>   0.0800 
 30 H       -0.6320    -1.9670    -0.1100 H     1 <1>   0.0800 
 31 H       -1.9760    -0.8730    -0.3560 H     1 <1>   0.0800 
 32 H        3.0670    -0.6970    -1.1720 H     1 <1>   0.0800 
 33 H        4.9610     0.6830    -1.4750 H     1 <1>   0.0800 
 34 H        2.3980    -1.2500     0.9430 H     1 <1>   0.0800 
 35 H        2.2160     0.4280     1.4420 H     1 <1>   0.0800 
 36 H        4.3840     2.2400     0.9830 H     1 <1>   0.3700 
 37 H        5.9610     0.3130     0.9870 H     1 <1>   0.0800 
 38 H        5.3230    -1.0970     0.1420 H     1 <1>   0.0800 
 39 H        4.7760     6.9620     2.4200 H     1 <1>   0.1500 
 40 H        4.4070     8.3440    -1.1290 H     1 <1>   0.0800 
 41 H        7.2480     8.2290    -0.0830 H     1 <1>   0.0800 
 42 H        6.6520     9.3720    -1.2690 H     1 <1>   0.0800 
 43 H        6.7090     7.6700    -1.6460 H     1 <1>   0.0800 
 44 H        5.5110     9.1980     1.5600 H     1 <1>   0.0800 
 45 H        3.8150     9.1570     1.1240 H     1 <1>   0.0800 
 46 H        4.8980    10.2560     0.3130 H     1 <1>   0.0800 
@<TRIPOS>BOND
  1   1   2  2   
  2   1   3  2   
  3   1   4  am  
  4   1   5  1   
  5   4   6  1   
  6   4   7  1   
  7   5   8  1   
  8   5  24  1   
  9   5  25  1   
 10   6  26  1   
 11   6  27  1   
 12   6  28  1   
 13   7  29  1   
 14   7  30  1   
 15   7  31  1   
 16   8   9  1   
 17   8  10  1   
 18   8  32  1   
 19   9  11  1   
 20   9  12  1   
 21   9  33  1   
 22  10  13  1   
 23  10  34  1   
 24  10  35  1   
 25  11  14  am  
 26  11  36  1   
 27  12  13  1   
 28  12  37  1   
 29  12  38  1   
 30  14  15  2   
 31  14  16  1   
 32  16  17  1   
 33  16  18  2   
 34  17  19  1   
 35  18  20  1   
 36  19  20  2   
 37  19  39  1   
 38  20  21  1   
 39  21  22  1   
 40  21  23  1   
 41  21  40  1   
 42  22  41  1   
 43  22  42  1   
 44  22  43  1   
 45  23  44  1   
 46  23  45  1   
 47  23  46  1   
@<TRIPOS>SUBSTRUCTURE
  1 ****  11 GROUP 4 **** **** 0

# MOE 2024.06 (io_trps.svl 2023.06)
