@<TRIPOS>MOLECULE
NONAME
48 51 1 0 0 
SMALL
USER_CHARGES


@<TRIPOS>ATOM
  1 O       -0.0840     0.5200    -1.4850 O.2   1 <1>  -0.5700 
  2 C       -0.1440     1.6520    -1.0650 C.2   1 <1>   0.5690 
  3 N       -1.3210     2.2160    -0.6470 N.am  1 <1>  -0.6600 
  4 C        1.1490     2.4730    -1.0390 C.3   1 <1>   0.1810 
  5 C       -1.3650     3.6190    -0.1180 C.3   1 <1>   0.3640 
  6 C       -2.5870     1.4320    -0.5490 C.3   1 <1>   0.0600 
  7 O        1.0880     3.5960    -0.1920 O.3   1 <1>  -0.5600 
  8 C       -2.5430     4.3780    -0.7490 C.ar  1 <1>  -0.1430 
  9 C       -0.0560     4.4020    -0.3850 C.3   1 <1>   0.2610 
 10 C       -3.5270     5.0120     0.0110 C.ar  1 <1>  -0.1430 
 11 C       -2.6220     4.4400    -2.1370 C.ar  1 <1>  -0.1500 
 12 C       -0.0060     5.6540     0.4940 C.2   1 <1>   0.5690 
 13 C       -4.5430     5.7060    -0.6280 C.ar  1 <1>  -0.1500 
 14 C       -3.5430     4.9740     1.5350 C.3   1 <1>  -0.0960 
 15 C       -3.6410     5.1310    -2.7640 C.ar  1 <1>  -0.1500 
 16 O       -0.1920     5.5530     1.6870 O.2   1 <1>  -0.5700 
 17 N        0.2310     6.8580    -0.1000 N.am  1 <1>  -0.5790 
 18 C       -4.6030     5.7690    -2.0070 C.ar  1 <1>  -0.1500 
 19 C        0.2510     8.1580     0.5720 C.3   1 <1>   0.1490 
 20 C        1.6430     8.4520     1.1930 C.3   1 <1>  -0.1000 
 21 C       -0.9910     8.6090     1.2650 C.3   1 <1>  -0.2000 
 22 C       -0.6070     9.2070    -0.0570 C.3   1 <1>  -0.2000 
 23 C        2.1880     9.8280     1.4220 C.3   1 <1>  -0.2000 
 24 C        2.7600     8.9600     0.3380 C.3   1 <1>  -0.2000 
 25 H        1.3770     2.8100    -2.0340 H     1 <1>   0.0800 
 26 H        1.9540     1.8510    -0.6940 H     1 <1>   0.0800 
 27 H       -1.4930     3.5480     0.9460 H     1 <1>   0.0800 
 28 H       -2.9980     1.5240     0.4410 H     1 <1>   0.0800 
 29 H       -2.4070     0.3900    -0.7500 H     1 <1>   0.0800 
 30 H       -3.3030     1.8010    -1.2620 H     1 <1>   0.0800 
 31 H       -0.0440     4.7180    -1.4110 H     1 <1>   0.0800 
 32 H       -1.8890     3.9390    -2.7450 H     1 <1>   0.1500 
 33 H       -5.3040     6.2050    -0.0530 H     1 <1>   0.1500 
 34 H       -4.4540     5.3960     1.9210 H     1 <1>   0.0800 
 35 H       -2.7240     5.5420     1.9340 H     1 <1>   0.0800 
 36 H       -3.4770     3.9620     1.8890 H     1 <1>   0.0800 
 37 H       -3.6880     5.1690    -3.8390 H     1 <1>   0.1500 
 38 H        0.4950     6.9020    -1.0820 H     1 <1>   0.3700 
 39 H       -5.3980     6.3110    -2.4890 H     1 <1>   0.1500 
 40 H        1.8850     7.7240     1.9490 H     1 <1>   0.1000 
 41 H       -1.8170     7.9220     1.3210 H     1 <1>   0.1000 
 42 H       -0.8920     9.2120     2.1490 H     1 <1>   0.1000 
 43 H       -0.2940    10.2350    -0.0640 H     1 <1>   0.1000 
 44 H       -1.2070     8.9550    -0.9140 H     1 <1>   0.1000 
 45 H        1.6090    10.6890     1.1420 H     1 <1>   0.1000 
 46 H        2.7740    10.0020     2.3080 H     1 <1>   0.1000 
 47 H        3.7380     8.5310     0.4700 H     1 <1>   0.1000 
 48 H        2.5570     9.2220    -0.6860 H     1 <1>   0.1000 
@<TRIPOS>BOND
  1   1   2  2   
  2   2   3  am  
  3   2   4  1   
  4   3   5  1   
  5   3   6  1   
  6   4   7  1   
  7   4  25  1   
  8   4  26  1   
  9   5   8  1   
 10   5   9  1   
 11   5  27  1   
 12   6  28  1   
 13   6  29  1   
 14   6  30  1   
 15   7   9  1   
 16   8  10  ar  
 17   8  11  ar  
 18   9  12  1   
 19   9  31  1   
 20  10  13  ar  
 21  10  14  1   
 22  11  15  ar  
 23  11  32  1   
 24  12  16  2   
 25  12  17  am  
 26  13  18  ar  
 27  13  33  1   
 28  14  34  1   
 29  14  35  1   
 30  14  36  1   
 31  15  18  ar  
 32  15  37  1   
 33  17  19  1   
 34  17  38  1   
 35  18  39  1   
 36  19  20  1   
 37  19  21  1   
 38  19  22  1   
 39  20  23  1   
 40  20  24  1   
 41  20  40  1   
 42  21  22  1   
 43  21  41  1   
 44  21  42  1   
 45  22  43  1   
 46  22  44  1   
 47  23  24  1   
 48  23  45  1   
 49  23  46  1   
 50  24  47  1   
 51  24  48  1   
@<TRIPOS>SUBSTRUCTURE
  1 ****  12 GROUP 4 **** **** 0

# MOE 2024.06 (io_trps.svl 2023.06)
