@<TRIPOS>MOLECULE
NONAME
52 54 1 0 0 
SMALL
USER_CHARGES


@<TRIPOS>ATOM
  1 O       -1.1620    -0.7530     1.8670 O.2   1 <1>  -0.5700 
  2 C       -1.0110    -1.8220     1.3100 C.2   1 <1>   0.5440 
  3 N        0.2600    -2.2640     1.0590 N.am  1 <1>  -0.7300 
  4 C       -2.1650    -2.6200     0.9320 C.ar  1 <1>   0.0860 
  5 C        1.5080    -1.5280     1.3910 C.3   1 <1>   0.0600 
  6 C       -3.3370    -2.5810     1.6870 C.ar  1 <1>  -0.1500 
  7 C       -2.1620    -3.4470    -0.1930 C.ar  1 <1>  -0.1500 
  8 C       -4.4480    -3.3290     1.3460 C.ar  1 <1>  -0.1500 
  9 C       -3.2690    -4.1980    -0.5430 C.ar  1 <1>  -0.1500 
 10 C       -4.4240    -4.1410     0.2230 C.ar  1 <1>  -0.1430 
 11 C       -5.6520    -4.9450    -0.1640 C.3   1 <1>   0.4860 
 12 N       -6.7090    -4.0070    -0.6060 N.4   1 <1>  -0.9590 
 13 C       -8.0430    -4.6420    -0.7480 C.3   1 <1>   0.3430 
 14 C       -6.3200    -3.1690    -1.7820 C.3   1 <1>   0.3430 
 15 C       -9.1260    -3.5360    -0.7100 C.3   1 <1>   0.0000 
 16 C       -7.5520    -2.6060    -2.5100 C.3   1 <1>  -0.1600 
 17 C       -9.4350    -3.1500     0.7480 C.3   1 <1>   0.2000 
 18 C       -8.7110    -2.2950    -1.5480 C.3   1 <1>  -0.1600 
 19 C      -10.4600    -4.1430    -1.1650 C.3   1 <1>  -0.1600 
 20 O       -8.2520    -3.0570     1.4950 O.3   1 <1>  -0.5600 
 21 C      -10.3560    -4.2520     1.2830 C.3   1 <1>  -0.1600 
 22 C      -10.9840    -4.9180     0.0490 C.3   1 <1>  -0.1600 
 23 C       -8.4000    -2.4090     2.7230 C.3   1 <1>   0.0400 
 24 H        0.3900    -3.2140     0.7080 H     1 <1>   0.3700 
 25 H        1.2810    -0.5320     1.7310 H     1 <1>   0.0800 
 26 H        2.1340    -1.4600     0.5180 H     1 <1>   0.0800 
 27 H        2.0400    -2.0460     2.1700 H     1 <1>   0.0800 
 28 H       -3.3650    -1.9470     2.5590 H     1 <1>   0.1500 
 29 H       -1.2780    -3.4930    -0.8060 H     1 <1>   0.1500 
 30 H       -5.3280    -3.2670     1.9650 H     1 <1>   0.1500 
 31 H       -3.2190    -4.8240    -1.4190 H     1 <1>   0.1500 
 32 H       -5.9930    -5.5060     0.6920 H     1 <1>   0.0800 
 33 H       -5.4110    -5.6360    -0.9550 H     1 <1>   0.0800 
 34 H       -6.8620    -3.3580     0.1900 H     1 <1>   0.4500 
 35 H       -8.0960    -5.1770    -1.6810 H     1 <1>   0.0800 
 36 H       -8.2180    -5.3350     0.0590 H     1 <1>   0.0800 
 37 H       -5.7030    -2.3540    -1.4370 H     1 <1>   0.0800 
 38 H       -5.7380    -3.7510    -2.4770 H     1 <1>   0.0800 
 39 H       -7.2660    -1.7140    -3.0390 H     1 <1>   0.0800 
 40 H       -7.8800    -3.3170    -3.2480 H     1 <1>   0.0800 
 41 H       -9.9480    -2.2010     0.7680 H     1 <1>   0.0800 
 42 H       -9.5480    -1.9070    -2.1040 H     1 <1>   0.0800 
 43 H       -8.3850    -1.5080    -0.8870 H     1 <1>   0.0800 
 44 H      -11.1630    -3.3580    -1.3910 H     1 <1>   0.0800 
 45 H      -10.3630    -4.7710    -2.0350 H     1 <1>   0.0800 
 46 H       -9.7980    -4.9800     1.8470 H     1 <1>   0.0800 
 47 H      -11.1190    -3.8250     1.9090 H     1 <1>   0.0800 
 48 H      -10.6780    -5.9490    -0.0040 H     1 <1>   0.0800 
 49 H      -12.0600    -4.8850     0.0910 H     1 <1>   0.0800 
 50 H       -7.4420    -2.3790     3.2110 H     1 <1>   0.0800 
 51 H       -9.0980    -2.9510     3.3380 H     1 <1>   0.0800 
 52 H       -8.7490    -1.4030     2.5580 H     1 <1>   0.0800 
@<TRIPOS>BOND
  1   1   2  2   
  2   2   3  am  
  3   2   4  1   
  4   3   5  1   
  5   3  24  1   
  6   4   6  ar  
  7   4   7  ar  
  8   5  25  1   
  9   5  26  1   
 10   5  27  1   
 11   6   8  ar  
 12   6  28  1   
 13   7   9  ar  
 14   7  29  1   
 15   8  10  ar  
 16   8  30  1   
 17   9  10  ar  
 18   9  31  1   
 19  10  11  1   
 20  11  12  1   
 21  11  32  1   
 22  11  33  1   
 23  12  13  1   
 24  12  14  1   
 25  12  34  1   
 26  13  15  1   
 27  13  35  1   
 28  13  36  1   
 29  14  16  1   
 30  14  37  1   
 31  14  38  1   
 32  15  17  1   
 33  15  18  1   
 34  15  19  1   
 35  16  18  1   
 36  16  39  1   
 37  16  40  1   
 38  17  20  1   
 39  17  21  1   
 40  17  41  1   
 41  18  42  1   
 42  18  43  1   
 43  19  22  1   
 44  19  44  1   
 45  19  45  1   
 46  20  23  1   
 47  21  22  1   
 48  21  46  1   
 49  21  47  1   
 50  22  48  1   
 51  22  49  1   
 52  23  50  1   
 53  23  51  1   
 54  23  52  1   
@<TRIPOS>SUBSTRUCTURE
  1 ****  10 GROUP 4 **** **** 0

# MOE 2024.06 (io_trps.svl 2023.06)
