@<TRIPOS>MOLECULE
NONAME
35 35 1 0 0 
SMALL
USER_CHARGES


@<TRIPOS>ATOM
  1 S       -0.4390     0.4170    -0.2820 S.o2  1 <1>   1.0900 
  2 O       -0.5530     0.0640    -1.6800 O.2   1 <1>  -0.6500 
  3 O       -1.3090    -0.2140     0.6840 O.2   1 <1>  -0.6500 
  4 C       -0.6520     2.1790    -0.1370 C.3   1 <1>  -0.0550 
  5 C        1.2620     0.1530     0.2440 C.3   1 <1>  -0.0550 
  6 C        0.1100     2.9190    -1.2310 C.3   1 <1>   0.2090 
  7 C        1.6910    -1.3230     0.2520 C.3   1 <1>  -0.2400 
  8 N        0.5320     4.2400    -0.7150 N.pl3 1 <1>  -0.8690 
  9 C        1.7150     4.4530    -0.0430 C.ar  1 <1>   0.4100 
 10 N        2.2630     3.3670     0.5070 N.ar  1 <1>  -0.6200 
 11 C        2.2710     5.7470     0.0460 C.ar  1 <1>   0.0860 
 12 C        3.3970     3.5430     1.1550 C.ar  1 <1>   0.1600 
 13 C        1.6270     6.8980    -0.5460 C.2   1 <1>   0.5440 
 14 C        3.4720     5.8820     0.7330 C.ar  1 <1>  -0.1500 
 15 C        4.0370     4.7610     1.2940 C.ar  1 <1>  -0.1500 
 16 O        1.0440     6.8240    -1.6140 O.2   1 <1>  -0.5700 
 17 N        1.6600     8.1130     0.0890 N.am  1 <1>  -0.7300 
 18 C        1.0620     9.3740    -0.4220 C.3   1 <1>   0.0600 
 19 H       -0.3060     2.4980     0.8270 H     1 <1>   0.0800 
 20 H       -1.6910     2.4280    -0.2180 H     1 <1>   0.0800 
 21 H        1.3890     0.5490     1.2340 H     1 <1>   0.0800 
 22 H        1.9270     0.6920    -0.4040 H     1 <1>   0.0800 
 23 H       -0.5180     3.0430    -2.0980 H     1 <1>   0.0800 
 24 H        0.9840     2.3700    -1.5370 H     1 <1>   0.0800 
 25 H        1.0630    -1.8870     0.9210 H     1 <1>   0.0800 
 26 H        2.7130    -1.4140     0.5750 H     1 <1>   0.0800 
 27 H        1.5990    -1.7400    -0.7360 H     1 <1>   0.0800 
 28 H        0.2550     5.0380    -1.3140 H     1 <1>   0.4000 
 29 H        3.8480     2.6720     1.6000 H     1 <1>   0.1500 
 30 H        3.9550     6.8390     0.8170 H     1 <1>   0.1500 
 31 H        4.9660     4.8230     1.8340 H     1 <1>   0.1500 
 32 H        2.0410     8.1610     1.0360 H     1 <1>   0.3700 
 33 H        0.7250     9.2490    -1.4370 H     1 <1>   0.0800 
 34 H        1.7950    10.1610    -0.3980 H     1 <1>   0.0800 
 35 H        0.2220     9.6520     0.1900 H     1 <1>   0.0800 
@<TRIPOS>BOND
  1   1   2  2   
  2   1   3  2   
  3   1   4  1   
  4   1   5  1   
  5   4   6  1   
  6   4  19  1   
  7   4  20  1   
  8   5   7  1   
  9   5  21  1   
 10   5  22  1   
 11   6   8  1   
 12   6  23  1   
 13   6  24  1   
 14   7  25  1   
 15   7  26  1   
 16   7  27  1   
 17   8   9  1   
 18   8  28  1   
 19   9  10  ar  
 20   9  11  ar  
 21  10  12  ar  
 22  11  13  1   
 23  11  14  ar  
 24  12  15  ar  
 25  12  29  1   
 26  13  16  2   
 27  13  17  am  
 28  14  15  ar  
 29  14  30  1   
 30  15  31  1   
 31  17  18  1   
 32  17  32  1   
 33  18  33  1   
 34  18  34  1   
 35  18  35  1   
@<TRIPOS>SUBSTRUCTURE
  1 ****   9 GROUP 4 **** **** 0

# MOE 2024.06 (io_trps.svl 2023.06)
