@<TRIPOS>MOLECULE
NONAME
49 51 1 0 0 
SMALL
USER_CHARGES


@<TRIPOS>ATOM
  1 O        0.2300     3.0310    -0.3940 O.2   1 <1>  -0.5700 
  2 C       -0.7660     2.4710     0.0350 C.2   1 <1>   0.5440 
  3 N       -1.3790     2.9070     1.1960 N.am  1 <1>  -0.4200 
  4 C       -1.3380     1.3580    -0.6710 C.ar  1 <1>   0.0860 
  5 C       -2.5530     2.2940     1.5800 C.2   1 <1>   0.4500 
  6 C       -0.8460     3.9810     2.1220 C.3   1 <1>   0.2810 
  7 C       -2.5210     0.8130    -0.1640 C.ar  1 <1>   0.1790 
  8 C       -0.7810     0.8000    -1.8260 C.ar  1 <1>  -0.1500 
  9 N       -3.1110     1.3200     0.9730 N.2   1 <1>  -0.6290 
 10 C       -0.7190     5.3990     1.5290 C.2   1 <1>   0.5690 
 11 C        0.3820     3.5390     2.9710 C.3   1 <1>  -0.0800 
 12 C       -3.1170    -0.2620    -0.8150 C.ar  1 <1>  -0.1500 
 13 C       -1.3810    -0.2680    -2.4610 C.ar  1 <1>  -0.1500 
 14 O       -1.2350     6.3020     2.1470 O.2   1 <1>  -0.5700 
 15 N       -0.0430     5.6130     0.3600 N.am  1 <1>  -0.4940 
 16 C        1.7160     3.3800     2.2210 C.3   1 <1>  -0.2400 
 17 C        0.0960     2.2530     3.7650 C.3   1 <1>  -0.2400 
 18 C       -2.5560    -0.8020    -1.9530 C.ar  1 <1>  -0.1500 
 19 C        0.2380     6.8100    -0.3390 C.2   1 <1>  -0.0880 
 20 N        0.8470     6.8620    -1.5530 N.pl3 1 <1>   0.3140 
 21 C       -0.0100     8.0920     0.0140 C.2   1 <1>  -0.1500 
 22 N        0.9960     8.1370    -1.9810 N.2   1 <1>  -0.7070 
 23 C        1.2880     5.7150    -2.3740 C.3   1 <1>   0.0960 
 24 C        0.4800     8.8600    -1.0350 C.2   1 <1>   0.1390 
 25 C        2.6280     5.1560    -1.8720 C.3   1 <1>  -0.1600 
 26 C        3.0430     3.9130    -2.6660 C.3   1 <1>  -0.2400 
 27 H       -3.0240     2.6740     2.4700 H     1 <1>   0.0600 
 28 H       -1.6120     4.1210     2.8630 H     1 <1>   0.0800 
 29 H        0.1320     1.2130    -2.2210 H     1 <1>   0.1500 
 30 H        0.5360     4.3240     3.6940 H     1 <1>   0.0800 
 31 H       -4.0270    -0.6680    -0.4110 H     1 <1>   0.1500 
 32 H       -0.9420    -0.6900    -3.3500 H     1 <1>   0.1500 
 33 H        0.3070     4.7480    -0.0760 H     1 <1>   0.3700 
 34 H        1.6990     2.5230     1.5730 H     1 <1>   0.0800 
 35 H        2.5150     3.2380     2.9270 H     1 <1>   0.0800 
 36 H        1.9450     4.2560     1.6420 H     1 <1>   0.0800 
 37 H       -0.0200     1.4100     3.1060 H     1 <1>   0.0800 
 38 H       -0.8000     2.3590     4.3510 H     1 <1>   0.0800 
 39 H        0.9090     2.0430     4.4370 H     1 <1>   0.0800 
 40 H       -3.0260    -1.6350    -2.4480 H     1 <1>   0.1500 
 41 H       -0.4820     8.4580     0.9070 H     1 <1>   0.1500 
 42 H        1.3870     6.0480    -3.3910 H     1 <1>   0.0800 
 43 H        0.5280     4.9570    -2.3360 H     1 <1>   0.0800 
 44 H        0.4400     9.9360    -1.0690 H     1 <1>   0.1500 
 45 H        2.5460     4.8920    -0.8320 H     1 <1>   0.0800 
 46 H        3.3860     5.9140    -1.9720 H     1 <1>   0.0800 
 47 H        2.3100     3.1330    -2.5530 H     1 <1>   0.0800 
 48 H        3.9880     3.5460    -2.3050 H     1 <1>   0.0800 
 49 H        3.1450     4.1480    -3.7110 H     1 <1>   0.0800 
@<TRIPOS>BOND
  1   1   2  2   
  2   2   3  am  
  3   2   4  1   
  4   3   5  1   
  5   3   6  1   
  6   4   7  ar  
  7   4   8  ar  
  8   5   9  2   
  9   5  27  1   
 10   6  10  1   
 11   6  11  1   
 12   6  28  1   
 13   7   9  1   
 14   7  12  ar  
 15   8  13  ar  
 16   8  29  1   
 17  10  14  2   
 18  10  15  am  
 19  11  16  1   
 20  11  17  1   
 21  11  30  1   
 22  12  18  ar  
 23  12  31  1   
 24  13  18  ar  
 25  13  32  1   
 26  15  19  1   
 27  15  33  1   
 28  16  34  1   
 29  16  35  1   
 30  16  36  1   
 31  17  37  1   
 32  17  38  1   
 33  17  39  1   
 34  18  40  1   
 35  19  20  1   
 36  19  21  2   
 37  20  22  1   
 38  20  23  1   
 39  21  24  1   
 40  21  41  1   
 41  22  24  2   
 42  23  25  1   
 43  23  42  1   
 44  23  43  1   
 45  24  44  1   
 46  25  26  1   
 47  25  45  1   
 48  25  46  1   
 49  26  47  1   
 50  26  48  1   
 51  26  49  1   
@<TRIPOS>SUBSTRUCTURE
  1 ****   1 GROUP 4 **** **** 0

# MOE 2024.06 (io_trps.svl 2023.06)
