@<TRIPOS>MOLECULE
NONAME
43 45 1 0 0 
SMALL
USER_CHARGES


@<TRIPOS>ATOM
  1 O       -1.3220     0.7290    -1.9260 O.2   1 <1>  -0.5700 
  2 C       -1.7360     1.6670    -1.2630 C.2   1 <1>   0.5440 
  3 N       -3.0990     1.9350    -1.3250 N.am  1 <1>  -0.6600 
  4 C       -0.7640     2.4450    -0.4820 C.ar  1 <1>   0.3960 
  5 C       -4.0430     0.9660    -1.9530 C.3   1 <1>   0.1400 
  6 C       -3.7550     3.0870    -0.6630 C.3   1 <1>   0.1400 
  7 N       -1.0540     2.8600     0.7640 N.ar  1 <1>  -0.6200 
  8 C        0.4740     2.7240    -1.0650 C.ar  1 <1>  -0.1500 
  9 C       -4.5600    -0.0300    -0.9080 C.3   1 <1>   0.1400 
 10 C       -4.5230     2.6240     0.5760 C.3   1 <1>  -0.1600 
 11 C       -0.1240     3.5440     1.3930 C.ar  1 <1>   0.3920 
 12 C        1.4410     3.4410    -0.3920 C.ar  1 <1>  -0.1500 
 13 N       -5.7140     0.4640    -0.0830 N.am  1 <1>  -0.6600 
 14 C       -5.8440     1.9210     0.2390 C.3   1 <1>   0.1400 
 15 O       -0.4410     3.9490     2.6180 O.3   1 <1>  -0.5320 
 16 C        1.1240     3.8610     0.8780 C.ar  1 <1>  -0.1500 
 17 C       -6.7310    -0.4020     0.2900 C.2   1 <1>   0.7150 
 18 O       -7.8180     0.0820     0.5640 O.2   1 <1>  -0.5700 
 19 C       -6.5650    -1.8460     0.3460 C.2   1 <1>   0.0550 
 20 O       -5.3760    -2.3910     0.6060 O.3   1 <1>  -0.2800 
 21 C       -7.4660    -2.8640     0.1910 C.2   1 <1>  -0.1810 
 22 C       -5.4920    -3.6970     0.6210 C.2   1 <1>  -0.0100 
 23 C       -6.7660    -4.0570     0.3700 C.2   1 <1>  -0.1500 
 24 C       -8.9530    -2.8040    -0.1130 C.3   1 <1>  -0.0590 
 25 H       -3.5300     0.4170    -2.7240 H     1 <1>   0.0800 
 26 H       -4.8640     1.4800    -2.4210 H     1 <1>   0.0800 
 27 H       -4.4260     3.5630    -1.3580 H     1 <1>   0.0800 
 28 H       -3.0250     3.8240    -0.3810 H     1 <1>   0.0800 
 29 H        0.6720     2.3650    -2.0600 H     1 <1>   0.1500 
 30 H       -3.7500    -0.3160    -0.2580 H     1 <1>   0.0800 
 31 H       -4.8720    -0.9100    -1.4410 H     1 <1>   0.0800 
 32 H       -4.7660     3.5050     1.1400 H     1 <1>   0.0800 
 33 H       -3.9050     2.0080     1.2060 H     1 <1>   0.0800 
 34 H        2.3960     3.6560    -0.8410 H     1 <1>   0.1500 
 35 H       -6.3310     2.4190    -0.5810 H     1 <1>   0.0800 
 36 H       -6.4870     2.0230     1.0970 H     1 <1>   0.0800 
 37 H        0.2810     4.4130     3.0690 H     1 <1>   0.4500 
 38 H        1.8310     4.4230     1.4570 H     1 <1>   0.1500 
 39 H       -4.6210    -4.2980     0.8190 H     1 <1>   0.1500 
 40 H       -7.1830    -5.0470     0.3160 H     1 <1>   0.1500 
 41 H       -9.2540    -1.8080    -0.3800 H     1 <1>   0.0800 
 42 H       -9.5140    -3.1110     0.7510 H     1 <1>   0.0800 
 43 H       -9.1870    -3.4600    -0.9320 H     1 <1>   0.0800 
@<TRIPOS>BOND
  1   1   2  2   
  2   2   3  am  
  3   2   4  1   
  4   3   5  1   
  5   3   6  1   
  6   4   7  ar  
  7   4   8  ar  
  8   5   9  1   
  9   5  25  1   
 10   5  26  1   
 11   6  10  1   
 12   6  27  1   
 13   6  28  1   
 14   7  11  ar  
 15   8  12  ar  
 16   8  29  1   
 17   9  13  1   
 18   9  30  1   
 19   9  31  1   
 20  10  14  1   
 21  10  32  1   
 22  10  33  1   
 23  11  15  1   
 24  11  16  ar  
 25  12  16  ar  
 26  12  34  1   
 27  13  14  1   
 28  13  17  am  
 29  14  35  1   
 30  14  36  1   
 31  15  37  1   
 32  16  38  1   
 33  17  18  2   
 34  17  19  1   
 35  19  20  1   
 36  19  21  2   
 37  20  22  1   
 38  21  23  1   
 39  21  24  1   
 40  22  23  2   
 41  22  39  1   
 42  23  40  1   
 43  24  41  1   
 44  24  42  1   
 45  24  43  1   
@<TRIPOS>SUBSTRUCTURE
  1 ****   9 GROUP 4 **** **** 0

# MOE 2024.06 (io_trps.svl 2023.06)
