@<TRIPOS>MOLECULE
NONAME
41 44 1 0 0 
SMALL
USER_CHARGES


@<TRIPOS>ATOM
  1 O       -2.4490    -0.5080    -3.0930 O.2   1 <1>  -0.5700 
  2 C       -2.4780    -0.8740    -1.9500 C.2   1 <1>   0.5690 
  3 N       -2.3360     0.0110    -0.9490 N.am  1 <1>  -0.7300 
  4 C       -2.7200    -2.3260    -1.6390 C.3   1 <1>  -0.0190 
  5 C       -2.3690    -0.3050     0.4970 C.3   1 <1>   0.2200 
  6 C       -1.5410    -2.9510    -0.8600 C.3   1 <1>   0.1200 
  7 C       -4.1120    -2.4600    -1.0080 C.3   1 <1>   0.3430 
  8 C       -1.2410    -1.3040     0.8570 C.3   1 <1>   0.1200 
  9 C       -3.7870    -0.7900     0.9150 C.3   1 <1>   0.3430 
 10 O       -1.5480    -2.6300     0.5060 O.3   1 <1>  -0.5600 
 11 N       -4.1460    -2.1860     0.4720 N.4   1 <1>  -0.9590 
 12 C       -5.3750    -2.7040     1.1290 C.3   1 <1>   0.4860 
 13 C       -5.4640    -4.1910     0.8570 C.ar  1 <1>  -0.1440 
 14 C       -6.3990    -4.7020    -0.0560 C.ar  1 <1>  -0.1520 
 15 C       -4.5950    -5.0650     1.4760 C.ar  1 <1>  -0.1500 
 16 N       -7.3960    -4.1000    -0.7960 N.pl3 1 <1>   0.0330 
 17 C       -6.4170    -6.0620    -0.3530 C.ar  1 <1>   0.0000 
 18 C       -4.6270    -6.4330     1.1880 C.ar  1 <1>  -0.1500 
 19 C       -8.0050    -5.0570    -1.5530 C.2   1 <1>  -0.3020 
 20 C       -5.5250    -6.9330     0.2770 C.ar  1 <1>  -0.1500 
 21 C       -7.4350    -6.2580    -1.3090 C.2   1 <1>  -0.1500 
 22 H       -2.1180     0.9740    -1.2300 H     1 <1>   0.3700 
 23 H       -2.7610    -2.8260    -2.5900 H     1 <1>   0.0800 
 24 H       -2.1680     0.6140     1.0210 H     1 <1>   0.0800 
 25 H       -0.5970    -2.6480    -1.2830 H     1 <1>   0.0800 
 26 H       -1.6020    -4.0240    -0.9250 H     1 <1>   0.0800 
 27 H       -4.4400    -3.4720    -1.1830 H     1 <1>   0.0800 
 28 H       -4.7990    -1.8050    -1.5200 H     1 <1>   0.0800 
 29 H       -1.0900    -1.2970     1.9230 H     1 <1>   0.0800 
 30 H       -0.3110    -1.0220     0.3910 H     1 <1>   0.0800 
 31 H       -4.5130    -0.0890     0.5380 H     1 <1>   0.0800 
 32 H       -3.8330    -0.7550     1.9910 H     1 <1>   0.0800 
 33 H       -3.3630    -2.7740     0.8210 H     1 <1>   0.4500 
 34 H       -5.3230    -2.5440     2.1940 H     1 <1>   0.0800 
 35 H       -6.2480    -2.2010     0.7480 H     1 <1>   0.0800 
 36 H       -3.8670    -4.7220     2.1920 H     1 <1>   0.1500 
 37 H       -7.6900    -3.1190    -0.7620 H     1 <1>   0.2700 
 38 H       -3.9380    -7.0950     1.6860 H     1 <1>   0.1500 
 39 H       -8.8180    -4.8290    -2.2220 H     1 <1>   0.1500 
 40 H       -5.5600    -7.9810     0.0410 H     1 <1>   0.1500 
 41 H       -7.6830    -7.2140    -1.7380 H     1 <1>   0.1500 
@<TRIPOS>BOND
  1   1   2  2   
  2   2   3  am  
  3   2   4  1   
  4   3   5  1   
  5   3  22  1   
  6   4   6  1   
  7   4   7  1   
  8   4  23  1   
  9   5   8  1   
 10   5   9  1   
 11   5  24  1   
 12   6  10  1   
 13   6  25  1   
 14   6  26  1   
 15   7  11  1   
 16   7  27  1   
 17   7  28  1   
 18   8  10  1   
 19   8  29  1   
 20   8  30  1   
 21   9  11  1   
 22   9  31  1   
 23   9  32  1   
 24  11  12  1   
 25  11  33  1   
 26  12  13  1   
 27  12  34  1   
 28  12  35  1   
 29  13  14  ar  
 30  13  15  ar  
 31  14  16  1   
 32  14  17  ar  
 33  15  18  ar  
 34  15  36  1   
 35  16  19  1   
 36  16  37  1   
 37  17  20  ar  
 38  17  21  1   
 39  18  20  ar  
 40  18  38  1   
 41  19  21  2   
 42  19  39  1   
 43  20  40  1   
 44  21  41  1   
@<TRIPOS>SUBSTRUCTURE
  1 ****   7 GROUP 4 **** **** 0

# MOE 2024.06 (io_trps.svl 2023.06)
