@<TRIPOS>MOLECULE
NONAME
54 56 1 0 0 
SMALL
USER_CHARGES


@<TRIPOS>ATOM
  1 O       -3.2680    -1.6300    -2.3580 O.2   1 <1>  -0.5700 
  2 C       -3.6180    -0.9100    -1.4430 C.2   1 <1>   0.5440 
  3 N       -3.6780     0.4510    -1.6550 N.am  1 <1>  -0.6600 
  4 C       -3.9670    -1.5140    -0.1810 C.ar  1 <1>   0.0860 
  5 C       -3.1050     1.0780    -2.8840 C.3   1 <1>   0.1400 
  6 C       -4.4710     1.4120    -0.8310 C.3   1 <1>   0.1400 
  7 C       -4.8600    -2.5800    -0.1430 C.ar  1 <1>   0.1600 
  8 C       -3.4360    -1.0970     1.0350 C.ar  1 <1>  -0.1500 
  9 C       -2.3900     2.3950    -2.5360 C.3   1 <1>   0.1200 
 10 C       -3.6700     2.7030    -0.5900 C.3   1 <1>   0.1200 
 11 N       -5.2630    -3.2230     0.9410 N.ar  1 <1>  -0.6200 
 12 C       -3.8470    -1.7460     2.1740 C.ar  1 <1>  -0.1500 
 13 O       -3.2310     3.2430    -1.8040 O.3   1 <1>  -0.5600 
 14 C       -4.7600    -2.7940     2.0940 C.ar  1 <1>   0.4100 
 15 N       -5.1810    -3.4120     3.2430 N.pl3 1 <1>  -0.8690 
 16 C       -5.9330    -4.6910     3.2850 C.3   1 <1>   0.2090 
 17 C       -7.4050    -4.4500     2.9380 C.3   1 <1>  -0.0990 
 18 C       -7.8710    -5.4570     1.9150 C.2   1 <1>   0.5690 
 19 O       -8.7090    -6.2600     2.2420 O.2   1 <1>  -0.5700 
 20 N       -7.2940    -5.4100     0.6790 N.am  1 <1>  -0.5470 
 21 C       -7.4900    -6.2310    -0.4410 C.ar  1 <1>   0.1170 
 22 C       -6.4180    -6.5810    -1.2670 C.ar  1 <1>  -0.1430 
 23 C       -8.7620    -6.6950    -0.7620 C.ar  1 <1>  -0.1500 
 24 C       -6.6450    -7.3630    -2.3880 C.ar  1 <1>  -0.1500 
 25 C       -4.9890    -6.1400    -0.9750 C.3   1 <1>  -0.0970 
 26 C       -8.9840    -7.4820    -1.8780 C.ar  1 <1>  -0.1430 
 27 C       -7.9170    -7.8110    -2.6940 C.ar  1 <1>  -0.1500 
 28 C      -10.3800    -7.9780    -2.2060 C.3   1 <1>  -0.0970 
 29 H       -3.8970     1.2750    -3.5840 H     1 <1>   0.0800 
 30 H       -2.4040     0.4100    -3.3540 H     1 <1>   0.0800 
 31 H       -4.7520     0.9810     0.1110 H     1 <1>   0.0800 
 32 H       -5.3750     1.6610    -1.3600 H     1 <1>   0.0800 
 33 H       -5.2640    -2.9100    -1.0870 H     1 <1>   0.1500 
 34 H       -2.7220    -0.2920     1.0700 H     1 <1>   0.1500 
 35 H       -2.1060     2.9100    -3.4370 H     1 <1>   0.0800 
 36 H       -1.5050     2.2010    -1.9560 H     1 <1>   0.0800 
 37 H       -2.8130     2.5090     0.0310 H     1 <1>   0.0800 
 38 H       -4.2880     3.4400    -0.1090 H     1 <1>   0.0800 
 39 H       -3.4700    -1.4540     3.1360 H     1 <1>   0.1500 
 40 H       -4.7240    -3.1510     4.1190 H     1 <1>   0.4000 
 41 H       -5.8580    -5.1230     4.2680 H     1 <1>   0.0800 
 42 H       -5.4790    -5.3800     2.5920 H     1 <1>   0.0800 
 43 H       -7.5530    -3.4660     2.5340 H     1 <1>   0.0800 
 44 H       -8.0030    -4.5430     3.8250 H     1 <1>   0.0800 
 45 H       -6.5420    -4.7130     0.5900 H     1 <1>   0.3700 
 46 H       -9.5860    -6.4300    -0.1260 H     1 <1>   0.1500 
 47 H       -5.8270    -7.6320    -3.0330 H     1 <1>   0.1500 
 48 H       -4.8090    -6.0730     0.0820 H     1 <1>   0.0800 
 49 H       -4.8040    -5.1830    -1.4260 H     1 <1>   0.0800 
 50 H       -4.2880    -6.8460    -1.3820 H     1 <1>   0.0800 
 51 H       -8.0720    -8.4180    -3.5690 H     1 <1>   0.1500 
 52 H      -11.0050    -7.9550    -1.3310 H     1 <1>   0.0800 
 53 H      -10.3400    -8.9890    -2.5680 H     1 <1>   0.0800 
 54 H      -10.8200    -7.3530    -2.9630 H     1 <1>   0.0800 
@<TRIPOS>BOND
  1   1   2  2   
  2   2   3  am  
  3   2   4  1   
  4   3   5  1   
  5   3   6  1   
  6   4   7  ar  
  7   4   8  ar  
  8   5   9  1   
  9   5  29  1   
 10   5  30  1   
 11   6  10  1   
 12   6  31  1   
 13   6  32  1   
 14   7  11  ar  
 15   7  33  1   
 16   8  12  ar  
 17   8  34  1   
 18   9  13  1   
 19   9  35  1   
 20   9  36  1   
 21  10  13  1   
 22  10  37  1   
 23  10  38  1   
 24  11  14  ar  
 25  12  14  ar  
 26  12  39  1   
 27  14  15  1   
 28  15  16  1   
 29  15  40  1   
 30  16  17  1   
 31  16  41  1   
 32  16  42  1   
 33  17  18  1   
 34  17  43  1   
 35  17  44  1   
 36  18  19  2   
 37  18  20  am  
 38  20  21  1   
 39  20  45  1   
 40  21  22  ar  
 41  21  23  ar  
 42  22  24  ar  
 43  22  25  1   
 44  23  26  ar  
 45  23  46  1   
 46  24  27  ar  
 47  24  47  1   
 48  25  48  1   
 49  25  49  1   
 50  25  50  1   
 51  26  27  ar  
 52  26  28  1   
 53  27  51  1   
 54  28  52  1   
 55  28  53  1   
 56  28  54  1   
@<TRIPOS>SUBSTRUCTURE
  1 ****   7 GROUP 4 **** **** 0

# MOE 2024.06 (io_trps.svl 2023.06)
