@<TRIPOS>MOLECULE
NONAME
58 61 1 0 0 
SMALL
USER_CHARGES


@<TRIPOS>ATOM
  1 O       -1.0560    -0.0720     2.6560 O.2   1 <1>  -0.5700 
  2 C       -1.3630     0.5850     1.6840 C.2   1 <1>   0.5690 
  3 N       -2.3070     0.0830     0.8130 N.am  1 <1>  -0.6600 
  4 C       -0.7030     1.9910     1.5060 C.3   1 <1>   0.3410 
  5 C       -2.9200     0.7600    -0.3560 C.3   1 <1>   0.1400 
  6 C       -2.8710    -1.2850     0.9580 C.3   1 <1>   0.1400 
  7 O       -0.5450     2.2670     0.1080 O.3   1 <1>  -0.3630 
  8 C        0.6950     2.0420     2.1570 C.3   1 <1>  -0.2400 
  9 C       -1.6030     3.0610     2.1520 C.3   1 <1>  -0.2400 
 10 C       -4.2060    -0.0200    -0.6150 C.3   1 <1>   0.2000 
 11 C       -3.8710    -1.4540    -0.1990 C.3   1 <1>  -0.0800 
 12 C       -0.0790     3.4510    -0.3540 C.ar  1 <1>   0.0820 
 13 O       -5.1840     0.4550     0.2440 O.3   1 <1>  -0.6800 
 14 C       -3.2610    -2.2380    -1.3770 C.3   1 <1>  -0.0170 
 15 C        1.2740     3.6080    -0.6100 C.ar  1 <1>  -0.1500 
 16 C       -0.9590     4.4880    -0.6250 C.ar  1 <1>  -0.1500 
 17 C       -3.0430    -3.7010    -1.0280 C.ar  1 <1>   0.1670 
 18 C        1.7500     4.8110    -1.1010 C.ar  1 <1>  -0.1500 
 19 C       -0.4790     5.6900    -1.1170 C.ar  1 <1>  -0.1500 
 20 N       -1.8430    -4.0680    -0.7000 N.ar  1 <1>  -0.6200 
 21 C       -4.1380    -4.5790    -1.0750 C.ar  1 <1>  -0.1500 
 22 C        0.8770     5.8590    -1.3520 C.ar  1 <1>  -0.1440 
 23 C       -1.6440    -5.3730    -0.3800 C.ar  1 <1>   0.3100 
 24 C       -3.9680    -5.8930    -0.7620 C.ar  1 <1>  -0.1500 
 25 C        1.4010     7.1770    -1.8930 C.3   1 <1>  -0.0970 
 26 C       -2.6830    -6.3290    -0.3980 C.ar  1 <1>   0.0000 
 27 C       -0.3560    -5.7930    -0.0130 C.ar  1 <1>  -0.1500 
 28 C       -2.3910    -7.6640    -0.0530 C.ar  1 <1>  -0.1500 
 29 C       -0.0930    -7.0950     0.3190 C.ar  1 <1>  -0.1500 
 30 C       -1.1230    -8.0410     0.2980 C.ar  1 <1>  -0.1500 
 31 H       -3.1200     1.8000    -0.1700 H     1 <1>   0.0800 
 32 H       -2.2570     0.6680    -1.1990 H     1 <1>   0.0800 
 33 H       -2.0810    -2.0170     0.9330 H     1 <1>   0.0800 
 34 H       -3.3770    -1.3570     1.9060 H     1 <1>   0.0800 
 35 H        0.6220     1.8010     3.2020 H     1 <1>   0.0800 
 36 H        1.1270     3.0220     2.0780 H     1 <1>   0.0800 
 37 H        1.3410     1.3200     1.6920 H     1 <1>   0.0800 
 38 H       -1.7660     2.8100     3.1860 H     1 <1>   0.0800 
 39 H       -2.5590     3.0960     1.6650 H     1 <1>   0.0800 
 40 H       -1.1410     4.0300     2.1170 H     1 <1>   0.0800 
 41 H       -4.5670     0.0750    -1.6250 H     1 <1>   0.0800 
 42 H       -4.7540    -1.9710     0.1340 H     1 <1>   0.0800 
 43 H       -4.8170     0.4700     1.1510 H     1 <1>   0.4000 
 44 H       -2.3210    -1.8010    -1.6670 H     1 <1>   0.0800 
 45 H       -3.9180    -2.1860    -2.2270 H     1 <1>   0.0800 
 46 H        1.9470     2.7910    -0.4260 H     1 <1>   0.1500 
 47 H       -2.0100     4.3550    -0.4540 H     1 <1>   0.1500 
 48 H        2.8020     4.9270    -1.2920 H     1 <1>   0.1500 
 49 H       -1.1670     6.4920    -1.3190 H     1 <1>   0.1500 
 50 H       -5.1030    -4.2010    -1.3580 H     1 <1>   0.1500 
 51 H       -4.7820    -6.5950    -0.7870 H     1 <1>   0.1500 
 52 H        2.4030     7.3540    -1.5460 H     1 <1>   0.0800 
 53 H        0.7810     7.9920    -1.5640 H     1 <1>   0.0800 
 54 H        1.4030     7.1540    -2.9680 H     1 <1>   0.0800 
 55 H        0.4210    -5.0510    -0.0030 H     1 <1>   0.1500 
 56 H       -3.1880    -8.3850    -0.0710 H     1 <1>   0.1500 
 57 H        0.9000    -7.4040     0.5980 H     1 <1>   0.1500 
 58 H       -0.9030    -9.0610     0.5610 H     1 <1>   0.1500 
@<TRIPOS>BOND
  1   1   2  2   
  2   2   3  am  
  3   2   4  1   
  4   3   5  1   
  5   3   6  1   
  6   4   7  1   
  7   4   8  1   
  8   4   9  1   
  9   5  10  1   
 10   5  31  1   
 11   5  32  1   
 12   6  11  1   
 13   6  33  1   
 14   6  34  1   
 15   7  12  1   
 16   8  35  1   
 17   8  36  1   
 18   8  37  1   
 19   9  38  1   
 20   9  39  1   
 21   9  40  1   
 22  10  11  1   
 23  10  13  1   
 24  10  41  1   
 25  11  14  1   
 26  11  42  1   
 27  12  15  ar  
 28  12  16  ar  
 29  13  43  1   
 30  14  17  1   
 31  14  44  1   
 32  14  45  1   
 33  15  18  ar  
 34  15  46  1   
 35  16  19  ar  
 36  16  47  1   
 37  17  20  ar  
 38  17  21  ar  
 39  18  22  ar  
 40  18  48  1   
 41  19  22  ar  
 42  19  49  1   
 43  20  23  ar  
 44  21  24  ar  
 45  21  50  1   
 46  22  25  1   
 47  23  26  ar  
 48  23  27  ar  
 49  24  26  ar  
 50  24  51  1   
 51  25  52  1   
 52  25  53  1   
 53  25  54  1   
 54  26  28  ar  
 55  27  29  ar  
 56  27  55  1   
 57  28  30  ar  
 58  28  56  1   
 59  29  30  ar  
 60  29  57  1   
 61  30  58  1   
@<TRIPOS>SUBSTRUCTURE
  1 ****   3 GROUP 4 **** **** 0

# MOE 2024.06 (io_trps.svl 2023.06)
