@<TRIPOS>MOLECULE
NONAME
52 55 1 0 0 
SMALL
USER_CHARGES


@<TRIPOS>ATOM
  1 O       -0.1120    -0.6240    -0.1470 O.2   1 <1>  -0.5700 
  2 C       -0.9890     0.0830    -0.6030 C.2   1 <1>   0.7160 
  3 N       -1.8450    -0.4610    -1.5070 N.am  1 <1>  -0.7300 
  4 C       -1.1720     1.4380    -0.1780 C.2   1 <1>  -0.0860 
  5 C       -2.0290    -1.9190    -1.7670 C.3   1 <1>   0.2010 
  6 C       -2.3700     2.1610    -0.2630 C.2   1 <1>   0.3720 
  7 C       -0.3030     2.3410     0.3550 C.2   1 <1>   0.0870 
  8 C       -3.2900    -2.4710    -1.0940 C.2   1 <1>   0.5690 
  9 N       -2.2180     3.3660     0.1600 N.2   1 <1>  -0.4100 
 10 N       -3.5940     1.6560    -0.7330 N.pl3 1 <1>  -0.8210 
 11 O       -0.9690     3.4540     0.5260 O.3   1 <1>  -0.0190 
 12 C        1.0930     2.3000     0.7080 C.ar  1 <1>   0.0530 
 13 O       -4.2750    -2.6190    -1.7790 O.2   1 <1>  -0.5700 
 14 N       -3.3130    -2.7560     0.2470 N.am  1 <1>  -0.6600 
 15 C       -4.5090     2.6780    -1.3370 C.3   1 <1>   0.2090 
 16 C       -4.3360     0.8470     0.2860 C.3   1 <1>   0.2090 
 17 C        1.9500     3.3220     0.3020 C.ar  1 <1>  -0.1500 
 18 C        1.6390     1.2680     1.4690 C.ar  1 <1>  -0.1500 
 19 C       -2.1790    -2.6300     1.1920 C.3   1 <1>   0.1400 
 20 C       -4.5010    -3.3290     0.9150 C.3   1 <1>   0.1400 
 21 C       -5.8090     2.0280    -1.8460 C.3   1 <1>   0.1200 
 22 C       -5.6440     0.2800    -0.2980 C.3   1 <1>   0.1200 
 23 C        3.2920     3.3120     0.6310 C.ar  1 <1>  -0.1500 
 24 C        2.9810     1.2500     1.8010 C.ar  1 <1>  -0.1500 
 25 C       -2.6330    -3.3750     2.4420 C.3   1 <1>  -0.1600 
 26 C       -4.1580    -3.3080     2.4000 C.3   1 <1>  -0.1600 
 27 O       -6.4370     1.3080    -0.8220 O.3   1 <1>  -0.5600 
 28 C        3.8120     2.2730     1.3820 C.ar  1 <1>  -0.1500 
 29 H       -2.6670     0.1270    -1.7150 H     1 <1>   0.3700 
 30 H       -1.1710    -2.4700    -1.4270 H     1 <1>   0.0800 
 31 H       -2.1150    -2.0720    -2.8270 H     1 <1>   0.0800 
 32 H       -4.0080     3.1660    -2.1550 H     1 <1>   0.0800 
 33 H       -4.7580     3.4270    -0.6040 H     1 <1>   0.0800 
 34 H       -4.5680     1.4650     1.1370 H     1 <1>   0.0800 
 35 H       -3.7210     0.0330     0.6250 H     1 <1>   0.0800 
 36 H        1.5540     4.1360    -0.2810 H     1 <1>   0.1500 
 37 H        1.0040     0.4690     1.8090 H     1 <1>   0.1500 
 38 H       -2.0220    -1.5900     1.4220 H     1 <1>   0.0800 
 39 H       -1.2750    -3.0530     0.7880 H     1 <1>   0.0800 
 40 H       -4.6400    -4.3410     0.5730 H     1 <1>   0.0800 
 41 H       -5.3840    -2.7520     0.6970 H     1 <1>   0.0800 
 42 H       -5.6030     1.3580    -2.6620 H     1 <1>   0.0800 
 43 H       -6.4950     2.7850    -2.1820 H     1 <1>   0.0800 
 44 H       -6.2110    -0.2130     0.4710 H     1 <1>   0.0800 
 45 H       -5.4360    -0.4280    -1.0810 H     1 <1>   0.0800 
 46 H        3.9340     4.1120     0.3050 H     1 <1>   0.1500 
 47 H        3.3790     0.4390     2.3860 H     1 <1>   0.1500 
 48 H       -2.2260    -2.9390     3.3370 H     1 <1>   0.0800 
 49 H       -2.3100    -4.3990     2.3740 H     1 <1>   0.0800 
 50 H       -4.6190    -4.1230     2.9280 H     1 <1>   0.0800 
 51 H       -4.4960    -2.3790     2.8250 H     1 <1>   0.0800 
 52 H        4.8570     2.2600     1.6390 H     1 <1>   0.1500 
@<TRIPOS>BOND
  1   1   2  2   
  2   2   3  am  
  3   2   4  1   
  4   3   5  1   
  5   3  29  1   
  6   4   6  1   
  7   4   7  2   
  8   5   8  1   
  9   5  30  1   
 10   5  31  1   
 11   6   9  2   
 12   6  10  1   
 13   7  11  1   
 14   7  12  1   
 15   8  13  2   
 16   8  14  am  
 17   9  11  1   
 18  10  15  1   
 19  10  16  1   
 20  12  17  ar  
 21  12  18  ar  
 22  14  19  1   
 23  14  20  1   
 24  15  21  1   
 25  15  32  1   
 26  15  33  1   
 27  16  22  1   
 28  16  34  1   
 29  16  35  1   
 30  17  23  ar  
 31  17  36  1   
 32  18  24  ar  
 33  18  37  1   
 34  19  25  1   
 35  19  38  1   
 36  19  39  1   
 37  20  26  1   
 38  20  40  1   
 39  20  41  1   
 40  21  27  1   
 41  21  42  1   
 42  21  43  1   
 43  22  27  1   
 44  22  44  1   
 45  22  45  1   
 46  23  28  ar  
 47  23  46  1   
 48  24  28  ar  
 49  24  47  1   
 50  25  26  1   
 51  25  48  1   
 52  25  49  1   
 53  26  50  1   
 54  26  51  1   
 55  28  52  1   
@<TRIPOS>SUBSTRUCTURE
  1 ****   2 GROUP 4 **** **** 0

# MOE 2024.06 (io_trps.svl 2023.06)
