@<TRIPOS>MOLECULE
NONAME
47 48 1 0 0 
SMALL
USER_CHARGES


@<TRIPOS>ATOM
  1 CL      -0.1870     1.5530     3.0170 Cl    1 <1>  -0.1770 
  2 C        0.0940     2.5140     1.5870 C.ar  1 <1>   0.1770 
  3 C        1.2770     3.2130     1.4630 C.ar  1 <1>  -0.1500 
  4 C       -0.8760     2.5580     0.6020 C.ar  1 <1>  -0.1500 
  5 C        1.5090     3.9800     0.3310 C.ar  1 <1>   0.1000 
  6 C       -0.6510     3.3210    -0.5310 C.ar  1 <1>  -0.1500 
  7 N        2.7030     4.6810     0.2110 N.pl3 1 <1>  -0.8380 
  8 C        0.5340     4.0260    -0.6630 C.ar  1 <1>  -0.1500 
  9 C        2.6090     6.1680     0.2580 C.3   1 <1>   0.2090 
 10 C        3.6860     4.1490    -0.7750 C.3   1 <1>   0.2090 
 11 C        4.0050     6.7970     0.4530 C.3   1 <1>   0.3430 
 12 C        5.0710     4.7990    -0.5680 C.3   1 <1>   0.3430 
 13 N        5.0150     6.3100    -0.5670 N.4   1 <1>  -0.9590 
 14 C        6.3690     6.8900    -0.3520 C.3   1 <1>   0.3430 
 15 C        6.3530     8.3840    -0.6690 C.3   1 <1>  -0.1600 
 16 C        7.7670     8.9950    -0.6310 C.3   1 <1>  -0.0550 
 17 S        7.7840    10.7390    -1.0640 S.o2  1 <1>   1.3330 
 18 O        7.0630    10.8570    -2.3110 O.2   1 <1>  -0.6500 
 19 O        9.1330    11.2360    -0.9360 O.2   1 <1>  -0.6500 
 20 N        6.8360    11.4270     0.1670 N.am  1 <1>  -0.8490 
 21 C        7.6090    11.7560     1.3720 C.3   1 <1>   0.1160 
 22 C        6.1300    12.6290    -0.2940 C.3   1 <1>   0.1160 
 23 H        2.0140     3.1640     2.2410 H     1 <1>   0.1500 
 24 H       -1.7890     2.0030     0.7250 H     1 <1>   0.1500 
 25 H       -1.3970     3.3650    -1.3060 H     1 <1>   0.1500 
 26 H        0.7030     4.6150    -1.5450 H     1 <1>   0.1500 
 27 H        1.9700     6.4560     1.0760 H     1 <1>   0.0800 
 28 H        2.1660     6.5340    -0.6520 H     1 <1>   0.0800 
 29 H        3.3360     4.3380    -1.7750 H     1 <1>   0.0800 
 30 H        3.7690     3.0820    -0.6500 H     1 <1>   0.0800 
 31 H        4.3450     6.5460     1.4440 H     1 <1>   0.0800 
 32 H        3.9100     7.8680     0.3980 H     1 <1>   0.0800 
 33 H        5.7350     4.4560    -1.3450 H     1 <1>   0.0800 
 34 H        5.4600     4.4530     0.3750 H     1 <1>   0.0800 
 35 H        4.6800     6.6040    -1.4940 H     1 <1>   0.4500 
 36 H        7.0750     6.4030    -1.0060 H     1 <1>   0.0800 
 37 H        6.6860     6.7290     0.6670 H     1 <1>   0.0800 
 38 H        5.7400     8.9100     0.0420 H     1 <1>   0.0800 
 39 H        5.9450     8.5370    -1.6530 H     1 <1>   0.0800 
 40 H        8.3980     8.4730    -1.3260 H     1 <1>   0.0800 
 41 H        8.1890     8.8760     0.3480 H     1 <1>   0.0800 
 42 H        8.1250    10.8840     1.7360 H     1 <1>   0.0800 
 43 H        6.9530    12.1120     2.1480 H     1 <1>   0.0800 
 44 H        8.3390    12.5200     1.1560 H     1 <1>   0.0800 
 45 H        5.4740    12.3840    -1.1120 H     1 <1>   0.0800 
 46 H        6.8360    13.3720    -0.6290 H     1 <1>   0.0800 
 47 H        5.5340    13.0420     0.5020 H     1 <1>   0.0800 
@<TRIPOS>BOND
  1   1   2  1   
  2   2   3  ar  
  3   2   4  ar  
  4   3   5  ar  
  5   3  23  1   
  6   4   6  ar  
  7   4  24  1   
  8   5   7  1   
  9   5   8  ar  
 10   6   8  ar  
 11   6  25  1   
 12   7   9  1   
 13   7  10  1   
 14   8  26  1   
 15   9  11  1   
 16   9  27  1   
 17   9  28  1   
 18  10  12  1   
 19  10  29  1   
 20  10  30  1   
 21  11  13  1   
 22  11  31  1   
 23  11  32  1   
 24  12  13  1   
 25  12  33  1   
 26  12  34  1   
 27  13  14  1   
 28  13  35  1   
 29  14  15  1   
 30  14  36  1   
 31  14  37  1   
 32  15  16  1   
 33  15  38  1   
 34  15  39  1   
 35  16  17  1   
 36  16  40  1   
 37  16  41  1   
 38  17  18  2   
 39  17  19  2   
 40  17  20  am  
 41  20  21  1   
 42  20  22  1   
 43  21  42  1   
 44  21  43  1   
 45  21  44  1   
 46  22  45  1   
 47  22  46  1   
 48  22  47  1   
@<TRIPOS>SUBSTRUCTURE
  1 ****  11 GROUP 4 **** **** 0

# MOE 2024.06 (io_trps.svl 2023.06)
