@<TRIPOS>MOLECULE
NONAME
49 51 1 0 0 
SMALL
USER_CHARGES


@<TRIPOS>ATOM
  1 O       -2.1710     0.6050    -2.2780 O.2   1 <1>  -0.5700 
  2 C       -2.0340     0.9090    -1.1100 C.2   1 <1>   0.5440 
  3 N       -2.2110    -0.0850    -0.1700 N.am  1 <1>  -0.6600 
  4 C       -1.8120     2.2930    -0.7280 C.ar  1 <1>   0.0860 
  5 C       -2.9490     0.1740     1.1000 C.3   1 <1>   0.1400 
  6 C       -2.2390    -1.5160    -0.5870 C.3   1 <1>   0.1400 
  7 C       -0.7530     2.7030     0.0940 C.ar  1 <1>  -0.1440 
  8 C       -2.7060     3.2650    -1.1760 C.ar  1 <1>  -0.1500 
  9 C       -4.4180    -0.3030     0.9850 C.3   1 <1>   0.4230 
 10 C       -3.6980    -1.9720    -0.7550 C.3   1 <1>   0.3430 
 11 C       -0.6420     4.0310     0.4760 C.ar  1 <1>  -0.1500 
 12 C        0.3090     1.7210     0.5750 C.3   1 <1>  -0.0960 
 13 C       -2.5880     4.5880    -0.7970 C.ar  1 <1>  -0.1500 
 14 N       -4.5180    -1.7440     0.5010 N.4   1 <1>  -0.9590 
 15 C       -5.2280     0.6430     0.0680 C.3   1 <1>   0.1200 
 16 C       -1.5560     4.9710     0.0380 C.ar  1 <1>  -0.1500 
 17 C       -5.9700    -2.1100     0.3370 C.3   1 <1>   0.4230 
 18 O       -6.5560     0.2120    -0.0200 O.3   1 <1>  -0.5600 
 19 C       -6.7210    -1.0770    -0.5390 C.3   1 <1>   0.1200 
 20 C       -6.1120    -3.5510    -0.1810 C.3   1 <1>  -0.1600 
 21 C       -7.5370    -4.1000    -0.0020 C.3   1 <1>  -0.1600 
 22 C       -7.6170    -5.5610    -0.4520 C.3   1 <1>  -0.2400 
 23 H       -2.4610    -0.3480     1.9050 H     1 <1>   0.0800 
 24 H       -2.9300     1.2230     1.3430 H     1 <1>   0.0800 
 25 H       -1.7120    -1.6440    -1.5180 H     1 <1>   0.0800 
 26 H       -1.7400    -2.1200     0.1520 H     1 <1>   0.0800 
 27 H       -3.5040     2.9770    -1.8380 H     1 <1>   0.1500 
 28 H       -4.8580    -0.2330     1.9650 H     1 <1>   0.0800 
 29 H       -3.7060    -3.0170    -1.0180 H     1 <1>   0.0800 
 30 H       -4.1250    -1.4210    -1.5770 H     1 <1>   0.0800 
 31 H        0.1650     4.3480     1.1140 H     1 <1>   0.1500 
 32 H        1.1910     2.2430     0.9030 H     1 <1>   0.0800 
 33 H        0.5980     1.0600    -0.2230 H     1 <1>   0.0800 
 34 H       -0.0650     1.1370     1.3960 H     1 <1>   0.0800 
 35 H       -3.2920     5.3210    -1.1530 H     1 <1>   0.1500 
 36 H       -4.1310    -2.3440     1.2370 H     1 <1>   0.4500 
 37 H       -4.8140     0.6880    -0.9250 H     1 <1>   0.0800 
 38 H       -5.2380     1.6390     0.4760 H     1 <1>   0.0800 
 39 H       -1.4590     6.0000     0.3400 H     1 <1>   0.1500 
 40 H       -6.4330    -2.0780     1.3110 H     1 <1>   0.0800 
 41 H       -7.7760    -1.2840    -0.5420 H     1 <1>   0.0800 
 42 H       -6.3690    -1.0900    -1.5560 H     1 <1>   0.0800 
 43 H       -5.8580    -3.5990    -1.2260 H     1 <1>   0.0800 
 44 H       -5.4410    -4.1900     0.3660 H     1 <1>   0.0800 
 45 H       -7.8290    -4.0400     1.0340 H     1 <1>   0.0800 
 46 H       -8.2410    -3.5270    -0.5810 H     1 <1>   0.0800 
 47 H       -6.9540    -6.1790     0.1280 H     1 <1>   0.0800 
 48 H       -7.3580    -5.6560    -1.4930 H     1 <1>   0.0800 
 49 H       -8.6200    -5.9310    -0.3210 H     1 <1>   0.0800 
@<TRIPOS>BOND
  1   1   2  2   
  2   2   3  am  
  3   2   4  1   
  4   3   5  1   
  5   3   6  1   
  6   4   7  ar  
  7   4   8  ar  
  8   5   9  1   
  9   5  23  1   
 10   5  24  1   
 11   6  10  1   
 12   6  25  1   
 13   6  26  1   
 14   7  11  ar  
 15   7  12  1   
 16   8  13  ar  
 17   8  27  1   
 18   9  14  1   
 19   9  15  1   
 20   9  28  1   
 21  10  14  1   
 22  10  29  1   
 23  10  30  1   
 24  11  16  ar  
 25  11  31  1   
 26  12  32  1   
 27  12  33  1   
 28  12  34  1   
 29  13  16  ar  
 30  13  35  1   
 31  14  17  1   
 32  14  36  1   
 33  15  18  1   
 34  15  37  1   
 35  15  38  1   
 36  16  39  1   
 37  17  19  1   
 38  17  20  1   
 39  17  40  1   
 40  18  19  1   
 41  19  41  1   
 42  19  42  1   
 43  20  21  1   
 44  20  43  1   
 45  20  44  1   
 46  21  22  1   
 47  21  45  1   
 48  21  46  1   
 49  22  47  1   
 50  22  48  1   
 51  22  49  1   
@<TRIPOS>SUBSTRUCTURE
  1 ****   3 GROUP 4 **** **** 0

# MOE 2024.06 (io_trps.svl 2023.06)
