@<TRIPOS>MOLECULE
NONAME
52 55 1 0 0 
SMALL
USER_CHARGES


@<TRIPOS>ATOM
  1 O       -0.8660     0.3950    -0.7620 O.2   1 <1>  -0.5700 
  2 C       -1.2850     1.3780    -0.1690 C.2   1 <1>   0.5440 
  3 N       -2.5120     1.2580     0.4690 N.am  1 <1>  -0.6600 
  4 C       -0.4910     2.6130    -0.1960 C.ar  1 <1>   0.3960 
  5 C       -3.1030    -0.0920     0.7130 C.3   1 <1>   0.1400 
  6 C       -3.3070     2.4350     0.9270 C.3   1 <1>   0.1400 
  7 N       -0.4290     3.4030     0.8920 N.ar  1 <1>  -0.6200 
  8 C        0.1950     2.9350    -1.3690 C.ar  1 <1>  -0.1500 
  9 C       -3.9600    -0.5510    -0.4750 C.3   1 <1>   0.1400 
 10 C       -4.8110     2.3120     0.6470 C.3   1 <1>  -0.1600 
 11 C        0.2930     4.4960     0.7920 C.ar  1 <1>   0.4100 
 12 C        0.9520     4.0840    -1.4610 C.ar  1 <1>  -0.1500 
 13 N       -5.2530     0.1990    -0.5750 N.am  1 <1>  -0.6600 
 14 C       -5.1440     1.6800    -0.7090 C.3   1 <1>   0.1400 
 15 N        0.3190     5.2480     1.9190 N.pl3 1 <1>  -0.9000 
 16 C        0.9930     4.8800    -0.3440 C.ar  1 <1>  -0.1500 
 17 C       -6.4880    -0.4020    -0.4240 C.2   1 <1>   0.5440 
 18 O       -7.4350     0.2880    -0.0910 O.2   1 <1>  -0.5700 
 19 C       -6.6910    -1.8230    -0.6350 C.ar  1 <1>   0.0860 
 20 C       -7.3870    -2.5900     0.2990 C.ar  1 <1>  -0.1500 
 21 C       -6.2130    -2.4710    -1.7760 C.ar  1 <1>  -0.1500 
 22 C       -7.5870    -3.9490     0.1250 C.ar  1 <1>  -0.1430 
 23 C       -6.4030    -3.8270    -1.9620 C.ar  1 <1>  -0.1500 
 24 C       -7.0830    -4.5720    -1.0130 C.ar  1 <1>   0.0830 
 25 C       -8.3550    -4.7470     1.1640 C.3   1 <1>  -0.0170 
 26 O       -7.2470    -5.8950    -1.2400 O.3   1 <1>  -0.3630 
 27 C       -8.8540    -6.0620     0.5590 C.3   1 <1>  -0.1600 
 28 C       -7.7180    -6.7420    -0.2110 C.3   1 <1>   0.1200 
 29 H       -3.6910    -0.0870     1.6140 H     1 <1>   0.0800 
 30 H       -2.3050    -0.8000     0.8530 H     1 <1>   0.0800 
 31 H       -2.9560     3.3160     0.4190 H     1 <1>   0.0800 
 32 H       -3.1450     2.5810     1.9810 H     1 <1>   0.0800 
 33 H        0.1290     2.2700    -2.2110 H     1 <1>   0.1500 
 34 H       -4.1540    -1.6000    -0.3450 H     1 <1>   0.0800 
 35 H       -3.4010    -0.4330    -1.3860 H     1 <1>   0.0800 
 36 H       -5.2240     3.3040     0.6670 H     1 <1>   0.0800 
 37 H       -5.2970     1.7620     1.4330 H     1 <1>   0.0800 
 38 H        1.4810     4.3400    -2.3630 H     1 <1>   0.1500 
 39 H       -4.3970     1.9290    -1.4420 H     1 <1>   0.0800 
 40 H       -6.0850     2.0710    -1.0580 H     1 <1>   0.0800 
 41 H        1.1970     5.7130     2.1460 H     1 <1>   0.4000 
 42 H       -0.0920     4.7650     2.7190 H     1 <1>   0.4000 
 43 H        1.5540     5.7950    -0.3370 H     1 <1>   0.1500 
 44 H       -7.7760    -2.0960     1.1720 H     1 <1>   0.1500 
 45 H       -5.6920    -1.8980    -2.5220 H     1 <1>   0.1500 
 46 H       -6.0310    -4.3190    -2.8430 H     1 <1>   0.1500 
 47 H       -9.1920    -4.1760     1.5280 H     1 <1>   0.0800 
 48 H       -7.7000    -4.9560     1.9920 H     1 <1>   0.0800 
 49 H       -9.6680    -5.8690    -0.1190 H     1 <1>   0.0800 
 50 H       -9.2110    -6.7110     1.3370 H     1 <1>   0.0800 
 51 H       -6.8900    -6.9590     0.4410 H     1 <1>   0.0800 
 52 H       -8.0570    -7.6550    -0.6690 H     1 <1>   0.0800 
@<TRIPOS>BOND
  1   1   2  2   
  2   2   3  am  
  3   2   4  1   
  4   3   5  1   
  5   3   6  1   
  6   4   7  ar  
  7   4   8  ar  
  8   5   9  1   
  9   5  29  1   
 10   5  30  1   
 11   6  10  1   
 12   6  31  1   
 13   6  32  1   
 14   7  11  ar  
 15   8  12  ar  
 16   8  33  1   
 17   9  13  1   
 18   9  34  1   
 19   9  35  1   
 20  10  14  1   
 21  10  36  1   
 22  10  37  1   
 23  11  15  1   
 24  11  16  ar  
 25  12  16  ar  
 26  12  38  1   
 27  13  14  1   
 28  13  17  am  
 29  14  39  1   
 30  14  40  1   
 31  15  41  1   
 32  15  42  1   
 33  16  43  1   
 34  17  18  2   
 35  17  19  1   
 36  19  20  ar  
 37  19  21  ar  
 38  20  22  ar  
 39  20  44  1   
 40  21  23  ar  
 41  21  45  1   
 42  22  24  ar  
 43  22  25  1   
 44  23  24  ar  
 45  23  46  1   
 46  24  26  1   
 47  25  27  1   
 48  25  47  1   
 49  25  48  1   
 50  26  28  1   
 51  27  28  1   
 52  27  49  1   
 53  27  50  1   
 54  28  51  1   
 55  28  52  1   
@<TRIPOS>SUBSTRUCTURE
  1 ****   9 GROUP 4 **** **** 0

# MOE 2024.06 (io_trps.svl 2023.06)
