@<TRIPOS>MOLECULE
NONAME
65 67 1 0 0 
SMALL
USER_CHARGES


@<TRIPOS>ATOM
  1 O       -1.1680     1.9240     2.6670 O.2   1 <1>  -0.5700 
  2 C       -0.3990     2.7360     2.2240 C.2   1 <1>   0.5690 
  3 N        0.6330     2.3500     1.4390 N.am  1 <1>  -0.7300 
  4 C       -0.5850     4.2060     2.5550 C.3   1 <1>  -0.0990 
  5 C        1.5960     3.2390     0.7430 C.3   1 <1>   0.1400 
  6 C        0.1300     5.1380     1.5600 C.3   1 <1>  -0.1600 
  7 C        1.5780     4.6610     1.3250 C.3   1 <1>  -0.0190 
  8 C        2.4460     5.5600     0.4430 C.2   1 <1>   0.5690 
  9 O        3.5980     5.7350     0.7690 O.2   1 <1>  -0.5700 
 10 N        1.9980     6.1350    -0.7180 N.am  1 <1>  -0.6600 
 11 C        2.8680     6.0380    -1.9370 C.3   1 <1>   0.1400 
 12 C        1.0910     7.3180    -0.7090 C.3   1 <1>   0.1400 
 13 C        3.8070     7.2500    -2.1360 C.3   1 <1>   0.3430 
 14 C        1.7530     8.5020     0.0130 C.3   1 <1>  -0.1600 
 15 N        4.0380     7.9950    -0.8610 N.4   1 <1>  -0.9590 
 16 C        3.0190     9.0590    -0.6490 C.3   1 <1>   0.3430 
 17 C        5.4440     8.4740    -0.7480 C.3   1 <1>   0.3430 
 18 C        5.7960     8.8210     0.6990 C.3   1 <1>  -0.0220 
 19 C        7.3140     8.9550     0.8240 C.2   1 <1>  -0.2760 
 20 C        8.1060     7.8820     1.0030 C.2   1 <1>  -0.2760 
 21 C        7.8600    10.4000     0.7490 C.3   1 <1>   0.1380 
 22 C        9.6190     7.9720     1.1850 C.3   1 <1>  -0.0220 
 23 C        7.6590     6.4200     1.0560 C.3   1 <1>  -0.1020 
 24 C        9.3930    10.3910     0.5640 C.3   1 <1>  -0.1600 
 25 C        7.2760    11.1850    -0.4390 C.3   1 <1>  -0.2400 
 26 C        7.5050    11.1390     2.0500 C.3   1 <1>  -0.2400 
 27 C       10.0930     9.3930     1.4870 C.3   1 <1>  -0.1600 
 28 H        0.6940     1.3460     1.2500 H     1 <1>   0.3700 
 29 H       -0.2000     4.3660     3.5460 H     1 <1>   0.0800 
 30 H       -1.6370     4.4250     2.5710 H     1 <1>   0.0800 
 31 H        1.3340     3.2700    -0.3010 H     1 <1>   0.0800 
 32 H        2.5880     2.8260     0.8310 H     1 <1>   0.0800 
 33 H        0.1220     6.1420     1.9470 H     1 <1>   0.0800 
 34 H       -0.4110     5.1160     0.6300 H     1 <1>   0.0800 
 35 H        2.0630     4.6170     2.2850 H     1 <1>   0.0800 
 36 H        2.2530     5.9110    -2.8110 H     1 <1>   0.0800 
 37 H        3.4780     5.1540    -1.8550 H     1 <1>   0.0800 
 38 H        0.1680     7.0710    -0.2170 H     1 <1>   0.0800 
 39 H        0.8420     7.5950    -1.7200 H     1 <1>   0.0800 
 40 H        3.3860     7.9120    -2.8740 H     1 <1>   0.0800 
 41 H        4.7430     6.8870    -2.5270 H     1 <1>   0.0800 
 42 H        1.9720     8.2320     1.0310 H     1 <1>   0.0800 
 43 H        1.0350     9.3010     0.0600 H     1 <1>   0.0800 
 44 H        3.9030     7.2780    -0.1130 H     1 <1>   0.4500 
 45 H        3.4230     9.8270    -0.0090 H     1 <1>   0.0800 
 46 H        2.7700     9.5180    -1.5920 H     1 <1>   0.0800 
 47 H        5.6070     9.3280    -1.3830 H     1 <1>   0.0800 
 48 H        6.1130     7.6910    -1.0650 H     1 <1>   0.0800 
 49 H        5.4570     8.0400     1.3540 H     1 <1>   0.0800 
 50 H        5.3000     9.7200     1.0090 H     1 <1>   0.0800 
 51 H       10.0960     7.6210     0.2860 H     1 <1>   0.0800 
 52 H        9.9320     7.3350     1.9940 H     1 <1>   0.0800 
 53 H        8.2220     5.8400     0.3460 H     1 <1>   0.0800 
 54 H        6.6190     6.2810     0.8350 H     1 <1>   0.0800 
 55 H        7.8440     6.0210     2.0380 H     1 <1>   0.0800 
 56 H        9.7930    11.3760     0.7320 H     1 <1>   0.0800 
 57 H        9.6270    10.1200    -0.4510 H     1 <1>   0.0800 
 58 H        7.4580    10.6590    -1.3590 H     1 <1>   0.0800 
 59 H        7.7480    12.1500    -0.5090 H     1 <1>   0.0800 
 60 H        6.2220    11.3520    -0.3290 H     1 <1>   0.0800 
 61 H        7.8310    10.5730     2.9030 H     1 <1>   0.0800 
 62 H        6.4470    11.2900     2.1410 H     1 <1>   0.0800 
 63 H        7.9800    12.1030     2.0810 H     1 <1>   0.0800 
 64 H       11.1590     9.4520     1.3510 H     1 <1>   0.0800 
 65 H        9.8810     9.6290     2.5150 H     1 <1>   0.0800 
@<TRIPOS>BOND
  1   1   2  2   
  2   2   3  am  
  3   2   4  1   
  4   3   5  1   
  5   3  28  1   
  6   4   6  1   
  7   4  29  1   
  8   4  30  1   
  9   5   7  1   
 10   5  31  1   
 11   5  32  1   
 12   6   7  1   
 13   6  33  1   
 14   6  34  1   
 15   7   8  1   
 16   7  35  1   
 17   8   9  2   
 18   8  10  am  
 19  10  11  1   
 20  10  12  1   
 21  11  13  1   
 22  11  36  1   
 23  11  37  1   
 24  12  14  1   
 25  12  38  1   
 26  12  39  1   
 27  13  15  1   
 28  13  40  1   
 29  13  41  1   
 30  14  16  1   
 31  14  42  1   
 32  14  43  1   
 33  15  16  1   
 34  15  17  1   
 35  15  44  1   
 36  16  45  1   
 37  16  46  1   
 38  17  18  1   
 39  17  47  1   
 40  17  48  1   
 41  18  19  1   
 42  18  49  1   
 43  18  50  1   
 44  19  20  2   
 45  19  21  1   
 46  20  22  1   
 47  20  23  1   
 48  21  24  1   
 49  21  25  1   
 50  21  26  1   
 51  22  27  1   
 52  22  51  1   
 53  22  52  1   
 54  23  53  1   
 55  23  54  1   
 56  23  55  1   
 57  24  27  1   
 58  24  56  1   
 59  24  57  1   
 60  25  58  1   
 61  25  59  1   
 62  25  60  1   
 63  26  61  1   
 64  26  62  1   
 65  26  63  1   
 66  27  64  1   
 67  27  65  1   
@<TRIPOS>SUBSTRUCTURE
  1 ****   9 GROUP 4 **** **** 0

# MOE 2024.06 (io_trps.svl 2023.06)
