@<TRIPOS>MOLECULE
NONAME
59 62 1 0 0 
SMALL
USER_CHARGES


@<TRIPOS>ATOM
  1 O        1.9680    -1.1020     2.4970 O.2   1 <1>  -0.5700 
  2 C        1.6370    -1.5130     1.4100 C.2   1 <1>   0.5690 
  3 N        1.7780    -0.7850     0.2750 N.am  1 <1>  -0.7300 
  4 C        1.0130    -2.9050     1.2970 C.3   1 <1>   0.1710 
  5 C        2.3040     0.5820     0.1690 C.3   1 <1>   0.2200 
  6 N        0.0390    -3.0600     0.1700 N.3   1 <1>  -0.8100 
  7 C        1.1520     1.4950    -0.2720 C.3   1 <1>  -0.1600 
  8 C        3.5020     0.5450    -0.7860 C.3   1 <1>  -0.1600 
  9 C       -1.1890    -2.2690     0.3740 C.3   1 <1>   0.1100 
 10 C       -0.4260    -4.4450     0.0640 C.3   1 <1>   0.1100 
 11 C        1.4890     2.9850    -0.1060 C.3   1 <1>  -0.1600 
 12 C        4.1340     1.9130    -1.0940 C.3   1 <1>  -0.1600 
 13 C       -2.2000    -3.1730     1.0920 C.3   1 <1>   0.2000 
 14 C       -1.5890    -4.5740     1.0510 C.3   1 <1>  -0.0800 
 15 C        2.2040     3.6260    -1.3060 C.3   1 <1>  -0.1600 
 16 C        3.2580     2.7670    -2.0210 C.3   1 <1>  -0.1600 
 17 O       -2.3520    -2.7790     2.4120 O.3   1 <1>  -0.6800 
 18 C       -2.6050    -5.6690     0.6900 C.3   1 <1>  -0.0170 
 19 C       -1.9340    -7.0400     0.6690 C.ar  1 <1>  -0.1440 
 20 C       -1.4400    -7.6580    -0.5070 C.ar  1 <1>   0.0000 
 21 C       -1.7740    -7.7100     1.8460 C.ar  1 <1>  -0.1500 
 22 C       -0.7870    -8.9080    -0.3640 C.ar  1 <1>   0.3100 
 23 C       -1.5490    -7.1210    -1.8120 C.ar  1 <1>  -0.1500 
 24 C       -1.1270    -8.9500     1.8740 C.ar  1 <1>   0.1600 
 25 N       -0.6410    -9.5380     0.8280 N.ar  1 <1>  -0.6200 
 26 C       -0.2630    -9.5390    -1.5030 C.ar  1 <1>  -0.1500 
 27 C       -1.0300    -7.7630    -2.9030 C.ar  1 <1>  -0.1500 
 28 C       -0.3750    -8.9870    -2.7500 C.ar  1 <1>  -0.1500 
 29 H        1.3990    -1.2030    -0.5790 H     1 <1>   0.3700 
 30 H        0.5410    -3.1400     2.2340 H     1 <1>   0.0800 
 31 H        1.8220    -3.6000     1.1560 H     1 <1>   0.0800 
 32 H        2.6450     0.8980     1.1420 H     1 <1>   0.0800 
 33 H        0.8610     1.2840    -1.2860 H     1 <1>   0.0800 
 34 H        0.3110     1.2860     0.3660 H     1 <1>   0.0800 
 35 H        4.2570    -0.0730    -0.3330 H     1 <1>   0.0800 
 36 H        3.2120     0.0760    -1.7100 H     1 <1>   0.0800 
 37 H       -1.0080    -1.3520     0.9100 H     1 <1>   0.0800 
 38 H       -1.5860    -2.0200    -0.5950 H     1 <1>   0.0800 
 39 H       -0.7770    -4.6000    -0.9410 H     1 <1>   0.0800 
 40 H        0.3590    -5.1550     0.2660 H     1 <1>   0.0800 
 41 H        0.5740     3.5290     0.0580 H     1 <1>   0.0800 
 42 H        2.0870     3.1180     0.7790 H     1 <1>   0.0800 
 43 H        4.3610     2.4430    -0.1850 H     1 <1>   0.0800 
 44 H        5.0680     1.7310    -1.5980 H     1 <1>   0.0800 
 45 H       -3.1630    -3.1220     0.6150 H     1 <1>   0.0800 
 46 H       -1.1660    -4.8140     2.0110 H     1 <1>   0.0800 
 47 H        1.4650     3.9140    -2.0340 H     1 <1>   0.0800 
 48 H        2.6720     4.5330    -0.9640 H     1 <1>   0.0800 
 49 H        3.8960     3.4320    -2.5790 H     1 <1>   0.0800 
 50 H        2.7730     2.1320    -2.7420 H     1 <1>   0.0800 
 51 H       -1.4770    -2.6550     2.8260 H     1 <1>   0.4000 
 52 H       -3.0880    -5.4510    -0.2440 H     1 <1>   0.0800 
 53 H       -3.3780    -5.6730     1.4390 H     1 <1>   0.0800 
 54 H       -2.1290    -7.3040     2.7760 H     1 <1>   0.1500 
 55 H       -2.0530    -6.1870    -1.9640 H     1 <1>   0.1500 
 56 H       -1.0240    -9.4430     2.8260 H     1 <1>   0.1500 
 57 H        0.2330   -10.4810    -1.3610 H     1 <1>   0.1500 
 58 H       -1.1200    -7.3400    -3.8890 H     1 <1>   0.1500 
 59 H        0.0310    -9.4830    -3.6140 H     1 <1>   0.1500 
@<TRIPOS>BOND
  1   1   2  2   
  2   2   3  am  
  3   2   4  1   
  4   3   5  1   
  5   3  29  1   
  6   4   6  1   
  7   4  30  1   
  8   4  31  1   
  9   5   7  1   
 10   5   8  1   
 11   5  32  1   
 12   6   9  1   
 13   6  10  1   
 14   7  11  1   
 15   7  33  1   
 16   7  34  1   
 17   8  12  1   
 18   8  35  1   
 19   8  36  1   
 20   9  13  1   
 21   9  37  1   
 22   9  38  1   
 23  10  14  1   
 24  10  39  1   
 25  10  40  1   
 26  11  15  1   
 27  11  41  1   
 28  11  42  1   
 29  12  16  1   
 30  12  43  1   
 31  12  44  1   
 32  13  14  1   
 33  13  17  1   
 34  13  45  1   
 35  14  18  1   
 36  14  46  1   
 37  15  16  1   
 38  15  47  1   
 39  15  48  1   
 40  16  49  1   
 41  16  50  1   
 42  17  51  1   
 43  18  19  1   
 44  18  52  1   
 45  18  53  1   
 46  19  20  ar  
 47  19  21  ar  
 48  20  22  ar  
 49  20  23  ar  
 50  21  24  ar  
 51  21  54  1   
 52  22  25  ar  
 53  22  26  ar  
 54  23  27  ar  
 55  23  55  1   
 56  24  25  ar  
 57  24  56  1   
 58  26  28  ar  
 59  26  57  1   
 60  27  28  ar  
 61  27  58  1   
 62  28  59  1   
@<TRIPOS>SUBSTRUCTURE
  1 ****   6 GROUP 4 **** **** 0

# MOE 2024.06 (io_trps.svl 2023.06)
