@<TRIPOS>MOLECULE
NONAME
48 50 1 0 0 
SMALL
USER_CHARGES


@<TRIPOS>ATOM
  1 S       -0.8040     0.4230     1.6150 S.o2  1 <1>   1.4470 
  2 O       -0.5770    -0.6450     2.5670 O.2   1 <1>  -0.6500 
  3 O       -1.6730     1.5190     1.9870 O.2   1 <1>  -0.6500 
  4 N       -1.4200    -0.2790     0.2020 N.am  1 <1>  -0.8490 
  5 C        0.7910     1.1080     1.0820 C.ar  1 <1>  -0.0090 
  6 C       -0.6980    -1.4820    -0.2870 C.3   1 <1>   0.1960 
  7 C       -2.8780    -0.3850     0.1340 C.3   1 <1>   0.1960 
  8 C        0.9800     1.6250    -0.1760 C.ar  1 <1>  -0.1500 
  9 C        1.8770     1.1420     1.9750 C.ar  1 <1>  -0.1500 
 10 C       -1.5230    -2.7950    -0.3430 C.3   1 <1>  -0.1060 
 11 C       -3.4070    -1.5780     0.9410 C.3   1 <1>  -0.1600 
 12 C        2.2100     2.1680    -0.5960 C.ar  1 <1>   0.0000 
 13 C        3.0840     1.6680     1.6050 C.ar  1 <1>  -0.1500 
 14 C       -2.3180    -2.7970    -1.6610 C.2   1 <1>   0.9060 
 15 C       -2.5250    -2.8380     0.8440 C.3   1 <1>   0.2000 
 16 C       -0.5890    -4.0490    -0.4330 C.3   1 <1>  -0.1600 
 17 C        3.2860     2.1940     0.3150 C.ar  1 <1>   0.0000 
 18 C        2.4060     2.6860    -1.8920 C.ar  1 <1>  -0.1500 
 19 O       -3.5130    -3.1200    -1.6710 O.co2 1 <1>  -0.9000 
 20 O       -1.7420    -2.4850    -2.7110 O.co2 1 <1>  -0.9000 
 21 O       -1.8700    -2.9550     2.0630 O.3   1 <1>  -0.6800 
 22 C        0.4020    -4.3480     0.7100 C.3   1 <1>  -0.1600 
 23 C        4.5150     2.7450    -0.1020 C.ar  1 <1>  -0.1500 
 24 C        3.6090     3.2120    -2.2710 C.ar  1 <1>  -0.1500 
 25 C        1.3530    -5.4830     0.3200 C.3   1 <1>  -0.2400 
 26 C        4.6760     3.2440    -1.3650 C.ar  1 <1>  -0.1500 
 27 H       -0.3060    -1.2640    -1.2660 H     1 <1>   0.0800 
 28 H        0.1590    -1.6390     0.3390 H     1 <1>   0.0800 
 29 H       -3.3420     0.5250     0.4750 H     1 <1>   0.0800 
 30 H       -3.1620    -0.5050    -0.8990 H     1 <1>   0.0800 
 31 H        0.1660     1.6180    -0.8810 H     1 <1>   0.1500 
 32 H        1.7370     0.7420     2.9650 H     1 <1>   0.1500 
 33 H       -4.3730    -1.8230     0.5370 H     1 <1>   0.0800 
 34 H       -3.5620    -1.2920     1.9660 H     1 <1>   0.0800 
 35 H        3.9050     1.6880     2.2990 H     1 <1>   0.1500 
 36 H       -3.1520    -3.7090     0.7510 H     1 <1>   0.0800 
 37 H       -1.2190    -4.9140    -0.5610 H     1 <1>   0.0800 
 38 H       -0.0190    -3.9540    -1.3430 H     1 <1>   0.0800 
 39 H        1.5820     2.6570    -2.5840 H     1 <1>   0.1500 
 40 H       -1.3650    -2.1250     2.2520 H     1 <1>   0.4000 
 41 H        0.9840    -3.4800     0.9560 H     1 <1>   0.0800 
 42 H       -0.1360    -4.6510     1.5910 H     1 <1>   0.0800 
 43 H        5.3310     2.7660     0.5970 H     1 <1>   0.1500 
 44 H        3.7530     3.6060    -3.2620 H     1 <1>   0.1500 
 45 H        1.9340    -5.2060    -0.5420 H     1 <1>   0.0800 
 46 H        0.7940    -6.3740     0.0900 H     1 <1>   0.0800 
 47 H        2.0230    -5.6970     1.1330 H     1 <1>   0.0800 
 48 H        5.6160     3.6630    -1.6790 H     1 <1>   0.1500 
@<TRIPOS>BOND
  1   1   2  2   
  2   1   3  2   
  3   1   4  am  
  4   1   5  1   
  5   4   6  1   
  6   4   7  1   
  7   5   8  ar  
  8   5   9  ar  
  9   6  10  1   
 10   6  27  1   
 11   6  28  1   
 12   7  11  1   
 13   7  29  1   
 14   7  30  1   
 15   8  12  ar  
 16   8  31  1   
 17   9  13  ar  
 18   9  32  1   
 19  10  14  1   
 20  10  15  1   
 21  10  16  1   
 22  11  15  1   
 23  11  33  1   
 24  11  34  1   
 25  12  17  ar  
 26  12  18  ar  
 27  13  17  ar  
 28  13  35  1   
 29  14  19  ar  
 30  14  20  ar  
 31  15  21  1   
 32  15  36  1   
 33  16  22  1   
 34  16  37  1   
 35  16  38  1   
 36  17  23  ar  
 37  18  24  ar  
 38  18  39  1   
 39  21  40  1   
 40  22  25  1   
 41  22  41  1   
 42  22  42  1   
 43  23  26  ar  
 44  23  43  1   
 45  24  26  ar  
 46  24  44  1   
 47  25  45  1   
 48  25  46  1   
 49  25  47  1   
 50  26  48  1   
@<TRIPOS>SUBSTRUCTURE
  1 ****   6 GROUP 4 **** **** 0

# MOE 2024.06 (io_trps.svl 2023.06)
