@<TRIPOS>MOLECULE
NONAME
43 45 1 0 0 
SMALL
USER_CHARGES


@<TRIPOS>ATOM
  1 S       -0.8730     0.6800     0.0620 S.o2  1 <1>   1.4470 
  2 O       -0.7160    -0.0310     1.3110 O.2   1 <1>  -0.6500 
  3 O       -1.7570     1.8250     0.0030 O.2   1 <1>  -0.6500 
  4 N       -1.4030    -0.4330    -1.1070 N.am  1 <1>  -0.8490 
  5 C        0.7440     1.1990    -0.5650 C.ar  1 <1>  -0.0090 
  6 C       -0.7620    -1.7700    -1.0520 C.3   1 <1>   0.1960 
  7 C       -2.8530    -0.5040    -1.2920 C.3   1 <1>   0.1960 
  8 C        1.6230     1.8910     0.2590 C.ar  1 <1>   0.1900 
  9 C        1.1640     0.9640    -1.8730 C.ar  1 <1>  -0.1500 
 10 C       -1.6700    -2.9410    -0.5860 C.3   1 <1>  -0.1060 
 11 C       -3.5300    -1.2130    -0.1150 C.3   1 <1>  -0.1600 
 12 F        1.2710     2.1620     1.4860 F     1 <1>  -0.1900 
 13 C        2.8740     2.3280    -0.1470 C.ar  1 <1>  -0.1500 
 14 C        2.4120     1.3990    -2.2820 C.ar  1 <1>   0.1900 
 15 C       -2.3560    -3.5520    -1.8170 C.2   1 <1>   0.9060 
 16 C       -2.7050    -2.3910     0.4290 C.3   1 <1>   0.2000 
 17 C       -0.8070    -4.0770     0.0350 C.3   1 <1>  -0.0650 
 18 C        3.2810     2.0760    -1.4460 C.ar  1 <1>  -0.1500 
 19 F        2.7860     1.1630    -3.5100 F     1 <1>  -0.1900 
 20 O       -1.6960    -3.7240    -2.8470 O.co2 1 <1>  -0.9000 
 21 O       -3.5470    -3.8980    -1.7620 O.co2 1 <1>  -0.9000 
 22 O       -3.5880    -3.3890     0.7920 O.3   1 <1>  -0.6800 
 23 C        0.0170    -3.7050     1.2820 C.3   1 <1>  -0.1950 
 24 C        1.4330    -3.2280     1.1870 C.3   1 <1>  -0.2000 
 25 C        1.1330    -4.5980     1.7210 C.3   1 <1>  -0.2000 
 26 H       -0.3600    -1.9890    -2.0270 H     1 <1>   0.0800 
 27 H        0.0880    -1.7040    -0.4020 H     1 <1>   0.0800 
 28 H       -3.2680     0.4810    -1.4200 H     1 <1>   0.0800 
 29 H       -3.0570    -1.0510    -2.1990 H     1 <1>   0.0800 
 30 H        0.5300     0.4500    -2.5760 H     1 <1>   0.1500 
 31 H       -4.4920    -1.5540    -0.4530 H     1 <1>   0.0800 
 32 H       -3.6910    -0.5070     0.6790 H     1 <1>   0.0800 
 33 H        3.5100     2.8570     0.5420 H     1 <1>   0.1500 
 34 H       -2.2060    -2.0680     1.3240 H     1 <1>   0.0800 
 35 H       -1.4610    -4.8900     0.3010 H     1 <1>   0.0800 
 36 H       -0.1420    -4.4560    -0.7240 H     1 <1>   0.0800 
 37 H        4.2430     2.3950    -1.8060 H     1 <1>   0.1500 
 38 H       -3.8750    -3.8000    -0.0760 H     1 <1>   0.4000 
 39 H       -0.5930    -3.3120     2.0780 H     1 <1>   0.1000 
 40 H        1.9020    -3.1510     0.2220 H     1 <1>   0.1000 
 41 H        1.7470    -2.4520     1.8640 H     1 <1>   0.1000 
 42 H        1.2560    -4.7850     2.7730 H     1 <1>   0.1000 
 43 H        1.3800    -5.4540     1.1170 H     1 <1>   0.1000 
@<TRIPOS>BOND
  1   1   2  2   
  2   1   3  2   
  3   1   4  am  
  4   1   5  1   
  5   4   6  1   
  6   4   7  1   
  7   5   8  ar  
  8   5   9  ar  
  9   6  10  1   
 10   6  26  1   
 11   6  27  1   
 12   7  11  1   
 13   7  28  1   
 14   7  29  1   
 15   8  12  1   
 16   8  13  ar  
 17   9  14  ar  
 18   9  30  1   
 19  10  15  1   
 20  10  16  1   
 21  10  17  1   
 22  11  16  1   
 23  11  31  1   
 24  11  32  1   
 25  13  18  ar  
 26  13  33  1   
 27  14  18  ar  
 28  14  19  1   
 29  15  20  ar  
 30  15  21  ar  
 31  16  22  1   
 32  16  34  1   
 33  17  23  1   
 34  17  35  1   
 35  17  36  1   
 36  18  37  1   
 37  22  38  1   
 38  23  24  1   
 39  23  25  1   
 40  23  39  1   
 41  24  25  1   
 42  24  40  1   
 43  24  41  1   
 44  25  42  1   
 45  25  43  1   
@<TRIPOS>SUBSTRUCTURE
  1 ****   6 GROUP 4 **** **** 0

# MOE 2024.06 (io_trps.svl 2023.06)
