@<TRIPOS>MOLECULE
NONAME
43 45 1 0 0 
SMALL
USER_CHARGES


@<TRIPOS>ATOM
  1 O        0.7430     0.9980     0.5870 O.co2 1 <1>  -0.9000 
  2 C       -0.3550     1.5640     0.7720 C.2   1 <1>   0.9790 
  3 O       -1.2640     0.8870     1.3010 O.co2 1 <1>  -0.9000 
  4 C       -0.6030     2.9710     0.4090 C.ar  1 <1>   0.1310 
  5 N        0.3060     3.7330    -0.2050 N.ar  1 <1>  -0.6200 
  6 C       -1.8250     3.5490     0.7170 C.ar  1 <1>  -0.1500 
  7 C        0.0030     4.9960    -0.4660 C.ar  1 <1>   0.7200 
  8 C       -2.0510     4.8650     0.4000 C.ar  1 <1>   0.1660 
  9 N       -1.1450     5.6060    -0.1840 N.ar  1 <1>  -0.6200 
 10 N        0.9820     5.7610    -1.0650 N.pl3 1 <1>  -0.8380 
 11 C       -3.3740     5.5260     0.7200 C.3   1 <1>  -0.0970 
 12 C        1.2770     7.1140    -0.5050 C.3   1 <1>   0.2090 
 13 C        2.2370     5.1060    -1.5560 C.3   1 <1>   0.2090 
 14 C        2.3130     7.0260     0.6370 C.3   1 <1>   0.2090 
 15 C        3.2710     4.9700    -0.4200 C.3   1 <1>   0.2090 
 16 N        3.5580     6.2920     0.2300 N.pl3 1 <1>  -0.8380 
 17 C        4.6680     6.9920    -0.1850 C.ar  1 <1>   0.4100 
 18 N        4.4470     8.0300    -0.9660 N.ar  1 <1>  -0.6200 
 19 C        5.9600     6.6170     0.1790 C.ar  1 <1>  -0.1440 
 20 C        5.5210     8.6610    -1.3890 C.ar  1 <1>   0.4700 
 21 C        6.9970     7.3550    -0.3470 C.ar  1 <1>   0.1670 
 22 C        6.1960     5.4420     1.1330 C.3   1 <1>  -0.0970 
 23 N        6.7860     8.3890    -1.1360 N.ar  1 <1>  -0.6200 
 24 C        8.4580     7.0510    -0.0670 C.3   1 <1>  -0.0970 
 25 H       -2.5790     2.9560     1.2020 H     1 <1>   0.1500 
 26 H       -4.0460     4.8320     1.1880 H     1 <1>   0.0800 
 27 H       -3.8200     5.8880    -0.1880 H     1 <1>   0.0800 
 28 H       -3.2080     6.3560     1.3820 H     1 <1>   0.0800 
 29 H        0.3790     7.5760    -0.1370 H     1 <1>   0.0800 
 30 H        1.6690     7.7400    -1.2860 H     1 <1>   0.0800 
 31 H        2.6600     5.7020    -2.3450 H     1 <1>   0.0800 
 32 H        2.0170     4.1340    -1.9650 H     1 <1>   0.0800 
 33 H        1.8650     6.5130     1.4700 H     1 <1>   0.0800 
 34 H        2.5690     8.0190     0.9600 H     1 <1>   0.0800 
 35 H        4.1770     4.5560    -0.8240 H     1 <1>   0.0800 
 36 H        2.8940     4.2820     0.3180 H     1 <1>   0.0800 
 37 H        5.3440     9.5090    -2.0280 H     1 <1>   0.1500 
 38 H        5.3550     5.3090     1.7900 H     1 <1>   0.0800 
 39 H        7.0570     5.6110     1.7520 H     1 <1>   0.0800 
 40 H        6.3360     4.5370     0.5710 H     1 <1>   0.0800 
 41 H        8.6250     5.9930     0.0050 H     1 <1>   0.0800 
 42 H        8.7540     7.5250     0.8510 H     1 <1>   0.0800 
 43 H        9.0730     7.4300    -0.8630 H     1 <1>   0.0800 
@<TRIPOS>BOND
  1   1   2  ar  
  2   2   3  ar  
  3   2   4  1   
  4   4   5  ar  
  5   4   6  ar  
  6   5   7  ar  
  7   6   8  ar  
  8   6  25  1   
  9   7   9  ar  
 10   7  10  1   
 11   8   9  ar  
 12   8  11  1   
 13  10  12  1   
 14  10  13  1   
 15  11  26  1   
 16  11  27  1   
 17  11  28  1   
 18  12  14  1   
 19  12  29  1   
 20  12  30  1   
 21  13  15  1   
 22  13  31  1   
 23  13  32  1   
 24  14  16  1   
 25  14  33  1   
 26  14  34  1   
 27  15  16  1   
 28  15  35  1   
 29  15  36  1   
 30  16  17  1   
 31  17  18  ar  
 32  17  19  ar  
 33  18  20  ar  
 34  19  21  ar  
 35  19  22  1   
 36  20  23  ar  
 37  20  37  1   
 38  21  23  ar  
 39  21  24  1   
 40  22  38  1   
 41  22  39  1   
 42  22  40  1   
 43  24  41  1   
 44  24  42  1   
 45  24  43  1   
@<TRIPOS>SUBSTRUCTURE
  1 ****  15 GROUP 4 **** **** 0

# MOE 2024.06 (io_trps.svl 2023.06)
