@<TRIPOS>MOLECULE
NONAME
49 51 1 0 0 
SMALL
USER_CHARGES


@<TRIPOS>ATOM
  1 O       -1.9530     0.5170    -2.1930 O.2   1 <1>  -0.5700 
  2 C       -1.8470     0.7150    -1.0080 C.2   1 <1>   0.5690 
  3 N       -1.8120    -0.2990    -0.1130 N.am  1 <1>  -0.7300 
  4 C       -1.7510     2.1360    -0.5010 C.3   1 <1>  -0.0990 
  5 C       -1.8560    -1.7390    -0.4590 C.3   1 <1>   0.2200 
  6 C       -0.3050     2.6400    -0.5480 C.3   1 <1>  -0.0160 
  7 C       -3.2120    -2.3470    -0.1260 C.3   1 <1>  -0.0800 
  8 C       -0.9650    -2.5010     0.5120 C.3   1 <1>   0.1200 
  9 C       -0.2180     4.0510     0.0100 C.ar  1 <1>  -0.1440 
 10 C       -3.0820    -2.6920     1.3620 C.3   1 <1>   0.1200 
 11 C       -4.4400    -1.4850    -0.4750 C.3   1 <1>  -0.0160 
 12 O       -1.7220    -2.6110     1.6790 O.3   1 <1>  -0.5600 
 13 C       -0.4340     5.1430    -0.8170 C.ar  1 <1>  -0.1500 
 14 C        0.0730     4.2600     1.3490 C.ar  1 <1>  -0.1500 
 15 C       -5.7300    -2.2370    -0.1850 C.ar  1 <1>  -0.1440 
 16 C       -0.3590     6.4310    -0.3150 C.ar  1 <1>  -0.1500 
 17 C        0.1480     5.5460     1.8530 C.ar  1 <1>  -0.1500 
 18 C       -6.2410    -3.1650    -1.0700 C.ar  1 <1>  -0.1500 
 19 C       -6.4540    -2.0350     0.9720 C.ar  1 <1>  -0.1500 
 20 C       -0.0660     6.6390     1.0300 C.ar  1 <1>   0.0820 
 21 C       -7.4150    -3.8310    -0.7610 C.ar  1 <1>   0.1600 
 22 C       -7.6180    -2.7540     1.1850 C.ar  1 <1>   0.1600 
 23 O        0.0270     7.8660     1.6030 O.3   1 <1>  -0.3630 
 24 N       -8.1150    -3.6500     0.3480 N.ar  1 <1>  -0.6200 
 25 C       -0.1560     9.0430     0.8490 C.3   1 <1>   0.0400 
 26 H       -1.7410    -0.1180     0.8910 H     1 <1>   0.3700 
 27 H       -2.3700     2.7630    -1.1160 H     1 <1>   0.0800 
 28 H       -2.1230     2.1860     0.5050 H     1 <1>   0.0800 
 29 H       -1.5700    -1.8940    -1.4860 H     1 <1>   0.0800 
 30 H        0.0480     2.6280    -1.5650 H     1 <1>   0.0800 
 31 H        0.3290     1.9850     0.0230 H     1 <1>   0.0800 
 32 H       -3.2940    -3.2760    -0.6630 H     1 <1>   0.0800 
 33 H       -0.0410    -1.9920     0.7220 H     1 <1>   0.0800 
 34 H       -0.7650    -3.4950     0.1510 H     1 <1>   0.0800 
 35 H       -3.4330    -3.6880     1.5720 H     1 <1>   0.0800 
 36 H       -3.6030    -1.9850     1.9840 H     1 <1>   0.0800 
 37 H       -4.4060    -1.2220    -1.5180 H     1 <1>   0.0800 
 38 H       -4.4300    -0.5690     0.0880 H     1 <1>   0.0800 
 39 H       -0.6610     4.9930    -1.8580 H     1 <1>   0.1500 
 40 H        0.2440     3.4250     2.0050 H     1 <1>   0.1500 
 41 H       -0.5310     7.2540    -0.9820 H     1 <1>   0.1500 
 42 H        0.3750     5.7120     2.8910 H     1 <1>   0.1500 
 43 H       -5.7390    -3.3750    -1.9960 H     1 <1>   0.1500 
 44 H       -6.1270    -1.3260     1.7100 H     1 <1>   0.1500 
 45 H       -7.8000    -4.5510    -1.4630 H     1 <1>   0.1500 
 46 H       -8.1700    -2.5840     2.0940 H     1 <1>   0.1500 
 47 H       -0.0300     9.8830     1.5070 H     1 <1>   0.0800 
 48 H       -1.1500     9.0440     0.4400 H     1 <1>   0.0800 
 49 H        0.5840     9.0750     0.0690 H     1 <1>   0.0800 
@<TRIPOS>BOND
  1   1   2  2   
  2   2   3  am  
  3   2   4  1   
  4   3   5  1   
  5   3  26  1   
  6   4   6  1   
  7   4  27  1   
  8   4  28  1   
  9   5   7  1   
 10   5   8  1   
 11   5  29  1   
 12   6   9  1   
 13   6  30  1   
 14   6  31  1   
 15   7  10  1   
 16   7  11  1   
 17   7  32  1   
 18   8  12  1   
 19   8  33  1   
 20   8  34  1   
 21   9  13  ar  
 22   9  14  ar  
 23  10  12  1   
 24  10  35  1   
 25  10  36  1   
 26  11  15  1   
 27  11  37  1   
 28  11  38  1   
 29  13  16  ar  
 30  13  39  1   
 31  14  17  ar  
 32  14  40  1   
 33  15  18  ar  
 34  15  19  ar  
 35  16  20  ar  
 36  16  41  1   
 37  17  20  ar  
 38  17  42  1   
 39  18  21  ar  
 40  18  43  1   
 41  19  22  ar  
 42  19  44  1   
 43  20  23  1   
 44  21  24  ar  
 45  21  45  1   
 46  22  24  ar  
 47  22  46  1   
 48  23  25  1   
 49  25  47  1   
 50  25  48  1   
 51  25  49  1   
@<TRIPOS>SUBSTRUCTURE
  1 ****   2 GROUP 4 **** **** 0

# MOE 2024.06 (io_trps.svl 2023.06)
