@<TRIPOS>MOLECULE
NONAME
38 39 1 0 0 
SMALL
USER_CHARGES


@<TRIPOS>ATOM
  1 O        0.1780     0.7090    -0.9730 O.3   1 <1>  -0.5600 
  2 C        0.3740     1.9920    -0.4520 C.3   1 <1>   0.2000 
  3 C       -0.3330    -0.2230    -0.0700 C.3   1 <1>   0.1200 
  4 C       -0.9890     2.5710    -0.0290 C.3   1 <1>  -0.1600 
  5 C        1.0780     2.8290    -1.5330 C.3   1 <1>   0.2090 
  6 C       -1.7340     0.2130     0.3760 C.3   1 <1>  -0.1600 
  7 C       -1.7060     1.6340     0.9500 C.3   1 <1>  -0.1600 
  8 N        1.3260     4.2360    -1.0830 N.pl3 1 <1>  -0.8690 
  9 C        2.3830     4.6730    -0.3660 C.ar  1 <1>   0.4100 
 10 N        3.2570     3.7660     0.0230 N.ar  1 <1>  -0.6200 
 11 C        2.5250     6.0480    -0.0520 C.ar  1 <1>  -0.1430 
 12 C        4.2930     4.1740     0.7150 C.ar  1 <1>   0.7710 
 13 C        3.6170     6.4170     0.6700 C.ar  1 <1>   0.2110 
 14 C        1.4600     7.0410    -0.5350 C.3   1 <1>  -0.0160 
 15 N        4.4970     5.4580     1.0460 N.ar  1 <1>  -0.1790 
 16 N        5.1600     3.2360     1.0880 N.pl3 1 <1>  -0.9000 
 17 C        1.7050     8.5030    -0.1390 C.3   1 <1>  -0.2400 
 18 H        1.0270     1.9050     0.3990 H     1 <1>   0.0800 
 19 H        0.3390    -0.2970     0.7680 H     1 <1>   0.0800 
 20 H       -0.3770    -1.1750    -0.5690 H     1 <1>   0.0800 
 21 H       -1.5970     2.7120    -0.9060 H     1 <1>   0.0800 
 22 H       -0.8480     3.5300     0.4360 H     1 <1>   0.0800 
 23 H        0.4680     2.8460    -2.4190 H     1 <1>   0.0800 
 24 H        2.0150     2.3590    -1.7790 H     1 <1>   0.0800 
 25 H       -2.1070    -0.4730     1.1150 H     1 <1>   0.0800 
 26 H       -2.3930     0.1750    -0.4730 H     1 <1>   0.0800 
 27 H       -2.7080     1.9810     1.1310 H     1 <1>   0.0800 
 28 H       -1.1780     1.6270     1.8880 H     1 <1>   0.0800 
 29 H        0.5940     4.8880    -1.3750 H     1 <1>   0.4000 
 30 H        3.8210     7.4350     0.9600 H     1 <1>   0.1500 
 31 H        0.5030     6.7420    -0.1400 H     1 <1>   0.0800 
 32 H        1.3990     6.9890    -1.6090 H     1 <1>   0.0800 
 33 H        5.3320     5.6700     1.5840 H     1 <1>   0.4570 
 34 H        6.0240     3.3290     1.6230 H     1 <1>   0.4000 
 35 H        4.9540     2.2730     0.8000 H     1 <1>   0.4000 
 36 H        1.7220     8.6150     0.9310 H     1 <1>   0.0800 
 37 H        0.9070     9.1160    -0.5220 H     1 <1>   0.0800 
 38 H        2.6270     8.8660    -0.5580 H     1 <1>   0.0800 
@<TRIPOS>BOND
  1   1   2  1   
  2   1   3  1   
  3   2   4  1   
  4   2   5  1   
  5   2  18  1   
  6   3   6  1   
  7   3  19  1   
  8   3  20  1   
  9   4   7  1   
 10   4  21  1   
 11   4  22  1   
 12   5   8  1   
 13   5  23  1   
 14   5  24  1   
 15   6   7  1   
 16   6  25  1   
 17   6  26  1   
 18   7  27  1   
 19   7  28  1   
 20   8   9  1   
 21   8  29  1   
 22   9  10  ar  
 23   9  11  ar  
 24  10  12  ar  
 25  11  13  ar  
 26  11  14  1   
 27  12  15  ar  
 28  12  16  1   
 29  13  15  ar  
 30  13  30  1   
 31  14  17  1   
 32  14  31  1   
 33  14  32  1   
 34  15  33  1   
 35  16  34  1   
 36  16  35  1   
 37  17  36  1   
 38  17  37  1   
 39  17  38  1   
@<TRIPOS>SUBSTRUCTURE
  1 ****   8 GROUP 4 **** **** 0

# MOE 2024.06 (io_trps.svl 2023.06)
