@<TRIPOS>MOLECULE
NONAME
51 54 1 0 0 
SMALL
USER_CHARGES


@<TRIPOS>ATOM
  1 S       -0.5310    -0.6290     0.1940 S.3   1 <1>  -0.0800 
  2 C       -0.7140     0.9050    -0.6420 C.2   1 <1>  -0.1400 
  3 C       -1.1620    -1.5150    -1.1850 C.2   1 <1>  -0.1400 
  4 C       -1.2210     0.7040    -1.8730 C.2   1 <1>  -0.1500 
  5 C       -0.2960     2.1560     0.1200 C.3   1 <1>   0.1000 
  6 C       -1.4740    -0.6690    -2.1850 C.2   1 <1>  -0.1500 
  7 C       -1.2590    -3.0170    -1.0450 C.3   1 <1>   0.5230 
  8 C       -0.5110     3.4570    -0.6500 C.3   1 <1>  -0.1600 
  9 C        1.1960     2.1830     0.4440 C.3   1 <1>  -0.1600 
 10 N       -2.1750    -3.3250     0.0820 N.4   1 <1>  -0.9590 
 11 C        0.3920     4.4710     0.0520 C.3   1 <1>  -0.1600 
 12 C        1.5510     3.6610     0.6460 C.3   1 <1>  -0.1600 
 13 C       -3.5430    -2.7520    -0.0390 C.3   1 <1>   0.3430 
 14 C       -2.3370    -4.7710     0.4050 C.3   1 <1>   0.3430 
 15 C       -4.3560    -3.5470     0.9820 C.3   1 <1>   0.2000 
 16 C       -3.8010    -4.9660     0.8400 C.3   1 <1>  -0.0800 
 17 O       -4.0200    -3.0840     2.2480 O.3   1 <1>  -0.6800 
 18 C       -4.5970    -5.7850    -0.1950 C.3   1 <1>  -0.0170 
 19 C       -3.8840    -7.0860    -0.5300 C.ar  1 <1>  -0.1430 
 20 C       -3.6780    -8.0710     0.4150 C.ar  1 <1>  -0.1500 
 21 C       -3.4010    -7.3470    -1.7980 C.ar  1 <1>  -0.1500 
 22 C       -2.9970    -9.2250     0.0650 C.ar  1 <1>   0.1600 
 23 C       -2.7350    -8.5360    -2.0450 C.ar  1 <1>   0.1600 
 24 N       -2.5110    -9.4720    -1.1400 N.ar  1 <1>  -0.6200 
 25 H       -1.4320     1.4760    -2.5940 H     1 <1>   0.1500 
 26 H       -0.8510     2.2100     1.0410 H     1 <1>   0.0800 
 27 H       -1.8750    -0.9360    -3.1480 H     1 <1>   0.1500 
 28 H       -0.2790    -3.4220    -0.8490 H     1 <1>   0.0800 
 29 H       -1.6350    -3.4450    -1.9590 H     1 <1>   0.0800 
 30 H       -0.1740     3.3370    -1.6650 H     1 <1>   0.0800 
 31 H       -1.5420     3.7610    -0.6480 H     1 <1>   0.0800 
 32 H        1.4260     1.5930     1.3130 H     1 <1>   0.0800 
 33 H        1.7490     1.7990    -0.3970 H     1 <1>   0.0800 
 34 H       -1.7890    -2.8650     0.9220 H     1 <1>   0.4500 
 35 H        0.7410     5.2260    -0.6310 H     1 <1>   0.0800 
 36 H       -0.1550     4.9480     0.8480 H     1 <1>   0.0800 
 37 H        1.6530     3.8830     1.6940 H     1 <1>   0.0800 
 38 H        2.4780     3.8940     0.1500 H     1 <1>   0.0800 
 39 H       -3.5590    -1.6960     0.1790 H     1 <1>   0.0800 
 40 H       -3.9310    -2.9230    -1.0290 H     1 <1>   0.0800 
 41 H       -2.1160    -5.3820    -0.4550 H     1 <1>   0.0800 
 42 H       -1.6700    -5.0470     1.2060 H     1 <1>   0.0800 
 43 H       -5.4210    -3.4580     0.8430 H     1 <1>   0.0800 
 44 H       -3.8340    -5.4890     1.7810 H     1 <1>   0.0800 
 45 H       -4.6420    -3.4160     2.9310 H     1 <1>   0.4000 
 46 H       -4.7400    -5.2170    -1.0970 H     1 <1>   0.0800 
 47 H       -5.5740    -6.0150     0.1980 H     1 <1>   0.0800 
 48 H       -4.0400    -7.9640     1.4220 H     1 <1>   0.1500 
 49 H       -3.5370    -6.6500    -2.6040 H     1 <1>   0.1500 
 50 H       -2.8430    -9.9850     0.8130 H     1 <1>   0.1500 
 51 H       -2.3660    -8.7300    -3.0390 H     1 <1>   0.1500 
@<TRIPOS>BOND
  1   1   2  1   
  2   1   3  1   
  3   2   4  2   
  4   2   5  1   
  5   3   6  2   
  6   3   7  1   
  7   4   6  1   
  8   4  25  1   
  9   5   8  1   
 10   5   9  1   
 11   5  26  1   
 12   6  27  1   
 13   7  10  1   
 14   7  28  1   
 15   7  29  1   
 16   8  11  1   
 17   8  30  1   
 18   8  31  1   
 19   9  12  1   
 20   9  32  1   
 21   9  33  1   
 22  10  13  1   
 23  10  14  1   
 24  10  34  1   
 25  11  12  1   
 26  11  35  1   
 27  11  36  1   
 28  12  37  1   
 29  12  38  1   
 30  13  15  1   
 31  13  39  1   
 32  13  40  1   
 33  14  16  1   
 34  14  41  1   
 35  14  42  1   
 36  15  16  1   
 37  15  17  1   
 38  15  43  1   
 39  16  18  1   
 40  16  44  1   
 41  17  45  1   
 42  18  19  1   
 43  18  46  1   
 44  18  47  1   
 45  19  20  ar  
 46  19  21  ar  
 47  20  22  ar  
 48  20  48  1   
 49  21  23  ar  
 50  21  49  1   
 51  22  24  ar  
 52  22  50  1   
 53  23  24  ar  
 54  23  51  1   
@<TRIPOS>SUBSTRUCTURE
  1 ****  10 GROUP 4 **** **** 0

# MOE 2024.06 (io_trps.svl 2023.06)
