@<TRIPOS>MOLECULE
NONAME
57 60 1 0 0 
SMALL
USER_CHARGES


@<TRIPOS>ATOM
  1 S       -0.7170     0.9690    -1.0720 S.o2  1 <1>   1.0900 
  2 O       -0.5570     1.0180    -2.5070 O.2   1 <1>  -0.6500 
  3 O       -1.9400     0.4600    -0.4960 O.2   1 <1>  -0.6500 
  4 C        0.6510     0.0330    -0.4140 C.3   1 <1>  -0.0550 
  5 C       -0.4380     2.6030    -0.4170 C.3   1 <1>  -0.0550 
  6 C        1.1160     0.6310     0.9070 C.3   1 <1>   0.1100 
  7 C        1.0560     2.8650    -0.2890 C.3   1 <1>   0.1100 
  8 N        1.6770     1.9900     0.7320 N.3   1 <1>  -0.8100 
  9 C        3.1510     1.9830     0.6290 C.3   1 <1>   0.2530 
 10 C        3.7240     3.3910     0.7380 C.ar  1 <1>  -0.1430 
 11 C        4.4990     3.9250    -0.2790 C.ar  1 <1>  -0.1500 
 12 C        3.4820     4.1580     1.8650 C.ar  1 <1>  -0.1500 
 13 C        5.0230     5.2000    -0.1650 C.ar  1 <1>  -0.1500 
 14 C        4.0070     5.4320     1.9740 C.ar  1 <1>  -0.1500 
 15 C        4.7930     5.9900     0.9650 C.ar  1 <1>   0.0860 
 16 C        5.3430     7.3310     1.0980 C.2   1 <1>   0.5440 
 17 O        5.1180     8.0220     2.0760 O.2   1 <1>  -0.5700 
 18 N        6.1430     7.8800     0.1290 N.am  1 <1>  -0.5100 
 19 C        7.5190     8.3780     0.5010 C.3   1 <1>   0.2250 
 20 C        5.8350     9.2620    -0.3950 C.3   1 <1>   0.2250 
 21 C        6.9400     9.8180     0.5440 C.3   1 <1>   0.4720 
 22 N        7.8070    10.9350     0.0120 N.4   1 <1>  -0.9280 
 23 C        7.0550    12.2210     0.0800 C.3   1 <1>   0.3430 
 24 C        8.3760    10.6950    -1.3510 C.3   1 <1>   0.3430 
 25 C        7.9870    13.3850    -0.2590 C.3   1 <1>  -0.1600 
 26 C        9.3350    11.8300    -1.7150 C.3   1 <1>  -0.1600 
 27 C        8.6530    13.2010    -1.6290 C.3   1 <1>  -0.1600 
 28 H        1.4720     0.0360    -1.1050 H     1 <1>   0.0800 
 29 H        0.3490    -0.9850    -0.2650 H     1 <1>   0.0800 
 30 H       -0.8880     2.7040     0.5520 H     1 <1>   0.0800 
 31 H       -0.8800     3.3330    -1.0660 H     1 <1>   0.0800 
 32 H        1.8430    -0.0160     1.3680 H     1 <1>   0.0800 
 33 H        0.2750     0.6900     1.5790 H     1 <1>   0.0800 
 34 H        1.2100     3.8940    -0.0080 H     1 <1>   0.0800 
 35 H        1.5250     2.7080    -1.2470 H     1 <1>   0.0800 
 36 H        3.4470     1.5310    -0.3020 H     1 <1>   0.0800 
 37 H        3.5630     1.3940     1.4310 H     1 <1>   0.0800 
 38 H        4.7000     3.3470    -1.1650 H     1 <1>   0.1500 
 39 H        2.8750     3.7570     2.6600 H     1 <1>   0.1500 
 40 H        5.6200     5.5840    -0.9720 H     1 <1>   0.1500 
 41 H        3.8020     6.0070     2.8610 H     1 <1>   0.1500 
 42 H        8.2180     8.1880    -0.2930 H     1 <1>   0.0000 
 43 H        7.8350     8.0120     1.4620 H     1 <1>   0.0000 
 44 H        4.8430     9.5840    -0.1330 H     1 <1>   0.0000 
 45 H        6.0540     9.3250    -1.4460 H     1 <1>   0.0000 
 46 H        6.5540    10.0610     1.5180 H     1 <1>   0.0000 
 47 H        8.6000    11.0280     0.6590 H     1 <1>   0.4500 
 48 H        6.6510    12.3630     1.0710 H     1 <1>   0.0800 
 49 H        6.2340    12.2020    -0.6200 H     1 <1>   0.0800 
 50 H        7.5820    10.6550    -2.0790 H     1 <1>   0.0800 
 51 H        8.9110     9.7600    -1.3780 H     1 <1>   0.0800 
 52 H        8.7380    13.4780     0.5060 H     1 <1>   0.0800 
 53 H        7.4190    14.3000    -0.2610 H     1 <1>   0.0800 
 54 H        9.6970    11.6770    -2.7180 H     1 <1>   0.0800 
 55 H       10.1890    11.8030    -1.0610 H     1 <1>   0.0800 
 56 H        9.3780    13.9820    -1.7920 H     1 <1>   0.0800 
 57 H        7.9080    13.2820    -2.4050 H     1 <1>   0.0800 
@<TRIPOS>BOND
  1   1   2  2   
  2   1   3  2   
  3   1   4  1   
  4   1   5  1   
  5   4   6  1   
  6   4  28  1   
  7   4  29  1   
  8   5   7  1   
  9   5  30  1   
 10   5  31  1   
 11   6   8  1   
 12   6  32  1   
 13   6  33  1   
 14   7   8  1   
 15   7  34  1   
 16   7  35  1   
 17   8   9  1   
 18   9  10  1   
 19   9  36  1   
 20   9  37  1   
 21  10  11  ar  
 22  10  12  ar  
 23  11  13  ar  
 24  11  38  1   
 25  12  14  ar  
 26  12  39  1   
 27  13  15  ar  
 28  13  40  1   
 29  14  15  ar  
 30  14  41  1   
 31  15  16  1   
 32  16  17  2   
 33  16  18  am  
 34  18  19  1   
 35  18  20  1   
 36  19  21  1   
 37  19  42  1   
 38  19  43  1   
 39  20  21  1   
 40  20  44  1   
 41  20  45  1   
 42  21  22  1   
 43  21  46  1   
 44  22  23  1   
 45  22  24  1   
 46  22  47  1   
 47  23  25  1   
 48  23  48  1   
 49  23  49  1   
 50  24  26  1   
 51  24  50  1   
 52  24  51  1   
 53  25  27  1   
 54  25  52  1   
 55  25  53  1   
 56  26  27  1   
 57  26  54  1   
 58  26  55  1   
 59  27  56  1   
 60  27  57  1   
@<TRIPOS>SUBSTRUCTURE
  1 ****  15 GROUP 4 **** **** 0

# MOE 2024.06 (io_trps.svl 2023.06)
