@<TRIPOS>MOLECULE
NONAME
37 39 1 0 0 
SMALL
USER_CHARGES


@<TRIPOS>ATOM
  1 O        0.9470    -0.2710    -1.1350 O.2   1 <1>  -0.5700 
  2 C        1.5170    -0.8210    -0.2060 C.2   1 <1>   0.6900 
  3 N        1.2470    -2.0690     0.2690 N.am  1 <1>  -0.3250 
  4 N        2.5730    -0.2810     0.4750 N.am  1 <1>  -0.6600 
  5 O        0.0480    -2.7850     0.1530 O.3   1 <1>  -0.3160 
  6 C        2.1650    -2.3750     1.3710 C.3   1 <1>   0.2200 
  7 C        3.9310    -0.5670    -0.1270 C.3   1 <1>   0.2810 
  8 C        2.5110    -0.9470     1.8030 C.3   1 <1>   0.1400 
  9 C       -0.0310    -3.4850    -1.0700 C.3   1 <1>   0.2640 
 10 C        3.4560    -2.9890     0.7800 C.3   1 <1>  -0.1600 
 11 C        4.2880     0.2320    -1.4000 C.2   1 <1>   0.5690 
 12 C        4.0740    -2.1040    -0.3480 C.3   1 <1>  -0.1600 
 13 C       -1.2720    -4.3630    -1.0610 C.ar  1 <1>  -0.1440 
 14 O        5.4480     0.3470    -1.7070 O.2   1 <1>  -0.5700 
 15 N        3.3380     0.7900    -2.1760 N.am  1 <1>  -0.8000 
 16 C       -1.1650    -5.7420    -1.1600 C.ar  1 <1>  -0.1500 
 17 C       -2.5280    -3.7850    -0.9580 C.ar  1 <1>  -0.1500 
 18 C       -2.3010    -6.5340    -1.1590 C.ar  1 <1>  -0.1500 
 19 C       -3.6650    -4.5750    -0.9570 C.ar  1 <1>  -0.1500 
 20 C       -3.5520    -5.9510    -1.0580 C.ar  1 <1>  -0.1500 
 21 H        1.7040    -2.9640     2.1460 H     1 <1>   0.0800 
 22 H        4.6680    -0.2770     0.6010 H     1 <1>   0.0800 
 23 H        1.7160    -0.5230     2.3940 H     1 <1>   0.0800 
 24 H        3.4370    -0.8870     2.3480 H     1 <1>   0.0800 
 25 H        0.8600    -4.0770    -1.1810 H     1 <1>   0.0800 
 26 H       -0.0860    -2.7620    -1.8660 H     1 <1>   0.0800 
 27 H        3.2470    -3.9750     0.4020 H     1 <1>   0.0800 
 28 H        4.1740    -3.0970     1.5730 H     1 <1>   0.0800 
 29 H        5.1150    -2.3460    -0.4750 H     1 <1>   0.0800 
 30 H        3.5920    -2.3490    -1.2800 H     1 <1>   0.0800 
 31 H        3.5790     1.3240    -3.0090 H     1 <1>   0.3700 
 32 H        2.3350     0.6930    -1.9510 H     1 <1>   0.3700 
 33 H       -0.1980    -6.2080    -1.2370 H     1 <1>   0.1500 
 34 H       -2.6200    -2.7160    -0.8750 H     1 <1>   0.1500 
 35 H       -2.2110    -7.6030    -1.2350 H     1 <1>   0.1500 
 36 H       -4.6360    -4.1190    -0.8760 H     1 <1>   0.1500 
 37 H       -4.4350    -6.5650    -1.0570 H     1 <1>   0.1500 
@<TRIPOS>BOND
  1   1   2  2   
  2   2   3  am  
  3   2   4  am  
  4   3   5  1   
  5   3   6  1   
  6   4   7  1   
  7   4   8  1   
  8   5   9  1   
  9   6   8  1   
 10   6  10  1   
 11   6  21  1   
 12   7  11  1   
 13   7  12  1   
 14   7  22  1   
 15   8  23  1   
 16   8  24  1   
 17   9  13  1   
 18   9  25  1   
 19   9  26  1   
 20  10  12  1   
 21  10  27  1   
 22  10  28  1   
 23  11  14  2   
 24  11  15  am  
 25  12  29  1   
 26  12  30  1   
 27  13  16  ar  
 28  13  17  ar  
 29  15  31  1   
 30  15  32  1   
 31  16  18  ar  
 32  16  33  1   
 33  17  19  ar  
 34  17  34  1   
 35  18  20  ar  
 36  18  35  1   
 37  19  20  ar  
 38  19  36  1   
 39  20  37  1   
@<TRIPOS>SUBSTRUCTURE
  1 ****   3 GROUP 4 **** **** 0

# MOE 2024.06 (io_trps.svl 2023.06)
