@<TRIPOS>MOLECULE
NONAME
44 44 1 0 0 
SMALL
USER_CHARGES


@<TRIPOS>ATOM
  1 O       -1.4400    -0.5030    -1.7630 O.2   1 <1>  -0.5700 
  2 C       -2.1850     0.4470    -1.6930 C.2   1 <1>   0.5690 
  3 N       -3.5460     0.2710    -1.7830 N.am  1 <1>  -0.6600 
  4 C       -1.5050     1.7890    -1.4190 C.3   1 <1>  -0.0190 
  5 C       -4.0810    -1.1230    -1.6930 C.3   1 <1>   0.3200 
  6 C       -4.6100     1.3280    -1.8770 C.3   1 <1>   0.1400 
  7 C       -2.0930     2.3720    -0.1290 C.3   1 <1>   0.3430 
  8 C       -1.4890     2.7600    -2.6210 C.3   1 <1>  -0.2400 
  9 C       -3.9350    -1.6260    -0.2630 C.2   1 <1>   0.0060 
 10 C       -5.5140     1.4240    -0.6310 C.3   1 <1>   0.1200 
 11 N       -1.3790     3.5920     0.3630 N.4   1 <1>  -0.9590 
 12 N       -4.8410    -1.5270     0.6590 N.2   1 <1>  -0.5650 
 13 N       -2.7950    -2.2110     0.1640 N.pl3 1 <1>   0.0330 
 14 O       -4.7650     1.3400     0.5350 O.3   1 <1>  -0.6800 
 15 C       -0.0390     3.2650     0.9250 C.3   1 <1>   0.3430 
 16 C       -2.2510     4.2660     1.3770 C.3   1 <1>   0.2630 
 17 C       -4.2660    -2.0920     1.7390 C.2   1 <1>   0.0770 
 18 C       -3.0130    -2.5100     1.4570 C.2   1 <1>  -0.3020 
 19 C        0.7810     4.5410     1.0740 C.3   1 <1>  -0.2400 
 20 H       -0.4780     1.5440    -1.2170 H     1 <1>   0.0800 
 21 H       -3.5430    -1.7670    -2.3670 H     1 <1>   0.0800 
 22 H       -5.1200    -1.1470    -1.9740 H     1 <1>   0.0800 
 23 H       -5.2280     1.1250    -2.7350 H     1 <1>   0.0800 
 24 H       -4.1730     2.2910    -2.0430 H     1 <1>   0.0800 
 25 H       -2.0960     1.6140     0.6390 H     1 <1>   0.0800 
 26 H       -3.1170     2.6360    -0.3200 H     1 <1>   0.0800 
 27 H       -2.4590     3.1610    -2.8410 H     1 <1>   0.0800 
 28 H       -1.1390     2.2380    -3.4960 H     1 <1>   0.0800 
 29 H       -0.8160     3.5780    -2.4400 H     1 <1>   0.0800 
 30 H       -6.2370     0.6250    -0.6200 H     1 <1>   0.0800 
 31 H       -6.0440     2.3610    -0.6260 H     1 <1>   0.0800 
 32 H       -1.2480     4.2280    -0.4360 H     1 <1>   0.4500 
 33 H       -1.9410    -2.3410    -0.3950 H     1 <1>   0.2700 
 34 H       -4.6820     0.3720     0.7620 H     1 <1>   0.4000 
 35 H        0.4860     2.5960     0.2630 H     1 <1>   0.0800 
 36 H       -0.1440     2.7750     1.8810 H     1 <1>   0.0800 
 37 H       -2.3940     3.6250     2.2320 H     1 <1>   0.0800 
 38 H       -3.2180     4.4850     0.9520 H     1 <1>   0.0800 
 39 H       -1.8060     5.1900     1.7070 H     1 <1>   0.0800 
 40 H       -4.7910    -2.1710     2.6780 H     1 <1>   0.1500 
 41 H       -2.2870    -2.9930     2.0860 H     1 <1>   0.1500 
 42 H        0.8800     5.0450     0.1290 H     1 <1>   0.0800 
 43 H        1.7680     4.2850     1.4170 H     1 <1>   0.0800 
 44 H        0.3470     5.2060     1.7980 H     1 <1>   0.0800 
@<TRIPOS>BOND
  1   1   2  2   
  2   2   3  am  
  3   2   4  1   
  4   3   5  1   
  5   3   6  1   
  6   4   7  1   
  7   4   8  1   
  8   4  20  1   
  9   5   9  1   
 10   5  21  1   
 11   5  22  1   
 12   6  10  1   
 13   6  23  1   
 14   6  24  1   
 15   7  11  1   
 16   7  25  1   
 17   7  26  1   
 18   8  27  1   
 19   8  28  1   
 20   8  29  1   
 21   9  12  2   
 22   9  13  1   
 23  10  14  1   
 24  10  30  1   
 25  10  31  1   
 26  11  15  1   
 27  11  16  1   
 28  11  32  1   
 29  12  17  1   
 30  13  18  1   
 31  13  33  1   
 32  14  34  1   
 33  15  19  1   
 34  15  35  1   
 35  15  36  1   
 36  16  37  1   
 37  16  38  1   
 38  16  39  1   
 39  17  18  2   
 40  17  40  1   
 41  18  41  1   
 42  19  42  1   
 43  19  43  1   
 44  19  44  1   
@<TRIPOS>SUBSTRUCTURE
  1 ****   2 GROUP 4 **** **** 0

# MOE 2024.06 (io_trps.svl 2023.06)
