@<TRIPOS>MOLECULE
NONAME
42 45 1 0 0 
SMALL
USER_CHARGES


@<TRIPOS>ATOM
  1 N       -0.7820     0.0240     0.8570 N.ar  1 <1>  -0.6200 
  2 C       -1.4220    -1.1200     0.6490 C.ar  1 <1>   0.7710 
  3 C        0.5280     0.0010     0.8790 C.ar  1 <1>   0.4100 
  4 N       -0.7570    -2.2790     0.4740 N.ar  1 <1>  -0.1790 
  5 N       -2.7810    -1.1320     0.6140 N.pl3 1 <1>  -0.8380 
  6 N        1.1300     1.1710     1.0930 N.pl3 1 <1>  -0.9000 
  7 C        1.2690    -1.1760     0.6940 C.ar  1 <1>  -0.1500 
  8 C        0.5990    -2.3340     0.4900 C.ar  1 <1>   0.2110 
  9 C       -3.5850     0.0950     0.9720 C.3   1 <1>   0.2090 
 10 C       -3.6520    -2.2760     0.1670 C.3   1 <1>   0.2090 
 11 C       -4.3240     0.6620    -0.2620 C.3   1 <1>   0.1440 
 12 C       -4.9800    -1.7970    -0.4470 C.3   1 <1>  -0.1600 
 13 C       -5.4620     1.5190     0.2610 C.ar  1 <1>   0.1670 
 14 C       -4.8150    -0.4690    -1.2030 C.3   1 <1>  -0.1600 
 15 C       -3.4620     1.6970    -1.0340 C.3   1 <1>  -0.1600 
 16 N       -6.5640     1.0630     0.8050 N.ar  1 <1>  -0.6200 
 17 C       -5.1950     2.8500     0.1240 C.ar  1 <1>  -0.1430 
 18 C       -3.8490     3.0910    -0.5090 C.3   1 <1>  -0.0170 
 19 C       -7.3970     2.0110     1.2070 C.ar  1 <1>   0.7200 
 20 C       -6.1420     3.7410     0.5680 C.ar  1 <1>   0.1600 
 21 N       -7.2640     3.3260     1.1130 N.ar  1 <1>  -0.6200 
 22 N       -8.5330     1.5860     1.7600 N.pl3 1 <1>  -0.9000 
 23 H       -1.3380    -3.1000     0.3560 H     1 <1>   0.4570 
 24 H        2.1410     1.3180     1.1470 H     1 <1>   0.4000 
 25 H        0.5710     2.0150     1.2450 H     1 <1>   0.4000 
 26 H        2.3430    -1.1260     0.7220 H     1 <1>   0.1500 
 27 H        1.0930    -3.2820     0.3440 H     1 <1>   0.1500 
 28 H       -2.9830     0.8660     1.4220 H     1 <1>   0.0800 
 29 H       -4.3120    -0.1900     1.7140 H     1 <1>   0.0800 
 30 H       -3.8670    -2.9200     1.0050 H     1 <1>   0.0800 
 31 H       -3.1370    -2.8500    -0.5840 H     1 <1>   0.0800 
 32 H       -5.7110    -1.6710     0.3350 H     1 <1>   0.0800 
 33 H       -5.3610    -2.5530    -1.1110 H     1 <1>   0.0800 
 34 H       -4.0980    -0.6230    -1.9910 H     1 <1>   0.0800 
 35 H       -5.7470    -0.1850    -1.6620 H     1 <1>   0.0800 
 36 H       -3.7120     1.6640    -2.0800 H     1 <1>   0.0800 
 37 H       -2.4080     1.5100    -0.9320 H     1 <1>   0.0800 
 38 H       -3.9050     3.8130    -1.3050 H     1 <1>   0.0800 
 39 H       -3.1510     3.4250     0.2390 H     1 <1>   0.0800 
 40 H       -5.9790     4.8010     0.4770 H     1 <1>   0.1500 
 41 H       -9.2770     2.2770     1.7920 H     1 <1>   0.4000 
 42 H       -8.8010     0.6350     1.5280 H     1 <1>   0.4000 
@<TRIPOS>BOND
  1   1   2  ar  
  2   1   3  ar  
  3   2   4  ar  
  4   2   5  1   
  5   3   6  1   
  6   3   7  ar  
  7   4   8  ar  
  8   4  23  1   
  9   5   9  1   
 10   5  10  1   
 11   6  24  1   
 12   6  25  1   
 13   7   8  ar  
 14   7  26  1   
 15   8  27  1   
 16   9  11  1   
 17   9  28  1   
 18   9  29  1   
 19  10  12  1   
 20  10  30  1   
 21  10  31  1   
 22  11  13  1   
 23  11  14  1   
 24  11  15  1   
 25  12  14  1   
 26  12  32  1   
 27  12  33  1   
 28  13  16  ar  
 29  13  17  ar  
 30  14  34  1   
 31  14  35  1   
 32  15  18  1   
 33  15  36  1   
 34  15  37  1   
 35  16  19  ar  
 36  17  18  1   
 37  17  20  ar  
 38  18  38  1   
 39  18  39  1   
 40  19  21  ar  
 41  19  22  1   
 42  20  21  ar  
 43  20  40  1   
 44  22  41  1   
 45  22  42  1   
@<TRIPOS>SUBSTRUCTURE
  1 ****   9 GROUP 4 **** **** 0

# MOE 2024.06 (io_trps.svl 2023.06)
