@<TRIPOS>MOLECULE
NONAME
48 49 1 0 0 
SMALL
USER_CHARGES


@<TRIPOS>ATOM
  1 S       -0.5500    -0.0220    -0.0510 S.o2  1 <1>   1.3330 
  2 O        0.7290     0.3020     0.5340 O.2   1 <1>  -0.6500 
  3 O       -1.0790     0.7920    -1.1170 O.2   1 <1>  -0.6500 
  4 N       -1.6800     0.0760     1.1860 N.am  1 <1>  -0.9140 
  5 C       -0.5820    -1.7330    -0.5550 C.3   1 <1>  -0.0550 
  6 C       -1.2770    -0.5490     2.4460 C.3   1 <1>   0.1160 
  7 C       -1.9880    -2.1530    -0.9720 C.3   1 <1>   0.1400 
  8 N       -2.0310    -3.6190    -1.1840 N.am  1 <1>  -0.7300 
  9 C       -2.0680    -4.5260    -0.1650 C.2   1 <1>   0.5690 
 10 O       -1.9400    -4.1660     0.9850 O.2   1 <1>  -0.5700 
 11 C       -2.3100    -6.0060    -0.4780 C.3   1 <1>   0.2610 
 12 O       -1.2080    -6.8040    -0.0980 O.3   1 <1>  -0.5600 
 13 C       -3.6130    -6.4650     0.2140 C.3   1 <1>   0.3640 
 14 C       -1.3430    -8.1640    -0.4390 C.3   1 <1>   0.1810 
 15 N       -3.7480    -7.9570     0.2620 N.am  1 <1>  -0.6600 
 16 C       -4.8120    -5.8460    -0.5210 C.ar  1 <1>  -0.1430 
 17 C       -2.6850    -8.7740    -0.0200 C.2   1 <1>   0.5690 
 18 C       -5.0410    -8.4870     0.7860 C.3   1 <1>   0.0600 
 19 C       -5.5990    -4.8380     0.0380 C.ar  1 <1>  -0.1430 
 20 C       -5.1120    -6.3030    -1.8000 C.ar  1 <1>  -0.1500 
 21 O       -2.7670    -9.9790     0.0250 O.2   1 <1>  -0.5700 
 22 C       -6.6460    -4.3020    -0.6980 C.ar  1 <1>  -0.1500 
 23 C       -5.3640    -4.2900     1.4400 C.3   1 <1>  -0.0970 
 24 C       -6.1580    -5.7630    -2.5240 C.ar  1 <1>  -0.1500 
 25 C       -6.9250    -4.7570    -1.9730 C.ar  1 <1>  -0.1500 
 26 H       -1.7820     1.0790     1.3390 H     1 <1>   0.4200 
 27 H        0.0910    -1.8770    -1.3760 H     1 <1>   0.0800 
 28 H       -0.2560    -2.3430     0.2640 H     1 <1>   0.0800 
 29 H       -1.1410    -1.6100     2.3110 H     1 <1>   0.0800 
 30 H       -2.0440    -0.3980     3.1860 H     1 <1>   0.0800 
 31 H       -0.3570    -0.1180     2.8070 H     1 <1>   0.0800 
 32 H       -2.2790    -1.6400    -1.8740 H     1 <1>   0.0800 
 33 H       -2.6930    -1.8970    -0.1980 H     1 <1>   0.0800 
 34 H       -2.1820    -3.9220    -2.1490 H     1 <1>   0.3700 
 35 H       -2.4190    -6.1080    -1.5410 H     1 <1>   0.0800 
 36 H       -3.5800    -6.1200     1.2310 H     1 <1>   0.0800 
 37 H       -1.2250    -8.2610    -1.5020 H     1 <1>   0.0800 
 38 H       -0.5470    -8.7000     0.0460 H     1 <1>   0.0800 
 39 H       -5.3030    -7.9790     1.6970 H     1 <1>   0.0800 
 40 H       -4.9660    -9.5410     0.9900 H     1 <1>   0.0800 
 41 H       -5.8220    -8.3330     0.0610 H     1 <1>   0.0800 
 42 H       -4.5320    -7.0950    -2.2420 H     1 <1>   0.1500 
 43 H       -7.2570    -3.5200    -0.2820 H     1 <1>   0.1500 
 44 H       -6.1520    -3.6180     1.7280 H     1 <1>   0.0800 
 45 H       -4.4380    -3.7480     1.4810 H     1 <1>   0.0800 
 46 H       -5.3390    -5.0900     2.1580 H     1 <1>   0.0800 
 47 H       -6.3770    -6.1280    -3.5130 H     1 <1>   0.1500 
 48 H       -7.7400    -4.3310    -2.5310 H     1 <1>   0.1500 
@<TRIPOS>BOND
  1   1   2  2   
  2   1   3  2   
  3   1   4  am  
  4   1   5  1   
  5   4   6  1   
  6   4  26  1   
  7   5   7  1   
  8   5  27  1   
  9   5  28  1   
 10   6  29  1   
 11   6  30  1   
 12   6  31  1   
 13   7   8  1   
 14   7  32  1   
 15   7  33  1   
 16   8   9  am  
 17   8  34  1   
 18   9  10  2   
 19   9  11  1   
 20  11  12  1   
 21  11  13  1   
 22  11  35  1   
 23  12  14  1   
 24  13  15  1   
 25  13  16  1   
 26  13  36  1   
 27  14  17  1   
 28  14  37  1   
 29  14  38  1   
 30  15  17  am  
 31  15  18  1   
 32  16  19  ar  
 33  16  20  ar  
 34  17  21  2   
 35  18  39  1   
 36  18  40  1   
 37  18  41  1   
 38  19  22  ar  
 39  19  23  1   
 40  20  24  ar  
 41  20  42  1   
 42  22  25  ar  
 43  22  43  1   
 44  23  44  1   
 45  23  45  1   
 46  23  46  1   
 47  24  25  ar  
 48  24  47  1   
 49  25  48  1   
@<TRIPOS>SUBSTRUCTURE
  1 ****   9 GROUP 4 **** **** 0

# MOE 2024.06 (io_trps.svl 2023.06)
