@<TRIPOS>MOLECULE
NONAME
36 38 1 0 0 
SMALL
USER_CHARGES


@<TRIPOS>ATOM
  1 F       -1.8240     0.1070     1.7700 F     1 <1>  -0.3400 
  2 C       -1.8230     0.0440     0.4380 C.3   1 <1>   0.2600 
  3 C       -2.4660     1.3300    -0.0810 C.3   1 <1>   0.2000 
  4 C       -2.7820    -1.0750     0.0110 C.3   1 <1>   0.2090 
  5 O       -2.1530     1.4760    -1.4320 O.3   1 <1>  -0.6800 
  6 C       -3.9650     1.0410     0.0300 C.3   1 <1>   0.2090 
  7 N       -4.0820    -0.4070    -0.2880 N.pl3 1 <1>  -0.8380 
  8 C       -5.2800    -1.0780    -0.2400 C.ar  1 <1>   0.7200 
  9 N       -6.3760    -0.3390    -0.1290 N.ar  1 <1>  -0.6200 
 10 N       -5.2240    -2.4010    -0.3200 N.ar  1 <1>  -0.6200 
 11 C       -7.5130    -0.9880    -0.0960 C.ar  1 <1>   0.1670 
 12 C       -6.3680    -3.0360    -0.2820 C.ar  1 <1>   0.1670 
 13 C       -7.5740    -2.3670    -0.1760 C.ar  1 <1>  -0.1430 
 14 C       -8.7620    -0.1260     0.0210 C.3   1 <1>  -0.0170 
 15 C       -6.2800    -4.5490    -0.3640 C.3   1 <1>  -0.0970 
 16 C       -8.9100    -3.1130    -0.1390 C.3   1 <1>  -0.0170 
 17 C      -10.0150    -0.9210     0.4110 C.3   1 <1>  -0.1600 
 18 C      -10.1100    -2.2020    -0.4200 C.3   1 <1>  -0.1600 
 19 H       -0.8020    -0.0980     0.1330 H     1 <1>   0.0800 
 20 H       -2.1460     2.2110     0.4460 H     1 <1>   0.0800 
 21 H       -2.8870    -1.8170     0.7840 H     1 <1>   0.0800 
 22 H       -2.4250    -1.5430    -0.8890 H     1 <1>   0.0800 
 23 H       -2.7060     0.8420    -1.9390 H     1 <1>   0.4000 
 24 H       -4.5450     1.6450    -0.6460 H     1 <1>   0.0800 
 25 H       -4.3020     1.2070     1.0400 H     1 <1>   0.0800 
 26 H       -8.5920     0.6470     0.7480 H     1 <1>   0.0800 
 27 H       -8.9230     0.3490    -0.9300 H     1 <1>   0.0800 
 28 H       -6.9560    -5.0080     0.3330 H     1 <1>   0.0800 
 29 H       -5.2830    -4.8760    -0.1270 H     1 <1>   0.0800 
 30 H       -6.5170    -4.8710    -1.3610 H     1 <1>   0.0800 
 31 H       -8.9100    -3.9080    -0.8630 H     1 <1>   0.0800 
 32 H       -9.0240    -3.5510     0.8370 H     1 <1>   0.0800 
 33 H       -9.9630    -1.1750     1.4570 H     1 <1>   0.0800 
 34 H      -10.8900    -0.3130     0.2580 H     1 <1>   0.0800 
 35 H      -10.1290    -1.9480    -1.4670 H     1 <1>   0.0800 
 36 H      -11.0220    -2.7240    -0.1880 H     1 <1>   0.0800 
@<TRIPOS>BOND
  1   1   2  1   
  2   2   3  1   
  3   2   4  1   
  4   2  19  1   
  5   3   5  1   
  6   3   6  1   
  7   3  20  1   
  8   4   7  1   
  9   4  21  1   
 10   4  22  1   
 11   5  23  1   
 12   6   7  1   
 13   6  24  1   
 14   6  25  1   
 15   7   8  1   
 16   8   9  ar  
 17   8  10  ar  
 18   9  11  ar  
 19  10  12  ar  
 20  11  13  ar  
 21  11  14  1   
 22  12  13  ar  
 23  12  15  1   
 24  13  16  1   
 25  14  17  1   
 26  14  26  1   
 27  14  27  1   
 28  15  28  1   
 29  15  29  1   
 30  15  30  1   
 31  16  18  1   
 32  16  31  1   
 33  16  32  1   
 34  17  18  1   
 35  17  33  1   
 36  17  34  1   
 37  18  35  1   
 38  18  36  1   
@<TRIPOS>SUBSTRUCTURE
  1 ****   8 GROUP 4 **** **** 0

# MOE 2024.06 (io_trps.svl 2023.06)
