@<TRIPOS>MOLECULE
NONAME
53 57 1 0 0 
SMALL
USER_CHARGES


@<TRIPOS>ATOM
  1 O       -1.9830     0.5970    -2.2300 O.2   1 <1>  -0.5700 
  2 C       -1.8830     0.9850    -1.0840 C.2   1 <1>   0.5440 
  3 N       -2.0790     0.0590    -0.0800 N.am  1 <1>  -0.6600 
  4 C       -1.6930     2.3910    -0.8050 C.ar  1 <1>   0.0860 
  5 C       -2.8240     0.3990     1.1690 C.3   1 <1>   0.1400 
  6 C       -2.1000    -1.4000    -0.3940 C.3   1 <1>   0.1400 
  7 C       -0.7120     2.8730     0.0990 C.ar  1 <1>   0.0000 
  8 C       -2.5060     3.3270    -1.3840 C.ar  1 <1>  -0.1500 
  9 C       -4.2920    -0.0860     1.0790 C.3   1 <1>   0.4230 
 10 C       -3.5560    -1.8720    -0.5420 C.3   1 <1>   0.3430 
 11 C       -0.7190     4.2530     0.4090 C.ar  1 <1>   0.3100 
 12 C        0.2750     2.0610     0.7000 C.ar  1 <1>  -0.1500 
 13 C       -2.4200     4.6720    -1.0270 C.ar  1 <1>   0.3920 
 14 N       -4.3880    -1.5520     0.6840 N.4   1 <1>  -0.9590 
 15 C       -5.1020     0.8040     0.1040 C.3   1 <1>   0.1200 
 16 N       -1.5820     5.1340    -0.1450 N.ar  1 <1>  -0.6200 
 17 C        0.2160     4.7430     1.3350 C.ar  1 <1>  -0.1500 
 18 C        1.1780     2.5720     1.5940 C.ar  1 <1>  -0.1500 
 19 O       -3.2860     5.5020    -1.6340 O.3   1 <1>  -0.3620 
 20 C       -5.8320    -1.9270     0.5250 C.3   1 <1>   0.5180 
 21 O       -6.4280     0.3640     0.0300 O.3   1 <1>  -0.5600 
 22 C        1.1450     3.9280     1.9210 C.ar  1 <1>  -0.1500 
 23 C       -3.2810     6.8900    -1.3610 C.3   1 <1>   0.0400 
 24 C       -5.9460    -3.3850     0.0640 C.3   1 <1>  -0.1950 
 25 C       -6.5850    -0.9570    -0.4120 C.3   1 <1>   0.1200 
 26 C       -7.0250    -4.2630     0.6170 C.3   1 <1>  -0.2000 
 27 C       -5.5900    -4.5270     0.9680 C.3   1 <1>  -0.2000 
 28 H       -2.3390    -0.0700     2.0080 H     1 <1>   0.0800 
 29 H       -2.8080     1.4610     1.3470 H     1 <1>   0.0800 
 30 H       -1.5640    -1.5940    -1.3090 H     1 <1>   0.0800 
 31 H       -1.6080    -1.9480     0.3900 H     1 <1>   0.0800 
 32 H       -3.2390     3.0480    -2.1190 H     1 <1>   0.1500 
 33 H       -4.7350     0.0430     2.0530 H     1 <1>   0.0800 
 34 H       -3.5600    -2.9340    -0.7240 H     1 <1>   0.0800 
 35 H       -3.9760    -1.3870    -1.4080 H     1 <1>   0.0800 
 36 H        0.3300     1.0170     0.4470 H     1 <1>   0.1500 
 37 H       -4.0250    -2.1200     1.4560 H     1 <1>   0.4500 
 38 H       -4.6800     0.7920    -0.8870 H     1 <1>   0.0800 
 39 H       -5.1180     1.8220     0.4530 H     1 <1>   0.0800 
 40 H        0.1810     5.7920     1.5670 H     1 <1>   0.1500 
 41 H        1.9250     1.9420     2.0480 H     1 <1>   0.1500 
 42 H       -6.3060    -1.8580     1.4910 H     1 <1>   0.0800 
 43 H        1.8580     4.3190     2.6280 H     1 <1>   0.1500 
 44 H       -4.0420     7.3560    -1.9590 H     1 <1>   0.0800 
 45 H       -2.3140     7.2900    -1.6140 H     1 <1>   0.0800 
 46 H       -3.4860     7.0400    -0.3150 H     1 <1>   0.0800 
 47 H       -5.7680    -3.5030    -0.9920 H     1 <1>   0.1000 
 48 H       -7.6380    -1.1800    -0.4030 H     1 <1>   0.0800 
 49 H       -6.2300    -1.0290    -1.4250 H     1 <1>   0.0800 
 50 H       -7.6790    -3.9020     1.3940 H     1 <1>   0.1000 
 51 H       -7.5240    -4.9590    -0.0380 H     1 <1>   0.1000 
 52 H       -5.1270    -5.4080     0.5530 H     1 <1>   0.1000 
 53 H       -5.2960    -4.3590     1.9910 H     1 <1>   0.1000 
@<TRIPOS>BOND
  1   1   2  2   
  2   2   3  am  
  3   2   4  1   
  4   3   5  1   
  5   3   6  1   
  6   4   7  ar  
  7   4   8  ar  
  8   5   9  1   
  9   5  28  1   
 10   5  29  1   
 11   6  10  1   
 12   6  30  1   
 13   6  31  1   
 14   7  11  ar  
 15   7  12  ar  
 16   8  13  ar  
 17   8  32  1   
 18   9  14  1   
 19   9  15  1   
 20   9  33  1   
 21  10  14  1   
 22  10  34  1   
 23  10  35  1   
 24  11  16  ar  
 25  11  17  ar  
 26  12  18  ar  
 27  12  36  1   
 28  13  16  ar  
 29  13  19  1   
 30  14  20  1   
 31  14  37  1   
 32  15  21  1   
 33  15  38  1   
 34  15  39  1   
 35  17  22  ar  
 36  17  40  1   
 37  18  22  ar  
 38  18  41  1   
 39  19  23  1   
 40  20  24  1   
 41  20  25  1   
 42  20  42  1   
 43  21  25  1   
 44  22  43  1   
 45  23  44  1   
 46  23  45  1   
 47  23  46  1   
 48  24  26  1   
 49  24  27  1   
 50  24  47  1   
 51  25  48  1   
 52  25  49  1   
 53  26  27  1   
 54  26  50  1   
 55  26  51  1   
 56  27  52  1   
 57  27  53  1   
@<TRIPOS>SUBSTRUCTURE
  1 ****   5 GROUP 4 **** **** 0

# MOE 2024.06 (io_trps.svl 2023.06)
