@<TRIPOS>MOLECULE
NONAME
42 43 1 0 0 
SMALL
USER_CHARGES


@<TRIPOS>ATOM
  1 O        0.8280     2.5570    -0.6050 O.2   1 <1>  -0.5700 
  2 C       -0.3630     2.3550    -0.5390 C.2   1 <1>   0.5690 
  3 N       -1.1330     2.8770     0.4690 N.am  1 <1>  -0.6600 
  4 C       -0.9920     1.5210    -1.6430 C.3   1 <1>  -0.0990 
  5 C       -2.5960     2.6370     0.6110 C.3   1 <1>   0.1400 
  6 C       -0.5090     3.6680     1.5580 C.3   1 <1>   0.1400 
  7 C       -2.3940     1.0000    -1.2990 C.3   1 <1>  -0.1600 
  8 C       -3.2240     2.1330    -0.6910 C.3   1 <1>  -0.1600 
  9 C       -0.3760     5.1230     1.1060 C.3   1 <1>  -0.1600 
 10 C        0.4660     5.9430     2.0970 C.3   1 <1>  -0.0990 
 11 C        0.7170     7.3530     1.6000 C.2   1 <1>   0.5690 
 12 O        0.2100     8.2710     2.1990 O.2   1 <1>  -0.5700 
 13 N        1.5050     7.4970     0.4980 N.am  1 <1>  -0.4930 
 14 C        1.9010     8.6810    -0.1760 C.2   1 <1>   0.0630 
 15 C        2.6560     8.7660    -1.3490 C.2   1 <1>   0.1080 
 16 C        1.6500     9.9640     0.1520 C.2   1 <1>  -0.3020 
 17 N        2.8570     9.9930    -1.7180 N.2   1 <1>  -0.7070 
 18 C        3.1940     7.5890    -2.1320 C.3   1 <1>  -0.0590 
 19 N        2.2320    10.7350    -0.7880 N.pl3 1 <1>   0.3140 
 20 C        2.2210    12.2000    -0.8390 C.3   1 <1>   0.0160 
 21 H       -0.3440     0.6930    -1.8640 H     1 <1>   0.0800 
 22 H       -1.0470     2.1380    -2.5200 H     1 <1>   0.0800 
 23 H       -3.0830     3.5500     0.9090 H     1 <1>   0.0800 
 24 H       -2.7460     1.9060     1.3870 H     1 <1>   0.0800 
 25 H        0.4650     3.2610     1.7710 H     1 <1>   0.0800 
 26 H       -1.1010     3.6020     2.4550 H     1 <1>   0.0800 
 27 H       -2.3130     0.1930    -0.5900 H     1 <1>   0.0800 
 28 H       -2.8710     0.6210    -2.1870 H     1 <1>   0.0800 
 29 H       -3.2970     2.9490    -1.3890 H     1 <1>   0.0800 
 30 H       -4.2220     1.7860    -0.4890 H     1 <1>   0.0800 
 31 H       -1.3520     5.5650     1.0130 H     1 <1>   0.0800 
 32 H        0.0980     5.1390     0.1400 H     1 <1>   0.0800 
 33 H        1.4170     5.4670     2.2560 H     1 <1>   0.0800 
 34 H       -0.0390     5.9950     3.0450 H     1 <1>   0.0800 
 35 H        1.8420     6.6350     0.0750 H     1 <1>   0.3700 
 36 H        1.0980    10.3530     0.9870 H     1 <1>   0.1500 
 37 H        3.8890     7.0370    -1.5280 H     1 <1>   0.0800 
 38 H        3.7020     7.9410    -3.0120 H     1 <1>   0.0800 
 39 H        2.3860     6.9480    -2.4310 H     1 <1>   0.0800 
 40 H        1.2160    12.5510    -0.7020 H     1 <1>   0.0800 
 41 H        2.5900    12.5210    -1.7950 H     1 <1>   0.0800 
 42 H        2.8540    12.5820    -0.0600 H     1 <1>   0.0800 
@<TRIPOS>BOND
  1   1   2  2   
  2   2   3  am  
  3   2   4  1   
  4   3   5  1   
  5   3   6  1   
  6   4   7  1   
  7   4  21  1   
  8   4  22  1   
  9   5   8  1   
 10   5  23  1   
 11   5  24  1   
 12   6   9  1   
 13   6  25  1   
 14   6  26  1   
 15   7   8  1   
 16   7  27  1   
 17   7  28  1   
 18   8  29  1   
 19   8  30  1   
 20   9  10  1   
 21   9  31  1   
 22   9  32  1   
 23  10  11  1   
 24  10  33  1   
 25  10  34  1   
 26  11  12  2   
 27  11  13  am  
 28  13  14  1   
 29  13  35  1   
 30  14  15  1   
 31  14  16  2   
 32  15  17  2   
 33  15  18  1   
 34  16  19  1   
 35  16  36  1   
 36  17  19  1   
 37  18  37  1   
 38  18  38  1   
 39  18  39  1   
 40  19  20  1   
 41  20  40  1   
 42  20  41  1   
 43  20  42  1   
@<TRIPOS>SUBSTRUCTURE
  1 ****   9 GROUP 4 **** **** 0

# MOE 2024.06 (io_trps.svl 2023.06)
