@<TRIPOS>MOLECULE
NONAME
40 42 1 0 0 
SMALL
USER_CHARGES


@<TRIPOS>ATOM
  1 O       -2.2080     0.5810     2.9770 O.2   1 <1>  -0.5700 
  2 C       -2.2410     1.0120     1.8500 C.2   1 <1>   0.5690 
  3 N       -2.8960     0.3400     0.8540 N.am  1 <1>  -0.6600 
  4 C       -1.5340     2.3340     1.5780 C.3   1 <1>   0.0440 
  5 C       -3.0140     0.7420    -0.5710 C.3   1 <1>   0.1400 
  6 C       -3.5200    -0.9910     1.0660 C.3   1 <1>   0.1400 
  7 C       -0.5040     2.2620     0.4540 C.ar  1 <1>  -0.1440 
  8 C       -4.1010    -0.1710    -1.1340 C.3   1 <1>   0.2000 
  9 C       -3.9720    -1.4660    -0.3260 C.3   1 <1>  -0.0800 
 10 C        0.3660     1.1830     0.3510 C.ar  1 <1>   0.1600 
 11 C       -0.4260     3.2690    -0.4880 C.ar  1 <1>  -0.1500 
 12 O       -5.3340     0.3900    -0.8480 O.3   1 <1>  -0.6800 
 13 C       -2.9470    -2.4200    -0.9730 C.3   1 <1>  -0.0170 
 14 N        1.2720     1.0310    -0.6020 N.ar  1 <1>  -0.6200 
 15 C        0.5180     3.1280    -1.4820 C.ar  1 <1>  -0.1500 
 16 C       -2.9570    -3.7930    -0.3180 C.ar  1 <1>   0.1670 
 17 C        1.3290     2.0060    -1.4930 C.ar  1 <1>   0.1600 
 18 N       -2.1030    -3.9870     0.6730 N.ar  1 <1>  -0.6200 
 19 C       -3.8400    -4.7720    -0.7730 C.ar  1 <1>   0.1600 
 20 C       -2.1890    -5.2080     1.1740 C.ar  1 <1>   0.1600 
 21 N       -3.9300    -5.9930    -0.2730 N.ar  1 <1>  -0.6200 
 22 C       -3.0730    -6.1780     0.7170 C.ar  1 <1>   0.1600 
 23 H       -2.2830     3.0680     1.3500 H     1 <1>   0.0800 
 24 H       -1.0370     2.6480     2.4780 H     1 <1>   0.0800 
 25 H       -3.2710     1.7810    -0.6800 H     1 <1>   0.0800 
 26 H       -2.0810     0.5450    -1.0700 H     1 <1>   0.0800 
 27 H       -2.8170    -1.6640     1.5280 H     1 <1>   0.0800 
 28 H       -4.3680    -0.8790     1.7190 H     1 <1>   0.0800 
 29 H       -4.0310    -0.3070    -2.1990 H     1 <1>   0.0800 
 30 H       -4.9200    -1.9730    -0.2670 H     1 <1>   0.0800 
 31 H        0.3130     0.3990     1.0890 H     1 <1>   0.1500 
 32 H       -1.0690     4.1320    -0.4560 H     1 <1>   0.1500 
 33 H       -5.3670     0.6100     0.1050 H     1 <1>   0.4000 
 34 H       -1.9560    -2.0040    -0.9100 H     1 <1>   0.0800 
 35 H       -3.1800    -2.5400    -2.0160 H     1 <1>   0.0800 
 36 H        0.6290     3.8790    -2.2430 H     1 <1>   0.1500 
 37 H        2.0640     1.9070    -2.2740 H     1 <1>   0.1500 
 38 H       -4.5040    -4.5330    -1.5850 H     1 <1>   0.1500 
 39 H       -1.5280    -5.4530     1.9860 H     1 <1>   0.1500 
 40 H       -3.0690    -7.1440     1.1900 H     1 <1>   0.1500 
@<TRIPOS>BOND
  1   1   2  2   
  2   2   3  am  
  3   2   4  1   
  4   3   5  1   
  5   3   6  1   
  6   4   7  1   
  7   4  23  1   
  8   4  24  1   
  9   5   8  1   
 10   5  25  1   
 11   5  26  1   
 12   6   9  1   
 13   6  27  1   
 14   6  28  1   
 15   7  10  ar  
 16   7  11  ar  
 17   8   9  1   
 18   8  12  1   
 19   8  29  1   
 20   9  13  1   
 21   9  30  1   
 22  10  14  ar  
 23  10  31  1   
 24  11  15  ar  
 25  11  32  1   
 26  12  33  1   
 27  13  16  1   
 28  13  34  1   
 29  13  35  1   
 30  14  17  ar  
 31  15  17  ar  
 32  15  36  1   
 33  16  18  ar  
 34  16  19  ar  
 35  17  37  1   
 36  18  20  ar  
 37  19  21  ar  
 38  19  38  1   
 39  20  22  ar  
 40  20  39  1   
 41  21  22  ar  
 42  22  40  1   
@<TRIPOS>SUBSTRUCTURE
  1 ****   3 GROUP 4 **** **** 0

# MOE 2024.06 (io_trps.svl 2023.06)
