@<TRIPOS>MOLECULE
NONAME
49 52 1 0 0 
SMALL
USER_CHARGES


@<TRIPOS>ATOM
  1 O       -0.6140     0.1680    -0.6930 O.2   1 <1>  -0.5700 
  2 C       -1.6330     0.8360    -0.7650 C.2   1 <1>   0.5440 
  3 N       -2.8390     0.1530    -0.8260 N.am  1 <1>  -0.6600 
  4 C       -1.5190     2.3010    -0.7590 C.ar  1 <1>   0.3960 
  5 C       -4.1810     0.7760    -0.6030 C.3   1 <1>   0.1400 
  6 C       -2.9140    -1.3110    -1.1300 C.3   1 <1>   0.1400 
  7 N       -2.3370     3.0570    -1.5190 N.ar  1 <1>  -0.6200 
  8 C       -0.5400     2.8870     0.0390 C.ar  1 <1>  -0.1500 
  9 C       -5.0150    -0.0310     0.4120 C.3   1 <1>   0.1900 
 10 C       -3.7800    -2.0540    -0.1010 C.3   1 <1>   0.1100 
 11 C       -2.1650     4.3650    -1.4760 C.ar  1 <1>   0.1600 
 12 C       -0.3750     4.2530     0.0810 C.ar  1 <1>   0.0830 
 13 N       -5.1290    -1.4530     0.0040 N.3   1 <1>  -0.8100 
 14 C       -6.4120     0.5990     0.5750 C.3   1 <1>   0.1200 
 15 C       -1.2190     5.0110    -0.7070 C.ar  1 <1>  -0.1500 
 16 O        0.5910     4.7560     0.8790 O.3   1 <1>  -0.3630 
 17 C       -5.9880    -2.1860     0.9650 C.3   1 <1>   0.3330 
 18 O       -7.1730    -0.1250     1.5000 O.3   1 <1>  -0.5600 
 19 C        0.8580     6.1400     0.9380 C.3   1 <1>   0.0400 
 20 C       -6.2320    -3.6220     0.5030 C.ar  1 <1>  -0.1430 
 21 C       -7.3440    -1.4700     1.1400 C.3   1 <1>   0.1200 
 22 C       -6.0980    -4.6740     1.3990 C.ar  1 <1>  -0.1500 
 23 C       -6.5940    -3.8970    -0.8090 C.ar  1 <1>  -0.1500 
 24 C       -6.3240    -5.9770     0.9900 C.ar  1 <1>  -0.1500 
 25 C       -6.8210    -5.1990    -1.2190 C.ar  1 <1>  -0.1500 
 26 C       -6.6860    -6.2410    -0.3190 C.ar  1 <1>  -0.1500 
 27 H       -4.0730     1.7760    -0.2280 H     1 <1>   0.0800 
 28 H       -4.7030     0.8240    -1.5420 H     1 <1>   0.0800 
 29 H       -3.3440    -1.4410    -2.1070 H     1 <1>   0.0800 
 30 H       -1.9320    -1.7500    -1.1440 H     1 <1>   0.0800 
 31 H        0.1050     2.2630     0.6310 H     1 <1>   0.1500 
 32 H       -4.5170     0.0290     1.3640 H     1 <1>   0.0800 
 33 H       -3.2880    -2.0300     0.8560 H     1 <1>   0.0800 
 34 H       -3.8610    -3.0820    -0.4090 H     1 <1>   0.0800 
 35 H       -2.8190     4.9600    -2.0930 H     1 <1>   0.1500 
 36 H       -6.9350     0.6120    -0.3660 H     1 <1>   0.0800 
 37 H       -6.3280     1.6070     0.9410 H     1 <1>   0.0800 
 38 H       -1.1570     6.0810    -0.7370 H     1 <1>   0.1500 
 39 H       -5.5000    -2.2060     1.9240 H     1 <1>   0.0800 
 40 H        1.6740     6.2940     1.6220 H     1 <1>   0.0800 
 41 H       -0.0190     6.6510     1.2960 H     1 <1>   0.0800 
 42 H        1.1330     6.4850    -0.0430 H     1 <1>   0.0800 
 43 H       -7.9140    -1.9480     1.9160 H     1 <1>   0.0800 
 44 H       -7.9080    -1.5110     0.2250 H     1 <1>   0.0800 
 45 H       -5.8180    -4.4850     2.4200 H     1 <1>   0.1500 
 46 H       -6.6940    -3.0890    -1.5140 H     1 <1>   0.1500 
 47 H       -6.2190    -6.7870     1.6910 H     1 <1>   0.1500 
 48 H       -7.1010    -5.4000    -2.2380 H     1 <1>   0.1500 
 49 H       -6.8620    -7.2540    -0.6360 H     1 <1>   0.1500 
@<TRIPOS>BOND
  1   1   2  2   
  2   2   3  am  
  3   2   4  1   
  4   3   5  1   
  5   3   6  1   
  6   4   7  ar  
  7   4   8  ar  
  8   5   9  1   
  9   5  27  1   
 10   5  28  1   
 11   6  10  1   
 12   6  29  1   
 13   6  30  1   
 14   7  11  ar  
 15   8  12  ar  
 16   8  31  1   
 17   9  13  1   
 18   9  14  1   
 19   9  32  1   
 20  10  13  1   
 21  10  33  1   
 22  10  34  1   
 23  11  15  ar  
 24  11  35  1   
 25  12  15  ar  
 26  12  16  1   
 27  13  17  1   
 28  14  18  1   
 29  14  36  1   
 30  14  37  1   
 31  15  38  1   
 32  16  19  1   
 33  17  20  1   
 34  17  21  1   
 35  17  39  1   
 36  18  21  1   
 37  19  40  1   
 38  19  41  1   
 39  19  42  1   
 40  20  22  ar  
 41  20  23  ar  
 42  21  43  1   
 43  21  44  1   
 44  22  24  ar  
 45  22  45  1   
 46  23  25  ar  
 47  23  46  1   
 48  24  26  ar  
 49  24  47  1   
 50  25  26  ar  
 51  25  48  1   
 52  26  49  1   
@<TRIPOS>SUBSTRUCTURE
  1 ****   5 GROUP 4 **** **** 0

# MOE 2024.06 (io_trps.svl 2023.06)
