@<TRIPOS>MOLECULE
NONAME
46 48 1 0 0 
SMALL
USER_CHARGES


@<TRIPOS>ATOM
  1 O        1.1300     1.6740     2.0770 O.2   1 <1>  -0.5700 
  2 C        1.9790     1.7050     1.2210 C.2   1 <1>   0.6900 
  3 N        2.6620     0.5930     0.8540 N.am  1 <1>  -0.4900 
  4 N        2.2770     2.8880     0.6010 N.am  1 <1>  -0.5390 
  5 C        3.6220     0.6090    -0.1100 C.2   1 <1>   0.6160 
  6 C        3.2570     2.9870    -0.3850 C.2   1 <1>  -0.0290 
  7 O        4.2020    -0.4160    -0.3880 O.2   1 <1>  -0.5700 
  8 C        3.9150     1.8560    -0.7390 C.2   1 <1>  -0.1360 
  9 C        3.5480     4.3530    -1.0010 C.3   1 <1>   0.4810 
 10 N        4.1270     5.2520     0.0380 N.4   1 <1>  -0.9590 
 11 C        4.0990     6.6860    -0.4440 C.3   1 <1>   0.3430 
 12 C        5.4950     4.7860     0.4460 C.3   1 <1>   0.3430 
 13 C        4.7030     7.7140     0.5300 C.3   1 <1>   0.2090 
 14 C        5.8360     5.2730     1.8570 C.3   1 <1>  -0.1600 
 15 N        6.1550     7.4440     0.7020 N.pl3 1 <1>  -0.8380 
 16 C        6.5380     6.6340     1.8800 C.3   1 <1>   0.2090 
 17 C        7.0180     8.4970     0.3980 C.ar  1 <1>   0.1000 
 18 C        7.9290     8.4030    -0.6550 C.ar  1 <1>  -0.1430 
 19 C        6.9780     9.6660     1.1520 C.ar  1 <1>  -0.1500 
 20 C        8.7660     9.4700    -0.9380 C.ar  1 <1>  -0.1500 
 21 C        8.0250     7.1410    -1.5000 C.3   1 <1>  -0.0970 
 22 C        7.8150    10.7260     0.8650 C.ar  1 <1>  -0.1500 
 23 C        8.7110    10.6290    -0.1840 C.ar  1 <1>  -0.1500 
 24 H        2.4360    -0.2890     1.3040 H     1 <1>   0.3700 
 25 H        1.6340     3.6370     0.8730 H     1 <1>   0.3700 
 26 H        4.6820     1.8200    -1.4910 H     1 <1>   0.1500 
 27 H        2.6290     4.7680    -1.3820 H     1 <1>   0.0800 
 28 H        4.2380     4.2480    -1.8220 H     1 <1>   0.0800 
 29 H        3.5370     5.1740     0.8730 H     1 <1>   0.4500 
 30 H        3.0810     6.9740    -0.6440 H     1 <1>   0.0800 
 31 H        4.6470     6.7650    -1.3690 H     1 <1>   0.0800 
 32 H        6.2390     5.1340    -0.2530 H     1 <1>   0.0800 
 33 H        5.5190     3.7090     0.4540 H     1 <1>   0.0800 
 34 H        4.1950     7.6880     1.4790 H     1 <1>   0.0800 
 35 H        4.5720     8.6990     0.1130 H     1 <1>   0.0800 
 36 H        6.5090     4.5660     2.3080 H     1 <1>   0.0800 
 37 H        4.9580     5.2990     2.4760 H     1 <1>   0.0800 
 38 H        7.6060     6.4860     1.8530 H     1 <1>   0.0800 
 39 H        6.3050     7.1670     2.7880 H     1 <1>   0.0800 
 40 H        6.2880     9.7440     1.9710 H     1 <1>   0.1500 
 41 H        9.4720     9.4100    -1.7480 H     1 <1>   0.1500 
 42 H        7.0770     6.9390    -1.9610 H     1 <1>   0.0800 
 43 H        8.3010     6.3100    -0.8770 H     1 <1>   0.0800 
 44 H        8.7650     7.2480    -2.2720 H     1 <1>   0.0800 
 45 H        7.7740    11.6260     1.4540 H     1 <1>   0.1500 
 46 H        9.3650    11.4530    -0.4130 H     1 <1>   0.1500 
@<TRIPOS>BOND
  1   1   2  2   
  2   2   3  am  
  3   2   4  am  
  4   3   5  am  
  5   3  24  1   
  6   4   6  1   
  7   4  25  1   
  8   5   7  2   
  9   5   8  1   
 10   6   8  2   
 11   6   9  1   
 12   8  26  1   
 13   9  10  1   
 14   9  27  1   
 15   9  28  1   
 16  10  11  1   
 17  10  12  1   
 18  10  29  1   
 19  11  13  1   
 20  11  30  1   
 21  11  31  1   
 22  12  14  1   
 23  12  32  1   
 24  12  33  1   
 25  13  15  1   
 26  13  34  1   
 27  13  35  1   
 28  14  16  1   
 29  14  36  1   
 30  14  37  1   
 31  15  16  1   
 32  15  17  1   
 33  16  38  1   
 34  16  39  1   
 35  17  18  ar  
 36  17  19  ar  
 37  18  20  ar  
 38  18  21  1   
 39  19  22  ar  
 40  19  40  1   
 41  20  23  ar  
 42  20  41  1   
 43  21  42  1   
 44  21  43  1   
 45  21  44  1   
 46  22  23  ar  
 47  22  45  1   
 48  23  46  1   
@<TRIPOS>SUBSTRUCTURE
  1 ****  12 GROUP 4 **** **** 0

# MOE 2024.06 (io_trps.svl 2023.06)
