@<TRIPOS>MOLECULE
Untitled Document
33 35 1 0 0 
SMALL
USER_CHARGES


@<TRIPOS>ATOM
  1 S        0.1680     0.1950     0.0940 S.3   1 <1>  -0.3180 
  2 C        0.8250     1.8530     0.2800 C.2   1 <1>  -0.0370 
  3 C       -1.4560     0.7840    -0.5240 C.3   1 <1>   0.4420 
  4 C       -0.1120     2.7950     0.0290 C.2   1 <1>  -0.1410 
  5 C        2.3070     1.9870     0.6340 C.3   1 <1>   0.3380 
  6 N       -1.4160     2.2520    -0.1890 N.am  1 <1>  -0.3940 
  7 C       -2.6250     0.6130     0.4500 C.3   1 <1>   0.0530 
  8 C        0.1160     4.2370    -0.0560 C.2   1 <1>   1.0500 
  9 O        2.7120     0.9730     1.5180 O.3   1 <1>  -0.5600 
 10 C        3.2090     1.8740    -0.5940 C.3   1 <1>  -0.1600 
 11 C       -2.3530     2.0650     0.8010 C.2   1 <1>   0.5770 
 12 C       -3.9780     0.4340    -0.2400 C.3   1 <1>   0.2000 
 13 O        1.2460     4.7080     0.1700 O.co2 1 <1>  -0.9000 
 14 O       -0.7840     5.0150    -0.4190 O.co2 1 <1>  -0.9000 
 15 C        3.6530     0.1360     0.9330 C.3   1 <1>   0.1200 
 16 C        4.3400     0.9800    -0.1260 C.3   1 <1>  -0.1600 
 17 O       -2.8080     2.7360     1.6970 O.2   1 <1>  -0.5700 
 18 O       -3.9870    -0.7840    -0.8910 O.3   1 <1>  -0.6800 
 19 C       -5.1520     0.4320     0.7370 C.3   1 <1>  -0.2400 
 20 H       -1.6160     0.5750    -1.5660 H     1 <1>   0.0000 
 21 H        2.4900     2.9200     1.1360 H     1 <1>   0.0800 
 22 H       -2.4300    -0.0690     1.2600 H     1 <1>   0.0000 
 23 H        2.6690     1.4070    -1.3980 H     1 <1>   0.0800 
 24 H        3.5420     2.8450    -0.9140 H     1 <1>   0.0800 
 25 H       -4.1180     1.2010    -0.9860 H     1 <1>   0.0800 
 26 H        4.3310    -0.2190     1.6890 H     1 <1>   0.0800 
 27 H        3.1240    -0.6880     0.4870 H     1 <1>   0.0800 
 28 H        5.1170     1.5670     0.3340 H     1 <1>   0.0800 
 29 H        4.7550     0.3830    -0.9180 H     1 <1>   0.0800 
 30 H       -4.0290    -1.5120    -0.2400 H     1 <1>   0.4000 
 31 H       -5.0300    -0.3290     1.4870 H     1 <1>   0.0800 
 32 H       -6.0740     0.2760     0.2070 H     1 <1>   0.0800 
 33 H       -5.2110     1.3860     1.2330 H     1 <1>   0.0800 
@<TRIPOS>BOND
  1   1   2  1   
  2   1   3  1   
  3   2   4  2   
  4   2   5  1   
  5   3   6  1   
  6   3   7  1   
  7   3  20  1   
  8   4   6  1   
  9   4   8  1   
 10   5   9  1   
 11   5  10  1   
 12   5  21  1   
 13   6  11  am  
 14   7  11  1   
 15   7  12  1   
 16   7  22  1   
 17   8  13  ar  
 18   8  14  ar  
 19   9  15  1   
 20  10  16  1   
 21  10  23  1   
 22  10  24  1   
 23  11  17  2   
 24  12  18  1   
 25  12  19  1   
 26  12  25  1   
 27  15  16  1   
 28  15  26  1   
 29  15  27  1   
 30  16  28  1   
 31  16  29  1   
 32  18  30  1   
 33  19  31  1   
 34  19  32  1   
 35  19  33  1   
@<TRIPOS>SUBSTRUCTURE
  1 ****   4 GROUP 4 **** **** 0

# MOE 2024.06 (io_trps.svl 2023.06)
