@<TRIPOS>MOLECULE
NONAME
54 58 1 0 0 
SMALL
USER_CHARGES


@<TRIPOS>ATOM
  1 O       -0.6460     0.5930    -1.0480 O.2   1 <1>  -0.5700 
  2 C       -1.5150     1.0100    -0.3030 C.2   1 <1>   0.6300 
  3 N       -2.3500     0.0530     0.2720 N.am  1 <1>  -0.6600 
  4 C       -1.6420     2.4560    -0.0900 C.2   1 <1>   0.4360 
  5 C       -3.2250     0.2600     1.4740 C.3   1 <1>   0.1400 
  6 C       -2.4730    -1.3210    -0.3050 C.3   1 <1>   0.1400 
  7 N       -2.7990     2.9870     0.2240 N.2   1 <1>  -0.5760 
  8 C       -0.4850     3.2890    -0.2520 C.2   1 <1>  -0.1360 
  9 C       -4.7100    -0.0400     1.1570 C.3   1 <1>   0.4230 
 10 C       -3.9450    -1.6310    -0.6400 C.3   1 <1>   0.3430 
 11 C       -2.8450     4.3370     0.4090 C.2   1 <1>   0.3120 
 12 C       -0.5370     4.6400    -0.0810 C.2   1 <1>  -0.1690 
 13 N       -4.8740    -1.4180     0.5360 N.4   1 <1>  -0.9590 
 14 C       -5.3390     1.0560     0.2620 C.3   1 <1>   0.1200 
 15 N       -3.8980     5.0000     0.7640 N.2   1 <1>  -0.5650 
 16 N       -1.7730     5.1680     0.2600 N.pl3 1 <1>   0.6010 
 17 C        0.6340     5.6130    -0.2380 C.3   1 <1>   0.0580 
 18 C       -6.3180    -1.6330     0.1880 C.3   1 <1>   0.5180 
 19 O       -6.6770     0.7480    -0.0210 O.3   1 <1>  -0.5600 
 20 C       -3.4160     6.2400     0.8150 C.2   1 <1>   0.3660 
 21 N       -2.1610     6.4080     0.5320 N.2   1 <1>  -0.7070 
 22 C        0.5710     6.2840    -1.6130 C.3   1 <1>  -0.2400 
 23 C        1.9980     4.9360    -0.0530 C.3   1 <1>  -0.2400 
 24 C       -6.4950    -2.9970    -0.4890 C.3   1 <1>  -0.1950 
 25 C       -6.8840    -0.4770    -0.6660 C.3   1 <1>   0.1200 
 26 C       -7.6930    -3.8400    -0.1750 C.3   1 <1>  -0.2000 
 27 C       -6.3280    -4.2800     0.2690 C.3   1 <1>  -0.2000 
 28 H       -2.8990    -0.4090     2.2510 H     1 <1>   0.0800 
 29 H       -3.1290     1.2520     1.8750 H     1 <1>   0.0800 
 30 H       -1.8900    -1.4120    -1.2060 H     1 <1>   0.0800 
 31 H       -2.0940    -2.0420     0.3980 H     1 <1>   0.0800 
 32 H        0.4300     2.7930    -0.5240 H     1 <1>   0.1500 
 33 H       -5.2470    -0.0140     2.0900 H     1 <1>   0.0800 
 34 H       -4.0130    -2.6510    -0.9810 H     1 <1>   0.0800 
 35 H       -4.2430    -0.9940    -1.4560 H     1 <1>   0.0800 
 36 H       -4.6410    -2.1210     1.2440 H     1 <1>   0.4500 
 37 H       -4.8040     1.1670    -0.6650 H     1 <1>   0.0800 
 38 H       -5.3260     2.0060     0.7710 H     1 <1>   0.0800 
 39 H        0.5520     6.3770     0.5190 H     1 <1>   0.0800 
 40 H       -6.8860    -1.6520     1.1040 H     1 <1>   0.0800 
 41 H       -4.0600     7.0640     1.0870 H     1 <1>   0.1500 
 42 H        0.6400     5.5510    -2.3970 H     1 <1>   0.0800 
 43 H        1.3790     6.9850    -1.7240 H     1 <1>   0.0800 
 44 H       -0.3550     6.8210    -1.7250 H     1 <1>   0.0800 
 45 H        2.1940     4.2340    -0.8440 H     1 <1>   0.0800 
 46 H        2.0350     4.4230     0.8920 H     1 <1>   0.0800 
 47 H        2.7780     5.6760    -0.0630 H     1 <1>   0.0800 
 48 H       -6.2150    -2.9850    -1.5290 H     1 <1>   0.1000 
 49 H       -7.9450    -0.6020    -0.7950 H     1 <1>   0.0800 
 50 H       -6.4240    -0.4390    -1.6380 H     1 <1>   0.0800 
 51 H       -8.3960    -3.5280     0.5810 H     1 <1>   0.1000 
 52 H       -8.1720    -4.3910    -0.9680 H     1 <1>   0.1000 
 53 H       -5.8920    -5.1340    -0.2240 H     1 <1>   0.1000 
 54 H       -6.1340    -4.2820     1.3280 H     1 <1>   0.1000 
@<TRIPOS>BOND
  1   1   2  2   
  2   2   3  am  
  3   2   4  1   
  4   3   5  1   
  5   3   6  1   
  6   4   7  2   
  7   4   8  1   
  8   5   9  1   
  9   5  28  1   
 10   5  29  1   
 11   6  10  1   
 12   6  30  1   
 13   6  31  1   
 14   7  11  1   
 15   8  12  2   
 16   8  32  1   
 17   9  13  1   
 18   9  14  1   
 19   9  33  1   
 20  10  13  1   
 21  10  34  1   
 22  10  35  1   
 23  11  15  2   
 24  11  16  1   
 25  12  16  1   
 26  12  17  1   
 27  13  18  1   
 28  13  36  1   
 29  14  19  1   
 30  14  37  1   
 31  14  38  1   
 32  15  20  1   
 33  16  21  1   
 34  17  22  1   
 35  17  23  1   
 36  17  39  1   
 37  18  24  1   
 38  18  25  1   
 39  18  40  1   
 40  19  25  1   
 41  20  21  2   
 42  20  41  1   
 43  22  42  1   
 44  22  43  1   
 45  22  44  1   
 46  23  45  1   
 47  23  46  1   
 48  23  47  1   
 49  24  26  1   
 50  24  27  1   
 51  24  48  1   
 52  25  49  1   
 53  25  50  1   
 54  26  27  1   
 55  26  51  1   
 56  26  52  1   
 57  27  53  1   
 58  27  54  1   
@<TRIPOS>SUBSTRUCTURE
  1 ****   7 GROUP 4 **** **** 0

# MOE 2024.06 (io_trps.svl 2023.06)
