@<TRIPOS>MOLECULE
NONAME
54 56 1 0 0 
SMALL
USER_CHARGES


@<TRIPOS>ATOM
  1 O        0.0490    -0.3800    -0.6330 O.3   1 <1>  -0.6800 
  2 C        1.2030    -0.8100    -1.2750 C.3   1 <1>   0.2000 
  3 C        1.7690    -1.9830    -0.4800 C.3   1 <1>  -0.0800 
  4 C        2.2690     0.2900    -1.1270 C.3   1 <1>   0.3430 
  5 C        2.4540    -1.2560     0.6790 C.3   1 <1>   0.3430 
  6 C        2.7430    -2.8140    -1.3510 C.3   1 <1>  -0.0160 
  7 N        3.1100    -0.0870     0.0490 N.4   1 <1>  -0.9590 
  8 C        3.7260    -3.6260    -0.5270 C.ar  1 <1>   0.1670 
  9 C        3.3930     1.0200     0.9890 C.3   1 <1>   0.4810 
 10 N        4.8030    -2.9750    -0.1120 N.ar  1 <1>  -0.6200 
 11 C        3.4660    -4.9610    -0.2560 C.ar  1 <1>  -0.1500 
 12 C        4.4440     1.9230     0.3590 C.2   1 <1>  -0.2760 
 13 C        5.6670    -3.6960     0.5910 C.ar  1 <1>   0.1600 
 14 C        4.3690    -5.6910     0.4860 C.ar  1 <1>  -0.1500 
 15 C        5.6850     1.4960     0.0470 C.2   1 <1>  -0.2760 
 16 C        3.9880     3.3880     0.1810 C.3   1 <1>   0.1380 
 17 C        5.4990    -5.0310     0.9150 C.ar  1 <1>  -0.1500 
 18 C        6.7550     2.4010    -0.5610 C.3   1 <1>  -0.0220 
 19 C        6.2380     0.0880     0.2640 C.3   1 <1>  -0.1020 
 20 C        4.9860     4.1730    -0.6990 C.3   1 <1>  -0.1600 
 21 C        2.6130     3.5290    -0.4940 C.3   1 <1>  -0.2400 
 22 C        3.9060     4.0340     1.5730 C.3   1 <1>  -0.2400 
 23 C        6.4460     3.8830    -0.3520 C.3   1 <1>  -0.1600 
 24 H       -0.7140    -0.9600    -0.8410 H     1 <1>   0.4000 
 25 H        0.9680    -1.0310    -2.3030 H     1 <1>   0.0800 
 26 H        0.9970    -2.6320    -0.1060 H     1 <1>   0.0800 
 27 H        1.7770     1.2340    -0.9770 H     1 <1>   0.0800 
 28 H        2.8850     0.3420    -2.0090 H     1 <1>   0.0800 
 29 H        3.1590    -1.8810     1.2030 H     1 <1>   0.0800 
 30 H        1.6990    -0.9170     1.3700 H     1 <1>   0.0800 
 31 H        3.3170    -2.1760    -2.0000 H     1 <1>   0.0800 
 32 H        2.1770    -3.4720    -1.9860 H     1 <1>   0.0800 
 33 H        4.0330    -0.3940    -0.2950 H     1 <1>   0.4500 
 34 H        2.4910     1.5600     1.2200 H     1 <1>   0.0800 
 35 H        3.7930     0.6220     1.9070 H     1 <1>   0.0800 
 36 H        2.5720    -5.4340    -0.6210 H     1 <1>   0.1500 
 37 H        6.5610    -3.2000     0.9300 H     1 <1>   0.1500 
 38 H        4.2020    -6.7310     0.7160 H     1 <1>   0.1500 
 39 H        6.2450    -5.5460     1.4920 H     1 <1>   0.1500 
 40 H        7.7150     2.2010    -0.1170 H     1 <1>   0.0800 
 41 H        6.8310     2.1910    -1.6140 H     1 <1>   0.0800 
 42 H        7.1840     0.1390     0.7740 H     1 <1>   0.0800 
 43 H        6.3930    -0.4020    -0.6820 H     1 <1>   0.0800 
 44 H        5.5970    -0.5200     0.8720 H     1 <1>   0.0800 
 45 H        4.8380     3.9070    -1.7320 H     1 <1>   0.0800 
 46 H        4.8030     5.2300    -0.6150 H     1 <1>   0.0800 
 47 H        2.3740     4.5710    -0.6210 H     1 <1>   0.0800 
 48 H        1.8250     3.0940     0.0920 H     1 <1>   0.0800 
 49 H        2.6250     3.0800    -1.4700 H     1 <1>   0.0800 
 50 H        3.6890     5.0840     1.4920 H     1 <1>   0.0800 
 51 H        4.8390     3.9230     2.0960 H     1 <1>   0.0800 
 52 H        3.1340     3.5810     2.1680 H     1 <1>   0.0800 
 53 H        7.0950     4.4740    -0.9740 H     1 <1>   0.0800 
 54 H        6.6420     4.1490     0.6720 H     1 <1>   0.0800 
@<TRIPOS>BOND
  1   1   2  1   
  2   1  24  1   
  3   2   3  1   
  4   2   4  1   
  5   2  25  1   
  6   3   5  1   
  7   3   6  1   
  8   3  26  1   
  9   4   7  1   
 10   4  27  1   
 11   4  28  1   
 12   5   7  1   
 13   5  29  1   
 14   5  30  1   
 15   6   8  1   
 16   6  31  1   
 17   6  32  1   
 18   7   9  1   
 19   7  33  1   
 20   8  10  ar  
 21   8  11  ar  
 22   9  12  1   
 23   9  34  1   
 24   9  35  1   
 25  10  13  ar  
 26  11  14  ar  
 27  11  36  1   
 28  12  15  2   
 29  12  16  1   
 30  13  17  ar  
 31  13  37  1   
 32  14  17  ar  
 33  14  38  1   
 34  15  18  1   
 35  15  19  1   
 36  16  20  1   
 37  16  21  1   
 38  16  22  1   
 39  17  39  1   
 40  18  23  1   
 41  18  40  1   
 42  18  41  1   
 43  19  42  1   
 44  19  43  1   
 45  19  44  1   
 46  20  23  1   
 47  20  45  1   
 48  20  46  1   
 49  21  47  1   
 50  21  48  1   
 51  21  49  1   
 52  22  50  1   
 53  22  51  1   
 54  22  52  1   
 55  23  53  1   
 56  23  54  1   
@<TRIPOS>SUBSTRUCTURE
  1 ****   7 GROUP 4 **** **** 0

# MOE 2024.06 (io_trps.svl 2023.06)
