@<TRIPOS>MOLECULE
NONAME
46 48 1 0 0 
SMALL
USER_CHARGES


@<TRIPOS>ATOM
  1 O       -1.2020    -0.3170    -0.6230 O.3   1 <1>  -0.2800 
  2 C       -1.1140     0.9750    -0.8280 C.2   1 <1>   0.4250 
  3 C       -1.4880    -0.7250    -1.8260 C.2   1 <1>   0.2980 
  4 N       -1.3170     1.3130    -2.0560 N.2   1 <1>  -0.3380 
  5 C       -0.8130     1.8620     0.2730 C.ar  1 <1>   0.0530 
  6 N       -1.5610     0.1980    -2.7040 N.2   1 <1>  -0.3380 
  7 C       -1.7000    -2.2140    -2.0890 C.3   1 <1>   0.2900 
  8 C       -0.6640     1.3850     1.5770 C.ar  1 <1>   0.1600 
  9 C       -0.6590     3.2320     0.0880 C.ar  1 <1>  -0.1500 
 10 N       -2.8720    -2.7890    -1.3780 N.3   1 <1>  -0.8100 
 11 N       -0.3870     2.1140     2.6460 N.ar  1 <1>  -0.6200 
 12 C       -0.3710     4.0100     1.1870 C.ar  1 <1>  -0.1500 
 13 C       -2.9220    -4.2460    -1.5640 C.3   1 <1>   0.1100 
 14 C       -4.1210    -2.1320    -1.8110 C.3   1 <1>   0.0300 
 15 C       -0.2470     3.4110     2.4280 C.ar  1 <1>   0.1600 
 16 C       -3.8790    -4.8910    -0.5580 C.3   1 <1>  -0.1600 
 17 C       -3.7250    -6.4170    -0.5610 C.3   1 <1>   0.0960 
 18 N       -4.7240    -7.0460     0.3240 N.pl3 1 <1>   0.3140 
 19 N       -5.8990    -7.4810    -0.1650 N.2   1 <1>  -0.7070 
 20 C       -4.6320    -7.2710     1.6560 C.2   1 <1>  -0.3320 
 21 C       -6.5270    -7.9680     0.8570 C.2   1 <1>   0.1080 
 22 C       -5.7850    -7.8660     2.0270 C.2   1 <1>  -0.1500 
 23 C       -3.4430    -6.9070     2.5290 C.3   1 <1>  -0.0600 
 24 C       -7.9080    -8.5680     0.7450 C.3   1 <1>  -0.0590 
 25 H       -0.8100    -2.7280    -1.7740 H     1 <1>   0.0800 
 26 H       -1.8150    -2.3650    -3.1480 H     1 <1>   0.0800 
 27 H       -0.7830     0.3280     1.7460 H     1 <1>   0.1500 
 28 H       -0.7610     3.6710    -0.8900 H     1 <1>   0.1500 
 29 H       -0.2440     5.0730     1.0870 H     1 <1>   0.1500 
 30 H       -1.9370    -4.6510    -1.3990 H     1 <1>   0.0800 
 31 H       -3.2210    -4.4850    -2.5720 H     1 <1>   0.0800 
 32 H       -4.0610    -1.0690    -1.6530 H     1 <1>   0.0800 
 33 H       -4.9560    -2.4940    -1.2370 H     1 <1>   0.0800 
 34 H       -4.3060    -2.3180    -2.8550 H     1 <1>   0.0800 
 35 H       -0.0220     4.0270     3.2830 H     1 <1>   0.1500 
 36 H       -4.8950    -4.6530    -0.8170 H     1 <1>   0.0800 
 37 H       -3.6660    -4.5130     0.4260 H     1 <1>   0.0800 
 38 H       -2.7440    -6.7010    -0.2310 H     1 <1>   0.0800 
 39 H       -3.8800    -6.8010    -1.5530 H     1 <1>   0.0800 
 40 H       -6.0910    -8.1980     3.0020 H     1 <1>   0.1500 
 41 H       -3.2690    -5.8470     2.5010 H     1 <1>   0.0800 
 42 H       -2.5610    -7.4200     2.1890 H     1 <1>   0.0800 
 43 H       -3.6320    -7.1950     3.5480 H     1 <1>   0.0800 
 44 H       -7.8850    -9.3890     0.0530 H     1 <1>   0.0800 
 45 H       -8.5920    -7.8240     0.3820 H     1 <1>   0.0800 
 46 H       -8.2430    -8.9210     1.7030 H     1 <1>   0.0800 
@<TRIPOS>BOND
  1   1   2  1   
  2   1   3  1   
  3   2   4  2   
  4   2   5  1   
  5   3   6  2   
  6   3   7  1   
  7   4   6  1   
  8   5   8  ar  
  9   5   9  ar  
 10   7  10  1   
 11   7  25  1   
 12   7  26  1   
 13   8  11  ar  
 14   8  27  1   
 15   9  12  ar  
 16   9  28  1   
 17  10  13  1   
 18  10  14  1   
 19  11  15  ar  
 20  12  15  ar  
 21  12  29  1   
 22  13  16  1   
 23  13  30  1   
 24  13  31  1   
 25  14  32  1   
 26  14  33  1   
 27  14  34  1   
 28  15  35  1   
 29  16  17  1   
 30  16  36  1   
 31  16  37  1   
 32  17  18  1   
 33  17  38  1   
 34  17  39  1   
 35  18  19  1   
 36  18  20  1   
 37  19  21  2   
 38  20  22  2   
 39  20  23  1   
 40  21  22  1   
 41  21  24  1   
 42  22  40  1   
 43  23  41  1   
 44  23  42  1   
 45  23  43  1   
 46  24  44  1   
 47  24  45  1   
 48  24  46  1   
@<TRIPOS>SUBSTRUCTURE
  1 ****  10 GROUP 4 **** **** 0

# MOE 2024.06 (io_trps.svl 2023.06)
