@<TRIPOS>MOLECULE
NONAME
62 66 1 0 0 
SMALL
USER_CHARGES


@<TRIPOS>ATOM
  1 F       -2.2900     1.1400    -2.1680 F     1 <1>  -0.1900 
  2 C       -2.8810     1.4670    -1.0420 C.ar  1 <1>   0.1900 
  3 C       -2.1560     2.1660    -0.0620 C.ar  1 <1>   0.1000 
  4 C       -4.1940     1.1000    -0.8810 C.ar  1 <1>  -0.1500 
  5 N       -0.8230     2.5560    -0.1840 N.pl3 1 <1>  -0.8380 
  6 C       -2.8350     2.4790     1.1020 C.ar  1 <1>  -0.1500 
  7 C       -4.8750     1.4220     0.3000 C.ar  1 <1>   0.0860 
  8 C        0.2030     1.4690    -0.1910 C.3   1 <1>   0.2090 
  9 C       -0.5080     3.5960    -1.2090 C.3   1 <1>   0.2090 
 10 C       -4.1660     2.1210     1.2940 C.ar  1 <1>   0.1000 
 11 C       -6.2530     1.0690     0.5290 C.2   1 <1>   0.4690 
 12 C        1.6220     2.0580    -0.0930 C.3   1 <1>   0.1200 
 13 C        0.9450     4.0840    -1.0620 C.3   1 <1>   0.1200 
 14 N       -4.8200     2.4480     2.4760 N.pl3 1 <1>  -0.6000 
 15 O       -6.8670     0.4490    -0.3330 O.2   1 <1>  -0.5700 
 16 C       -6.8710     1.4530     1.7600 C.2   1 <1>   0.0290 
 17 O        1.8440     3.0090    -1.0990 O.3   1 <1>  -0.5600 
 18 C       -6.1230     2.1150     2.6950 C.2   1 <1>  -0.0500 
 19 C       -8.2450     1.1260     2.0170 C.2   1 <1>   0.6160 
 20 O       -8.5100     0.4710     3.0120 O.2   1 <1>  -0.5700 
 21 N       -9.2890     1.5880     1.2400 N.am  1 <1>  -0.6600 
 22 C      -10.6650     1.0150     1.4080 C.3   1 <1>   0.1400 
 23 C       -9.1050     2.6040     0.1630 C.3   1 <1>   0.1400 
 24 C      -11.4630     0.9920     0.0830 C.3   1 <1>   0.0000 
 25 C      -10.4090     3.3630    -0.0860 C.3   1 <1>  -0.1600 
 26 C      -12.8430     0.3490     0.3390 C.3   1 <1>   0.2000 
 27 C      -11.5700     2.4340    -0.4870 C.3   1 <1>  -0.1600 
 28 C      -10.8220    -0.0030    -0.9090 C.3   1 <1>  -0.1600 
 29 O      -13.7060     0.6560    -0.7210 O.3   1 <1>  -0.5600 
 30 C      -12.5920    -1.1640     0.3340 C.3   1 <1>  -0.1600 
 31 C      -11.3310    -1.3920    -0.5100 C.3   1 <1>  -0.1600 
 32 C      -15.0620     0.6040    -0.4110 C.3   1 <1>   0.0400 
 33 H       -4.7030     0.5640    -1.6630 H     1 <1>   0.1500 
 34 H       -2.3060     3.0120     1.8690 H     1 <1>   0.1500 
 35 H        0.0290     0.8090     0.6400 H     1 <1>   0.0800 
 36 H        0.1210     0.8970    -1.0990 H     1 <1>   0.0800 
 37 H       -0.6430     3.1900    -2.1960 H     1 <1>   0.0800 
 38 H       -1.1800     4.4280    -1.0920 H     1 <1>   0.0800 
 39 H        2.3550     1.2800    -0.2090 H     1 <1>   0.0800 
 40 H        1.7650     2.5300     0.8640 H     1 <1>   0.0800 
 41 H        1.0710     4.6050    -0.1290 H     1 <1>   0.0800 
 42 H        1.1970     4.7490    -1.8680 H     1 <1>   0.0800 
 43 H       -4.2790     2.9360     3.2020 H     1 <1>   0.4000 
 44 H       -6.5610     2.3890     3.6430 H     1 <1>   0.1500 
 45 H      -10.5860     0.0180     1.8030 H     1 <1>   0.0800 
 46 H      -11.1910     1.6120     2.1320 H     1 <1>   0.0800 
 47 H       -8.3350     3.3010     0.4470 H     1 <1>   0.0800 
 48 H       -8.7990     2.1120    -0.7440 H     1 <1>   0.0800 
 49 H      -10.6670     3.8900     0.8160 H     1 <1>   0.0800 
 50 H      -10.2570     4.0990    -0.8550 H     1 <1>   0.0800 
 51 H      -13.2770     0.6980     1.2610 H     1 <1>   0.0800 
 52 H      -11.6410     2.3890    -1.5600 H     1 <1>   0.0800 
 53 H      -12.4820     2.8890    -0.1400 H     1 <1>   0.0800 
 54 H      -11.1730     0.2070    -1.9050 H     1 <1>   0.0800 
 55 H       -9.7470     0.0300    -0.9140 H     1 <1>   0.0800 
 56 H      -12.4020    -1.4930     1.3400 H     1 <1>   0.0800 
 57 H      -13.4310    -1.7120    -0.0540 H     1 <1>   0.0800 
 58 H      -10.5850    -1.9050     0.0730 H     1 <1>   0.0800 
 59 H      -11.5520    -1.9760    -1.3870 H     1 <1>   0.0800 
 60 H      -15.6160     0.8270    -1.3060 H     1 <1>   0.0800 
 61 H      -15.2810     1.3410     0.3420 H     1 <1>   0.0800 
 62 H      -15.3160    -0.3810    -0.0640 H     1 <1>   0.0800 
@<TRIPOS>BOND
  1   1   2  1   
  2   2   3  ar  
  3   2   4  ar  
  4   3   5  1   
  5   3   6  ar  
  6   4   7  ar  
  7   4  33  1   
  8   5   8  1   
  9   5   9  1   
 10   6  10  ar  
 11   6  34  1   
 12   7  10  ar  
 13   7  11  1   
 14   8  12  1   
 15   8  35  1   
 16   8  36  1   
 17   9  13  1   
 18   9  37  1   
 19   9  38  1   
 20  10  14  1   
 21  11  15  2   
 22  11  16  1   
 23  12  17  1   
 24  12  39  1   
 25  12  40  1   
 26  13  17  1   
 27  13  41  1   
 28  13  42  1   
 29  14  18  1   
 30  14  43  1   
 31  16  18  2   
 32  16  19  1   
 33  18  44  1   
 34  19  20  2   
 35  19  21  am  
 36  21  22  1   
 37  21  23  1   
 38  22  24  1   
 39  22  45  1   
 40  22  46  1   
 41  23  25  1   
 42  23  47  1   
 43  23  48  1   
 44  24  26  1   
 45  24  27  1   
 46  24  28  1   
 47  25  27  1   
 48  25  49  1   
 49  25  50  1   
 50  26  29  1   
 51  26  30  1   
 52  26  51  1   
 53  27  52  1   
 54  27  53  1   
 55  28  31  1   
 56  28  54  1   
 57  28  55  1   
 58  29  32  1   
 59  30  31  1   
 60  30  56  1   
 61  30  57  1   
 62  31  58  1   
 63  31  59  1   
 64  32  60  1   
 65  32  61  1   
 66  32  62  1   
@<TRIPOS>SUBSTRUCTURE
  1 ****  11 GROUP 4 **** **** 0

# MOE 2024.06 (io_trps.svl 2023.06)
