@<TRIPOS>MOLECULE
NONAME
53 55 1 0 0 
SMALL
USER_CHARGES


@<TRIPOS>ATOM
  1 O        2.5620    -0.7370    -2.3140 O.2   1 <1>  -0.5700 
  2 C        2.7560    -1.0290    -1.1490 C.2   1 <1>   0.5440 
  3 N        3.1390    -0.0320    -0.2730 N.am  1 <1>  -0.6600 
  4 C        2.5980    -2.4100    -0.7270 C.ar  1 <1>   0.0860 
  5 C        3.9360    -0.2900     0.9650 C.3   1 <1>   0.1400 
  6 C        3.0220     1.4060    -0.6330 C.3   1 <1>   0.1400 
  7 C        3.1590    -3.4510    -1.4640 C.ar  1 <1>  -0.1500 
  8 C        1.8780    -2.7480     0.4200 C.ar  1 <1>  -0.1500 
  9 C        5.3430     0.3070     0.8260 C.3   1 <1>   0.2000 
 10 C        4.4200     1.9780    -0.8650 C.3   1 <1>  -0.1600 
 11 C        3.0250    -4.7700    -1.0690 C.ar  1 <1>  -0.1500 
 12 C        1.7400    -4.0640     0.8220 C.ar  1 <1>  -0.1500 
 13 O        5.9740     0.2050     2.0590 O.3   1 <1>  -0.6800 
 14 C        5.3080     1.7850     0.3700 C.3   1 <1>   0.2200 
 15 C        2.3160    -5.0780     0.0780 C.ar  1 <1>  -0.1500 
 16 N        6.6670     2.2860     0.0370 N.am  1 <1>  -0.7300 
 17 C        7.6190     2.6260     0.9360 C.2   1 <1>   0.5690 
 18 O        7.4450     2.5020     2.1220 O.2   1 <1>  -0.5700 
 19 C        8.9520     3.1420     0.4350 C.3   1 <1>  -0.0990 
 20 C        9.8330     2.0040    -0.1050 C.3   1 <1>  -0.1600 
 21 C       11.2230     2.5120    -0.5090 C.3   1 <1>   0.0960 
 22 N       12.0250     1.4110    -1.0790 N.pl3 1 <1>   0.0480 
 23 C       12.8300     0.5210    -0.4480 C.2   1 <1>   0.0060 
 24 C       12.0970     1.0740    -2.3800 C.2   1 <1>  -0.3020 
 25 N       13.3890    -0.3290    -1.2440 N.2   1 <1>  -0.5650 
 26 C       13.0630     0.5110     1.0500 C.3   1 <1>  -0.0600 
 27 C       12.9300     0.0150    -2.4600 C.2   1 <1>   0.0770 
 28 H        3.4330     0.1640     1.8020 H     1 <1>   0.0800 
 29 H        4.0300    -1.3450     1.1500 H     1 <1>   0.0800 
 30 H        2.4240     1.5260    -1.5220 H     1 <1>   0.0800 
 31 H        2.5300     1.9310     0.1680 H     1 <1>   0.0800 
 32 H        3.7050    -3.2140    -2.3610 H     1 <1>   0.1500 
 33 H        1.4200    -1.9650     0.9980 H     1 <1>   0.1500 
 34 H        5.9040    -0.2790     0.1190 H     1 <1>   0.0800 
 35 H        4.3330     3.0270    -1.0860 H     1 <1>   0.0800 
 36 H        4.8490     1.4810    -1.7170 H     1 <1>   0.0800 
 37 H        3.4700    -5.5560    -1.6550 H     1 <1>   0.1500 
 38 H        1.1820    -4.3010     1.7120 H     1 <1>   0.1500 
 39 H        6.5970     0.9710     2.1740 H     1 <1>   0.4000 
 40 H        4.9030     2.3750     1.1750 H     1 <1>   0.0800 
 41 H        2.2090    -6.1040     0.3880 H     1 <1>   0.1500 
 42 H        6.8750     2.3330    -0.9610 H     1 <1>   0.3700 
 43 H        8.7770     3.8760    -0.3300 H     1 <1>   0.0800 
 44 H        9.4510     3.6300     1.2540 H     1 <1>   0.0800 
 45 H        9.3550     1.5540    -0.9580 H     1 <1>   0.0800 
 46 H        9.9390     1.2510     0.6580 H     1 <1>   0.0800 
 47 H       11.7390     2.9130     0.3450 H     1 <1>   0.0800 
 48 H       11.1360     3.2880    -1.2490 H     1 <1>   0.0800 
 49 H       11.5680     1.5880    -3.1600 H     1 <1>   0.1500 
 50 H       13.7310    -0.2930     1.3060 H     1 <1>   0.0800 
 51 H       12.1350     0.3630     1.5700 H     1 <1>   0.0800 
 52 H       13.5080     1.4370     1.3620 H     1 <1>   0.0800 
 53 H       13.2300    -0.5260    -3.3420 H     1 <1>   0.1500 
@<TRIPOS>BOND
  1   1   2  2   
  2   2   3  am  
  3   2   4  1   
  4   3   5  1   
  5   3   6  1   
  6   4   7  ar  
  7   4   8  ar  
  8   5   9  1   
  9   5  28  1   
 10   5  29  1   
 11   6  10  1   
 12   6  30  1   
 13   6  31  1   
 14   7  11  ar  
 15   7  32  1   
 16   8  12  ar  
 17   8  33  1   
 18   9  13  1   
 19   9  14  1   
 20   9  34  1   
 21  10  14  1   
 22  10  35  1   
 23  10  36  1   
 24  11  15  ar  
 25  11  37  1   
 26  12  15  ar  
 27  12  38  1   
 28  13  39  1   
 29  14  16  1   
 30  14  40  1   
 31  15  41  1   
 32  16  17  am  
 33  16  42  1   
 34  17  18  2   
 35  17  19  1   
 36  19  20  1   
 37  19  43  1   
 38  19  44  1   
 39  20  21  1   
 40  20  45  1   
 41  20  46  1   
 42  21  22  1   
 43  21  47  1   
 44  21  48  1   
 45  22  23  1   
 46  22  24  1   
 47  23  25  2   
 48  23  26  1   
 49  24  27  2   
 50  24  49  1   
 51  25  27  1   
 52  26  50  1   
 53  26  51  1   
 54  26  52  1   
 55  27  53  1   
@<TRIPOS>SUBSTRUCTURE
  1 ****   9 GROUP 4 **** **** 0

# MOE 2024.06 (io_trps.svl 2023.06)
