@<TRIPOS>MOLECULE
NONAME
38 39 1 0 0 
SMALL
USER_CHARGES


@<TRIPOS>ATOM
  1 O        3.1910    -1.0390     2.5530 O.2   1 <1>  -0.5700 
  2 C        2.5310    -1.1710     1.5400 C.2   1 <1>   0.5440 
  3 N        2.3700    -0.0900     0.7080 N.am  1 <1>  -0.4940 
  4 C        1.9240    -2.4570     1.2460 C.ar  1 <1>   0.0860 
  5 C        2.7680     1.2440     0.8460 C.2   1 <1>   0.2040 
  6 C        1.4380    -2.8410    -0.0200 C.ar  1 <1>   0.3930 
  7 C        1.7990    -3.3990     2.2660 C.ar  1 <1>  -0.1500 
  8 O        3.2910     1.7180     1.9530 O.3   1 <1>  -0.0190 
  9 C        2.7010     2.2590    -0.0390 C.2   1 <1>  -0.1810 
 10 O        1.5450    -1.9710    -1.0520 O.3   1 <1>  -0.3620 
 11 N        0.8700    -4.0110    -0.3030 N.ar  1 <1>  -0.6200 
 12 C        1.2180    -4.6100     1.9830 C.ar  1 <1>  -0.1500 
 13 N        3.5740     2.9920     1.8510 N.2   1 <1>  -0.4100 
 14 C        3.2310     3.3400     0.6630 C.2   1 <1>   0.1080 
 15 C        2.1800     2.2620    -1.4670 C.3   1 <1>  -0.0590 
 16 C        1.1320    -2.3020    -2.3670 C.3   1 <1>   0.0400 
 17 C        0.7720    -4.8710     0.7000 C.ar  1 <1>   0.3930 
 18 C        3.3990     4.7540     0.1320 C.3   1 <1>   0.0210 
 19 O        0.2080    -6.0720     0.4800 O.3   1 <1>  -0.3620 
 20 C        4.7190     4.9070    -0.6300 C.3   1 <1>  -0.2400 
 21 C       -0.2760    -6.4380    -0.7980 C.3   1 <1>   0.0400 
 22 H        1.9190    -0.3160    -0.1790 H     1 <1>   0.3700 
 23 H        2.1520    -3.1790     3.2600 H     1 <1>   0.1500 
 24 H        1.1030    -5.3630     2.7420 H     1 <1>   0.1500 
 25 H        1.8460     1.2810    -1.7510 H     1 <1>   0.0800 
 26 H        2.9600     2.5670    -2.1400 H     1 <1>   0.0800 
 27 H        1.3550     2.9460    -1.5540 H     1 <1>   0.0800 
 28 H        1.3340    -1.4640    -3.0100 H     1 <1>   0.0800 
 29 H        0.0780    -2.5170    -2.3590 H     1 <1>   0.0800 
 30 H        1.6860    -3.1630    -2.7000 H     1 <1>   0.0800 
 31 H        3.3850     5.4390     0.9620 H     1 <1>   0.0800 
 32 H        2.5730     4.9980    -0.5100 H     1 <1>   0.0800 
 33 H        5.5450     4.6790     0.0220 H     1 <1>   0.0800 
 34 H        4.8280     5.9160    -0.9850 H     1 <1>   0.0800 
 35 H        4.7500     4.2370    -1.4700 H     1 <1>   0.0800 
 36 H       -0.6780    -7.4320    -0.7350 H     1 <1>   0.0800 
 37 H        0.5400    -6.4110    -1.4990 H     1 <1>   0.0800 
 38 H       -1.0460    -5.7450    -1.0890 H     1 <1>   0.0800 
@<TRIPOS>BOND
  1   1   2  2   
  2   2   3  am  
  3   2   4  1   
  4   3   5  1   
  5   3  22  1   
  6   4   6  ar  
  7   4   7  ar  
  8   5   8  1   
  9   5   9  2   
 10   6  10  1   
 11   6  11  ar  
 12   7  12  ar  
 13   7  23  1   
 14   8  13  1   
 15   9  14  1   
 16   9  15  1   
 17  10  16  1   
 18  11  17  ar  
 19  12  17  ar  
 20  12  24  1   
 21  13  14  2   
 22  14  18  1   
 23  15  25  1   
 24  15  26  1   
 25  15  27  1   
 26  16  28  1   
 27  16  29  1   
 28  16  30  1   
 29  17  19  1   
 30  18  20  1   
 31  18  31  1   
 32  18  32  1   
 33  19  21  1   
 34  20  33  1   
 35  20  34  1   
 36  20  35  1   
 37  21  36  1   
 38  21  37  1   
 39  21  38  1   
@<TRIPOS>SUBSTRUCTURE
  1 ****   3 GROUP 4 **** **** 0

# MOE 2024.06 (io_trps.svl 2023.06)
