@<TRIPOS>MOLECULE
NONAME
57 60 1 0 0 
SMALL
USER_CHARGES


@<TRIPOS>ATOM
  1 O       -1.2950     0.9510     2.3210 O.2   1 <1>  -0.5700 
  2 C       -1.5070     1.3490     1.1970 C.2   1 <1>   0.5690 
  3 N       -2.0620     0.5270     0.2190 N.am  1 <1>  -0.4770 
  4 C       -1.1670     2.8310     0.9380 C.3   1 <1>   0.1710 
  5 C       -2.1700    -0.8820     0.3420 C.ar  1 <1>   0.1170 
  6 C       -2.7470     1.0780    -0.9810 C.3   1 <1>   0.1400 
  7 N        0.1330     3.1190     0.2600 N.3   1 <1>  -0.8100 
  8 C       -3.2650    -1.5660    -0.1990 C.ar  1 <1>  -0.1430 
  9 C       -1.1830    -1.6310     0.9780 C.ar  1 <1>  -0.1500 
 10 C       -4.2210     0.6830    -0.9130 C.3   1 <1>  -0.1600 
 11 C        0.3680     4.5760     0.1980 C.3   1 <1>   0.1100 
 12 C        0.2690     2.4890    -1.0620 C.3   1 <1>   0.1100 
 13 C       -3.3610    -2.9430    -0.0720 C.ar  1 <1>  -0.1500 
 14 C       -4.3680    -0.8410    -0.9630 C.3   1 <1>  -0.0170 
 15 C       -1.2840    -3.0040     1.0990 C.ar  1 <1>  -0.1500 
 16 C        1.7750     4.8910    -0.3410 C.3   1 <1>   0.2000 
 17 C        1.6700     2.7400    -1.6300 C.3   1 <1>  -0.1600 
 18 C       -2.3790    -3.6700     0.5780 C.ar  1 <1>  -0.1430 
 19 O        1.9140     6.2680    -0.5100 O.3   1 <1>  -0.5600 
 20 C        1.9900     4.2400    -1.7080 C.3   1 <1>  -0.1600 
 21 C       -2.4980    -5.1770     0.7120 C.3   1 <1>  -0.0970 
 22 C        2.3250     6.9600     0.6400 C.3   1 <1>   0.2640 
 23 C        2.2920     8.4740     0.4430 C.ar  1 <1>   0.1670 
 24 N        2.3590     9.1930     1.5570 N.ar  1 <1>  -0.6200 
 25 C        2.2040     9.0330    -0.8260 C.ar  1 <1>  -0.1500 
 26 C        2.3330    10.5070     1.4000 C.ar  1 <1>   0.1600 
 27 C        2.1780    10.4040    -0.9740 C.ar  1 <1>  -0.1500 
 28 C        2.2450    11.1530     0.1790 C.ar  1 <1>  -0.1500 
 29 H       -1.1310     3.2950     1.9080 H     1 <1>   0.0800 
 30 H       -1.9680     3.3120     0.4130 H     1 <1>   0.0800 
 31 H       -2.2950     0.6570    -1.8630 H     1 <1>   0.0800 
 32 H       -2.6670     2.1440    -1.0460 H     1 <1>   0.0800 
 33 H       -0.3220    -1.1350     1.3870 H     1 <1>   0.1500 
 34 H       -4.7610     1.1260    -1.7300 H     1 <1>   0.0800 
 35 H       -4.6390     1.0570     0.0060 H     1 <1>   0.0800 
 36 H        0.2720     4.9870     1.1870 H     1 <1>   0.0800 
 37 H       -0.3660     5.0330    -0.4430 H     1 <1>   0.0800 
 38 H       -0.4730     2.8840    -1.7350 H     1 <1>   0.0800 
 39 H        0.1290     1.4250    -0.9750 H     1 <1>   0.0800 
 40 H       -4.2090    -3.4570    -0.4880 H     1 <1>   0.1500 
 41 H       -5.3290    -1.1230    -0.5700 H     1 <1>   0.0800 
 42 H       -4.3230    -1.1620    -1.9900 H     1 <1>   0.0800 
 43 H       -0.5060    -3.5490     1.6030 H     1 <1>   0.1500 
 44 H        2.5220     4.5360     0.3490 H     1 <1>   0.0800 
 45 H        1.7410     2.3040    -2.6110 H     1 <1>   0.0800 
 46 H        2.3900     2.2470    -0.9990 H     1 <1>   0.0800 
 47 H        3.0100     4.3800    -2.0190 H     1 <1>   0.0800 
 48 H        1.3400     4.7040    -2.4290 H     1 <1>   0.0800 
 49 H       -3.5310    -5.4660     0.7900 H     1 <1>   0.0800 
 50 H       -1.9840    -5.5170     1.5920 H     1 <1>   0.0800 
 51 H       -2.0670    -5.6530    -0.1500 H     1 <1>   0.0800 
 52 H        3.3270     6.6550     0.8830 H     1 <1>   0.0800 
 53 H        1.6700     6.7050     1.4540 H     1 <1>   0.0800 
 54 H        2.1560     8.4030    -1.6960 H     1 <1>   0.1500 
 55 H        2.3840    11.1020     2.2950 H     1 <1>   0.1500 
 56 H        2.1090    10.8630    -1.9450 H     1 <1>   0.1500 
 57 H        2.2290    12.2270     0.1360 H     1 <1>   0.1500 
@<TRIPOS>BOND
  1   1   2  2   
  2   2   3  am  
  3   2   4  1   
  4   3   5  1   
  5   3   6  1   
  6   4   7  1   
  7   4  29  1   
  8   4  30  1   
  9   5   8  ar  
 10   5   9  ar  
 11   6  10  1   
 12   6  31  1   
 13   6  32  1   
 14   7  11  1   
 15   7  12  1   
 16   8  13  ar  
 17   8  14  1   
 18   9  15  ar  
 19   9  33  1   
 20  10  14  1   
 21  10  34  1   
 22  10  35  1   
 23  11  16  1   
 24  11  36  1   
 25  11  37  1   
 26  12  17  1   
 27  12  38  1   
 28  12  39  1   
 29  13  18  ar  
 30  13  40  1   
 31  14  41  1   
 32  14  42  1   
 33  15  18  ar  
 34  15  43  1   
 35  16  19  1   
 36  16  20  1   
 37  16  44  1   
 38  17  20  1   
 39  17  45  1   
 40  17  46  1   
 41  18  21  1   
 42  19  22  1   
 43  20  47  1   
 44  20  48  1   
 45  21  49  1   
 46  21  50  1   
 47  21  51  1   
 48  22  23  1   
 49  22  52  1   
 50  22  53  1   
 51  23  24  ar  
 52  23  25  ar  
 53  24  26  ar  
 54  25  27  ar  
 55  25  54  1   
 56  26  28  ar  
 57  26  55  1   
 58  27  28  ar  
 59  27  56  1   
 60  28  57  1   
@<TRIPOS>SUBSTRUCTURE
  1 ****   7 GROUP 4 **** **** 0

# MOE 2024.06 (io_trps.svl 2023.06)
