@<TRIPOS>MOLECULE
NONAME
38 40 1 0 0 
SMALL
USER_CHARGES


@<TRIPOS>ATOM
  1 F       -1.7720     4.4550     0.5210 F     1 <1>  -0.1900 
  2 C       -1.5320     3.5020    -0.3440 C.ar  1 <1>   0.1900 
  3 C       -0.5410     2.5670    -0.0760 C.ar  1 <1>  -0.0320 
  4 C       -2.2810     3.4830    -1.5060 C.ar  1 <1>  -0.1500 
  5 C       -0.2990     1.5920    -1.0320 C.ar  1 <1>  -0.1500 
  6 C        0.2750     2.6010     1.2120 C.3   1 <1>   0.0320 
  7 C       -2.0280     2.4960    -2.4440 C.ar  1 <1>  -0.1500 
  8 C       -1.0380     1.5560    -2.2050 C.ar  1 <1>  -0.1500 
  9 C        1.4370     3.5920     1.1380 C.2   1 <1>   0.6300 
 10 C       -0.4490     2.4380     2.5210 C.3   1 <1>  -0.2000 
 11 C        0.4140     1.3320     2.0100 C.3   1 <1>  -0.2000 
 12 O        2.5690     3.1760     1.0880 O.2   1 <1>  -0.5700 
 13 N        1.1090     4.9150     1.1300 N.am  1 <1>  -0.4940 
 14 C        1.9230     6.0480     1.0540 C.2   1 <1>   0.2040 
 15 O        3.2330     5.9810     1.0690 O.3   1 <1>  -0.0190 
 16 C        1.5800     7.3470     0.9520 C.2   1 <1>  -0.1810 
 17 N        3.7810     7.1680     0.9790 N.2   1 <1>  -0.4100 
 18 C        2.8080     8.0040     0.9050 C.2   1 <1>   0.1080 
 19 C        0.1940     7.9660     0.8930 C.3   1 <1>   0.0210 
 20 C        3.0090     9.4990     0.7860 C.3   1 <1>  -0.0590 
 21 C       -0.2660     8.1100    -0.5590 C.3   1 <1>  -0.2400 
 22 H       -3.0420     4.2240    -1.6730 H     1 <1>   0.1500 
 23 H        0.4720     0.8580    -0.8660 H     1 <1>   0.1500 
 24 H       -2.5980     2.4590    -3.3570 H     1 <1>   0.1500 
 25 H       -0.8390     0.7910    -2.9380 H     1 <1>   0.1500 
 26 H       -1.5160     2.3000     2.5140 H     1 <1>   0.1000 
 27 H       -0.1100     2.9900     3.3810 H     1 <1>   0.1000 
 28 H        1.3580     1.1370     2.4910 H     1 <1>   0.1000 
 29 H       -0.0600     0.4330     1.6560 H     1 <1>   0.1000 
 30 H        0.1070     5.0990     1.1220 H     1 <1>   0.3700 
 31 H        0.2040     8.9290     1.3730 H     1 <1>   0.0800 
 32 H       -0.5020     7.3420     1.4270 H     1 <1>   0.0800 
 33 H        2.5130     9.8670    -0.0920 H     1 <1>   0.0800 
 34 H        4.0580     9.7230     0.7110 H     1 <1>   0.0800 
 35 H        2.6110     9.9910     1.6540 H     1 <1>   0.0800 
 36 H        0.4110     8.7420    -1.1050 H     1 <1>   0.0800 
 37 H       -1.2490     8.5440    -0.5950 H     1 <1>   0.0800 
 38 H       -0.2960     7.1460    -1.0360 H     1 <1>   0.0800 
@<TRIPOS>BOND
  1   1   2  1   
  2   2   3  ar  
  3   2   4  ar  
  4   3   5  ar  
  5   3   6  1   
  6   4   7  ar  
  7   4  22  1   
  8   5   8  ar  
  9   5  23  1   
 10   6   9  1   
 11   6  10  1   
 12   6  11  1   
 13   7   8  ar  
 14   7  24  1   
 15   8  25  1   
 16   9  12  2   
 17   9  13  am  
 18  10  11  1   
 19  10  26  1   
 20  10  27  1   
 21  11  28  1   
 22  11  29  1   
 23  13  14  1   
 24  13  30  1   
 25  14  15  1   
 26  14  16  2   
 27  15  17  1   
 28  16  18  1   
 29  16  19  1   
 30  17  18  2   
 31  18  20  1   
 32  19  21  1   
 33  19  31  1   
 34  19  32  1   
 35  20  33  1   
 36  20  34  1   
 37  20  35  1   
 38  21  36  1   
 39  21  37  1   
 40  21  38  1   
@<TRIPOS>SUBSTRUCTURE
  1 ****  13 GROUP 4 **** **** 0

# MOE 2024.06 (io_trps.svl 2023.06)
