@<TRIPOS>MOLECULE
NONAME
55 58 1 0 0 
SMALL
USER_CHARGES


@<TRIPOS>ATOM
  1 S        0.1780     0.8080     0.3220 S.3   1 <1>  -0.0800 
  2 C        0.2690     2.1060    -0.8320 C.2   1 <1>   0.1240 
  3 C        1.7110     0.1180    -0.2520 C.2   1 <1>  -0.0450 
  4 N       -0.6470     3.0920    -0.9670 N.pl3 1 <1>  -0.5340 
  5 C        1.3800     2.0300    -1.6040 C.2   1 <1>  -0.0860 
  6 C        2.1960     0.8980    -1.2610 C.2   1 <1>  -0.1810 
  7 C        2.2100    -1.0640     0.4040 C.2   1 <1>   0.7150 
  8 C       -0.4370     4.0440    -1.9210 C.2   1 <1>   0.4400 
  9 C        1.5250     3.0670    -2.5870 C.2   1 <1>   0.8670 
 10 C        3.5020     0.6330    -1.9980 C.3   1 <1>  -0.0590 
 11 O        3.3830    -1.1350     0.7250 O.2   1 <1>  -0.5700 
 12 N        1.4070    -2.1470     0.6590 N.am  1 <1>  -0.6600 
 13 N        0.5780     4.0620    -2.7050 N.2   1 <1>  -0.6610 
 14 O        2.4770     3.1030    -3.3500 O.2   1 <1>  -0.5700 
 15 C        1.7630    -3.3800     1.3550 C.3   1 <1>   0.2200 
 16 C        0.1230    -2.5450     0.1090 C.3   1 <1>   0.2200 
 17 C        1.7210    -4.3890     0.1770 C.3   1 <1>   0.0610 
 18 C        0.5290    -3.4820     2.2740 C.3   1 <1>  -0.1600 
 19 C        0.5060    -3.8370    -0.6320 C.3   1 <1>  -0.1600 
 20 C       -0.6080    -2.9180     1.4010 C.3   1 <1>  -0.1600 
 21 C        1.5490    -5.8500     0.6290 C.2   1 <1>   0.5690 
 22 C        3.0000    -4.2940    -0.6980 C.3   1 <1>  -0.0220 
 23 O        1.8740    -6.1920     1.7420 O.2   1 <1>  -0.5700 
 24 N        1.0360    -6.7550    -0.2550 N.am  1 <1>  -0.7300 
 25 C        4.2820    -4.5840     0.0710 C.2   1 <1>  -0.2880 
 26 C        0.8400    -8.2020     0.0200 C.3   1 <1>   0.0600 
 27 C        5.0110    -5.7070     0.0870 C.2   1 <1>  -0.2760 
 28 C        6.2770    -5.8130     0.9200 C.3   1 <1>  -0.1020 
 29 C        4.7050    -6.9960    -0.6630 C.3   1 <1>  -0.1020 
 30 H       -1.4710     3.1290    -0.3620 H     1 <1>   0.4000 
 31 H       -1.1830     4.8170    -2.0020 H     1 <1>   0.0600 
 32 H        3.3170     0.5190    -3.0510 H     1 <1>   0.0800 
 33 H        3.9830    -0.2600    -1.6420 H     1 <1>   0.0800 
 34 H        4.1770     1.4590    -1.8560 H     1 <1>   0.0800 
 35 H        2.6990    -3.3380     1.8860 H     1 <1>   0.0800 
 36 H       -0.3670    -1.8050    -0.4990 H     1 <1>   0.0800 
 37 H        0.3240    -4.4800     2.6130 H     1 <1>   0.0800 
 38 H        0.6810    -2.8600     3.1380 H     1 <1>   0.0800 
 39 H       -0.3290    -4.5140    -0.6490 H     1 <1>   0.0800 
 40 H        0.7720    -3.6030    -1.6470 H     1 <1>   0.0800 
 41 H       -1.0300    -2.0370     1.8530 H     1 <1>   0.0800 
 42 H       -1.3900    -3.6370     1.2320 H     1 <1>   0.0800 
 43 H        2.9090    -4.9680    -1.5270 H     1 <1>   0.0800 
 44 H        3.0940    -3.3090    -1.1190 H     1 <1>   0.0800 
 45 H        0.8040    -6.4470    -1.2000 H     1 <1>   0.3700 
 46 H        4.5780    -3.7260     0.6540 H     1 <1>   0.1500 
 47 H        1.1290    -8.4350     1.0310 H     1 <1>   0.0800 
 48 H        1.4430    -8.7850    -0.6540 H     1 <1>   0.0800 
 49 H       -0.1960    -8.4610    -0.1130 H     1 <1>   0.0800 
 50 H        7.1200    -6.0300     0.2900 H     1 <1>   0.0800 
 51 H        6.1730    -6.5970     1.6490 H     1 <1>   0.0800 
 52 H        6.4700    -4.8920     1.4400 H     1 <1>   0.0800 
 53 H        5.5120    -7.2320    -1.3330 H     1 <1>   0.0800 
 54 H        3.8010    -6.9290    -1.2340 H     1 <1>   0.0800 
 55 H        4.5910    -7.8030     0.0390 H     1 <1>   0.0800 
@<TRIPOS>BOND
  1   1   2  1   
  2   1   3  1   
  3   2   4  1   
  4   2   5  2   
  5   3   6  2   
  6   3   7  1   
  7   4   8  1   
  8   4  30  1   
  9   5   6  1   
 10   5   9  1   
 11   6  10  1   
 12   7  11  2   
 13   7  12  am  
 14   8  13  2   
 15   8  31  1   
 16   9  13  1   
 17   9  14  2   
 18  10  32  1   
 19  10  33  1   
 20  10  34  1   
 21  12  15  1   
 22  12  16  1   
 23  15  17  1   
 24  15  18  1   
 25  15  35  1   
 26  16  19  1   
 27  16  20  1   
 28  16  36  1   
 29  17  19  1   
 30  17  21  1   
 31  17  22  1   
 32  18  20  1   
 33  18  37  1   
 34  18  38  1   
 35  19  39  1   
 36  19  40  1   
 37  20  41  1   
 38  20  42  1   
 39  21  23  2   
 40  21  24  am  
 41  22  25  1   
 42  22  43  1   
 43  22  44  1   
 44  24  26  1   
 45  24  45  1   
 46  25  27  2   
 47  25  46  1   
 48  26  47  1   
 49  26  48  1   
 50  26  49  1   
 51  27  28  1   
 52  27  29  1   
 53  28  50  1   
 54  28  51  1   
 55  28  52  1   
 56  29  53  1   
 57  29  54  1   
 58  29  55  1   
@<TRIPOS>SUBSTRUCTURE
  1 ****  12 GROUP 4 **** **** 0

# MOE 2024.06 (io_trps.svl 2023.06)
