@<TRIPOS>MOLECULE
NONAME
57 60 1 0 0 
SMALL
USER_CHARGES


@<TRIPOS>ATOM
  1 O       -1.3370     1.5260    -2.0830 O.2   1 <1>  -0.5700 
  2 C       -1.8960     1.4450    -1.0110 C.2   1 <1>   0.5690 
  3 N       -2.0530     0.2220    -0.3890 N.am  1 <1>  -0.6600 
  4 C       -2.4080     2.7810    -0.4160 C.3   1 <1>   0.2810 
  5 C       -1.8140    -1.0390    -1.1440 C.3   1 <1>   0.1400 
  6 C       -2.5760     0.0390     1.0040 C.3   1 <1>   0.1400 
  7 N       -2.0500     3.0220     1.0140 N.am  1 <1>  -0.7300 
  8 C       -3.9300     2.9230    -0.6070 C.3   1 <1>  -0.1600 
  9 C       -3.1180    -1.8420    -1.2630 C.3   1 <1>  -0.1600 
 10 C       -3.1920    -1.3490     1.2170 C.3   1 <1>  -0.1600 
 11 C       -0.8360     2.9460     1.5980 C.2   1 <1>   0.5690 
 12 C       -4.4850     4.2910    -0.1730 C.3   1 <1>  -0.1600 
 13 C       -4.0080    -1.7820    -0.0060 C.3   1 <1>   0.4600 
 14 O       -0.7500     2.9950     2.7960 O.2   1 <1>  -0.5700 
 15 C        0.4200     2.7850     0.7770 C.3   1 <1>  -0.1790 
 16 C       -5.9840     4.3890    -0.4670 C.3   1 <1>  -0.2400 
 17 O       -4.9920    -0.7990    -0.2590 O.3   1 <1>  -0.5600 
 18 C       -4.6930    -3.1230     0.2450 C.2   1 <1>  -0.3320 
 19 C       -6.1830    -0.8340     0.4900 C.3   1 <1>   0.1200 
 20 N       -4.0790    -4.3340     0.4210 N.pl3 1 <1>   0.0330 
 21 C       -6.0280    -3.2880     0.3370 C.2   1 <1>  -0.1810 
 22 C       -6.9740    -2.1210     0.2080 C.3   1 <1>   0.0210 
 23 C       -5.0550    -5.2810     0.6180 C.ar  1 <1>  -0.1520 
 24 C       -6.2960    -4.6530     0.5680 C.ar  1 <1>   0.0000 
 25 C       -4.9570    -6.6570     0.8400 C.ar  1 <1>  -0.1500 
 26 C       -7.4610    -5.4070     0.7380 C.ar  1 <1>  -0.1500 
 27 C       -6.1110    -7.3870     1.0080 C.ar  1 <1>  -0.1500 
 28 C       -7.3640    -6.7620     0.9570 C.ar  1 <1>  -0.1500 
 29 H       -1.9450     3.5640    -0.9920 H     1 <1>   0.0800 
 30 H       -1.0740    -1.6150    -0.6170 H     1 <1>   0.0800 
 31 H       -1.4270    -0.8390    -2.1290 H     1 <1>   0.0800 
 32 H       -3.3380     0.7680     1.2000 H     1 <1>   0.0800 
 33 H       -1.7770     0.1940     1.7100 H     1 <1>   0.0800 
 34 H       -2.8380     3.1780     1.6430 H     1 <1>   0.3700 
 35 H       -4.4420     2.1360    -0.0830 H     1 <1>   0.0800 
 36 H       -4.1410     2.7840    -1.6530 H     1 <1>   0.0800 
 37 H       -2.8470    -2.8570    -1.4780 H     1 <1>   0.0800 
 38 H       -3.6790    -1.4880    -2.1090 H     1 <1>   0.0800 
 39 H       -3.8090    -1.3470     2.0950 H     1 <1>   0.0800 
 40 H       -2.4070    -2.0610     1.3910 H     1 <1>   0.0800 
 41 H       -3.9690     5.0740    -0.7030 H     1 <1>   0.0800 
 42 H       -4.3280     4.4450     0.8800 H     1 <1>   0.0800 
 43 H        0.3850     3.4140    -0.0920 H     1 <1>   0.0800 
 44 H        0.5260     1.7600     0.4740 H     1 <1>   0.0800 
 45 H        1.2730     3.0600     1.3690 H     1 <1>   0.0800 
 46 H       -6.1710     4.2710    -1.5210 H     1 <1>   0.0800 
 47 H       -6.3570     5.3500    -0.1610 H     1 <1>   0.0800 
 48 H       -6.5250     3.6270     0.0670 H     1 <1>   0.0800 
 49 H       -6.7660     0.0280     0.2180 H     1 <1>   0.0800 
 50 H       -5.9330    -0.7690     1.5330 H     1 <1>   0.0800 
 51 H       -3.0740    -4.5240     0.4040 H     1 <1>   0.2700 
 52 H       -7.3850    -2.0930    -0.7850 H     1 <1>   0.0800 
 53 H       -7.7780    -2.2150     0.9140 H     1 <1>   0.0800 
 54 H       -3.9930    -7.1310     0.8780 H     1 <1>   0.1500 
 55 H       -8.4140    -4.9150     0.6950 H     1 <1>   0.1500 
 56 H       -6.0630    -8.4480     1.1800 H     1 <1>   0.1500 
 57 H       -8.2510    -7.3560     1.0900 H     1 <1>   0.1500 
@<TRIPOS>BOND
  1   1   2  2   
  2   2   3  am  
  3   2   4  1   
  4   3   5  1   
  5   3   6  1   
  6   4   7  1   
  7   4   8  1   
  8   4  29  1   
  9   5   9  1   
 10   5  30  1   
 11   5  31  1   
 12   6  10  1   
 13   6  32  1   
 14   6  33  1   
 15   7  11  am  
 16   7  34  1   
 17   8  12  1   
 18   8  35  1   
 19   8  36  1   
 20   9  13  1   
 21   9  37  1   
 22   9  38  1   
 23  10  13  1   
 24  10  39  1   
 25  10  40  1   
 26  11  14  2   
 27  11  15  1   
 28  12  16  1   
 29  12  41  1   
 30  12  42  1   
 31  13  17  1   
 32  13  18  1   
 33  15  43  1   
 34  15  44  1   
 35  15  45  1   
 36  16  46  1   
 37  16  47  1   
 38  16  48  1   
 39  17  19  1   
 40  18  20  1   
 41  18  21  2   
 42  19  22  1   
 43  19  49  1   
 44  19  50  1   
 45  20  23  1   
 46  20  51  1   
 47  21  22  1   
 48  21  24  1   
 49  22  52  1   
 50  22  53  1   
 51  23  24  ar  
 52  23  25  ar  
 53  24  26  ar  
 54  25  27  ar  
 55  25  54  1   
 56  26  28  ar  
 57  26  55  1   
 58  27  28  ar  
 59  27  56  1   
 60  28  57  1   
@<TRIPOS>SUBSTRUCTURE
  1 ****  13 GROUP 4 **** **** 0

# MOE 2024.06 (io_trps.svl 2023.06)
