@<TRIPOS>MOLECULE
NONAME
51 53 1 0 0 
SMALL
USER_CHARGES


@<TRIPOS>ATOM
  1 O        1.1980    -0.7470     1.4860 O.2   1 <1>  -0.5700 
  2 C        1.9890    -0.7770     0.5700 C.2   1 <1>   0.5690 
  3 N        3.2030    -0.1660     0.6930 N.am  1 <1>  -0.7300 
  4 C        1.5960    -1.4910    -0.7640 C.3   1 <1>   0.4840 
  5 C        3.5470     0.7730     1.7840 C.3   1 <1>   0.2840 
  6 N        0.2360    -2.1520    -0.8190 N.4   1 <1>  -0.9590 
  7 C        2.6370    -2.5380    -1.1800 C.3   1 <1>  -0.2400 
  8 C        4.2150     2.0100     1.1880 C.ar  1 <1>  -0.1440 
  9 C       -0.8250    -1.1030    -0.7830 C.3   1 <1>   0.3430 
 10 C        0.0220    -3.1560     0.2700 C.3   1 <1>   0.3430 
 11 C        3.5440     2.8690     0.3100 C.ar  1 <1>  -0.0230 
 12 C        5.5280     2.2870     1.5380 C.ar  1 <1>  -0.1500 
 13 C       -2.1980    -1.7430    -0.9890 C.3   1 <1>  -0.1600 
 14 C       -1.3270    -3.8480     0.0750 C.3   1 <1>  -0.1600 
 15 N        2.2130     2.6170    -0.1070 N.pl3 1 <1>   0.3260 
 16 C        4.2040     3.9870    -0.1880 C.ar  1 <1>  -0.1500 
 17 C        6.1750     3.4000     1.0330 C.ar  1 <1>  -0.1500 
 18 C       -2.4770    -2.8320     0.0560 C.3   1 <1>  -0.0800 
 19 C        1.8220     2.0120    -1.2590 C.2   1 <1>   0.0360 
 20 C        1.0730     2.6910     0.6120 C.2   1 <1>  -0.3020 
 21 C        5.5120     4.2520     0.1700 C.ar  1 <1>  -0.1500 
 22 C       -3.8110    -3.5280    -0.2300 C.3   1 <1>  -0.2400 
 23 N        0.5720     1.6750    -1.3030 N.2   1 <1>  -0.5650 
 24 C        0.0930     2.1280    -0.1250 C.2   1 <1>   0.0770 
 25 H        3.9160    -0.2110    -0.0380 H     1 <1>   0.3700 
 26 H        1.6040    -0.7220    -1.5180 H     1 <1>   0.0800 
 27 H        4.2110     0.2820     2.4750 H     1 <1>   0.0800 
 28 H        2.6630     1.0630     2.3270 H     1 <1>   0.0800 
 29 H        0.1500    -2.6360    -1.7170 H     1 <1>   0.4500 
 30 H        2.7680    -3.2780    -0.4110 H     1 <1>   0.0800 
 31 H        3.5870    -2.0620    -1.3410 H     1 <1>   0.0800 
 32 H        2.3520    -3.0160    -2.1000 H     1 <1>   0.0800 
 33 H       -0.6540    -0.3750    -1.5600 H     1 <1>   0.0800 
 34 H       -0.8020    -0.5930     0.1670 H     1 <1>   0.0800 
 35 H        0.0320    -2.6670     1.2300 H     1 <1>   0.0800 
 36 H        0.8070    -3.8950     0.2580 H     1 <1>   0.0800 
 37 H        6.0640     1.6410     2.2130 H     1 <1>   0.1500 
 38 H       -2.2530    -2.1520    -1.9830 H     1 <1>   0.0800 
 39 H       -2.9490    -0.9750    -0.9150 H     1 <1>   0.0800 
 40 H       -1.4780    -4.5410     0.8840 H     1 <1>   0.0800 
 41 H       -1.3100    -4.4150    -0.8390 H     1 <1>   0.0800 
 42 H        3.6950     4.6580    -0.8600 H     1 <1>   0.1500 
 43 H        7.1940     3.6060     1.3130 H     1 <1>   0.1500 
 44 H       -2.5400    -2.3660     1.0270 H     1 <1>   0.0800 
 45 H        2.5310     1.8350    -2.0490 H     1 <1>   0.1500 
 46 H        1.0360     3.1340     1.5900 H     1 <1>   0.1500 
 47 H        6.0150     5.1210    -0.2210 H     1 <1>   0.1500 
 48 H       -3.7980    -4.0090    -1.1920 H     1 <1>   0.0800 
 49 H       -4.6160    -2.8140    -0.2170 H     1 <1>   0.0800 
 50 H       -4.0130    -4.2720     0.5210 H     1 <1>   0.0800 
 51 H       -0.9480     2.0290     0.1410 H     1 <1>   0.1500 
@<TRIPOS>BOND
  1   1   2  2   
  2   2   3  am  
  3   2   4  1   
  4   3   5  1   
  5   3  25  1   
  6   4   6  1   
  7   4   7  1   
  8   4  26  1   
  9   5   8  1   
 10   5  27  1   
 11   5  28  1   
 12   6   9  1   
 13   6  10  1   
 14   6  29  1   
 15   7  30  1   
 16   7  31  1   
 17   7  32  1   
 18   8  11  ar  
 19   8  12  ar  
 20   9  13  1   
 21   9  33  1   
 22   9  34  1   
 23  10  14  1   
 24  10  35  1   
 25  10  36  1   
 26  11  15  1   
 27  11  16  ar  
 28  12  17  ar  
 29  12  37  1   
 30  13  18  1   
 31  13  38  1   
 32  13  39  1   
 33  14  18  1   
 34  14  40  1   
 35  14  41  1   
 36  15  19  1   
 37  15  20  1   
 38  16  21  ar  
 39  16  42  1   
 40  17  21  ar  
 41  17  43  1   
 42  18  22  1   
 43  18  44  1   
 44  19  23  2   
 45  19  45  1   
 46  20  24  2   
 47  20  46  1   
 48  21  47  1   
 49  22  48  1   
 50  22  49  1   
 51  22  50  1   
 52  23  24  1   
 53  24  51  1   
@<TRIPOS>SUBSTRUCTURE
  1 ****   2 GROUP 4 **** **** 0

# MOE 2024.06 (io_trps.svl 2023.06)
