@<TRIPOS>MOLECULE
NONAME
41 42 1 0 0 
SMALL
USER_CHARGES


@<TRIPOS>ATOM
  1 S        1.9790     0.1030    -0.0670 S.3   1 <1>  -0.4600 
  2 C        1.6950    -1.6600    -0.4150 C.3   1 <1>   0.2140 
  3 C        0.5570     0.5650     1.0020 C.3   1 <1>   0.1310 
  4 C        0.2380    -1.8530    -0.8220 C.ar  1 <1>  -0.1440 
  5 C        0.6600     2.0010     1.4970 C.2   1 <1>   0.5690 
  6 C       -0.6710    -2.5720    -0.0480 C.ar  1 <1>  -0.1440 
  7 C       -0.1840    -1.2790    -2.0130 C.ar  1 <1>  -0.1500 
  8 O       -0.0890     2.3540     2.3750 O.2   1 <1>  -0.5700 
  9 N        1.5960     2.8130     0.9240 N.am  1 <1>  -0.4940 
 10 C       -1.9840    -2.6940    -0.4790 C.ar  1 <1>  -0.1500 
 11 C       -0.2740    -3.2370     1.2630 C.3   1 <1>  -0.0970 
 12 C       -1.4950    -1.4070    -2.4350 C.ar  1 <1>  -0.1500 
 13 C        1.8890     4.1610     1.1490 C.2   1 <1>   0.2040 
 14 C       -2.3960    -2.1160    -1.6650 C.ar  1 <1>  -0.1500 
 15 O        1.1790     4.9130     1.9560 O.3   1 <1>  -0.0190 
 16 C        2.8670     4.9300     0.6300 C.2   1 <1>  -0.1810 
 17 N        1.6300     6.1420     1.9990 N.2   1 <1>  -0.4100 
 18 C        2.6430     6.1770     1.2110 C.2   1 <1>   0.1080 
 19 C        3.9600     4.5480    -0.3540 C.3   1 <1>   0.0210 
 20 C        3.4640     7.4260     0.9720 C.3   1 <1>  -0.0590 
 21 C        3.5380     4.8830    -1.7850 C.3   1 <1>  -0.2400 
 22 H        1.9620    -2.2040     0.4710 H     1 <1>   0.0800 
 23 H        2.3580    -1.9350    -1.2160 H     1 <1>   0.0800 
 24 H        0.5480    -0.1100     1.8370 H     1 <1>   0.0800 
 25 H       -0.3410     0.4430     0.4250 H     1 <1>   0.0800 
 26 H        0.5100    -0.7230    -2.6190 H     1 <1>   0.1500 
 27 H        2.1770     2.3430     0.2300 H     1 <1>   0.3700 
 28 H       -2.6990    -3.2450     0.1060 H     1 <1>   0.1500 
 29 H        0.1090    -2.5080     1.9530 H     1 <1>   0.0800 
 30 H        0.4780    -3.9840     1.0830 H     1 <1>   0.0800 
 31 H       -1.1190    -3.7190     1.7220 H     1 <1>   0.0800 
 32 H       -1.8110    -0.9570    -3.3600 H     1 <1>   0.1500 
 33 H       -3.4180    -2.2190    -1.9890 H     1 <1>   0.1500 
 34 H        4.1590     3.4930    -0.2780 H     1 <1>   0.0800 
 35 H        4.8690     5.0690    -0.1070 H     1 <1>   0.0800 
 36 H        4.4840     7.2530     1.2580 H     1 <1>   0.0800 
 37 H        3.0730     8.2380     1.5580 H     1 <1>   0.0800 
 38 H        3.4240     7.6980    -0.0660 H     1 <1>   0.0800 
 39 H        2.6370     4.3520    -2.0400 H     1 <1>   0.0800 
 40 H        4.3120     4.6010    -2.4760 H     1 <1>   0.0800 
 41 H        3.3530     5.9380    -1.8850 H     1 <1>   0.0800 
@<TRIPOS>BOND
  1   1   2  1   
  2   1   3  1   
  3   2   4  1   
  4   2  22  1   
  5   2  23  1   
  6   3   5  1   
  7   3  24  1   
  8   3  25  1   
  9   4   6  ar  
 10   4   7  ar  
 11   5   8  2   
 12   5   9  am  
 13   6  10  ar  
 14   6  11  1   
 15   7  12  ar  
 16   7  26  1   
 17   9  13  1   
 18   9  27  1   
 19  10  14  ar  
 20  10  28  1   
 21  11  29  1   
 22  11  30  1   
 23  11  31  1   
 24  12  14  ar  
 25  12  32  1   
 26  13  15  1   
 27  13  16  2   
 28  14  33  1   
 29  15  17  1   
 30  16  18  1   
 31  16  19  1   
 32  17  18  2   
 33  18  20  1   
 34  19  21  1   
 35  19  34  1   
 36  19  35  1   
 37  20  36  1   
 38  20  37  1   
 39  20  38  1   
 40  21  39  1   
 41  21  40  1   
 42  21  41  1   
@<TRIPOS>SUBSTRUCTURE
  1 ****   5 GROUP 4 **** **** 0

# MOE 2024.06 (io_trps.svl 2023.06)
