@<TRIPOS>MOLECULE
NONAME
60 63 1 0 0 
SMALL
USER_CHARGES


@<TRIPOS>ATOM
  1 F       -1.6230     0.9420    -3.2780 F     1 <1>  -0.1900 
  2 C       -2.2880     1.4940    -2.3010 C.ar  1 <1>   0.1900 
  3 C       -2.1470     2.8500    -2.0860 C.ar  1 <1>  -0.1500 
  4 C       -3.1040     0.7070    -1.5170 C.ar  1 <1>  -0.1500 
  5 C       -2.8420     3.4500    -1.0440 C.ar  1 <1>  -0.1440 
  6 C       -3.8020     1.3060    -0.4850 C.ar  1 <1>  -0.1500 
  7 C       -3.6890     2.6750    -0.2330 C.ar  1 <1>  -0.0230 
  8 C       -2.6540     4.9470    -0.8330 C.3   1 <1>   0.4870 
  9 N       -4.4440     3.2270     0.8480 N.pl3 1 <1>   0.5930 
 10 N       -1.8010     5.1990     0.3620 N.4   1 <1>  -0.9590 
 11 N       -3.9000     4.0030     1.8290 N.2   1 <1>  -0.7070 
 12 C       -5.7550     3.0160     1.1080 C.2   1 <1>  -0.3020 
 13 C       -1.6640     6.6450     0.7340 C.3   1 <1>   0.5660 
 14 C       -0.5200     4.4230     0.3190 C.3   1 <1>   0.3430 
 15 C       -4.8630     4.2170     2.6730 C.2   1 <1>   0.1390 
 16 C       -6.0550     3.6300     2.2700 C.2   1 <1>  -0.1500 
 17 C       -2.8780     7.4660     0.2830 C.ar  1 <1>  -0.1430 
 18 C       -0.3130     7.1950     0.2570 C.3   1 <1>  -0.1600 
 19 C        0.5070     5.0080     1.2890 C.3   1 <1>  -0.1600 
 20 C       -2.9160     8.1770    -0.9120 C.ar  1 <1>  -0.1500 
 21 C       -3.9970     7.4900     1.1030 C.ar  1 <1>  -0.1500 
 22 C        0.8600     6.4630     0.9350 C.3   1 <1>  -0.1600 
 23 C       -4.0450     8.8910    -1.2730 C.ar  1 <1>  -0.1500 
 24 C       -5.1270     8.2030     0.7430 C.ar  1 <1>  -0.1500 
 25 C       -5.1580     8.9150    -0.4460 C.ar  1 <1>  -0.1430 
 26 C       -6.3940     9.7090    -0.8380 C.3   1 <1>   0.4860 
 27 N       -6.4520    10.9590    -0.0260 N.4   1 <1>  -0.9590 
 28 C       -7.7660    11.6540    -0.1880 C.3   1 <1>   0.2630 
 29 C       -5.3150    11.8800    -0.3420 C.3   1 <1>   0.2630 
 30 H       -1.4970     3.4080    -2.7380 H     1 <1>   0.1500 
 31 H       -3.1880    -0.3480    -1.7150 H     1 <1>   0.1500 
 32 H       -4.4400     0.6940     0.1330 H     1 <1>   0.1500 
 33 H       -3.6220     5.4020    -0.6980 H     1 <1>   0.0800 
 34 H       -2.1960     5.3840    -1.7050 H     1 <1>   0.0800 
 35 H       -2.3620     4.7880     1.1350 H     1 <1>   0.4500 
 36 H       -6.3870     2.4390     0.4580 H     1 <1>   0.1500 
 37 H       -1.6410     6.6980     1.8100 H     1 <1>   0.0800 
 38 H       -0.1090     4.4610    -0.6770 H     1 <1>   0.0800 
 39 H       -0.7100     3.3890     0.5620 H     1 <1>   0.0800 
 40 H       -4.7550     4.7830     3.5850 H     1 <1>   0.1500 
 41 H       -6.9950     3.6700     2.7950 H     1 <1>   0.1500 
 42 H       -0.2500     8.2450     0.4830 H     1 <1>   0.0800 
 43 H       -0.2360     7.0840    -0.8100 H     1 <1>   0.0800 
 44 H        1.4020     4.4090     1.2660 H     1 <1>   0.0800 
 45 H        0.1140     4.9510     2.2900 H     1 <1>   0.0800 
 46 H       -2.0730     8.1890    -1.5830 H     1 <1>   0.1500 
 47 H       -4.0000     6.9480     2.0340 H     1 <1>   0.1500 
 48 H        1.1450     6.9800     1.8370 H     1 <1>   0.0800 
 49 H        1.7120     6.4840     0.2740 H     1 <1>   0.0800 
 50 H       -4.0440     9.4280    -2.2080 H     1 <1>   0.1500 
 51 H       -5.9800     8.1910     1.4030 H     1 <1>   0.1500 
 52 H       -7.2710     9.1090    -0.6550 H     1 <1>   0.0800 
 53 H       -6.3620     9.9490    -1.8890 H     1 <1>   0.0800 
 54 H       -6.3480    10.6680     0.9580 H     1 <1>   0.4500 
 55 H       -7.9040    11.9640    -1.2110 H     1 <1>   0.0800 
 56 H       -7.8060    12.5270     0.4430 H     1 <1>   0.0800 
 57 H       -8.5760    10.9980     0.0870 H     1 <1>   0.0800 
 58 H       -5.3580    12.1910    -1.3740 H     1 <1>   0.0800 
 59 H       -4.3730    11.3860    -0.1690 H     1 <1>   0.0800 
 60 H       -5.3590    12.7580     0.2830 H     1 <1>   0.0800 
@<TRIPOS>BOND
  1   1   2  1   
  2   2   3  ar  
  3   2   4  ar  
  4   3   5  ar  
  5   3  30  1   
  6   4   6  ar  
  7   4  31  1   
  8   5   7  ar  
  9   5   8  1   
 10   6   7  ar  
 11   6  32  1   
 12   7   9  1   
 13   8  10  1   
 14   8  33  1   
 15   8  34  1   
 16   9  11  1   
 17   9  12  1   
 18  10  13  1   
 19  10  14  1   
 20  10  35  1   
 21  11  15  2   
 22  12  16  2   
 23  12  36  1   
 24  13  17  1   
 25  13  18  1   
 26  13  37  1   
 27  14  19  1   
 28  14  38  1   
 29  14  39  1   
 30  15  16  1   
 31  15  40  1   
 32  16  41  1   
 33  17  20  ar  
 34  17  21  ar  
 35  18  22  1   
 36  18  42  1   
 37  18  43  1   
 38  19  22  1   
 39  19  44  1   
 40  19  45  1   
 41  20  23  ar  
 42  20  46  1   
 43  21  24  ar  
 44  21  47  1   
 45  22  48  1   
 46  22  49  1   
 47  23  25  ar  
 48  23  50  1   
 49  24  25  ar  
 50  24  51  1   
 51  25  26  1   
 52  26  27  1   
 53  26  52  1   
 54  26  53  1   
 55  27  28  1   
 56  27  29  1   
 57  27  54  1   
 58  28  55  1   
 59  28  56  1   
 60  28  57  1   
 61  29  58  1   
 62  29  59  1   
 63  29  60  1   
@<TRIPOS>SUBSTRUCTURE
  1 ****   8 GROUP 4 **** **** 0

# MOE 2024.06 (io_trps.svl 2023.06)
