@<TRIPOS>MOLECULE
NONAME
50 53 1 0 0 
SMALL
USER_CHARGES


@<TRIPOS>ATOM
  1 O        2.0230    -2.1120     0.8730 O.3   1 <1>  -0.3630 
  2 C        1.0580    -1.2930     1.2860 C.ar  1 <1>   0.3920 
  3 C        2.8260    -1.4560    -0.1000 C.3   1 <1>   0.2000 
  4 N        0.0160    -1.7310     1.9370 N.ar  1 <1>  -0.6200 
  5 C        1.2280    -0.0130     0.8560 C.ar  1 <1>  -0.1440 
  6 C        2.5060     0.0480     0.0660 C.3   1 <1>  -0.0160 
  7 C        2.4350    -2.0460    -1.4790 C.3   1 <1>   0.3430 
  8 C       -0.8720    -0.7840     2.1950 C.ar  1 <1>   0.4760 
  9 C        0.2480     0.8890     1.1780 C.ar  1 <1>   0.1660 
 10 N        0.9540    -2.2890    -1.5840 N.4   1 <1>  -0.9590 
 11 N       -0.8170     0.4950     1.8460 N.ar  1 <1>  -0.6200 
 12 C       -2.1020    -1.2130     2.9610 C.3   1 <1>  -0.0970 
 13 C        0.3130     2.3520     0.7910 C.3   1 <1>  -0.0970 
 14 C        0.5940    -3.6120    -2.1490 C.3   1 <1>   0.5240 
 15 C        0.1730    -1.1740    -2.2070 C.3   1 <1>   0.2630 
 16 C       -0.7590    -3.9360    -1.5620 C.2   1 <1>  -0.1810 
 17 C       -1.9430    -4.1630    -2.2510 C.2   1 <1>   0.1390 
 18 C       -1.1050    -4.0240    -0.2590 C.2   1 <1>  -0.3020 
 19 N       -2.9390    -4.3470    -1.4480 N.2   1 <1>  -0.7070 
 20 N       -2.4370    -4.2670    -0.1870 N.pl3 1 <1>   0.5930 
 21 C       -3.2290    -4.3000     0.9990 C.ar  1 <1>  -0.0230 
 22 C       -4.5590    -3.8880     0.9740 C.ar  1 <1>  -0.1500 
 23 C       -2.6910    -4.7230     2.2140 C.ar  1 <1>  -0.1500 
 24 C       -5.3240    -3.8860     2.1270 C.ar  1 <1>  -0.1500 
 25 C       -3.4560    -4.7210     3.3670 C.ar  1 <1>  -0.1500 
 26 C       -4.7730    -4.3000     3.3250 C.ar  1 <1>  -0.1500 
 27 H        3.8620    -1.6520     0.1170 H     1 <1>   0.0800 
 28 H        2.3920     0.5560    -0.8750 H     1 <1>   0.0800 
 29 H        3.2740     0.5330     0.6440 H     1 <1>   0.0800 
 30 H        2.9570    -2.9830    -1.5870 H     1 <1>   0.0800 
 31 H        2.7710    -1.3970    -2.2710 H     1 <1>   0.0800 
 32 H        0.6190    -2.3720    -0.6030 H     1 <1>   0.4500 
 33 H       -1.8700    -2.0390     3.6070 H     1 <1>   0.0800 
 34 H       -2.8690    -1.5110     2.2710 H     1 <1>   0.0800 
 35 H       -2.4660    -0.3990     3.5590 H     1 <1>   0.0800 
 36 H        1.2300     2.5850     0.2830 H     1 <1>   0.0800 
 37 H        0.2480     2.9570     1.6770 H     1 <1>   0.0800 
 38 H       -0.5160     2.5940     0.1510 H     1 <1>   0.0800 
 39 H        1.3030    -4.3620    -1.8390 H     1 <1>   0.0800 
 40 H        0.5550    -3.5770    -3.2250 H     1 <1>   0.0800 
 41 H        0.4540    -1.0460    -3.2390 H     1 <1>   0.0800 
 42 H        0.3480    -0.2520    -1.6790 H     1 <1>   0.0800 
 43 H       -0.8830    -1.3900    -2.1600 H     1 <1>   0.0800 
 44 H       -2.0490    -4.1790    -3.3250 H     1 <1>   0.1500 
 45 H       -0.5080    -3.9170     0.6280 H     1 <1>   0.1500 
 46 H       -5.0000    -3.5670     0.0450 H     1 <1>   0.1500 
 47 H       -1.6700    -5.0580     2.2710 H     1 <1>   0.1500 
 48 H       -6.3500    -3.5630     2.0890 H     1 <1>   0.1500 
 49 H       -3.0280    -5.0500     4.2990 H     1 <1>   0.1500 
 50 H       -5.3680    -4.2990     4.2220 H     1 <1>   0.1500 
@<TRIPOS>BOND
  1   1   2  1   
  2   1   3  1   
  3   2   4  ar  
  4   2   5  ar  
  5   3   6  1   
  6   3   7  1   
  7   3  27  1   
  8   4   8  ar  
  9   5   6  1   
 10   5   9  ar  
 11   6  28  1   
 12   6  29  1   
 13   7  10  1   
 14   7  30  1   
 15   7  31  1   
 16   8  11  ar  
 17   8  12  1   
 18   9  11  ar  
 19   9  13  1   
 20  10  14  1   
 21  10  15  1   
 22  10  32  1   
 23  12  33  1   
 24  12  34  1   
 25  12  35  1   
 26  13  36  1   
 27  13  37  1   
 28  13  38  1   
 29  14  16  1   
 30  14  39  1   
 31  14  40  1   
 32  15  41  1   
 33  15  42  1   
 34  15  43  1   
 35  16  17  1   
 36  16  18  2   
 37  17  19  2   
 38  17  44  1   
 39  18  20  1   
 40  18  45  1   
 41  19  20  1   
 42  20  21  1   
 43  21  22  ar  
 44  21  23  ar  
 45  22  24  ar  
 46  22  46  1   
 47  23  25  ar  
 48  23  47  1   
 49  24  26  ar  
 50  24  48  1   
 51  25  26  ar  
 52  25  49  1   
 53  26  50  1   
@<TRIPOS>SUBSTRUCTURE
  1 ****   4 GROUP 4 **** **** 0

# MOE 2024.06 (io_trps.svl 2023.06)
