@<TRIPOS>MOLECULE
NONAME
50 53 1 0 0 
SMALL
USER_CHARGES


@<TRIPOS>ATOM
  1 O        1.9910    -0.5310     2.7740 O.2   1 <1>  -0.5700 
  2 C        2.3280    -1.2600     1.8600 C.2   1 <1>   0.5440 
  3 N        3.3950    -0.8680     1.0770 N.am  1 <1>  -0.6600 
  4 C        1.6090    -2.4920     1.6190 C.ar  1 <1>   0.0860 
  5 C        4.3660     0.1710     1.5570 C.3   1 <1>   0.1400 
  6 C        3.6300    -1.3760    -0.3050 C.3   1 <1>   0.1400 
  7 C        0.4780    -2.5480     0.7860 C.ar  1 <1>   0.0000 
  8 C        2.0580    -3.6660     2.2200 C.ar  1 <1>  -0.1500 
  9 C        4.3660     1.5040     0.7580 C.3   1 <1>   0.4230 
 10 C        3.3860    -0.2700    -1.3550 C.3   1 <1>  -0.0800 
 11 C       -0.0440    -1.3790     0.1150 C.ar  1 <1>   0.0000 
 12 C       -0.1540    -3.7730     0.5920 C.ar  1 <1>  -0.1500 
 13 C        1.4210    -4.8730     2.0130 C.ar  1 <1>  -0.1500 
 14 N        3.0640     1.8720     0.0720 N.4   1 <1>  -0.9590 
 15 C        5.5560     1.5790    -0.2240 C.3   1 <1>   0.1200 
 16 C        4.6770     0.2630    -1.9970 C.3   1 <1>   0.1200 
 17 C        2.4550     0.8420    -0.8400 C.3   1 <1>   0.3430 
 18 C       -0.0740    -1.3140    -1.2760 C.ar  1 <1>  -0.1500 
 19 C       -0.5440    -0.2930     0.8290 C.ar  1 <1>  -0.1500 
 20 C        0.3090    -4.9260     1.1940 C.ar  1 <1>  -0.1500 
 21 C        2.0380     2.2460     1.0950 C.3   1 <1>   0.2630 
 22 O        5.6660     0.4560    -1.0410 O.3   1 <1>  -0.5600 
 23 C       -0.5700    -0.2010    -1.9310 C.ar  1 <1>  -0.1500 
 24 C       -1.0430     0.8220     0.1810 C.ar  1 <1>  -0.1500 
 25 C       -1.0530     0.8720    -1.2020 C.ar  1 <1>  -0.1500 
 26 H        4.1630     0.4030     2.5880 H     1 <1>   0.0800 
 27 H        5.3550    -0.2540     1.5420 H     1 <1>   0.0800 
 28 H        4.6340    -1.7600    -0.3800 H     1 <1>   0.0800 
 29 H        2.9660    -2.1980    -0.5070 H     1 <1>   0.0800 
 30 H        2.9200    -3.6260     2.8640 H     1 <1>   0.1500 
 31 H        4.5650     2.2760     1.4820 H     1 <1>   0.0800 
 32 H        2.8470    -0.7430    -2.1560 H     1 <1>   0.0800 
 33 H       -1.0260    -3.8220    -0.0380 H     1 <1>   0.1500 
 34 H        1.7840    -5.7690     2.4880 H     1 <1>   0.1500 
 35 H        3.2550     2.7020    -0.5000 H     1 <1>   0.4500 
 36 H        6.4690     1.6270     0.3440 H     1 <1>   0.0800 
 37 H        5.5060     2.4590    -0.8400 H     1 <1>   0.0800 
 38 H        4.5180     1.1770    -2.5420 H     1 <1>   0.0800 
 39 H        5.0600    -0.4740    -2.6840 H     1 <1>   0.0800 
 40 H        1.6480     0.3590    -0.3170 H     1 <1>   0.0800 
 41 H        2.0170     1.3450    -1.6860 H     1 <1>   0.0800 
 42 H        0.2860    -2.1510    -1.8490 H     1 <1>   0.1500 
 43 H       -0.5510    -0.3330     1.9070 H     1 <1>   0.1500 
 44 H       -0.1950    -5.8640     1.0300 H     1 <1>   0.1500 
 45 H        1.7850     1.3930     1.7010 H     1 <1>   0.0800 
 46 H        1.1380     2.5950     0.6140 H     1 <1>   0.0800 
 47 H        2.4100     3.0260     1.7400 H     1 <1>   0.0800 
 48 H       -0.5950    -0.1730    -3.0080 H     1 <1>   0.1500 
 49 H       -1.4400     1.6440     0.7530 H     1 <1>   0.1500 
 50 H       -1.4540     1.7340    -1.7100 H     1 <1>   0.1500 
@<TRIPOS>BOND
  1   1   2  2   
  2   2   3  am  
  3   2   4  1   
  4   3   5  1   
  5   3   6  1   
  6   4   7  ar  
  7   4   8  ar  
  8   5   9  1   
  9   5  26  1   
 10   5  27  1   
 11   6  10  1   
 12   6  28  1   
 13   6  29  1   
 14   7  11  1   
 15   7  12  ar  
 16   8  13  ar  
 17   8  30  1   
 18   9  14  1   
 19   9  15  1   
 20   9  31  1   
 21  10  16  1   
 22  10  17  1   
 23  10  32  1   
 24  11  18  ar  
 25  11  19  ar  
 26  12  20  ar  
 27  12  33  1   
 28  13  20  ar  
 29  13  34  1   
 30  14  17  1   
 31  14  21  1   
 32  14  35  1   
 33  15  22  1   
 34  15  36  1   
 35  15  37  1   
 36  16  22  1   
 37  16  38  1   
 38  16  39  1   
 39  17  40  1   
 40  17  41  1   
 41  18  23  ar  
 42  18  42  1   
 43  19  24  ar  
 44  19  43  1   
 45  20  44  1   
 46  21  45  1   
 47  21  46  1   
 48  21  47  1   
 49  23  25  ar  
 50  23  48  1   
 51  24  25  ar  
 52  24  49  1   
 53  25  50  1   
@<TRIPOS>SUBSTRUCTURE
  1 ****   3 GROUP 4 **** **** 0

# MOE 2024.06 (io_trps.svl 2023.06)
