@<TRIPOS>MOLECULE
NONAME
53 56 1 0 0 
SMALL
USER_CHARGES


@<TRIPOS>ATOM
  1 O        1.2390     0.5820    -2.6160 O.2   1 <1>  -0.5700 
  2 C        1.6320     0.7910    -1.4820 C.2   1 <1>   0.5440 
  3 N        1.1110     1.8660    -0.7960 N.am  1 <1>  -0.6600 
  4 C        2.6420    -0.0410    -0.8800 C.ar  1 <1>   0.0860 
  5 C        1.4000     2.2020     0.6150 C.3   1 <1>   0.1400 
  6 C        0.0400     2.7240    -1.3440 C.3   1 <1>   0.1400 
  7 C        2.3780    -1.3440    -0.4060 C.ar  1 <1>   0.4100 
  8 C        3.9330     0.4530    -0.7550 C.ar  1 <1>  -0.1500 
  9 C        0.2230     3.0690     1.0440 C.3   1 <1>  -0.1600 
 10 C       -0.2490     3.7400    -0.2440 C.3   1 <1>  -0.1600 
 11 N        3.3140    -2.1120     0.1550 N.ar  1 <1>  -0.6200 
 12 N        1.1300    -1.9430    -0.4830 N.pl3 1 <1>  -0.8380 
 13 C        4.8880    -0.3480    -0.1730 C.ar  1 <1>  -0.1500 
 14 C        4.5260    -1.6090     0.2590 C.ar  1 <1>   0.1600 
 15 C        0.9900    -3.3010    -1.0690 C.3   1 <1>   0.2090 
 16 C       -0.1390    -1.2580    -0.1310 C.3   1 <1>   0.2090 
 17 C        0.1620    -4.1890    -0.1380 C.3   1 <1>  -0.1600 
 18 C       -0.9780    -2.1490     0.7880 C.3   1 <1>  -0.1600 
 19 C       -1.2050    -3.5510     0.1880 C.3   1 <1>  -0.0800 
 20 C       -2.1060    -4.4200     1.0990 C.3   1 <1>   0.3430 
 21 O       -1.4850    -4.6330     2.3180 O.3   1 <1>  -0.6800 
 22 C       -2.4510    -5.7850     0.4820 C.ar  1 <1>   0.1670 
 23 N       -1.6440    -6.8130     0.7440 N.ar  1 <1>  -0.6200 
 24 C       -3.5840    -5.8850    -0.3130 C.ar  1 <1>  -0.1500 
 25 C       -1.9810    -7.9680     0.1920 C.ar  1 <1>   0.1600 
 26 C       -3.9210    -7.0950    -0.8810 C.ar  1 <1>  -0.1500 
 27 C       -3.0890    -8.1600    -0.6140 C.ar  1 <1>  -0.1500 
 28 H        2.3160     2.7650     0.6610 H     1 <1>   0.0800 
 29 H        1.4840     1.3170     1.2240 H     1 <1>   0.0800 
 30 H       -0.8270     2.1170    -1.5440 H     1 <1>   0.0800 
 31 H        0.3630     3.1990    -2.2550 H     1 <1>   0.0800 
 32 H        4.1720     1.4390    -1.1120 H     1 <1>   0.1500 
 33 H        0.5040     3.7810     1.8000 H     1 <1>   0.0800 
 34 H       -0.5550     2.4350     1.4320 H     1 <1>   0.0800 
 35 H       -1.2910     4.0070    -0.2120 H     1 <1>   0.0800 
 36 H        0.3330     4.6260    -0.4290 H     1 <1>   0.0800 
 37 H        5.9000    -0.0060    -0.0570 H     1 <1>   0.1500 
 38 H        5.2740    -2.2360     0.7140 H     1 <1>   0.1500 
 39 H        1.9580    -3.7450    -1.2280 H     1 <1>   0.0800 
 40 H        0.5020    -3.2170    -2.0250 H     1 <1>   0.0800 
 41 H       -0.6800    -1.0360    -1.0350 H     1 <1>   0.0800 
 42 H        0.0680    -0.3370     0.3800 H     1 <1>   0.0800 
 43 H        0.7240    -4.3460     0.7670 H     1 <1>   0.0800 
 44 H        0.0280    -5.1430    -0.6120 H     1 <1>   0.0800 
 45 H       -1.9220    -1.6700     0.9720 H     1 <1>   0.0800 
 46 H       -0.4650    -2.2370     1.7300 H     1 <1>   0.0800 
 47 H       -1.7320    -3.4250    -0.7410 H     1 <1>   0.0800 
 48 H       -3.0160    -3.8850     1.3050 H     1 <1>   0.0800 
 49 H       -1.0480    -5.5100     2.2320 H     1 <1>   0.4000 
 50 H       -4.2020    -5.0230    -0.4900 H     1 <1>   0.1500 
 51 H       -1.3390    -8.8080     0.3940 H     1 <1>   0.1500 
 52 H       -4.7940    -7.2040    -1.5020 H     1 <1>   0.1500 
 53 H       -3.2950    -9.1320    -1.0250 H     1 <1>   0.1500 
@<TRIPOS>BOND
  1   1   2  2   
  2   2   3  am  
  3   2   4  1   
  4   3   5  1   
  5   3   6  1   
  6   4   7  ar  
  7   4   8  ar  
  8   5   9  1   
  9   5  28  1   
 10   5  29  1   
 11   6  10  1   
 12   6  30  1   
 13   6  31  1   
 14   7  11  ar  
 15   7  12  1   
 16   8  13  ar  
 17   8  32  1   
 18   9  10  1   
 19   9  33  1   
 20   9  34  1   
 21  10  35  1   
 22  10  36  1   
 23  11  14  ar  
 24  12  15  1   
 25  12  16  1   
 26  13  14  ar  
 27  13  37  1   
 28  14  38  1   
 29  15  17  1   
 30  15  39  1   
 31  15  40  1   
 32  16  18  1   
 33  16  41  1   
 34  16  42  1   
 35  17  19  1   
 36  17  43  1   
 37  17  44  1   
 38  18  19  1   
 39  18  45  1   
 40  18  46  1   
 41  19  20  1   
 42  19  47  1   
 43  20  21  1   
 44  20  22  1   
 45  20  48  1   
 46  21  49  1   
 47  22  23  ar  
 48  22  24  ar  
 49  23  25  ar  
 50  24  26  ar  
 51  24  50  1   
 52  25  27  ar  
 53  25  51  1   
 54  26  27  ar  
 55  26  52  1   
 56  27  53  1   
@<TRIPOS>SUBSTRUCTURE
  1 ****  16 GROUP 4 **** **** 0

# MOE 2024.06 (io_trps.svl 2023.06)
