@<TRIPOS>MOLECULE
NONAME
67 69 1 0 0 
SMALL
USER_CHARGES


@<TRIPOS>ATOM
  1 O        0.1030     1.0340     1.5070 O.2   1 <1>  -0.5700 
  2 C       -0.4600     1.0490     0.4400 C.2   1 <1>   0.5690 
  3 N       -1.0780    -0.0610    -0.0630 N.am  1 <1>  -0.6600 
  4 C       -0.4730     2.3580    -0.3460 C.3   1 <1>  -0.0990 
  5 C       -1.0750    -1.3510     0.7100 C.3   1 <1>   0.3640 
  6 C       -1.9890    -0.0500    -1.2570 C.3   1 <1>   0.1400 
  7 C        0.4310     3.4450     0.2730 C.3   1 <1>  -0.1600 
  8 C       -0.2500    -2.4490     0.0060 C.ar  1 <1>  -0.1440 
  9 C       -2.5530    -1.7630     0.9960 C.3   1 <1>   0.2000 
 10 C       -2.8780    -1.3050    -1.3360 C.3   1 <1>   0.1200 
 11 C        0.4120     4.7450    -0.5320 C.3   1 <1>   0.3430 
 12 C       -0.2530    -3.7400     0.5200 C.ar  1 <1>  -0.1500 
 13 C        0.5330    -2.2060    -1.1160 C.ar  1 <1>  -0.1500 
 14 O       -3.4500    -1.5700    -0.0900 O.3   1 <1>  -0.5600 
 15 C       -3.1000    -0.9630     2.1890 C.3   1 <1>   0.1200 
 16 N        1.2040     5.7860     0.1770 N.4   1 <1>  -0.9590 
 17 C        0.4580    -4.7730    -0.0680 C.ar  1 <1>   0.0820 
 18 C        1.2600    -3.2190    -1.7150 C.ar  1 <1>  -0.1500 
 19 O       -4.4520    -1.2260     2.3360 O.3   1 <1>  -0.6800 
 20 C        0.8920     7.1470    -0.3370 C.3   1 <1>   0.3430 
 21 C        2.6690     5.5390     0.1040 C.3   1 <1>   0.3430 
 22 O        0.3160    -5.9780     0.5570 O.3   1 <1>  -0.3630 
 23 C        1.2390    -4.5140    -1.2060 C.ar  1 <1>   0.0820 
 24 C        1.1410     8.2130     0.7340 C.3   1 <1>  -0.1600 
 25 C        3.3120     5.7730     1.4720 C.3   1 <1>  -0.1600 
 26 C        0.5070    -7.2010    -0.1180 C.3   1 <1>   0.0400 
 27 O        1.9740    -5.5100    -1.7810 O.3   1 <1>  -0.3630 
 28 C        2.5510     8.2410     1.3540 C.3   1 <1>  -0.1600 
 29 C        2.8430     7.0210     2.2420 C.3   1 <1>  -0.1600 
 30 C        2.9710    -5.2460    -2.7440 C.3   1 <1>   0.0400 
 31 H       -0.1480     2.1510    -1.3490 H     1 <1>   0.0800 
 32 H       -1.4870     2.7150    -0.3800 H     1 <1>   0.0800 
 33 H       -0.5970    -1.2030     1.6630 H     1 <1>   0.0800 
 34 H       -2.6330     0.8100    -1.2080 H     1 <1>   0.0800 
 35 H       -1.4030     0.0210    -2.1570 H     1 <1>   0.0800 
 36 H        1.4330     3.0570     0.3310 H     1 <1>   0.0800 
 37 H        0.0870     3.6440     1.2740 H     1 <1>   0.0800 
 38 H       -2.5980    -2.8040     1.2570 H     1 <1>   0.0800 
 39 H       -2.3150    -2.1680    -1.6480 H     1 <1>   0.0800 
 40 H       -3.6770    -1.1520    -2.0400 H     1 <1>   0.0800 
 41 H       -0.6090     5.0750    -0.6300 H     1 <1>   0.0800 
 42 H        0.8120     4.5790    -1.5190 H     1 <1>   0.0800 
 43 H       -0.8120    -3.9790     1.4060 H     1 <1>   0.1500 
 44 H        0.5990    -1.2210    -1.5400 H     1 <1>   0.1500 
 45 H       -2.9810     0.0920     2.0180 H     1 <1>   0.0800 
 46 H       -2.6000    -1.2290     3.1040 H     1 <1>   0.0800 
 47 H        0.9480     5.7680     1.1730 H     1 <1>   0.4500 
 48 H        1.8420    -2.9720    -2.5820 H     1 <1>   0.1500 
 49 H       -4.8290    -1.3220     1.4320 H     1 <1>   0.4000 
 50 H        1.4920     7.3570    -1.2080 H     1 <1>   0.0800 
 51 H       -0.1450     7.1980    -0.6290 H     1 <1>   0.0800 
 52 H        2.8710     4.5280    -0.2090 H     1 <1>   0.0800 
 53 H        3.1150     6.2040    -0.6190 H     1 <1>   0.0800 
 54 H        0.9610     9.1720     0.2790 H     1 <1>   0.0800 
 55 H        0.4070     8.1060     1.5140 H     1 <1>   0.0800 
 56 H        3.1590     4.9030     2.0870 H     1 <1>   0.0800 
 57 H        4.3740     5.8490     1.3140 H     1 <1>   0.0800 
 58 H        0.0650    -7.9820     0.4730 H     1 <1>   0.0800 
 59 H        1.5620    -7.3770    -0.2230 H     1 <1>   0.0800 
 60 H        0.0290    -7.1500    -1.0800 H     1 <1>   0.0800 
 61 H        3.3060     8.3480     0.5920 H     1 <1>   0.0800 
 62 H        2.6120     9.1190     1.9760 H     1 <1>   0.0800 
 63 H        1.9710     6.7870     2.8300 H     1 <1>   0.0800 
 64 H        3.6180     7.2850     2.9430 H     1 <1>   0.0800 
 65 H        3.4810    -6.1680    -2.9580 H     1 <1>   0.0800 
 66 H        3.6660    -4.5300    -2.3410 H     1 <1>   0.0800 
 67 H        2.5050    -4.8730    -3.6380 H     1 <1>   0.0800 
@<TRIPOS>BOND
  1   1   2  2   
  2   2   3  am  
  3   2   4  1   
  4   3   5  1   
  5   3   6  1   
  6   4   7  1   
  7   4  31  1   
  8   4  32  1   
  9   5   8  1   
 10   5   9  1   
 11   5  33  1   
 12   6  10  1   
 13   6  34  1   
 14   6  35  1   
 15   7  11  1   
 16   7  36  1   
 17   7  37  1   
 18   8  12  ar  
 19   8  13  ar  
 20   9  14  1   
 21   9  15  1   
 22   9  38  1   
 23  10  14  1   
 24  10  39  1   
 25  10  40  1   
 26  11  16  1   
 27  11  41  1   
 28  11  42  1   
 29  12  17  ar  
 30  12  43  1   
 31  13  18  ar  
 32  13  44  1   
 33  15  19  1   
 34  15  45  1   
 35  15  46  1   
 36  16  20  1   
 37  16  21  1   
 38  16  47  1   
 39  17  22  1   
 40  17  23  ar  
 41  18  23  ar  
 42  18  48  1   
 43  19  49  1   
 44  20  24  1   
 45  20  50  1   
 46  20  51  1   
 47  21  25  1   
 48  21  52  1   
 49  21  53  1   
 50  22  26  1   
 51  23  27  1   
 52  24  28  1   
 53  24  54  1   
 54  24  55  1   
 55  25  29  1   
 56  25  56  1   
 57  25  57  1   
 58  26  58  1   
 59  26  59  1   
 60  26  60  1   
 61  27  30  1   
 62  28  29  1   
 63  28  61  1   
 64  28  62  1   
 65  29  63  1   
 66  29  64  1   
 67  30  65  1   
 68  30  66  1   
 69  30  67  1   
@<TRIPOS>SUBSTRUCTURE
  1 ****   2 GROUP 4 **** **** 0

# MOE 2024.06 (io_trps.svl 2023.06)
