@<TRIPOS>MOLECULE
NONAME
52 56 1 0 0 
SMALL
USER_CHARGES


@<TRIPOS>ATOM
  1 O       -2.3570     2.1950    -1.7440 O.2   1 <1>  -0.5700 
  2 C       -1.9070     2.8110    -0.7920 C.2   1 <1>   0.6160 
  3 N       -1.1460     3.9140    -1.0160 N.am  1 <1>  -0.5470 
  4 C       -2.2040     2.4530     0.5610 C.2   1 <1>  -0.1240 
  5 C       -0.6800     4.7330     0.0070 C.ar  1 <1>   0.1170 
  6 C       -1.7650     3.2230     1.5900 C.2   1 <1>  -0.1780 
  7 C       -3.0130     1.1880     0.7690 C.3   1 <1>   0.4810 
  8 C       -0.9900     4.4020     1.3380 C.ar  1 <1>   0.0280 
  9 C        0.0780     5.8680    -0.2670 C.ar  1 <1>  -0.1500 
 10 N       -4.2870     1.2660     0.0050 N.4   1 <1>  -0.9590 
 11 C       -0.5270     5.2330     2.3600 C.ar  1 <1>  -0.1500 
 12 C        0.5260     6.6730     0.7580 C.ar  1 <1>  -0.1500 
 13 C       -5.1690     2.3890     0.4710 C.3   1 <1>   0.3430 
 14 C       -5.0140    -0.0310    -0.0340 C.3   1 <1>   0.3430 
 15 C        0.2210     6.3550     2.0750 C.ar  1 <1>  -0.1500 
 16 C       -6.3730     2.5800    -0.4650 C.3   1 <1>   0.1430 
 17 C       -6.2070     0.0810    -0.9890 C.3   1 <1>  -0.1600 
 18 C       -7.2720     3.6380     0.1260 C.ar  1 <1>   0.1670 
 19 C       -7.1410     1.2500    -0.6230 C.3   1 <1>  -0.1600 
 20 C       -5.9800     3.1980    -1.8350 C.3   1 <1>  -0.1600 
 21 N       -7.6530     3.6740     1.3820 N.ar  1 <1>  -0.6200 
 22 C       -7.6320     4.5720    -0.7960 C.ar  1 <1>  -0.1430 
 23 C       -7.0320     4.2810    -2.1490 C.3   1 <1>  -0.0170 
 24 C       -8.4420     4.7000     1.6780 C.ar  1 <1>   0.4770 
 25 C       -8.4480     5.5940    -0.3800 C.ar  1 <1>   0.1600 
 26 N       -8.8600     5.6640     0.8700 N.ar  1 <1>  -0.6200 
 27 C       -8.9250     4.7900     3.1050 C.3   1 <1>  -0.0970 
 28 H       -0.9280     4.1280    -1.9900 H     1 <1>   0.3700 
 29 H       -1.9670     2.9880     2.6210 H     1 <1>   0.1500 
 30 H       -3.2170     1.0490     1.8180 H     1 <1>   0.0800 
 31 H       -2.4340     0.3480     0.4200 H     1 <1>   0.0800 
 32 H        0.3160     6.1170    -1.2850 H     1 <1>   0.1500 
 33 H       -3.9870     1.4880    -0.9650 H     1 <1>   0.4500 
 34 H       -0.7570     4.9940     3.3840 H     1 <1>   0.1500 
 35 H        1.1120     7.5510     0.5450 H     1 <1>   0.1500 
 36 H       -4.6150     3.3120     0.5130 H     1 <1>   0.0800 
 37 H       -5.5360     2.1770     1.4620 H     1 <1>   0.0800 
 38 H       -5.3670    -0.2830     0.9530 H     1 <1>   0.0800 
 39 H       -4.3570    -0.8160    -0.3730 H     1 <1>   0.0800 
 40 H        0.5740     6.9890     2.8700 H     1 <1>   0.1500 
 41 H       -6.7660    -0.8380    -0.9560 H     1 <1>   0.0800 
 42 H       -5.8440     0.1930    -1.9960 H     1 <1>   0.0800 
 43 H       -7.9130     1.3550    -1.3680 H     1 <1>   0.0800 
 44 H       -7.6320     1.0210     0.3090 H     1 <1>   0.0800 
 45 H       -5.9250     2.4720    -2.6260 H     1 <1>   0.0800 
 46 H       -5.0210     3.6820    -1.7540 H     1 <1>   0.0800 
 47 H       -7.7930     3.8960    -2.8060 H     1 <1>   0.0800 
 48 H       -6.5830     5.1570    -2.5840 H     1 <1>   0.0800 
 49 H       -8.7670     6.3590    -1.0670 H     1 <1>   0.1500 
 50 H       -8.5540     3.9670     3.6860 H     1 <1>   0.0800 
 51 H       -9.9990     4.7730     3.1190 H     1 <1>   0.0800 
 52 H       -8.5840     5.7110     3.5400 H     1 <1>   0.0800 
@<TRIPOS>BOND
  1   1   2  2   
  2   2   3  am  
  3   2   4  1   
  4   3   5  1   
  5   3  28  1   
  6   4   6  2   
  7   4   7  1   
  8   5   8  ar  
  9   5   9  ar  
 10   6   8  1   
 11   6  29  1   
 12   7  10  1   
 13   7  30  1   
 14   7  31  1   
 15   8  11  ar  
 16   9  12  ar  
 17   9  32  1   
 18  10  13  1   
 19  10  14  1   
 20  10  33  1   
 21  11  15  ar  
 22  11  34  1   
 23  12  15  ar  
 24  12  35  1   
 25  13  16  1   
 26  13  36  1   
 27  13  37  1   
 28  14  17  1   
 29  14  38  1   
 30  14  39  1   
 31  15  40  1   
 32  16  18  1   
 33  16  19  1   
 34  16  20  1   
 35  17  19  1   
 36  17  41  1   
 37  17  42  1   
 38  18  21  ar  
 39  18  22  ar  
 40  19  43  1   
 41  19  44  1   
 42  20  23  1   
 43  20  45  1   
 44  20  46  1   
 45  21  24  ar  
 46  22  23  1   
 47  22  25  ar  
 48  23  47  1   
 49  23  48  1   
 50  24  26  ar  
 51  24  27  1   
 52  25  26  ar  
 53  25  49  1   
 54  27  50  1   
 55  27  51  1   
 56  27  52  1   
@<TRIPOS>SUBSTRUCTURE
  1 ****  13 GROUP 4 **** **** 0

# MOE 2024.06 (io_trps.svl 2023.06)
