@<TRIPOS>MOLECULE
NONAME
50 54 1 0 0 
SMALL
USER_CHARGES


@<TRIPOS>ATOM
  1 S        0.0580     0.0240     1.7320 S.3   1 <1>  -0.0800 
  2 C        1.4320    -0.0280     0.6180 C.2   1 <1>  -0.0450 
  3 C       -0.1440    -1.7300     1.6530 C.ar  1 <1>   0.0400 
  4 C        2.1560     1.1310     0.1870 C.2   1 <1>   0.7150 
  5 C        1.6810    -1.3020     0.2460 C.2   1 <1>  -0.1810 
  6 C        0.8040    -2.2880     0.8060 C.ar  1 <1>   0.0000 
  7 C       -1.0920    -2.4790     2.3220 C.ar  1 <1>  -0.1500 
  8 O        1.8720     2.2740     0.4780 O.2   1 <1>  -0.5700 
  9 N        3.2460     0.9100    -0.5950 N.am  1 <1>  -0.7300 
 10 C        2.8180    -1.5920    -0.7270 C.3   1 <1>   0.0210 
 11 C        0.7750    -3.6670     0.6230 C.ar  1 <1>  -0.1500 
 12 C       -1.0930    -3.8470     2.1240 C.ar  1 <1>  -0.1500 
 13 C        3.8560    -0.4420    -0.7850 C.3   1 <1>   0.1400 
 14 C       -0.1700    -4.4640     1.2640 C.ar  1 <1>   0.0860 
 15 C       -0.1850    -5.8970     1.0430 C.2   1 <1>   0.5440 
 16 O        0.8500    -6.5280     1.1330 O.2   1 <1>  -0.5700 
 17 N       -1.3410    -6.5650     0.7070 N.am  1 <1>  -0.6600 
 18 C       -2.5630    -5.9250     0.1580 C.3   1 <1>   0.1400 
 19 C       -1.3620    -8.0290     0.4550 C.3   1 <1>   0.1400 
 20 C       -3.2900    -7.0410    -0.5930 C.3   1 <1>   0.2000 
 21 C       -2.8000    -8.3420     0.0370 C.3   1 <1>  -0.0800 
 22 O       -4.6650    -6.9340    -0.4580 O.3   1 <1>  -0.6800 
 23 C       -2.9330    -9.5470    -0.9100 C.3   1 <1>  -0.0170 
 24 C       -2.4920   -10.8380    -0.2410 C.ar  1 <1>   0.1670 
 25 N       -1.1940   -11.0940    -0.2570 N.ar  1 <1>  -0.6200 
 26 C       -3.4390   -11.6670     0.3430 C.ar  1 <1>  -0.1500 
 27 C       -0.8230   -12.2180     0.3350 C.ar  1 <1>   0.1600 
 28 C       -3.0390   -12.8350     0.9550 C.ar  1 <1>  -0.1500 
 29 C       -1.6890   -13.1090     0.9460 C.ar  1 <1>  -0.1500 
 30 H       -1.7980    -2.0000     2.9760 H     1 <1>   0.1500 
 31 H        3.7990     1.7360    -0.8320 H     1 <1>   0.3700 
 32 H        2.4010    -1.7410    -1.7070 H     1 <1>   0.0800 
 33 H        3.3220    -2.4980    -0.4450 H     1 <1>   0.0800 
 34 H        1.4960    -4.1350    -0.0230 H     1 <1>   0.1500 
 35 H       -1.8090    -4.4600     2.6420 H     1 <1>   0.1500 
 36 H        4.3740    -0.4730    -1.7280 H     1 <1>   0.0800 
 37 H        4.5810    -0.5910    -0.0020 H     1 <1>   0.0800 
 38 H       -3.1660    -5.5590     0.9690 H     1 <1>   0.0800 
 39 H       -2.3040    -5.1210    -0.5090 H     1 <1>   0.0800 
 40 H       -0.6710    -8.2600    -0.3390 H     1 <1>   0.0800 
 41 H       -1.0760    -8.5750     1.3380 H     1 <1>   0.0800 
 42 H       -3.0440    -6.9950    -1.6410 H     1 <1>   0.0800 
 43 H       -3.3550    -8.5360     0.9380 H     1 <1>   0.0800 
 44 H       -4.9220    -7.0190     0.4800 H     1 <1>   0.4000 
 45 H       -2.3390    -9.3900    -1.7930 H     1 <1>   0.0800 
 46 H       -3.9580    -9.6400    -1.2240 H     1 <1>   0.0800 
 47 H       -4.4810   -11.4030     0.3210 H     1 <1>   0.1500 
 48 H        0.2310   -12.4410     0.3330 H     1 <1>   0.1500 
 49 H       -3.7470   -13.5010     1.4180 H     1 <1>   0.1500 
 50 H       -1.3080   -14.0020     1.4060 H     1 <1>   0.1500 
@<TRIPOS>BOND
  1   1   2  1   
  2   1   3  1   
  3   2   4  1   
  4   2   5  2   
  5   3   6  ar  
  6   3   7  ar  
  7   4   8  2   
  8   4   9  am  
  9   5   6  1   
 10   5  10  1   
 11   6  11  ar  
 12   7  12  ar  
 13   7  30  1   
 14   9  13  1   
 15   9  31  1   
 16  10  13  1   
 17  10  32  1   
 18  10  33  1   
 19  11  14  ar  
 20  11  34  1   
 21  12  14  ar  
 22  12  35  1   
 23  13  36  1   
 24  13  37  1   
 25  14  15  1   
 26  15  16  2   
 27  15  17  am  
 28  17  18  1   
 29  17  19  1   
 30  18  20  1   
 31  18  38  1   
 32  18  39  1   
 33  19  21  1   
 34  19  40  1   
 35  19  41  1   
 36  20  21  1   
 37  20  22  1   
 38  20  42  1   
 39  21  23  1   
 40  21  43  1   
 41  22  44  1   
 42  23  24  1   
 43  23  45  1   
 44  23  46  1   
 45  24  25  ar  
 46  24  26  ar  
 47  25  27  ar  
 48  26  28  ar  
 49  26  47  1   
 50  27  29  ar  
 51  27  48  1   
 52  28  29  ar  
 53  28  49  1   
 54  29  50  1   
@<TRIPOS>SUBSTRUCTURE
  1 ****  15 GROUP 4 **** **** 0

# MOE 2024.06 (io_trps.svl 2023.06)
