@<TRIPOS>MOLECULE
NONAME
44 45 1 0 0 
SMALL
USER_CHARGES


@<TRIPOS>ATOM
  1 S        0.5790    -0.1470    -1.0010 S.o2  1 <1>   1.3330 
  2 O        0.3720    -1.1490     0.0210 O.2   1 <1>  -0.6500 
  3 O       -0.0630    -0.2970    -2.2860 O.2   1 <1>  -0.6500 
  4 N        0.0930     1.3500    -0.3620 N.am  1 <1>  -0.8490 
  5 C        2.3460     0.0350    -1.2460 C.3   1 <1>  -0.0550 
  6 C        0.1400     2.4430    -1.3410 C.3   1 <1>   0.1160 
  7 C       -1.2450     1.2720     0.2300 C.3   1 <1>   0.1160 
  8 C        3.1090     0.4260     0.0320 C.3   1 <1>  -0.0800 
  9 C        4.5300     0.8930    -0.2710 C.3   1 <1>   0.2200 
 10 C        3.2970    -0.7140     1.0320 C.3   1 <1>   0.1200 
 11 N        4.6470     2.3210     0.0950 N.am  1 <1>  -0.7300 
 12 C        5.4000     0.0080     0.6210 C.3   1 <1>   0.1200 
 13 O        4.5470    -0.4910     1.5990 O.3   1 <1>  -0.5600 
 14 C        4.1690     3.3500    -0.6670 C.2   1 <1>   0.5440 
 15 O        3.7880     3.0960    -1.7980 O.2   1 <1>  -0.5700 
 16 C        4.0810     4.6850    -0.1180 C.ar  1 <1>   0.0860 
 17 C        4.4810     5.8150    -0.8540 C.ar  1 <1>   0.1000 
 18 C        3.5820     4.8770     1.1730 C.ar  1 <1>  -0.1500 
 19 N        4.9700     5.7040    -2.1450 N.pl3 1 <1>  -0.9000 
 20 C        4.3890     7.0810    -0.2850 C.ar  1 <1>  -0.1500 
 21 C        3.4940     6.1420     1.7170 C.ar  1 <1>   0.0820 
 22 C        3.8980     7.2490     0.9930 C.ar  1 <1>  -0.1500 
 23 O        3.0090     6.3190     2.9600 O.3   1 <1>  -0.5330 
 24 H        2.7470    -0.8780    -1.6390 H     1 <1>   0.0800 
 25 H        2.5060     0.7970    -1.9840 H     1 <1>   0.0800 
 26 H       -0.1410     3.3710    -0.8730 H     1 <1>   0.0800 
 27 H       -0.5320     2.2470    -2.1610 H     1 <1>   0.0800 
 28 H        1.1370     2.5570    -1.7310 H     1 <1>   0.0800 
 29 H       -1.5210     2.2210     0.6550 H     1 <1>   0.0800 
 30 H       -1.2570     0.5340     1.0150 H     1 <1>   0.0800 
 31 H       -1.9690     0.9930    -0.5180 H     1 <1>   0.0800 
 32 H        2.5700     1.2090     0.5350 H     1 <1>   0.0800 
 33 H        4.8030     0.7620    -1.3050 H     1 <1>   0.0800 
 34 H        3.3170    -1.6760     0.5480 H     1 <1>   0.0800 
 35 H        2.5480    -0.7100     1.8060 H     1 <1>   0.0800 
 36 H        4.9430     2.4970     1.0570 H     1 <1>   0.3700 
 37 H        6.2100     0.5420     1.0850 H     1 <1>   0.0800 
 38 H        5.7830    -0.8300     0.0640 H     1 <1>   0.0800 
 39 H        3.2560     4.0260     1.7420 H     1 <1>   0.1500 
 40 H        4.7450     4.8130    -2.6170 H     1 <1>   0.4000 
 41 H        4.8630     6.5070    -2.7700 H     1 <1>   0.4000 
 42 H        4.7080     7.9370    -0.8510 H     1 <1>   0.1500 
 43 H        3.8260     8.2270     1.4360 H     1 <1>   0.1500 
 44 H        2.7350     5.4890     3.3870 H     1 <1>   0.4500 
@<TRIPOS>BOND
  1   1   2  2   
  2   1   3  2   
  3   1   4  am  
  4   1   5  1   
  5   4   6  1   
  6   4   7  1   
  7   5   8  1   
  8   5  24  1   
  9   5  25  1   
 10   6  26  1   
 11   6  27  1   
 12   6  28  1   
 13   7  29  1   
 14   7  30  1   
 15   7  31  1   
 16   8   9  1   
 17   8  10  1   
 18   8  32  1   
 19   9  11  1   
 20   9  12  1   
 21   9  33  1   
 22  10  13  1   
 23  10  34  1   
 24  10  35  1   
 25  11  14  am  
 26  11  36  1   
 27  12  13  1   
 28  12  37  1   
 29  12  38  1   
 30  14  15  2   
 31  14  16  1   
 32  16  17  ar  
 33  16  18  ar  
 34  17  19  1   
 35  17  20  ar  
 36  18  21  ar  
 37  18  39  1   
 38  19  40  1   
 39  19  41  1   
 40  20  22  ar  
 41  20  42  1   
 42  21  22  ar  
 43  21  23  1   
 44  22  43  1   
 45  23  44  1   
@<TRIPOS>SUBSTRUCTURE
  1 ****  14 GROUP 4 **** **** 0

# MOE 2024.06 (io_trps.svl 2023.06)
