@<TRIPOS>MOLECULE
NONAME
55 58 1 0 0 
SMALL
USER_CHARGES


@<TRIPOS>ATOM
  1 O       -2.2140     3.0360     0.4890 O.2   1 <1>  -0.5700 
  2 C       -2.1000     2.0830    -0.2560 C.2   1 <1>   0.7160 
  3 N       -3.0920     1.1270    -0.2840 N.am  1 <1>  -0.6600 
  4 C       -0.9350     1.9580    -1.0830 C.2   1 <1>  -0.0860 
  5 C       -4.3380     1.2420     0.5380 C.3   1 <1>   0.1400 
  6 C       -2.9590    -0.2000    -0.9600 C.3   1 <1>   0.1400 
  7 C        0.3740     1.7380    -0.6660 C.2   1 <1>   0.2350 
  8 C       -0.8040     2.0110    -2.4220 C.2   1 <1>  -0.0400 
  9 C       -4.5120     0.0150     1.4530 C.3   1 <1>   0.2950 
 10 C       -3.2090    -1.3530     0.0370 C.3   1 <1>   0.2000 
 11 N        1.1380     1.6730    -1.7070 N.2   1 <1>  -0.4100 
 12 C        0.8440     1.5920     0.6980 C.ar  1 <1>   0.0540 
 13 O        0.4360     1.8380    -2.8020 O.3   1 <1>  -0.0190 
 14 C       -1.8570     2.2430    -3.4870 C.3   1 <1>  -0.0600 
 15 O       -4.4280    -1.1610     0.6910 O.3   1 <1>  -0.5600 
 16 C       -5.8670     0.0600     2.1820 C.3   1 <1>  -0.1950 
 17 C       -3.2790    -2.7270    -0.6400 C.3   1 <1>  -0.1600 
 18 C        2.0520     2.1690     1.0890 C.ar  1 <1>  -0.1500 
 19 C        0.1360     0.8730     1.6610 C.ar  1 <1>  -0.1500 
 20 C       -6.5400    -1.1700     2.7060 C.3   1 <1>  -0.2000 
 21 C       -7.1370    -0.4180     1.5500 C.3   1 <1>  -0.2000 
 22 C       -1.9500    -3.1480    -1.2890 C.3   1 <1>  -0.1600 
 23 C        2.5280     2.0460     2.3820 C.ar  1 <1>  -0.1500 
 24 C        0.6040     0.7460     2.9560 C.ar  1 <1>  -0.1500 
 25 C       -2.0460    -4.5650    -1.8650 C.3   1 <1>  -0.1600 
 26 C        1.8030     1.3340     3.3200 C.ar  1 <1>  -0.1500 
 27 C       -0.7250    -4.9850    -2.5160 C.3   1 <1>  -0.2400 
 28 H       -4.3190     2.1310     1.1430 H     1 <1>   0.0800 
 29 H       -5.1880     1.3120    -0.1180 H     1 <1>   0.0800 
 30 H       -3.6770    -0.2620    -1.7580 H     1 <1>   0.0800 
 31 H       -1.9790    -0.3130    -1.3870 H     1 <1>   0.0800 
 32 H       -3.7240    -0.0040     2.1850 H     1 <1>   0.0800 
 33 H       -2.4310    -1.3670     0.7820 H     1 <1>   0.0800 
 34 H       -2.8240     2.3860    -3.0420 H     1 <1>   0.0800 
 35 H       -1.8980     1.3980    -4.1500 H     1 <1>   0.0800 
 36 H       -1.6060     3.1190    -4.0580 H     1 <1>   0.0800 
 37 H       -5.9410     0.9360     2.8040 H     1 <1>   0.1000 
 38 H       -3.5430    -3.4540     0.1090 H     1 <1>   0.0800 
 39 H       -4.0570    -2.7160    -1.3830 H     1 <1>   0.0800 
 40 H        2.6220     2.7240     0.3640 H     1 <1>   0.1500 
 41 H       -0.7920     0.4030     1.4000 H     1 <1>   0.1500 
 42 H       -6.1010    -2.1340     2.5130 H     1 <1>   0.1000 
 43 H       -7.0340    -1.1270     3.6620 H     1 <1>   0.1000 
 44 H       -8.0430     0.1420     1.7090 H     1 <1>   0.1000 
 45 H       -7.1010    -0.8770     0.5760 H     1 <1>   0.1000 
 46 H       -1.6940    -2.4680    -2.0830 H     1 <1>   0.0800 
 47 H       -1.1650    -3.1170    -0.5530 H     1 <1>   0.0800 
 48 H        3.4620     2.5040     2.6570 H     1 <1>   0.1500 
 49 H        0.0390     0.1900     3.6840 H     1 <1>   0.1500 
 50 H       -2.2890    -5.2600    -1.0790 H     1 <1>   0.0800 
 51 H       -2.8320    -4.6060    -2.6000 H     1 <1>   0.0800 
 52 H        2.1700     1.2380     4.3270 H     1 <1>   0.1500 
 53 H        0.0720    -4.9730    -1.7940 H     1 <1>   0.0800 
 54 H       -0.4730    -4.3180    -3.3220 H     1 <1>   0.0800 
 55 H       -0.8110    -5.9820    -2.9130 H     1 <1>   0.0800 
@<TRIPOS>BOND
  1   1   2  2   
  2   2   3  am  
  3   2   4  1   
  4   3   5  1   
  5   3   6  1   
  6   4   7  1   
  7   4   8  2   
  8   5   9  1   
  9   5  28  1   
 10   5  29  1   
 11   6  10  1   
 12   6  30  1   
 13   6  31  1   
 14   7  11  2   
 15   7  12  1   
 16   8  13  1   
 17   8  14  1   
 18   9  15  1   
 19   9  16  1   
 20   9  32  1   
 21  10  15  1   
 22  10  17  1   
 23  10  33  1   
 24  11  13  1   
 25  12  18  ar  
 26  12  19  ar  
 27  14  34  1   
 28  14  35  1   
 29  14  36  1   
 30  16  20  1   
 31  16  21  1   
 32  16  37  1   
 33  17  22  1   
 34  17  38  1   
 35  17  39  1   
 36  18  23  ar  
 37  18  40  1   
 38  19  24  ar  
 39  19  41  1   
 40  20  21  1   
 41  20  42  1   
 42  20  43  1   
 43  21  44  1   
 44  21  45  1   
 45  22  25  1   
 46  22  46  1   
 47  22  47  1   
 48  23  26  ar  
 49  23  48  1   
 50  24  26  ar  
 51  24  49  1   
 52  25  27  1   
 53  25  50  1   
 54  25  51  1   
 55  26  52  1   
 56  27  53  1   
 57  27  54  1   
 58  27  55  1   
@<TRIPOS>SUBSTRUCTURE
  1 ****   3 GROUP 4 **** **** 0

# MOE 2024.06 (io_trps.svl 2023.06)
