@<TRIPOS>MOLECULE
NONAME
34 35 1 0 0 
SMALL
USER_CHARGES


@<TRIPOS>ATOM
  1 O       -1.6320    -1.5360    -1.2570 O.2   1 <1>  -0.5700 
  2 C       -1.8780    -1.3830    -0.0890 C.2   1 <1>   0.5690 
  3 N       -1.3160    -2.2000     0.8230 N.am  1 <1>  -0.8000 
  4 C       -2.8180    -0.2820     0.3690 C.3   1 <1>  -0.0190 
  5 C       -4.2800    -0.6480     0.0660 C.3   1 <1>   0.2890 
  6 C       -2.4440     1.0690    -0.2720 C.3   1 <1>  -0.0220 
  7 N       -4.6130    -1.9770     0.6450 N.pl3 1 <1>  -0.8690 
  8 C       -5.2420     0.4070     0.6440 C.3   1 <1>  -0.0220 
  9 C       -3.5040     2.1200     0.0110 C.2   1 <1>  -0.2880 
 10 C       -5.4540    -2.8460    -0.0370 C.ar  1 <1>   0.4100 
 11 C       -4.7380     1.8280     0.4270 C.2   1 <1>  -0.2880 
 12 N       -6.4940    -2.3000    -0.6490 N.ar  1 <1>  -0.6200 
 13 C       -5.1920    -4.2440    -0.0600 C.ar  1 <1>   0.3930 
 14 C       -7.2440    -3.2000    -1.2670 C.ar  1 <1>   0.1600 
 15 O       -4.0820    -4.6890     0.5960 O.3   1 <1>  -0.3620 
 16 N       -5.9520    -5.1340    -0.6830 N.ar  1 <1>  -0.6200 
 17 C       -6.9860    -4.5610    -1.2840 C.ar  1 <1>   0.1600 
 18 C       -3.7410    -6.0620     0.5830 C.3   1 <1>   0.0400 
 19 H       -0.6940    -2.9420     0.4990 H     1 <1>   0.3700 
 20 H       -1.4410    -2.1180     1.8320 H     1 <1>   0.3700 
 21 H       -2.7260    -0.1690     1.4330 H     1 <1>   0.0800 
 22 H       -4.4040    -0.6830    -1.0050 H     1 <1>   0.0800 
 23 H       -1.4970     1.3940     0.1220 H     1 <1>   0.0800 
 24 H       -2.3420     0.9650    -1.3390 H     1 <1>   0.0800 
 25 H       -3.7780    -2.4820     0.9610 H     1 <1>   0.4000 
 26 H       -6.1990     0.2940     0.1690 H     1 <1>   0.0800 
 27 H       -5.3660     0.2430     1.6990 H     1 <1>   0.0800 
 28 H       -3.1650     3.1290    -0.1620 H     1 <1>   0.1500 
 29 H       -5.4820     2.5780     0.6390 H     1 <1>   0.1500 
 30 H       -8.1110    -2.8320    -1.7870 H     1 <1>   0.1500 
 31 H       -7.6590    -5.2090    -1.8160 H     1 <1>   0.1500 
 32 H       -2.8390    -6.1930     1.1510 H     1 <1>   0.0800 
 33 H       -3.5860    -6.3720    -0.4360 H     1 <1>   0.0800 
 34 H       -4.5440    -6.6240     1.0280 H     1 <1>   0.0800 
@<TRIPOS>BOND
  1   1   2  2   
  2   2   3  am  
  3   2   4  1   
  4   3  19  1   
  5   3  20  1   
  6   4   5  1   
  7   4   6  1   
  8   4  21  1   
  9   5   7  1   
 10   5   8  1   
 11   5  22  1   
 12   6   9  1   
 13   6  23  1   
 14   6  24  1   
 15   7  10  1   
 16   7  25  1   
 17   8  11  1   
 18   8  26  1   
 19   8  27  1   
 20   9  11  2   
 21   9  28  1   
 22  10  12  ar  
 23  10  13  ar  
 24  11  29  1   
 25  12  14  ar  
 26  13  15  1   
 27  13  16  ar  
 28  14  17  ar  
 29  14  30  1   
 30  15  18  1   
 31  16  17  ar  
 32  17  31  1   
 33  18  32  1   
 34  18  33  1   
 35  18  34  1   
@<TRIPOS>SUBSTRUCTURE
  1 ****   7 GROUP 4 **** **** 0

# MOE 2024.06 (io_trps.svl 2023.06)
