@<TRIPOS>MOLECULE
NONAME
45 48 1 0 0 
SMALL
USER_CHARGES


@<TRIPOS>ATOM
  1 O       -0.4040     0.3650     0.1160 O.2   1 <1>  -0.5700 
  2 C       -1.4530     0.9870     0.0220 C.2   1 <1>   0.7160 
  3 N       -2.6090     0.2340    -0.0900 N.am  1 <1>  -0.6600 
  4 C       -1.4310     2.4530     0.0240 C.2   1 <1>   0.2030 
  5 C       -3.9800     0.7650    -0.2920 C.3   1 <1>   0.1400 
  6 C       -2.6200    -1.2470    -0.0430 C.3   1 <1>   0.1400 
  7 N       -2.4700     3.2770     0.1210 N.2   1 <1>  -0.7070 
  8 C       -0.2540     3.2140    -0.0720 C.2   1 <1>  -0.1810 
  9 C       -4.8440    -0.4680    -0.5540 C.3   1 <1>   0.2000 
 10 C       -4.0940    -1.6330     0.0870 C.3   1 <1>  -0.0800 
 11 N       -1.9630     4.5200     0.0910 N.pl3 1 <1>   0.3000 
 12 C       -0.6250     4.5000    -0.0170 C.2   1 <1>  -0.3320 
 13 C        1.2030     2.7900    -0.2120 C.3   1 <1>   0.3010 
 14 O       -6.1040    -0.3430     0.0090 O.3   1 <1>  -0.6800 
 15 C       -4.4330    -2.9930    -0.5410 C.3   1 <1>   0.0210 
 16 C        0.3700     5.6390    -0.0840 C.3   1 <1>   0.0200 
 17 O        1.9860     3.9000    -0.5900 O.3   1 <1>  -0.5600 
 18 C       -3.5470    -4.0910     0.0160 C.2   1 <1>   0.1080 
 19 C        1.7830     5.0690     0.1620 C.3   1 <1>   0.1200 
 20 N       -3.4870    -4.3760     1.2790 N.2   1 <1>  -0.7070 
 21 C       -2.7050    -4.8950    -0.7450 C.2   1 <1>  -0.1500 
 22 N       -2.5950    -5.3820     1.3590 N.pl3 1 <1>   0.3000 
 23 C       -2.1070    -5.7130     0.1450 C.2   1 <1>  -0.3320 
 24 C       -1.0820    -6.8080    -0.0910 C.3   1 <1>  -0.0600 
 25 H       -4.2950     1.2770     0.6010 H     1 <1>   0.0800 
 26 H       -4.0040     1.4370    -1.1320 H     1 <1>   0.0800 
 27 H       -2.1990    -1.6290    -0.9570 H     1 <1>   0.0800 
 28 H       -2.0460    -1.6130     0.7920 H     1 <1>   0.0800 
 29 H       -4.9590    -0.6090    -1.6150 H     1 <1>   0.0800 
 30 H       -4.3140    -1.6690     1.1400 H     1 <1>   0.0800 
 31 H       -2.5510     5.3610     0.1450 H     1 <1>   0.2700 
 32 H        1.3090     2.0390    -0.9750 H     1 <1>   0.0800 
 33 H        1.5770     2.4040     0.7200 H     1 <1>   0.0800 
 34 H       -6.0320    -0.2840     0.9810 H     1 <1>   0.4000 
 35 H       -4.3110    -2.9470    -1.6080 H     1 <1>   0.0800 
 36 H       -5.4590    -3.2370    -0.3320 H     1 <1>   0.0800 
 37 H        0.1500     6.3820     0.6610 H     1 <1>   0.0800 
 38 H        0.3340     6.1020    -1.0540 H     1 <1>   0.0800 
 39 H        1.9170     4.8250     1.2020 H     1 <1>   0.0800 
 40 H        2.5320     5.7840    -0.1290 H     1 <1>   0.0800 
 41 H       -2.5770    -4.8520    -1.8120 H     1 <1>   0.1500 
 42 H       -2.3440    -5.8200     2.2540 H     1 <1>   0.2700 
 43 H       -0.8530    -6.8790    -1.1400 H     1 <1>   0.0800 
 44 H       -1.4680    -7.7560     0.2400 H     1 <1>   0.0800 
 45 H       -0.1750    -6.5900     0.4440 H     1 <1>   0.0800 
@<TRIPOS>BOND
  1   1   2  2   
  2   2   3  am  
  3   2   4  1   
  4   3   5  1   
  5   3   6  1   
  6   4   7  2   
  7   4   8  1   
  8   5   9  1   
  9   5  25  1   
 10   5  26  1   
 11   6  10  1   
 12   6  27  1   
 13   6  28  1   
 14   7  11  1   
 15   8  12  2   
 16   8  13  1   
 17   9  10  1   
 18   9  14  1   
 19   9  29  1   
 20  10  15  1   
 21  10  30  1   
 22  11  12  1   
 23  11  31  1   
 24  12  16  1   
 25  13  17  1   
 26  13  32  1   
 27  13  33  1   
 28  14  34  1   
 29  15  18  1   
 30  15  35  1   
 31  15  36  1   
 32  16  19  1   
 33  16  37  1   
 34  16  38  1   
 35  17  19  1   
 36  18  20  2   
 37  18  21  1   
 38  19  39  1   
 39  19  40  1   
 40  20  22  1   
 41  21  23  2   
 42  21  41  1   
 43  22  23  1   
 44  22  42  1   
 45  23  24  1   
 46  24  43  1   
 47  24  44  1   
 48  24  45  1   
@<TRIPOS>SUBSTRUCTURE
  1 ****   3 GROUP 4 **** **** 0

# MOE 2024.06 (io_trps.svl 2023.06)
