@<TRIPOS>MOLECULE
NONAME
46 48 1 0 0 
SMALL
USER_CHARGES


@<TRIPOS>ATOM
  1 S        0.4850     1.3010    -1.7770 S.3   1 <1>  -0.0800 
  2 C        1.0560     2.5950    -0.7320 C.2   1 <1>  -0.1400 
  3 C       -0.1460     2.4520    -2.9370 C.2   1 <1>  -0.1100 
  4 C        0.7550     3.7980    -1.2630 C.2   1 <1>  -0.1810 
  5 C        1.7600     2.1920     0.5460 C.3   1 <1>   0.5230 
  6 C        0.0760     3.7100    -2.5200 C.2   1 <1>  -0.1500 
  7 C        1.0490     5.1690    -0.6780 C.3   1 <1>  -0.0590 
  8 N        3.1530     1.8060     0.1960 N.4   1 <1>  -0.8520 
  9 C        3.2350     0.3560    -0.1170 C.3   1 <1>   0.2960 
 10 C        4.1410     2.3070     1.1900 C.3   1 <1>   0.4860 
 11 C        3.4700    -0.6360     0.9740 C.3   1 <1>  -0.2000 
 12 C        4.5300    -0.3850    -0.0620 C.3   1 <1>  -0.2000 
 13 C        4.0710     3.8210     1.2560 C.ar  1 <1>  -0.1430 
 14 C        4.4480     4.5900     0.1650 C.ar  1 <1>  -0.1500 
 15 C        3.6280     4.4510     2.4100 C.ar  1 <1>  -0.1500 
 16 C        4.3700     5.9720     0.2120 C.ar  1 <1>   0.0830 
 17 C        3.5530     5.8310     2.4650 C.ar  1 <1>  -0.1500 
 18 O        4.7400     6.6380    -0.9090 O.3   1 <1>  -0.3630 
 19 C        3.9200     6.5950     1.3720 C.ar  1 <1>  -0.1500 
 20 C        4.7310     8.0620    -0.9560 C.3   1 <1>   0.1810 
 21 C        5.1730     8.5890    -2.3170 C.2   1 <1>   0.5690 
 22 O        5.0150     9.7540    -2.5730 O.2   1 <1>  -0.5700 
 23 N        5.7380     7.7700    -3.2280 N.am  1 <1>  -0.8000 
 24 H       -0.6250     2.0610    -3.8180 H     1 <1>   0.1500 
 25 H        1.2410     1.3770     1.0230 H     1 <1>   0.0800 
 26 H        1.7600     3.0360     1.2130 H     1 <1>   0.0800 
 27 H       -0.2200     4.5970    -3.0560 H     1 <1>   0.1500 
 28 H        1.4780     5.0930     0.3030 H     1 <1>   0.0800 
 29 H        0.1390     5.7370    -0.6050 H     1 <1>   0.0800 
 30 H        1.7340     5.7010    -1.3150 H     1 <1>   0.0800 
 31 H        3.3310     2.3180    -0.6770 H     1 <1>   0.4500 
 32 H        2.5590     0.0680    -0.9080 H     1 <1>   0.1000 
 33 H        5.1370     2.0210     0.8970 H     1 <1>   0.0800 
 34 H        3.9390     1.8850     2.1610 H     1 <1>   0.0800 
 35 H        2.9520    -1.5790     0.9350 H     1 <1>   0.1000 
 36 H        3.6640    -0.3250     1.9840 H     1 <1>   0.1000 
 37 H        5.4460     0.0830     0.2500 H     1 <1>   0.1000 
 38 H        4.7070    -1.1620    -0.7870 H     1 <1>   0.1000 
 39 H        4.8110     4.1390    -0.7420 H     1 <1>   0.1500 
 40 H        3.3410     3.8830     3.2810 H     1 <1>   0.1500 
 41 H        3.2120     6.3170     3.3650 H     1 <1>   0.1500 
 42 H        3.8510     7.6640     1.4490 H     1 <1>   0.1500 
 43 H        5.4000     8.4320    -0.2010 H     1 <1>   0.0800 
 44 H        3.7310     8.4030    -0.7590 H     1 <1>   0.0800 
 45 H        6.0280     8.1370    -4.1350 H     1 <1>   0.3700 
 46 H        5.8810     6.7750    -3.0560 H     1 <1>   0.3700 
@<TRIPOS>BOND
  1   1   2  1   
  2   1   3  1   
  3   2   4  2   
  4   2   5  1   
  5   3   6  2   
  6   3  24  1   
  7   4   6  1   
  8   4   7  1   
  9   5   8  1   
 10   5  25  1   
 11   5  26  1   
 12   6  27  1   
 13   7  28  1   
 14   7  29  1   
 15   7  30  1   
 16   8   9  1   
 17   8  10  1   
 18   8  31  1   
 19   9  11  1   
 20   9  12  1   
 21   9  32  1   
 22  10  13  1   
 23  10  33  1   
 24  10  34  1   
 25  11  12  1   
 26  11  35  1   
 27  11  36  1   
 28  12  37  1   
 29  12  38  1   
 30  13  14  ar  
 31  13  15  ar  
 32  14  16  ar  
 33  14  39  1   
 34  15  17  ar  
 35  15  40  1   
 36  16  18  1   
 37  16  19  ar  
 38  17  19  ar  
 39  17  41  1   
 40  18  20  1   
 41  19  42  1   
 42  20  21  1   
 43  20  43  1   
 44  20  44  1   
 45  21  22  2   
 46  21  23  am  
 47  23  45  1   
 48  23  46  1   
@<TRIPOS>SUBSTRUCTURE
  1 ****  14 GROUP 4 **** **** 0

# MOE 2024.06 (io_trps.svl 2023.06)
