@<TRIPOS>MOLECULE
NONAME
34 35 1 0 0 
SMALL
USER_CHARGES


@<TRIPOS>ATOM
  1 N       -0.0360    -0.6120     0.8610 N.ar  1 <1>  -0.6200 
  2 C       -0.3160    -1.8460     0.4800 C.ar  1 <1>   0.7200 
  3 C        0.7310     0.0710     0.0490 C.ar  1 <1>   0.1660 
  4 N        0.0830    -2.4670    -0.6240 N.ar  1 <1>  -0.6200 
  5 N       -1.1110    -2.5230     1.3290 N.pl3 1 <1>  -0.8690 
  6 C        1.2100    -0.4710    -1.1210 C.ar  1 <1>  -0.1500 
  7 C        1.0700     1.4890     0.4560 C.3   1 <1>  -0.0970 
  8 C        0.8520    -1.7660    -1.4190 C.ar  1 <1>   0.1670 
  9 C       -0.8860    -3.9430     1.6520 C.3   1 <1>   0.4690 
 10 C        1.3330    -2.4440    -2.6840 C.3   1 <1>  -0.0960 
 11 C       -1.8270    -4.8320     0.8370 C.2   1 <1>   0.0060 
 12 C       -1.0880    -4.0990     3.1560 C.3   1 <1>  -0.2400 
 13 N       -2.0850    -4.5300    -0.4510 N.pl3 1 <1>   0.0330 
 14 N       -2.4320    -5.9100     1.2400 N.2   1 <1>  -0.5650 
 15 C       -2.9200    -5.4880    -0.8930 C.2   1 <1>  -0.3320 
 16 C       -3.1190    -6.3190     0.1550 C.2   1 <1>   0.0770 
 17 C       -3.4700    -5.5320    -2.3050 C.3   1 <1>  -0.0600 
 18 H       -1.3580    -1.9620     2.1380 H     1 <1>   0.4000 
 19 H        1.8390     0.0970    -1.7790 H     1 <1>   0.1500 
 20 H        1.5790     1.4800     1.4020 H     1 <1>   0.0800 
 21 H        0.1640     2.0600     0.5570 H     1 <1>   0.0800 
 22 H        1.7000     1.9620    -0.2740 H     1 <1>   0.0800 
 23 H        0.1290    -4.2100     1.4060 H     1 <1>   0.0800 
 24 H        1.8840    -3.3310    -2.4300 H     1 <1>   0.0800 
 25 H        1.9680    -1.7920    -3.2550 H     1 <1>   0.0800 
 26 H        0.4880    -2.7220    -3.2870 H     1 <1>   0.0800 
 27 H       -2.1040    -3.8670     3.4170 H     1 <1>   0.0800 
 28 H       -0.4120    -3.4620     3.6950 H     1 <1>   0.0800 
 29 H       -0.8950    -5.1190     3.4360 H     1 <1>   0.0800 
 30 H       -1.6870    -3.7130    -0.9330 H     1 <1>   0.2700 
 31 H       -3.7310    -7.2040     0.1870 H     1 <1>   0.1500 
 32 H       -4.0370    -4.6400    -2.5080 H     1 <1>   0.0800 
 33 H       -4.1150    -6.3840    -2.4250 H     1 <1>   0.0800 
 34 H       -2.6650    -5.6050    -3.0140 H     1 <1>   0.0800 
@<TRIPOS>BOND
  1   1   2  ar  
  2   1   3  ar  
  3   2   4  ar  
  4   2   5  1   
  5   3   6  ar  
  6   3   7  1   
  7   4   8  ar  
  8   5   9  1   
  9   5  18  1   
 10   6   8  ar  
 11   6  19  1   
 12   7  20  1   
 13   7  21  1   
 14   7  22  1   
 15   8  10  1   
 16   9  11  1   
 17   9  12  1   
 18   9  23  1   
 19  10  24  1   
 20  10  25  1   
 21  10  26  1   
 22  11  13  1   
 23  11  14  2   
 24  12  27  1   
 25  12  28  1   
 26  12  29  1   
 27  13  15  1   
 28  13  30  1   
 29  14  16  1   
 30  15  16  2   
 31  15  17  1   
 32  16  31  1   
 33  17  32  1   
 34  17  33  1   
 35  17  34  1   
@<TRIPOS>SUBSTRUCTURE
  1 ****   4 GROUP 4 **** **** 0

# MOE 2024.06 (io_trps.svl 2023.06)
