@<TRIPOS>MOLECULE
NONAME
45 47 1 0 0 
SMALL
USER_CHARGES


@<TRIPOS>ATOM
  1 O       -0.1000    -3.8220     2.3960 O.2   1 <1>  -0.5700 
  2 C        0.9370    -3.3430     1.9820 C.2   1 <1>   0.6900 
  3 N        1.0000    -2.6550     0.7800 N.am  1 <1>  -0.4690 
  4 N        2.0770    -3.4990     2.7010 N.am  1 <1>  -0.4900 
  5 C        2.2160    -2.1760     0.3070 C.2   1 <1>  -0.0410 
  6 C       -0.2470    -2.4600    -0.0290 C.3   1 <1>   0.2010 
  7 C        3.2860    -3.0350     2.2870 C.2   1 <1>   0.6160 
  8 C        3.3480    -2.3500     1.0290 C.2   1 <1>  -0.1240 
  9 C       -0.6460    -3.7080    -0.8120 C.2   1 <1>   0.5690 
 10 O        4.2480    -3.2290     3.0040 O.2   1 <1>  -0.5700 
 11 C        4.6990    -1.8390     0.5430 C.3   1 <1>  -0.1020 
 12 O       -0.6930    -3.6560    -2.0170 O.2   1 <1>  -0.5700 
 13 N       -0.9400    -4.8450    -0.1340 N.am  1 <1>  -0.7300 
 14 C       -1.2630    -6.1560    -0.7360 C.3   1 <1>   0.2200 
 15 C       -2.4990    -6.7240    -0.0590 C.3   1 <1>  -0.0800 
 16 C       -0.1870    -7.1770    -0.3630 C.3   1 <1>   0.1200 
 17 C       -1.8890    -7.3850     1.1770 C.3   1 <1>   0.1200 
 18 C       -3.2200    -7.7400    -0.9660 C.3   1 <1>  -0.0170 
 19 O       -0.6220    -7.8290     0.7960 O.3   1 <1>  -0.5600 
 20 C       -4.4620    -8.3070    -0.2960 C.ar  1 <1>  -0.1430 
 21 C       -4.4880    -9.5780     0.2420 C.ar  1 <1>  -0.1500 
 22 C       -5.6290    -7.5780    -0.1930 C.ar  1 <1>  -0.1500 
 23 C       -5.6450   -10.0440     0.8430 C.ar  1 <1>   0.1600 
 24 C       -6.7340    -8.1380     0.4280 C.ar  1 <1>   0.1600 
 25 N       -6.7700    -9.3540     0.9490 N.ar  1 <1>  -0.6200 
 26 H        2.0320    -4.0020     3.5780 H     1 <1>   0.3700 
 27 H        2.2130    -1.6710    -0.6460 H     1 <1>   0.1500 
 28 H       -1.0560    -2.1910     0.6250 H     1 <1>   0.0800 
 29 H       -0.1020    -1.6510    -0.7220 H     1 <1>   0.0800 
 30 H        5.1030    -1.1400     1.2540 H     1 <1>   0.0800 
 31 H        4.6090    -1.3500    -0.4100 H     1 <1>   0.0800 
 32 H        5.3870    -2.6610     0.4460 H     1 <1>   0.0800 
 33 H       -0.8150    -4.8480     0.8900 H     1 <1>   0.3700 
 34 H       -1.3720    -6.0580    -1.8040 H     1 <1>   0.0800 
 35 H       -3.1900    -5.9470     0.2160 H     1 <1>   0.0800 
 36 H        0.7680    -6.7160    -0.1790 H     1 <1>   0.0800 
 37 H       -0.0890    -7.9210    -1.1330 H     1 <1>   0.0800 
 38 H       -2.4610    -8.2170     1.5470 H     1 <1>   0.0800 
 39 H       -1.7560    -6.6640     1.9660 H     1 <1>   0.0800 
 40 H       -2.5540    -8.5440    -1.2270 H     1 <1>   0.0800 
 41 H       -3.5150    -7.2550    -1.8810 H     1 <1>   0.0800 
 42 H       -3.6190   -10.2090     0.2020 H     1 <1>   0.1500 
 43 H       -5.6910    -6.5810    -0.5890 H     1 <1>   0.1500 
 44 H       -5.6460   -11.0370     1.2580 H     1 <1>   0.1500 
 45 H       -7.6350    -7.5540     0.5000 H     1 <1>   0.1500 
@<TRIPOS>BOND
  1   1   2  2   
  2   2   3  am  
  3   2   4  am  
  4   3   5  1   
  5   3   6  1   
  6   4   7  am  
  7   4  26  1   
  8   5   8  2   
  9   5  27  1   
 10   6   9  1   
 11   6  28  1   
 12   6  29  1   
 13   7   8  1   
 14   7  10  2   
 15   8  11  1   
 16   9  12  2   
 17   9  13  am  
 18  11  30  1   
 19  11  31  1   
 20  11  32  1   
 21  13  14  1   
 22  13  33  1   
 23  14  15  1   
 24  14  16  1   
 25  14  34  1   
 26  15  17  1   
 27  15  18  1   
 28  15  35  1   
 29  16  19  1   
 30  16  36  1   
 31  16  37  1   
 32  17  19  1   
 33  17  38  1   
 34  17  39  1   
 35  18  20  1   
 36  18  40  1   
 37  18  41  1   
 38  20  21  ar  
 39  20  22  ar  
 40  21  23  ar  
 41  21  42  1   
 42  22  24  ar  
 43  22  43  1   
 44  23  25  ar  
 45  23  44  1   
 46  24  25  ar  
 47  24  45  1   
@<TRIPOS>SUBSTRUCTURE
  1 ****  13 GROUP 4 **** **** 0

# MOE 2024.06 (io_trps.svl 2023.06)
