@<TRIPOS>MOLECULE
NONAME
40 42 1 0 0 
SMALL
USER_CHARGES


@<TRIPOS>ATOM
  1 F       -1.4910    -0.0200     1.7520 F     1 <1>  -0.3400 
  2 C       -1.6100    -0.0760     0.4280 C.3   1 <1>   0.2600 
  3 C       -2.2870     1.2110    -0.0260 C.3   1 <1>   0.2000 
  4 C       -2.6330    -1.1730     0.1110 C.3   1 <1>   0.2090 
  5 O       -2.1520     1.3380    -1.4100 O.3   1 <1>  -0.6800 
  6 C       -3.7630     0.9660     0.3050 C.3   1 <1>   0.2090 
  7 N       -3.9890    -0.5130     0.1330 N.pl3 1 <1>  -0.8380 
  8 C       -5.2020    -1.1050     0.1270 C.ar  1 <1>   0.4610 
  9 N       -5.2970    -2.4320     0.0410 N.ar  1 <1>  -0.1790 
 10 C       -6.4210    -0.3870     0.2120 C.ar  1 <1>  -0.1500 
 11 C       -6.4790    -3.1520     0.0190 C.ar  1 <1>   0.3610 
 12 C       -7.6300    -1.0120     0.1970 C.ar  1 <1>  -0.1430 
 13 C       -7.6880    -2.4370     0.0950 C.ar  1 <1>   0.0000 
 14 C       -6.4690    -4.5580    -0.0780 C.ar  1 <1>  -0.1430 
 15 C       -8.9150    -0.1960     0.2900 C.3   1 <1>  -0.0970 
 16 C       -8.8810    -3.1710     0.0680 C.ar  1 <1>  -0.1500 
 17 C       -7.6690    -5.2460    -0.1020 C.ar  1 <1>  -0.1430 
 18 C       -5.1240    -5.2950    -0.1540 C.3   1 <1>  -0.0970 
 19 C       -8.8670    -4.5380    -0.0290 C.ar  1 <1>  -0.1500 
 20 C       -7.7670    -6.7650    -0.2060 C.3   1 <1>  -0.0970 
 21 H       -0.6240    -0.2330     0.0280 H     1 <1>   0.0800 
 22 H       -1.8740     2.0900     0.4370 H     1 <1>   0.0800 
 23 H       -2.5590    -1.9720     0.8290 H     1 <1>   0.0800 
 24 H       -2.4400    -1.5510    -0.8780 H     1 <1>   0.0800 
 25 H       -2.7790     0.7480    -1.8740 H     1 <1>   0.4000 
 26 H       -4.4010     1.5570    -0.3310 H     1 <1>   0.0800 
 27 H       -3.9430     1.2310     1.3340 H     1 <1>   0.0800 
 28 H       -4.4360    -2.9590    -0.0070 H     1 <1>   0.4570 
 29 H       -6.3720     0.6830     0.2920 H     1 <1>   0.1500 
 30 H       -8.7050     0.8560     0.3650 H     1 <1>   0.0800 
 31 H       -9.4770    -0.4850     1.1610 H     1 <1>   0.0800 
 32 H       -9.5210    -0.3530    -0.5850 H     1 <1>   0.0800 
 33 H       -9.8290    -2.6660     0.1220 H     1 <1>   0.1500 
 34 H       -5.2390    -6.3600    -0.2180 H     1 <1>   0.0800 
 35 H       -4.5380    -5.0970     0.7260 H     1 <1>   0.0800 
 36 H       -4.5770    -4.9870    -1.0280 H     1 <1>   0.0800 
 37 H       -9.8040    -5.0710    -0.0470 H     1 <1>   0.1500 
 38 H       -8.7910    -7.0930    -0.2120 H     1 <1>   0.0800 
 39 H       -7.2790    -7.2280     0.6330 H     1 <1>   0.0800 
 40 H       -7.3070    -7.1070    -1.1160 H     1 <1>   0.0800 
@<TRIPOS>BOND
  1   1   2  1   
  2   2   3  1   
  3   2   4  1   
  4   2  21  1   
  5   3   5  1   
  6   3   6  1   
  7   3  22  1   
  8   4   7  1   
  9   4  23  1   
 10   4  24  1   
 11   5  25  1   
 12   6   7  1   
 13   6  26  1   
 14   6  27  1   
 15   7   8  1   
 16   8   9  ar  
 17   8  10  ar  
 18   9  11  ar  
 19   9  28  1   
 20  10  12  ar  
 21  10  29  1   
 22  11  13  ar  
 23  11  14  ar  
 24  12  13  ar  
 25  12  15  1   
 26  13  16  ar  
 27  14  17  ar  
 28  14  18  1   
 29  15  30  1   
 30  15  31  1   
 31  15  32  1   
 32  16  19  ar  
 33  16  33  1   
 34  17  19  ar  
 35  17  20  1   
 36  18  34  1   
 37  18  35  1   
 38  18  36  1   
 39  19  37  1   
 40  20  38  1   
 41  20  39  1   
 42  20  40  1   
@<TRIPOS>SUBSTRUCTURE
  1 ****   9 GROUP 4 **** **** 0

# MOE 2024.06 (io_trps.svl 2023.06)
