@<TRIPOS>MOLECULE
NONAME
46 49 1 0 0 
SMALL
USER_CHARGES


@<TRIPOS>ATOM
  1 F       -0.4690    -0.4310    -0.6370 F     1 <1>  -0.1900 
  2 C       -0.9890    -1.5660    -0.2410 C.ar  1 <1>   0.1900 
  3 C       -0.4150    -2.7420    -0.6520 C.ar  1 <1>  -0.1500 
  4 C       -2.1130    -1.5130     0.5900 C.ar  1 <1>  -0.1500 
  5 C       -0.9930    -3.9400    -0.2130 C.ar  1 <1>   0.0000 
  6 C       -2.6810    -2.6890     1.0230 C.ar  1 <1>  -0.1500 
  7 C       -2.1140    -3.9020     0.6140 C.ar  1 <1>  -0.1520 
  8 C       -0.6960    -5.2990    -0.4160 C.2   1 <1>  -0.1500 
  9 N       -2.4730    -5.1930     0.8960 N.pl3 1 <1>   0.0330 
 10 C       -1.6130    -6.0530     0.2570 C.2   1 <1>  -0.2370 
 11 C       -1.7310    -7.4830     0.3640 C.2   1 <1>   0.7150 
 12 O       -0.7350    -8.1790     0.3800 O.2   1 <1>  -0.5700 
 13 N       -2.9710    -8.0700     0.4390 N.am  1 <1>  -0.6600 
 14 C       -4.1100    -7.6140    -0.4040 C.3   1 <1>   0.1400 
 15 C       -3.1570    -9.5030     0.7740 C.3   1 <1>   0.1400 
 16 C       -5.0440    -8.8230    -0.5500 C.3   1 <1>   0.2000 
 17 C       -4.1370   -10.0250    -0.2770 C.3   1 <1>  -0.0800 
 18 O       -6.0330    -8.7690     0.4390 O.3   1 <1>  -0.5600 
 19 C       -4.8750   -11.3060     0.1520 C.3   1 <1>   0.0200 
 20 C       -7.1880    -8.0760     0.0850 C.3   1 <1>   0.0400 
 21 C       -3.9590   -12.5150     0.2500 C.2   1 <1>  -0.0400 
 22 O       -4.4490   -13.6390     0.7040 O.3   1 <1>  -0.0190 
 23 C       -2.6650   -12.7260    -0.0440 C.2   1 <1>  -0.1500 
 24 N       -3.5560   -14.5850     0.7320 N.2   1 <1>  -0.4100 
 25 C       -2.4700   -14.0630     0.2870 C.2   1 <1>   0.1080 
 26 C       -1.1620   -14.8070     0.1470 C.3   1 <1>  -0.0590 
 27 H        0.4490    -2.7560    -1.2890 H     1 <1>   0.1500 
 28 H       -2.5090    -0.5560     0.8750 H     1 <1>   0.1500 
 29 H       -3.5450    -2.6850     1.6650 H     1 <1>   0.1500 
 30 H        0.1300    -5.6600    -1.0050 H     1 <1>   0.1500 
 31 H       -3.2290    -5.4830     1.5240 H     1 <1>   0.2700 
 32 H       -4.6200    -6.7830     0.0500 H     1 <1>   0.0800 
 33 H       -3.7350    -7.3230    -1.3700 H     1 <1>   0.0800 
 34 H       -2.2270   -10.0460     0.7570 H     1 <1>   0.0800 
 35 H       -3.5890    -9.5740     1.7580 H     1 <1>   0.0800 
 36 H       -5.5080    -8.8810    -1.5210 H     1 <1>   0.0800 
 37 H       -3.5800   -10.2280    -1.1750 H     1 <1>   0.0800 
 38 H       -5.6490   -11.5270    -0.5610 H     1 <1>   0.0800 
 39 H       -5.3450   -11.1540     1.1080 H     1 <1>   0.0800 
 40 H       -7.8530    -8.0830     0.9300 H     1 <1>   0.0800 
 41 H       -7.6590    -8.5710    -0.7470 H     1 <1>   0.0800 
 42 H       -6.9380    -7.0610    -0.1700 H     1 <1>   0.0800 
 43 H       -1.9220   -12.0600    -0.4410 H     1 <1>   0.1500 
 44 H       -0.4040   -14.3260     0.7370 H     1 <1>   0.0800 
 45 H       -0.8570   -14.8190    -0.8830 H     1 <1>   0.0800 
 46 H       -1.2770   -15.8200     0.4880 H     1 <1>   0.0800 
@<TRIPOS>BOND
  1   1   2  1   
  2   2   3  ar  
  3   2   4  ar  
  4   3   5  ar  
  5   3  27  1   
  6   4   6  ar  
  7   4  28  1   
  8   5   7  ar  
  9   5   8  1   
 10   6   7  ar  
 11   6  29  1   
 12   7   9  1   
 13   8  10  2   
 14   8  30  1   
 15   9  10  1   
 16   9  31  1   
 17  10  11  1   
 18  11  12  2   
 19  11  13  am  
 20  13  14  1   
 21  13  15  1   
 22  14  16  1   
 23  14  32  1   
 24  14  33  1   
 25  15  17  1   
 26  15  34  1   
 27  15  35  1   
 28  16  17  1   
 29  16  18  1   
 30  16  36  1   
 31  17  19  1   
 32  17  37  1   
 33  18  20  1   
 34  19  21  1   
 35  19  38  1   
 36  19  39  1   
 37  20  40  1   
 38  20  41  1   
 39  20  42  1   
 40  21  22  1   
 41  21  23  2   
 42  22  24  1   
 43  23  25  1   
 44  23  43  1   
 45  24  25  2   
 46  25  26  1   
 47  26  44  1   
 48  26  45  1   
 49  26  46  1   
@<TRIPOS>SUBSTRUCTURE
  1 ****  13 GROUP 4 **** **** 0

# MOE 2024.06 (io_trps.svl 2023.06)
