@<TRIPOS>MOLECULE
NONAME
49 52 1 0 0 
SMALL
USER_CHARGES


@<TRIPOS>ATOM
  1 O        3.4580    -1.7050     2.0460 O.2   1 <1>  -0.5700 
  2 C        2.7870    -1.5590     1.0430 C.2   1 <1>   0.5440 
  3 N        2.8550    -0.3300     0.4290 N.am  1 <1>  -0.6600 
  4 C        2.0680    -2.6760     0.4660 C.ar  1 <1>   0.0860 
  5 C        3.1630     0.8910     1.2670 C.3   1 <1>   0.2200 
  6 C        3.0190    -0.2510    -1.0520 C.3   1 <1>   0.1400 
  7 C        0.7360    -2.5790    -0.0180 C.ar  1 <1>   0.0000 
  8 C        2.6790    -3.8930     0.3320 C.ar  1 <1>  -0.1500 
  9 C        2.6170     2.1950     0.6630 C.3   1 <1>   0.1200 
 10 C        4.6830     1.0120     1.5370 C.3   1 <1>   0.3430 
 11 C        4.0870     0.7630    -1.5070 C.3   1 <1>  -0.0800 
 12 C        0.1910    -3.7020    -0.6850 C.ar  1 <1>   0.3100 
 13 C       -0.0830    -1.4380     0.1370 C.ar  1 <1>  -0.1500 
 14 C        2.0450    -4.9500    -0.3200 C.ar  1 <1>   0.3920 
 15 O        3.5370     2.7450    -0.2320 O.3   1 <1>  -0.5600 
 16 N        5.4910     0.1700     0.5890 N.4   1 <1>  -0.9590 
 17 C        3.5430     2.2010    -1.5090 C.3   1 <1>   0.1200 
 18 C        5.4770     0.6590    -0.8310 C.3   1 <1>   0.3430 
 19 N        0.8530    -4.8700    -0.8370 N.ar  1 <1>  -0.6200 
 20 C       -1.1070    -3.6130    -1.2110 C.ar  1 <1>  -0.1500 
 21 C       -1.3490    -1.3870    -0.3810 C.ar  1 <1>  -0.1500 
 22 O        2.7460    -6.0940    -0.4150 O.3   1 <1>  -0.3620 
 23 C        6.8740    -0.0340     1.1010 C.3   1 <1>   0.2630 
 24 C       -1.8670    -2.4840    -1.0710 C.ar  1 <1>  -0.1500 
 25 C        2.1950    -7.2370    -1.0400 C.3   1 <1>   0.0400 
 26 H        2.6710     0.7660     2.2170 H     1 <1>   0.0800 
 27 H        3.2940    -1.2230    -1.4270 H     1 <1>   0.0800 
 28 H        2.0680     0.0000    -1.4940 H     1 <1>   0.0800 
 29 H        3.6680    -4.0650     0.7150 H     1 <1>   0.1500 
 30 H        2.4890     2.9190     1.4490 H     1 <1>   0.0800 
 31 H        1.6640     2.0500     0.1820 H     1 <1>   0.0800 
 32 H        4.8590     0.6720     2.5440 H     1 <1>   0.0800 
 33 H        4.9860     2.0440     1.4800 H     1 <1>   0.0800 
 34 H        4.2550     0.5500    -2.5470 H     1 <1>   0.0800 
 35 H        0.2860    -0.5880     0.6800 H     1 <1>   0.1500 
 36 H        4.9860    -0.7340     0.6180 H     1 <1>   0.4500 
 37 H        2.5460     2.2530    -1.9160 H     1 <1>   0.0800 
 38 H        4.1780     2.8310    -2.1100 H     1 <1>   0.0800 
 39 H        5.9520     1.6250    -0.8780 H     1 <1>   0.0800 
 40 H        6.0740    -0.0190    -1.4200 H     1 <1>   0.0800 
 41 H       -1.4910    -4.4720    -1.7300 H     1 <1>   0.1500 
 42 H       -1.9630    -0.5100    -0.2610 H     1 <1>   0.1500 
 43 H        7.4040     0.9040     1.1350 H     1 <1>   0.0800 
 44 H        7.4130    -0.7140     0.4610 H     1 <1>   0.0800 
 45 H        6.8440    -0.4520     2.0950 H     1 <1>   0.0800 
 46 H       -2.8620    -2.4320    -1.4790 H     1 <1>   0.1500 
 47 H        2.9190    -8.0300    -0.9950 H     1 <1>   0.0800 
 48 H        1.9700    -6.9980    -2.0650 H     1 <1>   0.0800 
 49 H        1.2990    -7.5220    -0.5160 H     1 <1>   0.0800 
@<TRIPOS>BOND
  1   1   2  2   
  2   2   3  am  
  3   2   4  1   
  4   3   5  1   
  5   3   6  1   
  6   4   7  ar  
  7   4   8  ar  
  8   5   9  1   
  9   5  10  1   
 10   5  26  1   
 11   6  11  1   
 12   6  27  1   
 13   6  28  1   
 14   7  12  ar  
 15   7  13  ar  
 16   8  14  ar  
 17   8  29  1   
 18   9  15  1   
 19   9  30  1   
 20   9  31  1   
 21  10  16  1   
 22  10  32  1   
 23  10  33  1   
 24  11  17  1   
 25  11  18  1   
 26  11  34  1   
 27  12  19  ar  
 28  12  20  ar  
 29  13  21  ar  
 30  13  35  1   
 31  14  19  ar  
 32  14  22  1   
 33  15  17  1   
 34  16  18  1   
 35  16  23  1   
 36  16  36  1   
 37  17  37  1   
 38  17  38  1   
 39  18  39  1   
 40  18  40  1   
 41  20  24  ar  
 42  20  41  1   
 43  21  24  ar  
 44  21  42  1   
 45  22  25  1   
 46  23  43  1   
 47  23  44  1   
 48  23  45  1   
 49  24  46  1   
 50  25  47  1   
 51  25  48  1   
 52  25  49  1   
@<TRIPOS>SUBSTRUCTURE
  1 ****   2 GROUP 4 **** **** 0

# MOE 2024.06 (io_trps.svl 2023.06)
