@<TRIPOS>MOLECULE
NONAME
47 49 1 0 0 
SMALL
USER_CHARGES


@<TRIPOS>ATOM
  1 O       -1.1300     0.6230    -0.7120 O.2   1 <1>  -0.5700 
  2 C       -0.8110     1.7800    -0.8570 C.2   1 <1>   0.5690 
  3 N       -0.9750     2.7140     0.1320 N.am  1 <1>  -0.6600 
  4 C       -0.2180     2.1980    -2.2060 C.3   1 <1>   0.1810 
  5 C       -0.5750     4.1430    -0.0820 C.3   1 <1>   0.3640 
  6 C       -1.4220     2.3510     1.5090 C.3   1 <1>   0.0600 
  7 O        0.5380     3.3830    -2.1320 O.3   1 <1>  -0.5600 
  8 C       -1.6430     5.1240     0.4240 C.ar  1 <1>  -0.1430 
  9 C       -0.1640     4.4610    -1.5410 C.3   1 <1>   0.2610 
 10 C       -2.9950     5.0870     0.0690 C.ar  1 <1>  -0.1430 
 11 C       -1.2050     6.1150     1.2970 C.ar  1 <1>  -0.1500 
 12 C        0.6310     5.7730    -1.5910 C.2   1 <1>   0.5690 
 13 C       -3.8610     6.0370     0.5920 C.ar  1 <1>  -0.1500 
 14 C       -3.6000     4.0390    -0.8610 C.3   1 <1>  -0.0960 
 15 C       -2.0780     7.0530     1.8120 C.ar  1 <1>  -0.1500 
 16 O        0.0680     6.7310    -2.0790 O.2   1 <1>  -0.5700 
 17 N        1.9020     5.9090    -1.0760 N.am  1 <1>  -0.6600 
 18 C       -3.4110     7.0150     1.4570 C.ar  1 <1>  -0.1500 
 19 C        2.5530     7.2520    -1.0630 C.3   1 <1>   0.3200 
 20 C        2.7430     4.8310    -0.4800 C.3   1 <1>   0.0600 
 21 C        2.0000     8.0990     0.0710 C.2   1 <1>   0.0060 
 22 N        2.6590     8.4530     1.1290 N.2   1 <1>  -0.5650 
 23 N        0.7330     8.5640     0.0450 N.pl3 1 <1>   0.0330 
 24 C        1.7750     9.1940     1.8250 C.2   1 <1>   0.0770 
 25 C        0.5930     9.2740     1.1780 C.2   1 <1>  -0.3020 
 26 H       -1.0100     2.3420    -2.9180 H     1 <1>   0.0800 
 27 H        0.4300     1.4200    -2.5640 H     1 <1>   0.0800 
 28 H        0.2980     4.2900     0.5250 H     1 <1>   0.0800 
 29 H       -2.3520     2.8430     1.7370 H     1 <1>   0.0800 
 30 H       -0.6800     2.6550     2.2260 H     1 <1>   0.0800 
 31 H       -1.5690     1.2880     1.5950 H     1 <1>   0.0800 
 32 H       -1.0460     4.6190    -2.1300 H     1 <1>   0.0800 
 33 H       -0.1690     6.1730     1.5890 H     1 <1>   0.1500 
 34 H       -4.9050     6.0220     0.3300 H     1 <1>   0.1500 
 35 H       -4.5990     4.3110    -1.1480 H     1 <1>   0.0800 
 36 H       -3.6490     3.0870    -0.3630 H     1 <1>   0.0800 
 37 H       -3.0260     3.9310    -1.7600 H     1 <1>   0.0800 
 38 H       -1.7190     7.8090     2.4880 H     1 <1>   0.1500 
 39 H       -4.0970     7.7430     1.8530 H     1 <1>   0.1500 
 40 H        3.6170     7.1470    -0.9400 H     1 <1>   0.0800 
 41 H        2.3780     7.7500    -2.0010 H     1 <1>   0.0800 
 42 H        3.6580     4.7370    -1.0390 H     1 <1>   0.0800 
 43 H        2.2480     3.8780    -0.4900 H     1 <1>   0.0800 
 44 H        2.9830     5.0840     0.5390 H     1 <1>   0.0800 
 45 H        0.0430     8.3590    -0.6930 H     1 <1>   0.2700 
 46 H        2.0420     9.6390     2.7700 H     1 <1>   0.1500 
 47 H       -0.3150     9.7810     1.4500 H     1 <1>   0.1500 
@<TRIPOS>BOND
  1   1   2  2   
  2   2   3  am  
  3   2   4  1   
  4   3   5  1   
  5   3   6  1   
  6   4   7  1   
  7   4  26  1   
  8   4  27  1   
  9   5   8  1   
 10   5   9  1   
 11   5  28  1   
 12   6  29  1   
 13   6  30  1   
 14   6  31  1   
 15   7   9  1   
 16   8  10  ar  
 17   8  11  ar  
 18   9  12  1   
 19   9  32  1   
 20  10  13  ar  
 21  10  14  1   
 22  11  15  ar  
 23  11  33  1   
 24  12  16  2   
 25  12  17  am  
 26  13  18  ar  
 27  13  34  1   
 28  14  35  1   
 29  14  36  1   
 30  14  37  1   
 31  15  18  ar  
 32  15  38  1   
 33  17  19  1   
 34  17  20  1   
 35  18  39  1   
 36  19  21  1   
 37  19  40  1   
 38  19  41  1   
 39  20  42  1   
 40  20  43  1   
 41  20  44  1   
 42  21  22  2   
 43  21  23  1   
 44  22  24  1   
 45  23  25  1   
 46  23  45  1   
 47  24  25  2   
 48  24  46  1   
 49  25  47  1   
@<TRIPOS>SUBSTRUCTURE
  1 ****   5 GROUP 4 **** **** 0

# MOE 2024.06 (io_trps.svl 2023.06)
