@<TRIPOS>MOLECULE
NONAME
41 42 1 0 0 
SMALL
USER_CHARGES


@<TRIPOS>ATOM
  1 S       -0.0010    -0.2310    -0.7210 S.o2  1 <1>   1.3330 
  2 O        0.3870    -0.0170    -2.0970 O.2   1 <1>  -0.6500 
  3 O       -0.7290    -1.4270    -0.3630 O.2   1 <1>  -0.6500 
  4 N        1.4050    -0.1920     0.2320 N.am  1 <1>  -0.8490 
  5 C       -0.9330     1.2040    -0.1830 C.3   1 <1>  -0.0550 
  6 C        2.5360    -0.8600    -0.4190 C.3   1 <1>   0.1160 
  7 C        1.2130    -0.7350     1.5810 C.3   1 <1>   0.1160 
  8 C       -0.2530     2.5560    -0.4890 C.3   1 <1>  -0.0800 
  9 C       -1.1490     3.7720    -0.2440 C.3   1 <1>   0.2000 
 10 C        1.0020     2.8400     0.3480 C.3   1 <1>   0.2090 
 11 O       -1.7840     3.6190     0.9800 O.3   1 <1>  -0.6800 
 12 C       -0.1530     4.9210    -0.1130 C.3   1 <1>   0.2090 
 13 N        1.0050     4.3100     0.5880 N.pl3 1 <1>  -0.8380 
 14 C        2.1750     4.9800     0.9860 C.ar  1 <1>   0.4100 
 15 N        3.0260     4.1970     1.6420 N.ar  1 <1>  -0.6200 
 16 C        2.4620     6.3650     0.7470 C.ar  1 <1>   0.3930 
 17 C        4.1220     4.8220     2.0330 C.ar  1 <1>   0.1600 
 18 O        1.5650     7.1330     0.0630 O.3   1 <1>  -0.3630 
 19 N        3.5710     6.9720     1.1490 N.ar  1 <1>  -0.6200 
 20 C        4.3870     6.1580     1.7980 C.ar  1 <1>   0.1600 
 21 C        1.8100     8.5030    -0.1920 C.3   1 <1>   0.0400 
 22 H       -1.8820     1.1900    -0.6830 H     1 <1>   0.0800 
 23 H       -1.1290     1.1290     0.8680 H     1 <1>   0.0800 
 24 H        3.4130    -0.7980     0.2020 H     1 <1>   0.0800 
 25 H        2.7560    -0.3800    -1.3580 H     1 <1>   0.0800 
 26 H        2.3030    -1.8950    -0.6050 H     1 <1>   0.0800 
 27 H        2.1070    -0.5970     2.1650 H     1 <1>   0.0800 
 28 H        0.9820    -1.7880     1.5350 H     1 <1>   0.0800 
 29 H        0.4040    -0.2260     2.0760 H     1 <1>   0.0800 
 30 H        0.0390     2.5710    -1.5250 H     1 <1>   0.0800 
 31 H       -1.8910     3.9280    -1.0070 H     1 <1>   0.0800 
 32 H        1.8960     2.5340    -0.1720 H     1 <1>   0.0800 
 33 H        0.9580     2.3360     1.2980 H     1 <1>   0.0800 
 34 H       -1.1030     3.7540     1.6760 H     1 <1>   0.4000 
 35 H       -0.5690     5.7450     0.4420 H     1 <1>   0.0800 
 36 H        0.1560     5.2560    -1.0880 H     1 <1>   0.0800 
 37 H        4.8480     4.2380     2.5710 H     1 <1>   0.1500 
 38 H        5.3100     6.5770     2.1580 H     1 <1>   0.1500 
 39 H        0.9740     8.9010    -0.7380 H     1 <1>   0.0800 
 40 H        2.7100     8.5940    -0.7760 H     1 <1>   0.0800 
 41 H        1.9170     9.0180     0.7460 H     1 <1>   0.0800 
@<TRIPOS>BOND
  1   1   2  2   
  2   1   3  2   
  3   1   4  am  
  4   1   5  1   
  5   4   6  1   
  6   4   7  1   
  7   5   8  1   
  8   5  22  1   
  9   5  23  1   
 10   6  24  1   
 11   6  25  1   
 12   6  26  1   
 13   7  27  1   
 14   7  28  1   
 15   7  29  1   
 16   8   9  1   
 17   8  10  1   
 18   8  30  1   
 19   9  11  1   
 20   9  12  1   
 21   9  31  1   
 22  10  13  1   
 23  10  32  1   
 24  10  33  1   
 25  11  34  1   
 26  12  13  1   
 27  12  35  1   
 28  12  36  1   
 29  13  14  1   
 30  14  15  ar  
 31  14  16  ar  
 32  15  17  ar  
 33  16  18  1   
 34  16  19  ar  
 35  17  20  ar  
 36  17  37  1   
 37  18  21  1   
 38  19  20  ar  
 39  20  38  1   
 40  21  39  1   
 41  21  40  1   
 42  21  41  1   
@<TRIPOS>SUBSTRUCTURE
  1 ****  10 GROUP 4 **** **** 0

# MOE 2024.06 (io_trps.svl 2023.06)
