@<TRIPOS>MOLECULE
NONAME
51 53 1 0 0 
SMALL
USER_CHARGES


@<TRIPOS>ATOM
  1 O        1.7520     0.3590     1.8720 O.co2 1 <1>  -0.9000 
  2 C        1.9810    -0.0550     0.7300 C.2   1 <1>   0.9060 
  3 O        1.9460    -1.2690     0.4780 O.co2 1 <1>  -0.9000 
  4 C        2.3350     0.9250    -0.4070 C.3   1 <1>  -0.1060 
  5 C        3.5910     0.4040    -1.1540 C.3   1 <1>   0.2000 
  6 C        2.6890     2.3380     0.1430 C.3   1 <1>  -0.1600 
  7 C        1.1490     1.0070    -1.4070 C.3   1 <1>  -0.0160 
  8 O        3.3630    -0.8740    -1.6380 O.3   1 <1>  -0.6800 
  9 C        4.8390     0.3940    -0.2580 C.3   1 <1>   0.1400 
 10 C        3.9410     2.3260     1.0320 C.3   1 <1>   0.1400 
 11 C       -0.0060     1.9100    -0.9780 C.ar  1 <1>  -0.1440 
 12 N        5.0980     1.7740     0.2660 N.am  1 <1>  -0.6600 
 13 C       -0.2660     3.0880    -1.6640 C.ar  1 <1>  -0.1500 
 14 C       -0.8110     1.5650     0.0970 C.ar  1 <1>  -0.1500 
 15 C        6.2850     2.4240     0.0290 C.2   1 <1>   0.5690 
 16 C       -1.3130     3.9090    -1.2800 C.ar  1 <1>  -0.1500 
 17 C       -1.8560     2.3840     0.4840 C.ar  1 <1>  -0.1500 
 18 O        7.1540     1.9190    -0.6460 O.2   1 <1>  -0.5700 
 19 C        6.5190     3.8130     0.6220 C.3   1 <1>   0.0440 
 20 C       -2.1090     3.5570    -0.2050 C.ar  1 <1>  -0.1500 
 21 C        7.9020     4.4190     0.3880 C.ar  1 <1>  -0.1430 
 22 C        8.0660     5.5000    -0.4650 C.ar  1 <1>  -0.1500 
 23 C        9.0090     3.9000     1.0390 C.ar  1 <1>  -0.1500 
 24 C        9.3190     6.0580    -0.6560 C.ar  1 <1>  -0.1500 
 25 C       10.2620     4.4580     0.8480 C.ar  1 <1>  -0.1500 
 26 C       10.4230     5.5420     0.0020 C.ar  1 <1>  -0.1430 
 27 C       11.7970     6.1500    -0.2110 C.3   1 <1>  -0.0970 
 28 H        3.8020     1.0240    -2.0070 H     1 <1>   0.0800 
 29 H        1.8690     2.7090     0.7330 H     1 <1>   0.0800 
 30 H        2.8420     3.0240    -0.6700 H     1 <1>   0.0800 
 31 H        1.5170     1.3560    -2.3550 H     1 <1>   0.0800 
 32 H        0.7630     0.0160    -1.5780 H     1 <1>   0.0800 
 33 H        2.8350    -1.3430    -0.9200 H     1 <1>   0.4000 
 34 H        5.6780     0.0420    -0.8310 H     1 <1>   0.0800 
 35 H        4.6870    -0.2740     0.5730 H     1 <1>   0.0800 
 36 H        3.7730     1.7120     1.9010 H     1 <1>   0.0800 
 37 H        4.1310     3.3240     1.3770 H     1 <1>   0.0800 
 38 H        0.3480     3.3710    -2.5000 H     1 <1>   0.1500 
 39 H       -0.6190     0.6560     0.6450 H     1 <1>   0.1500 
 40 H       -1.5080     4.8190    -1.8180 H     1 <1>   0.1500 
 41 H       -2.4650     2.1030     1.3240 H     1 <1>   0.1500 
 42 H        5.7750     4.4720     0.2190 H     1 <1>   0.0800 
 43 H        6.3640     3.7510     1.6820 H     1 <1>   0.0800 
 44 H       -2.9220     4.1930     0.0980 H     1 <1>   0.1500 
 45 H        7.2220     5.9130    -0.9870 H     1 <1>   0.1500 
 46 H        8.9000     3.0520     1.6920 H     1 <1>   0.1500 
 47 H        9.4300     6.8950    -1.3220 H     1 <1>   0.1500 
 48 H       11.1100     4.0390     1.3590 H     1 <1>   0.1500 
 49 H       11.7130     7.1990    -0.4340 H     1 <1>   0.0800 
 50 H       12.2870     5.6570    -1.0310 H     1 <1>   0.0800 
 51 H       12.3980     6.0370     0.6730 H     1 <1>   0.0800 
@<TRIPOS>BOND
  1   1   2  ar  
  2   2   3  ar  
  3   2   4  1   
  4   4   5  1   
  5   4   6  1   
  6   4   7  1   
  7   5   8  1   
  8   5   9  1   
  9   5  28  1   
 10   6  10  1   
 11   6  29  1   
 12   6  30  1   
 13   7  11  1   
 14   7  31  1   
 15   7  32  1   
 16   8  33  1   
 17   9  12  1   
 18   9  34  1   
 19   9  35  1   
 20  10  12  1   
 21  10  36  1   
 22  10  37  1   
 23  11  13  ar  
 24  11  14  ar  
 25  12  15  am  
 26  13  16  ar  
 27  13  38  1   
 28  14  17  ar  
 29  14  39  1   
 30  15  18  2   
 31  15  19  1   
 32  16  20  ar  
 33  16  40  1   
 34  17  20  ar  
 35  17  41  1   
 36  19  21  1   
 37  19  42  1   
 38  19  43  1   
 39  20  44  1   
 40  21  22  ar  
 41  21  23  ar  
 42  22  24  ar  
 43  22  45  1   
 44  23  25  ar  
 45  23  46  1   
 46  24  26  ar  
 47  24  47  1   
 48  25  26  ar  
 49  25  48  1   
 50  26  27  1   
 51  27  49  1   
 52  27  50  1   
 53  27  51  1   
@<TRIPOS>SUBSTRUCTURE
  1 ****  10 GROUP 4 **** **** 0

# MOE 2024.06 (io_trps.svl 2023.06)
