@<TRIPOS>MOLECULE
NONAME
54 56 1 0 0 
SMALL
USER_CHARGES


@<TRIPOS>ATOM
  1 O       -1.7110     0.5660    -1.7940 O.2   1 <1>  -0.5700 
  2 C       -1.2710     1.4990    -1.1640 C.2   1 <1>   0.5690 
  3 N       -1.9520     2.6810    -1.0340 N.am  1 <1>  -0.6600 
  4 C        0.1110     1.3430    -0.5230 C.3   1 <1>   0.1810 
  5 C       -1.3850     3.8240    -0.2420 C.3   1 <1>   0.3640 
  6 C       -3.3480     2.8530    -1.5320 C.3   1 <1>   0.0600 
  7 O        0.3550     2.2620     0.5120 O.3   1 <1>  -0.5600 
  8 C       -1.4950     5.1270    -1.0540 C.ar  1 <1>  -0.1430 
  9 C        0.0930     3.6090     0.1660 C.3   1 <1>   0.2610 
 10 C       -2.0630     6.2920    -0.5370 C.ar  1 <1>  -0.1430 
 11 C       -0.9950     5.1430    -2.3520 C.ar  1 <1>  -0.1500 
 12 C        0.4360     4.5650     1.3230 C.2   1 <1>   0.5690 
 13 C       -2.1000     7.4400    -1.3160 C.ar  1 <1>  -0.1500 
 14 C       -2.6580     6.3670     0.8640 C.3   1 <1>  -0.0960 
 15 C       -1.0420     6.2890    -3.1230 C.ar  1 <1>  -0.1500 
 16 O       -0.2150     4.4570     2.3400 O.2   1 <1>  -0.5700 
 17 N        1.3980     5.5480     1.2110 N.am  1 <1>  -0.6600 
 18 C       -1.5930     7.4420    -2.6020 C.ar  1 <1>  -0.1500 
 19 C        2.3440     5.7450     0.0800 C.3   1 <1>   0.1400 
 20 C        1.4720     6.6580     2.2020 C.3   1 <1>   0.1400 
 21 C        1.9530     7.0210    -0.6710 C.3   1 <1>  -0.1600 
 22 C        1.0830     7.9680     1.5090 C.3   1 <1>  -0.1600 
 23 C        1.9480     8.2460     0.2630 C.3   1 <1>  -0.0800 
 24 C        1.4600     9.4890    -0.4950 C.3   1 <1>   0.1200 
 25 O        1.5540    10.5980     0.3420 O.3   1 <1>  -0.5600 
 26 C        1.1210    11.7840    -0.2410 C.3   1 <1>   0.0400 
 27 H        0.8690     1.4670    -1.2740 H     1 <1>   0.0800 
 28 H        0.1960     0.3560    -0.1060 H     1 <1>   0.0800 
 29 H       -1.9670     3.8960     0.6570 H     1 <1>   0.0800 
 30 H       -3.9840     3.1830    -0.7290 H     1 <1>   0.0800 
 31 H       -3.7340     1.9240    -1.9140 H     1 <1>   0.0800 
 32 H       -3.3700     3.5840    -2.3210 H     1 <1>   0.0800 
 33 H        0.7020     3.8300    -0.6840 H     1 <1>   0.0800 
 34 H       -0.5690     4.2500    -2.7780 H     1 <1>   0.1500 
 35 H       -2.5300     8.3460    -0.9260 H     1 <1>   0.1500 
 36 H       -3.1500     7.3090     1.0250 H     1 <1>   0.0800 
 37 H       -1.8870     6.2690     1.6050 H     1 <1>   0.0800 
 38 H       -3.3850     5.5890     1.0070 H     1 <1>   0.0800 
 39 H       -0.6540     6.2820    -4.1270 H     1 <1>   0.1500 
 40 H       -1.6330     8.3390    -3.1960 H     1 <1>   0.1500 
 41 H        3.3390     5.8540     0.4770 H     1 <1>   0.0800 
 42 H        2.3590     4.9050    -0.5870 H     1 <1>   0.0800 
 43 H        0.8120     6.4800     3.0340 H     1 <1>   0.0800 
 44 H        2.4760     6.7260     2.5850 H     1 <1>   0.0800 
 45 H        2.6480     7.1830    -1.4760 H     1 <1>   0.0800 
 46 H        0.9770     6.8860    -1.1000 H     1 <1>   0.0800 
 47 H        0.0460     7.9140     1.2270 H     1 <1>   0.0800 
 48 H        1.1880     8.7780     2.2090 H     1 <1>   0.0800 
 49 H        2.9600     8.4290     0.5810 H     1 <1>   0.0800 
 50 H        0.4330     9.3670    -0.7950 H     1 <1>   0.0800 
 51 H        2.0740     9.6650    -1.3620 H     1 <1>   0.0800 
 52 H        1.2320    12.5720     0.4830 H     1 <1>   0.0800 
 53 H        0.0850    11.6870    -0.5160 H     1 <1>   0.0800 
 54 H        1.7270    11.9970    -1.1050 H     1 <1>   0.0800 
@<TRIPOS>BOND
  1   1   2  2   
  2   2   3  am  
  3   2   4  1   
  4   3   5  1   
  5   3   6  1   
  6   4   7  1   
  7   4  27  1   
  8   4  28  1   
  9   5   8  1   
 10   5   9  1   
 11   5  29  1   
 12   6  30  1   
 13   6  31  1   
 14   6  32  1   
 15   7   9  1   
 16   8  10  ar  
 17   8  11  ar  
 18   9  12  1   
 19   9  33  1   
 20  10  13  ar  
 21  10  14  1   
 22  11  15  ar  
 23  11  34  1   
 24  12  16  2   
 25  12  17  am  
 26  13  18  ar  
 27  13  35  1   
 28  14  36  1   
 29  14  37  1   
 30  14  38  1   
 31  15  18  ar  
 32  15  39  1   
 33  17  19  1   
 34  17  20  1   
 35  18  40  1   
 36  19  21  1   
 37  19  41  1   
 38  19  42  1   
 39  20  22  1   
 40  20  43  1   
 41  20  44  1   
 42  21  23  1   
 43  21  45  1   
 44  21  46  1   
 45  22  23  1   
 46  22  47  1   
 47  22  48  1   
 48  23  24  1   
 49  23  49  1   
 50  24  25  1   
 51  24  50  1   
 52  24  51  1   
 53  25  26  1   
 54  26  52  1   
 55  26  53  1   
 56  26  54  1   
@<TRIPOS>SUBSTRUCTURE
  1 ****   8 GROUP 4 **** **** 0

# MOE 2024.06 (io_trps.svl 2023.06)
