@<TRIPOS>MOLECULE
NONAME
43 45 1 0 0 
SMALL
USER_CHARGES


@<TRIPOS>ATOM
  1 O        1.4530     0.5870    -2.3680 O.2   1 <1>  -0.5700 
  2 C        1.8700    -0.3540    -1.7050 C.2   1 <1>   0.5650 
  3 N        2.8050    -0.2020    -0.6430 N.pl3 1 <1>   0.5610 
  4 C        1.4160    -1.6770    -1.9810 C.2   1 <1>  -0.1360 
  5 N        3.4100     0.9250    -0.1330 N.2   1 <1>  -0.7070 
  6 C        3.2270    -1.3010     0.0650 C.2   1 <1>  -0.0680 
  7 C        1.8440    -2.7570    -1.2750 C.2   1 <1>  -0.0380 
  8 C        4.1580     0.5070     0.8350 C.2   1 <1>   0.1080 
  9 N        2.7500    -2.5810    -0.2550 N.pl3 1 <1>  -0.5840 
 10 C        4.0900    -0.8710     1.0110 C.2   1 <1>  -0.1500 
 11 C        1.3680    -4.1820    -1.5460 C.3   1 <1>   0.2480 
 12 C        5.0020     1.4480     1.6620 C.3   1 <1>  -0.0590 
 13 N        1.0170    -4.8860    -0.2890 N.3   1 <1>  -0.8100 
 14 C        0.7740    -6.3190    -0.5400 C.3   1 <1>   0.1100 
 15 C       -0.1380    -4.2350     0.3630 C.3   1 <1>   0.0300 
 16 C        0.9440    -7.1490     0.7420 C.3   1 <1>   0.3540 
 17 N        0.7680    -8.6020     0.4550 N.pl3 1 <1>  -0.7640 
 18 C       -0.3130    -9.3540     0.6270 C.cat 1 <1>   0.6560 
 19 C        1.7620    -9.4230    -0.0300 C.2   1 <1>   0.2000 
 20 N       -0.0580   -10.6010     0.2720 N.pl3 1 <1>  -0.7000 
 21 C       -1.6470    -8.8750     1.1510 C.3   1 <1>  -0.0960 
 22 C        1.2470   -10.6650    -0.1450 C.2   1 <1>   0.2000 
 23 H        0.7100    -1.7650    -2.7850 H     1 <1>   0.1500 
 24 H        2.9840    -3.3900     0.3380 H     1 <1>   0.4000 
 25 H        4.6180    -1.4480     1.7470 H     1 <1>   0.1500 
 26 H        2.1730    -4.7060    -2.0330 H     1 <1>   0.0800 
 27 H        0.5230    -4.1700    -2.2140 H     1 <1>   0.0800 
 28 H        5.6960     1.9620     1.0230 H     1 <1>   0.0800 
 29 H        5.5480     0.9070     2.4130 H     1 <1>   0.0800 
 30 H        4.3680     2.1720     2.1390 H     1 <1>   0.0800 
 31 H        1.4930    -6.6770    -1.2570 H     1 <1>   0.0800 
 32 H       -0.2120    -6.4580    -0.9480 H     1 <1>   0.0800 
 33 H        0.0890    -3.2060     0.5860 H     1 <1>   0.0800 
 34 H       -0.3750    -4.7200     1.2930 H     1 <1>   0.0800 
 35 H       -1.0030    -4.2640    -0.2780 H     1 <1>   0.0800 
 36 H        0.2250    -6.8360     1.4780 H     1 <1>   0.0800 
 37 H        1.9290    -6.9820     1.1430 H     1 <1>   0.0800 
 38 H        2.7600    -9.0840    -0.2590 H     1 <1>   0.1500 
 39 H       -0.7140   -11.3870     0.3050 H     1 <1>   0.4500 
 40 H       -2.0000    -8.0540     0.5560 H     1 <1>   0.0800 
 41 H       -1.5410    -8.5540     2.1710 H     1 <1>   0.0800 
 42 H       -2.3710    -9.6670     1.1110 H     1 <1>   0.0800 
 43 H        1.7210   -11.5710    -0.4890 H     1 <1>   0.1500 
@<TRIPOS>BOND
  1   1   2  2   
  2   2   3  1   
  3   2   4  1   
  4   3   5  1   
  5   3   6  1   
  6   4   7  2   
  7   4  23  1   
  8   5   8  2   
  9   6   9  1   
 10   6  10  2   
 11   7   9  1   
 12   7  11  1   
 13   8  10  1   
 14   8  12  1   
 15   9  24  1   
 16  10  25  1   
 17  11  13  1   
 18  11  26  1   
 19  11  27  1   
 20  12  28  1   
 21  12  29  1   
 22  12  30  1   
 23  13  14  1   
 24  13  15  1   
 25  14  16  1   
 26  14  31  1   
 27  14  32  1   
 28  15  33  1   
 29  15  34  1   
 30  15  35  1   
 31  16  17  1   
 32  16  36  1   
 33  16  37  1   
 34  17  18  ar  
 35  17  19  1   
 36  18  20  ar  
 37  18  21  1   
 38  19  22  2   
 39  19  38  1   
 40  20  22  1   
 41  20  39  1   
 42  21  40  1   
 43  21  41  1   
 44  21  42  1   
 45  22  43  1   
@<TRIPOS>SUBSTRUCTURE
  1 ****  13 GROUP 4 **** **** 0

# MOE 2024.06 (io_trps.svl 2023.06)
