@<TRIPOS>MOLECULE
NONAME
58 61 1 0 0 
SMALL
USER_CHARGES


@<TRIPOS>ATOM
  1 O       -1.7990    -0.6590     2.2720 O.2   1 <1>  -0.5700 
  2 C       -1.8490    -0.9990     1.1050 C.2   1 <1>   0.7150 
  3 N       -1.2180    -2.1810     0.7500 N.am  1 <1>  -0.6600 
  4 C       -2.6510    -0.2310     0.1880 C.2   1 <1>   0.0550 
  5 C       -0.9890    -3.2180     1.8190 C.3   1 <1>   0.2200 
  6 C       -0.9930    -2.5840    -0.6690 C.3   1 <1>   0.1400 
  7 O       -3.4700    -0.8320    -0.6460 O.3   1 <1>  -0.0190 
  8 C       -2.8190     1.0940    -0.0150 C.2   1 <1>  -0.1500 
  9 C        0.1400    -4.2620     1.5960 C.3   1 <1>   0.1200 
 10 C       -2.3430    -3.8780     2.1550 C.3   1 <1>   0.3430 
 11 C       -1.5640    -3.9880    -0.9300 C.3   1 <1>  -0.0800 
 12 N       -4.1400    -0.0100    -1.3860 N.2   1 <1>  -0.4100 
 13 C       -3.7690     1.1700    -1.0260 C.2   1 <1>   0.1080 
 14 O        0.4350    -4.6200     0.2750 O.3   1 <1>  -0.5600 
 15 N       -2.9330    -4.7690     1.0880 N.4   1 <1>  -0.9590 
 16 C       -0.5560    -5.0990    -0.5760 C.3   1 <1>   0.1200 
 17 C       -2.9560    -4.1790    -0.2990 C.3   1 <1>   0.3430 
 18 C       -4.3140     2.4560    -1.6370 C.3   1 <1>   0.1010 
 19 C       -4.2990    -5.2090     1.4980 C.3   1 <1>   0.4860 
 20 C       -3.1920     3.2640    -2.3010 C.3   1 <1>  -0.2400 
 21 C       -5.0320     3.3020    -0.5790 C.3   1 <1>  -0.2400 
 22 C       -4.7740    -6.3010     0.5630 C.ar  1 <1>  -0.1430 
 23 C       -4.2390    -7.5760     0.6550 C.ar  1 <1>   0.1600 
 24 C       -5.7360    -6.0530    -0.3990 C.ar  1 <1>  -0.1500 
 25 N       -4.5530    -8.5820    -0.1340 N.ar  1 <1>  -0.6200 
 26 C       -6.0870    -7.1020    -1.2210 C.ar  1 <1>  -0.1500 
 27 C       -5.4710    -8.3420    -1.0570 C.ar  1 <1>   0.3930 
 28 O       -5.7640    -9.4040    -1.8330 O.3   1 <1>  -0.3630 
 29 C       -6.8330    -9.4160    -2.7540 C.3   1 <1>   0.0400 
 30 H       -0.6980    -2.6980     2.7160 H     1 <1>   0.0800 
 31 H       -1.4450    -1.8840    -1.3470 H     1 <1>   0.0800 
 32 H        0.0640    -2.5570    -0.8830 H     1 <1>   0.0800 
 33 H       -2.3410     1.9160     0.4850 H     1 <1>   0.1500 
 34 H       -0.0590    -5.1640     2.1480 H     1 <1>   0.0800 
 35 H        1.0520    -3.8500     1.9950 H     1 <1>   0.0800 
 36 H       -3.0370    -3.0840     2.3810 H     1 <1>   0.0800 
 37 H       -2.2160    -4.4520     3.0580 H     1 <1>   0.0800 
 38 H       -1.7150    -4.0510    -1.9930 H     1 <1>   0.0800 
 39 H       -2.3510    -5.6120     1.0290 H     1 <1>   0.4500 
 40 H       -0.0470    -5.4050    -1.4750 H     1 <1>   0.0800 
 41 H       -1.0030    -5.9780    -0.1480 H     1 <1>   0.0800 
 42 H       -3.5070    -4.8420    -0.9470 H     1 <1>   0.0800 
 43 H       -3.4780    -3.2350    -0.2910 H     1 <1>   0.0800 
 44 H       -5.0300     2.1870    -2.3960 H     1 <1>   0.0800 
 45 H       -4.2800    -5.5920     2.5060 H     1 <1>   0.0800 
 46 H       -4.9830    -4.3760     1.4650 H     1 <1>   0.0800 
 47 H       -2.4640     3.5740    -1.5730 H     1 <1>   0.0800 
 48 H       -3.5960     4.1380    -2.7810 H     1 <1>   0.0800 
 49 H       -2.7010     2.6630    -3.0450 H     1 <1>   0.0800 
 50 H       -4.3490     3.6120     0.1910 H     1 <1>   0.0800 
 51 H       -5.8230     2.7290    -0.1280 H     1 <1>   0.0800 
 52 H       -5.4630     4.1780    -1.0310 H     1 <1>   0.0800 
 53 H       -3.5070    -7.7960     1.4140 H     1 <1>   0.1500 
 54 H       -6.2050    -5.0890    -0.5150 H     1 <1>   0.1500 
 55 H       -6.8300    -6.9510    -1.9790 H     1 <1>   0.1500 
 56 H       -6.8890   -10.4000    -3.1840 H     1 <1>   0.0800 
 57 H       -6.6410    -8.6930    -3.5260 H     1 <1>   0.0800 
 58 H       -7.7480    -9.1950    -2.2320 H     1 <1>   0.0800 
@<TRIPOS>BOND
  1   1   2  2   
  2   2   3  am  
  3   2   4  1   
  4   3   5  1   
  5   3   6  1   
  6   4   7  1   
  7   4   8  2   
  8   5   9  1   
  9   5  10  1   
 10   5  30  1   
 11   6  11  1   
 12   6  31  1   
 13   6  32  1   
 14   7  12  1   
 15   8  13  1   
 16   8  33  1   
 17   9  14  1   
 18   9  34  1   
 19   9  35  1   
 20  10  15  1   
 21  10  36  1   
 22  10  37  1   
 23  11  16  1   
 24  11  17  1   
 25  11  38  1   
 26  12  13  2   
 27  13  18  1   
 28  14  16  1   
 29  15  17  1   
 30  15  19  1   
 31  15  39  1   
 32  16  40  1   
 33  16  41  1   
 34  17  42  1   
 35  17  43  1   
 36  18  20  1   
 37  18  21  1   
 38  18  44  1   
 39  19  22  1   
 40  19  45  1   
 41  19  46  1   
 42  20  47  1   
 43  20  48  1   
 44  20  49  1   
 45  21  50  1   
 46  21  51  1   
 47  21  52  1   
 48  22  23  ar  
 49  22  24  ar  
 50  23  25  ar  
 51  23  53  1   
 52  24  26  ar  
 53  24  54  1   
 54  25  27  ar  
 55  26  27  ar  
 56  26  55  1   
 57  27  28  1   
 58  28  29  1   
 59  29  56  1   
 60  29  57  1   
 61  29  58  1   
@<TRIPOS>SUBSTRUCTURE
  1 ****  17 GROUP 4 **** **** 0

# MOE 2024.06 (io_trps.svl 2023.06)
