@<TRIPOS>MOLECULE
NONAME
51 54 1 0 0 
SMALL
USER_CHARGES


@<TRIPOS>ATOM
  1 O       -0.3340     0.2520    -0.9060 O.2   1 <1>  -0.5700 
  2 C       -0.7070     0.9970    -0.0190 C.2   1 <1>   0.6900 
  3 N       -2.0420     1.1100     0.2770 N.am  1 <1>  -0.6600 
  4 N        0.1830     1.7310     0.7110 N.am  1 <1>  -0.5470 
  5 C       -2.6560     2.3370     0.8710 C.3   1 <1>   0.1400 
  6 C       -3.0450     0.1900    -0.3270 C.3   1 <1>   0.1400 
  7 C        1.5420     2.0210     0.5240 C.ar  1 <1>   0.1170 
  8 C       -3.3860     3.1460    -0.2190 C.3   1 <1>   0.1430 
  9 C       -3.8240     0.9240    -1.4260 C.3   1 <1>  -0.1600 
 10 C        2.1850     1.8850    -0.7020 C.ar  1 <1>  -0.1500 
 11 C        2.2770     2.4910     1.6060 C.ar  1 <1>  -0.1500 
 12 C       -4.0660     4.3600     0.3870 C.ar  1 <1>   0.1670 
 13 C       -4.4290     2.2520    -0.9280 C.3   1 <1>  -0.1600 
 14 C       -2.3960     3.7920    -1.2270 C.3   1 <1>  -0.1600 
 15 C        3.5250     2.2010    -0.8460 C.ar  1 <1>  -0.1440 
 16 C        3.6160     2.8160     1.4770 C.ar  1 <1>  -0.1440 
 17 N       -4.8210     4.3510     1.4610 N.ar  1 <1>  -0.6200 
 18 C       -3.7960     5.4940    -0.3220 C.ar  1 <1>  -0.1440 
 19 C       -2.9030     5.2180    -1.5050 C.3   1 <1>  -0.0170 
 20 C        4.2360     2.6680     0.2470 C.ar  1 <1>  -0.1500 
 21 C        4.2120     2.0400    -2.1890 C.3   1 <1>  -0.0970 
 22 C        4.4110     3.3260     2.6660 C.3   1 <1>  -0.0970 
 23 C       -5.2900     5.5440     1.7980 C.ar  1 <1>   0.7200 
 24 C       -4.3480     6.6720     0.1200 C.ar  1 <1>   0.1600 
 25 N       -5.1090     6.7080     1.1900 N.ar  1 <1>  -0.6200 
 26 N       -6.0670     5.5740     2.8820 N.pl3 1 <1>  -0.9000 
 27 H       -0.2090     2.0430     1.5910 H     1 <1>   0.3700 
 28 H       -1.9190     2.9600     1.3430 H     1 <1>   0.0800 
 29 H       -3.3630     2.0400     1.6260 H     1 <1>   0.0800 
 30 H       -3.7210    -0.1420     0.4420 H     1 <1>   0.0800 
 31 H       -2.5610    -0.6800    -0.7390 H     1 <1>   0.0800 
 32 H       -4.6100     0.2840    -1.7850 H     1 <1>   0.0800 
 33 H       -3.1580     1.1020    -2.2520 H     1 <1>   0.0800 
 34 H        1.6330     1.5280    -1.5520 H     1 <1>   0.1500 
 35 H        1.7950     2.6000     2.5590 H     1 <1>   0.1500 
 36 H       -4.8730     2.7840    -1.7500 H     1 <1>   0.0800 
 37 H       -5.2160     2.0260    -0.2280 H     1 <1>   0.0800 
 38 H       -2.2930     3.2260    -2.1350 H     1 <1>   0.0800 
 39 H       -1.4220     3.8670    -0.7750 H     1 <1>   0.0800 
 40 H       -3.4830     5.2450    -2.4110 H     1 <1>   0.0800 
 41 H       -2.0900     5.9210    -1.5670 H     1 <1>   0.0800 
 42 H        5.2770     2.9160     0.1400 H     1 <1>   0.1500 
 43 H        3.6760     1.3410    -2.8060 H     1 <1>   0.0800 
 44 H        5.2130     1.6740    -2.0540 H     1 <1>   0.0800 
 45 H        4.2510     2.9890    -2.6940 H     1 <1>   0.0800 
 46 H        3.7560     3.6430     3.4570 H     1 <1>   0.0800 
 47 H        5.0190     4.1620     2.3720 H     1 <1>   0.0800 
 48 H        5.0500     2.5450     3.0370 H     1 <1>   0.0800 
 49 H       -4.1650     7.5920    -0.4090 H     1 <1>   0.1500 
 50 H       -6.6530     6.4000     2.9650 H     1 <1>   0.4000 
 51 H       -6.4860     4.6860     3.1400 H     1 <1>   0.4000 
@<TRIPOS>BOND
  1   1   2  2   
  2   2   3  am  
  3   2   4  am  
  4   3   5  1   
  5   3   6  1   
  6   4   7  1   
  7   4  27  1   
  8   5   8  1   
  9   5  28  1   
 10   5  29  1   
 11   6   9  1   
 12   6  30  1   
 13   6  31  1   
 14   7  10  ar  
 15   7  11  ar  
 16   8  12  1   
 17   8  13  1   
 18   8  14  1   
 19   9  13  1   
 20   9  32  1   
 21   9  33  1   
 22  10  15  ar  
 23  10  34  1   
 24  11  16  ar  
 25  11  35  1   
 26  12  17  ar  
 27  12  18  ar  
 28  13  36  1   
 29  13  37  1   
 30  14  19  1   
 31  14  38  1   
 32  14  39  1   
 33  15  20  ar  
 34  15  21  1   
 35  16  20  ar  
 36  16  22  1   
 37  17  23  ar  
 38  18  19  1   
 39  18  24  ar  
 40  19  40  1   
 41  19  41  1   
 42  20  42  1   
 43  21  43  1   
 44  21  44  1   
 45  21  45  1   
 46  22  46  1   
 47  22  47  1   
 48  22  48  1   
 49  23  25  ar  
 50  23  26  1   
 51  24  25  ar  
 52  24  49  1   
 53  26  50  1   
 54  26  51  1   
@<TRIPOS>SUBSTRUCTURE
  1 ****   5 GROUP 4 **** **** 0

# MOE 2024.06 (io_trps.svl 2023.06)
