@<TRIPOS>MOLECULE
NONAME
51 53 1 0 0 
SMALL
USER_CHARGES


@<TRIPOS>ATOM
  1 O       -0.6610     0.5060     1.6110 O.2   1 <1>  -0.5700 
  2 C       -1.4730     1.0020     0.8660 C.2   1 <1>   0.5690 
  3 N       -2.4920     0.2720     0.3290 N.am  1 <1>  -0.6600 
  4 C       -1.3460     2.4720     0.5140 C.3   1 <1>  -0.0990 
  5 C       -3.5200     0.7390    -0.6370 C.3   1 <1>   0.1400 
  6 C       -2.7370    -1.1430     0.6850 C.3   1 <1>   0.1400 
  7 C       -0.1940     3.1550     1.2630 C.3   1 <1>   0.0960 
  8 C       -4.5100    -0.4240    -0.7840 C.3   1 <1>   0.2000 
  9 C       -3.6890    -1.6590    -0.3960 C.3   1 <1>  -0.0800 
 10 N       -0.0730     4.5640     0.8340 N.pl3 1 <1>   0.0480 
 11 O       -5.5550    -0.2710     0.1350 O.3   1 <1>  -0.5600 
 12 C       -4.5290    -2.8710     0.0490 C.3   1 <1>   0.0200 
 13 C        0.8790     5.1610     0.0710 C.2   1 <1>   0.0060 
 14 C       -0.9430     5.5490     1.1260 C.2   1 <1>  -0.3020 
 15 C       -6.6330     0.4910    -0.3110 C.3   1 <1>   0.0400 
 16 C       -3.7040    -4.1310     0.2540 C.2   1 <1>  -0.0400 
 17 N        0.6630     6.4200    -0.1330 N.2   1 <1>  -0.5650 
 18 C        2.0990     4.4480    -0.4940 C.3   1 <1>   0.0200 
 19 C       -0.4800     6.6670     0.5290 C.2   1 <1>   0.0770 
 20 O       -4.2990    -5.2020     0.7080 O.3   1 <1>  -0.0190 
 21 C       -2.4100    -4.4360     0.0630 C.2   1 <1>  -0.1500 
 22 C        1.7430     3.5750    -1.7020 C.3   1 <1>  -0.2400 
 23 N       -3.4760    -6.2030     0.8330 N.2   1 <1>  -0.4100 
 24 C       -2.3290    -5.7690     0.4520 C.2   1 <1>   0.1080 
 25 C       -1.0670    -6.6020     0.4340 C.3   1 <1>  -0.0590 
 26 H       -1.1830     2.5540    -0.5440 H     1 <1>   0.0800 
 27 H       -2.2680     2.9610     0.7660 H     1 <1>   0.0800 
 28 H       -4.0090     1.6300    -0.2860 H     1 <1>   0.0800 
 29 H       -3.0430     0.9320    -1.5820 H     1 <1>   0.0800 
 30 H       -1.8150    -1.6970     0.7150 H     1 <1>   0.0800 
 31 H       -3.2080    -1.1790     1.6530 H     1 <1>   0.0800 
 32 H        0.7300     2.6420     1.0690 H     1 <1>   0.0800 
 33 H       -0.3760     3.1300     2.3220 H     1 <1>   0.0800 
 34 H       -4.9170    -0.5060    -1.7780 H     1 <1>   0.0800 
 35 H       -3.0990    -1.9410    -1.2500 H     1 <1>   0.0800 
 36 H       -5.2780    -3.0770    -0.6940 H     1 <1>   0.0800 
 37 H       -5.0390    -2.6430     0.9690 H     1 <1>   0.0800 
 38 H       -1.8210     5.4090     1.7270 H     1 <1>   0.1500 
 39 H       -7.3520     0.5480     0.4870 H     1 <1>   0.0800 
 40 H       -7.0790     0.0110    -1.1640 H     1 <1>   0.0800 
 41 H       -6.2970     1.4820    -0.5630 H     1 <1>   0.0800 
 42 H        2.8120     5.1920    -0.8030 H     1 <1>   0.0800 
 43 H        2.5640     3.8550     0.2730 H     1 <1>   0.0800 
 44 H       -0.9140     7.6530     0.5410 H     1 <1>   0.1500 
 45 H       -1.5970    -3.8360    -0.3000 H     1 <1>   0.1500 
 46 H        1.2540     4.1730    -2.4500 H     1 <1>   0.0800 
 47 H        1.0890     2.7730    -1.4150 H     1 <1>   0.0800 
 48 H        2.6370     3.1540    -2.1260 H     1 <1>   0.0800 
 49 H       -0.3290    -6.1600     1.0780 H     1 <1>   0.0800 
 50 H       -0.6800    -6.6560    -0.5670 H     1 <1>   0.0800 
 51 H       -1.2790    -7.5970     0.7800 H     1 <1>   0.0800 
@<TRIPOS>BOND
  1   1   2  2   
  2   2   3  am  
  3   2   4  1   
  4   3   5  1   
  5   3   6  1   
  6   4   7  1   
  7   4  26  1   
  8   4  27  1   
  9   5   8  1   
 10   5  28  1   
 11   5  29  1   
 12   6   9  1   
 13   6  30  1   
 14   6  31  1   
 15   7  10  1   
 16   7  32  1   
 17   7  33  1   
 18   8   9  1   
 19   8  11  1   
 20   8  34  1   
 21   9  12  1   
 22   9  35  1   
 23  10  13  1   
 24  10  14  1   
 25  11  15  1   
 26  12  16  1   
 27  12  36  1   
 28  12  37  1   
 29  13  17  2   
 30  13  18  1   
 31  14  19  2   
 32  14  38  1   
 33  15  39  1   
 34  15  40  1   
 35  15  41  1   
 36  16  20  1   
 37  16  21  2   
 38  17  19  1   
 39  18  22  1   
 40  18  42  1   
 41  18  43  1   
 42  19  44  1   
 43  20  23  1   
 44  21  24  1   
 45  21  45  1   
 46  22  46  1   
 47  22  47  1   
 48  22  48  1   
 49  23  24  2   
 50  24  25  1   
 51  25  49  1   
 52  25  50  1   
 53  25  51  1   
@<TRIPOS>SUBSTRUCTURE
  1 ****   3 GROUP 4 **** **** 0

# MOE 2024.06 (io_trps.svl 2023.06)
