@<TRIPOS>MOLECULE
NONAME
46 48 1 0 0 
SMALL
USER_CHARGES


@<TRIPOS>ATOM
  1 O       -2.7650     0.7650    -2.8820 O.2   1 <1>  -0.5700 
  2 C       -2.1600     0.8400    -1.8300 C.2   1 <1>   0.5440 
  3 N       -1.7350    -0.3260    -1.2650 N.am  1 <1>  -0.7300 
  4 C       -1.9080     2.1290    -1.2190 C.ar  1 <1>   0.0860 
  5 C       -2.0720    -1.6920    -1.7260 C.3   1 <1>   0.2200 
  6 C       -1.7550     2.3210     0.1670 C.ar  1 <1>   0.3920 
  7 C       -1.8130     3.2620    -2.0210 C.ar  1 <1>  -0.1500 
  8 C       -3.2290    -2.2710    -0.9220 C.3   1 <1>  -0.0800 
  9 C       -0.9500    -2.6360    -1.3170 C.3   1 <1>   0.1200 
 10 O       -1.8660     1.2480     0.9840 O.3   1 <1>  -0.3620 
 11 N       -1.5120     3.4880     0.7580 N.ar  1 <1>  -0.6200 
 12 C       -1.5670     4.4730    -1.4220 C.ar  1 <1>  -0.1500 
 13 C       -2.5370    -2.8150     0.3320 C.3   1 <1>   0.1200 
 14 C       -4.3990    -1.3120    -0.6280 C.3   1 <1>  -0.0170 
 15 O       -1.1740    -2.9180     0.0330 O.3   1 <1>  -0.5600 
 16 C       -1.7090     1.3430     2.3880 C.3   1 <1>   0.0400 
 17 C       -1.4230     4.5390    -0.0460 C.ar  1 <1>   0.3930 
 18 C       -5.5030    -2.0190     0.1400 C.ar  1 <1>  -0.1430 
 19 O       -1.1790     5.7500     0.4860 O.3   1 <1>  -0.3630 
 20 C       -5.6540    -1.8720     1.5040 C.ar  1 <1>  -0.1500 
 21 C       -6.4130    -2.8450    -0.4880 C.ar  1 <1>  -0.1500 
 22 C       -1.0170     5.9240     1.8800 C.3   1 <1>   0.0400 
 23 C       -6.6740    -2.5440     2.1570 C.ar  1 <1>   0.1600 
 24 C       -7.3970    -3.4720     0.2580 C.ar  1 <1>   0.1600 
 25 N       -7.5480    -3.3430     1.5660 N.ar  1 <1>  -0.6200 
 26 H       -1.3420    -0.2940    -0.3170 H     1 <1>   0.3700 
 27 H       -2.2510    -1.7020    -2.7880 H     1 <1>   0.0800 
 28 H       -1.9310     3.1840    -3.0890 H     1 <1>   0.1500 
 29 H       -3.6160    -3.1150    -1.4660 H     1 <1>   0.0800 
 30 H        0.0270    -2.2010    -1.4410 H     1 <1>   0.0800 
 31 H       -1.0130    -3.5620    -1.8620 H     1 <1>   0.0800 
 32 H       -1.4840     5.3740    -2.0010 H     1 <1>   0.1500 
 33 H       -2.9110    -3.7860     0.6070 H     1 <1>   0.0800 
 34 H       -2.6350    -2.1380     1.1630 H     1 <1>   0.0800 
 35 H       -4.7930    -0.9350    -1.5570 H     1 <1>   0.0800 
 36 H       -4.0600    -0.4670    -0.0560 H     1 <1>   0.0800 
 37 H       -1.8300     0.3620     2.8110 H     1 <1>   0.0800 
 38 H       -2.4580     2.0100     2.7780 H     1 <1>   0.0800 
 39 H       -0.7240     1.7190     2.6030 H     1 <1>   0.0800 
 40 H       -4.9900    -1.2410     2.0660 H     1 <1>   0.1500 
 41 H       -6.3650    -3.0060    -1.5490 H     1 <1>   0.1500 
 42 H       -0.8330     6.9650     2.0730 H     1 <1>   0.0800 
 43 H       -0.1800     5.3330     2.2090 H     1 <1>   0.0800 
 44 H       -1.9180     5.6080     2.3760 H     1 <1>   0.0800 
 45 H       -6.7770    -2.4180     3.2210 H     1 <1>   0.1500 
 46 H       -8.0980    -4.1130    -0.2490 H     1 <1>   0.1500 
@<TRIPOS>BOND
  1   1   2  2   
  2   2   3  am  
  3   2   4  1   
  4   3   5  1   
  5   3  26  1   
  6   4   6  ar  
  7   4   7  ar  
  8   5   8  1   
  9   5   9  1   
 10   5  27  1   
 11   6  10  1   
 12   6  11  ar  
 13   7  12  ar  
 14   7  28  1   
 15   8  13  1   
 16   8  14  1   
 17   8  29  1   
 18   9  15  1   
 19   9  30  1   
 20   9  31  1   
 21  10  16  1   
 22  11  17  ar  
 23  12  17  ar  
 24  12  32  1   
 25  13  15  1   
 26  13  33  1   
 27  13  34  1   
 28  14  18  1   
 29  14  35  1   
 30  14  36  1   
 31  16  37  1   
 32  16  38  1   
 33  16  39  1   
 34  17  19  1   
 35  18  20  ar  
 36  18  21  ar  
 37  19  22  1   
 38  20  23  ar  
 39  20  40  1   
 40  21  24  ar  
 41  21  41  1   
 42  22  42  1   
 43  22  43  1   
 44  22  44  1   
 45  23  25  ar  
 46  23  45  1   
 47  24  25  ar  
 48  24  46  1   
@<TRIPOS>SUBSTRUCTURE
  1 ****   3 GROUP 4 **** **** 0

# MOE 2024.06 (io_trps.svl 2023.06)
