@<TRIPOS>MOLECULE
NONAME
40 40 1 0 0 
SMALL
USER_CHARGES


@<TRIPOS>ATOM
  1 S        0.9520     0.3890     1.3430 S.o2  1 <1>   1.0900 
  2 O        2.3810     0.1830     1.3870 O.2   1 <1>  -0.6500 
  3 O        0.1560     0.2010     2.5310 O.2   1 <1>  -0.6500 
  4 C        0.6610     2.0550     0.7530 C.3   1 <1>  -0.0550 
  5 C        0.2780    -0.6550     0.0650 C.3   1 <1>  -0.1350 
  6 C        1.5350     2.4390    -0.4520 C.3   1 <1>  -0.0990 
  7 C        1.2640     3.8700    -0.8520 C.2   1 <1>   0.5690 
  8 O        0.2820     4.0850    -1.5170 O.2   1 <1>  -0.5700 
  9 N        2.1380     4.8300    -0.4270 N.am  1 <1>  -0.4940 
 10 C        2.0800     6.2360    -0.5930 C.2   1 <1>  -0.0880 
 11 N        3.1630     7.0190    -0.8500 N.pl3 1 <1>   0.3140 
 12 C        1.0180     7.0770    -0.5240 C.2   1 <1>  -0.1810 
 13 N        2.8280     8.3220    -0.9430 N.2   1 <1>  -0.7070 
 14 C        4.5540     6.5740    -1.0660 C.3   1 <1>   0.0960 
 15 C        1.5460     8.3430    -0.7530 C.2   1 <1>   0.1390 
 16 C       -0.4440     6.7770    -0.2540 C.3   1 <1>  -0.0590 
 17 C        5.2760     6.3490     0.2710 C.3   1 <1>  -0.1600 
 18 C        6.6970     5.8180     0.0520 C.3   1 <1>  -0.1600 
 19 C        7.4050     5.5800     1.3880 C.3   1 <1>  -0.2400 
 20 H        0.8700     2.7400     1.5530 H     1 <1>   0.0800 
 21 H       -0.3750     2.1750     0.4950 H     1 <1>   0.0800 
 22 H        0.3820    -1.6860     0.3460 H     1 <1>   0.0800 
 23 H        0.7960    -0.5080    -0.8630 H     1 <1>   0.0800 
 24 H       -0.7650    -0.4500    -0.0800 H     1 <1>   0.0800 
 25 H        1.3110     1.8060    -1.2910 H     1 <1>   0.0800 
 26 H        2.5750     2.3180    -0.2100 H     1 <1>   0.0800 
 27 H        2.9590     4.4870     0.0710 H     1 <1>   0.3700 
 28 H        5.0620     7.3320    -1.6350 H     1 <1>   0.0800 
 29 H        4.5360     5.6700    -1.6460 H     1 <1>   0.0800 
 30 H        0.9630     9.2490    -0.7700 H     1 <1>   0.1500 
 31 H       -0.5380     5.8910     0.3470 H     1 <1>   0.0800 
 32 H       -0.9590     6.6200    -1.1840 H     1 <1>   0.0800 
 33 H       -0.9030     7.5960     0.2690 H     1 <1>   0.0800 
 34 H        4.7220     5.6470     0.8690 H     1 <1>   0.0800 
 35 H        5.3220     7.2860     0.8020 H     1 <1>   0.0800 
 36 H        7.2650     6.5290    -0.5260 H     1 <1>   0.0800 
 37 H        6.6630     4.8930    -0.4980 H     1 <1>   0.0800 
 38 H        7.4710     6.4960     1.9480 H     1 <1>   0.0800 
 39 H        8.4020     5.2140     1.2160 H     1 <1>   0.0800 
 40 H        6.8720     4.8530     1.9760 H     1 <1>   0.0800 
@<TRIPOS>BOND
  1   1   2  2   
  2   1   3  2   
  3   1   4  1   
  4   1   5  1   
  5   4   6  1   
  6   4  20  1   
  7   4  21  1   
  8   5  22  1   
  9   5  23  1   
 10   5  24  1   
 11   6   7  1   
 12   6  25  1   
 13   6  26  1   
 14   7   8  2   
 15   7   9  am  
 16   9  10  1   
 17   9  27  1   
 18  10  11  1   
 19  10  12  2   
 20  11  13  1   
 21  11  14  1   
 22  12  15  1   
 23  12  16  1   
 24  13  15  2   
 25  14  17  1   
 26  14  28  1   
 27  14  29  1   
 28  15  30  1   
 29  16  31  1   
 30  16  32  1   
 31  16  33  1   
 32  17  18  1   
 33  17  34  1   
 34  17  35  1   
 35  18  19  1   
 36  18  36  1   
 37  18  37  1   
 38  19  38  1   
 39  19  39  1   
 40  19  40  1   
@<TRIPOS>SUBSTRUCTURE
  1 ****   9 GROUP 4 **** **** 0

# MOE 2024.06 (io_trps.svl 2023.06)
