@<TRIPOS>MOLECULE
NONAME
31 33 1 0 0 
SMALL
USER_CHARGES


@<TRIPOS>ATOM
  1 F       -2.0070    -0.5500    -2.0020 F     1 <1>  -0.1900 
  2 C       -2.4190     0.3190    -1.1150 C.ar  1 <1>   0.1900 
  3 C       -2.3900     1.6660    -1.4330 C.ar  1 <1>   0.1900 
  4 C       -2.8750    -0.1210     0.1250 C.ar  1 <1>   0.0860 
  5 F       -1.9540     2.0600    -2.6020 F     1 <1>  -0.1900 
  6 C       -2.8110     2.6270    -0.5340 C.ar  1 <1>  -0.1500 
  7 C       -2.9140    -1.5220     0.4760 C.2   1 <1>   0.5440 
  8 C       -3.2920     0.8640     1.0280 C.ar  1 <1>  -0.1500 
  9 C       -3.2650     2.2140     0.7090 C.ar  1 <1>  -0.1500 
 10 O       -1.8690    -2.1290     0.6160 O.2   1 <1>  -0.5700 
 11 N       -4.1040    -2.1580     0.7200 N.am  1 <1>  -0.6600 
 12 C       -5.4390    -1.5670     0.7140 C.3   1 <1>   0.2350 
 13 C       -4.2830    -3.6050     0.8270 C.3   1 <1>   0.2350 
 14 C       -6.3730    -2.5480     0.0160 C.3   1 <1>  -0.2420 
 15 C       -5.5840    -3.9550     0.0950 C.3   1 <1>  -0.2420 
 16 C       -7.4890    -1.5710    -0.3560 C.2   1 <1>   0.9470 
 17 C       -6.9300    -3.8100    -0.4660 C.3   1 <1>  -0.2000 
 18 C       -5.3460    -5.4510    -0.1300 C.2   1 <1>   0.9470 
 19 O       -7.4690    -1.0020    -1.4540 O.co2 1 <1>  -0.9000 
 20 O       -8.3240    -1.2730     0.5090 O.co2 1 <1>  -0.9000 
 21 O       -4.9710    -5.8670    -1.2330 O.co2 1 <1>  -0.9000 
 22 O       -5.4810    -6.2160     0.8360 O.co2 1 <1>  -0.9000 
 23 H       -2.7840     3.6680    -0.8020 H     1 <1>   0.1500 
 24 H       -3.6470     0.5520     1.9960 H     1 <1>   0.1500 
 25 H       -3.6000     2.9440     1.4280 H     1 <1>   0.1500 
 26 H       -5.7630    -1.4590     1.7350 H     1 <1>   0.0800 
 27 H       -5.4480    -0.5980     0.2420 H     1 <1>   0.0800 
 28 H       -3.4340    -4.1350     0.4260 H     1 <1>   0.0800 
 29 H       -4.3900    -3.8570     1.8680 H     1 <1>   0.0800 
 30 H       -7.0540    -3.9410    -1.5280 H     1 <1>   0.1000 
 31 H       -7.7530    -4.2400     0.0790 H     1 <1>   0.1000 
@<TRIPOS>BOND
  1   1   2  1   
  2   2   3  ar  
  3   2   4  ar  
  4   3   5  1   
  5   3   6  ar  
  6   4   7  1   
  7   4   8  ar  
  8   6   9  ar  
  9   6  23  1   
 10   7  10  2   
 11   7  11  am  
 12   8   9  ar  
 13   8  24  1   
 14   9  25  1   
 15  11  12  1   
 16  11  13  1   
 17  12  14  1   
 18  12  26  1   
 19  12  27  1   
 20  13  15  1   
 21  13  28  1   
 22  13  29  1   
 23  14  15  1   
 24  14  16  1   
 25  14  17  1   
 26  15  17  1   
 27  15  18  1   
 28  16  19  ar  
 29  16  20  ar  
 30  17  30  1   
 31  17  31  1   
 32  18  21  ar  
 33  18  22  ar  
@<TRIPOS>SUBSTRUCTURE
  1 ****  11 GROUP 4 **** **** 0

# MOE 2024.06 (io_trps.svl 2023.06)
