@<TRIPOS>MOLECULE
NONAME
37 38 1 0 0 
SMALL
USER_CHARGES


@<TRIPOS>ATOM
  1 S        0.3250     0.1060    -1.2860 S.o2  1 <1>   1.3330 
  2 O        0.7760    -1.1150    -1.9160 O.2   1 <1>  -0.6500 
  3 O       -0.7090     0.8960    -1.9130 O.2   1 <1>  -0.6500 
  4 N       -0.2210    -0.2870     0.2750 N.am  1 <1>  -0.8490 
  5 C        1.7630     1.1370    -0.9840 C.3   1 <1>  -0.0550 
  6 C       -0.9360    -1.5660     0.3050 C.3   1 <1>   0.1160 
  7 C       -1.0560     0.7590     0.8760 C.3   1 <1>   0.1160 
  8 C        2.9720     0.3770    -0.3960 C.3   1 <1>  -0.0800 
  9 C        4.2570     1.1850    -0.2930 C.3   1 <1>   0.2200 
 10 C        2.7870    -0.1490     1.0350 C.3   1 <1>   0.1200 
 11 N        3.9900     2.5390     0.2490 N.am  1 <1>  -0.7300 
 12 C        4.9970     0.3820     0.7670 C.3   1 <1>   0.1200 
 13 O        4.0120     0.0310     1.6890 O.3   1 <1>  -0.5600 
 14 C        3.9310     3.6950    -0.4780 C.2   1 <1>   0.7160 
 15 O        3.9850     3.5950    -1.6900 O.2   1 <1>  -0.5700 
 16 C        3.7920     4.9700     0.2040 C.2   1 <1>   0.1410 
 17 N        3.5300     6.1370    -0.4280 N.2   1 <1>  -0.2270 
 18 C        3.8860     5.2440     1.5300 C.2   1 <1>  -0.3020 
 19 N        3.4640     7.0800     0.4420 N.2   1 <1>  -0.4180 
 20 N        3.6820     6.5520     1.6430 N.pl3 1 <1>   0.3000 
 21 H        2.0680     1.5680    -1.9190 H     1 <1>   0.0800 
 22 H        1.4890     1.9470    -0.3370 H     1 <1>   0.0800 
 23 H       -1.2610    -1.7910     1.3060 H     1 <1>   0.0800 
 24 H       -0.2870    -2.3610    -0.0230 H     1 <1>   0.0800 
 25 H       -1.7940    -1.5310    -0.3470 H     1 <1>   0.0800 
 26 H       -1.2970     0.5020     1.8940 H     1 <1>   0.0800 
 27 H       -1.9720     0.8770     0.3190 H     1 <1>   0.0800 
 28 H       -0.5330     1.7000     0.8790 H     1 <1>   0.0800 
 29 H        3.1720    -0.4730    -1.0270 H     1 <1>   0.0800 
 30 H        4.7970     1.2380    -1.2240 H     1 <1>   0.0800 
 31 H        2.5320    -1.1950     1.0460 H     1 <1>   0.0800 
 32 H        2.0460     0.4110     1.5770 H     1 <1>   0.0800 
 33 H        3.8760     2.5640     1.2630 H     1 <1>   0.3700 
 34 H        5.7730     0.9440     1.2560 H     1 <1>   0.0800 
 35 H        5.4030    -0.5240     0.3510 H     1 <1>   0.0800 
 36 H        4.0860     4.5980     2.3630 H     1 <1>   0.1500 
 37 H        3.6840     7.1210     2.4980 H     1 <1>   0.2700 
@<TRIPOS>BOND
  1   1   2  2   
  2   1   3  2   
  3   1   4  am  
  4   1   5  1   
  5   4   6  1   
  6   4   7  1   
  7   5   8  1   
  8   5  21  1   
  9   5  22  1   
 10   6  23  1   
 11   6  24  1   
 12   6  25  1   
 13   7  26  1   
 14   7  27  1   
 15   7  28  1   
 16   8   9  1   
 17   8  10  1   
 18   8  29  1   
 19   9  11  1   
 20   9  12  1   
 21   9  30  1   
 22  10  13  1   
 23  10  31  1   
 24  10  32  1   
 25  11  14  am  
 26  11  33  1   
 27  12  13  1   
 28  12  34  1   
 29  12  35  1   
 30  14  15  2   
 31  14  16  1   
 32  16  17  1   
 33  16  18  2   
 34  17  19  2   
 35  18  20  1   
 36  18  36  1   
 37  19  20  1   
 38  20  37  1   
@<TRIPOS>SUBSTRUCTURE
  1 ****   5 GROUP 4 **** **** 0

# MOE 2024.06 (io_trps.svl 2023.06)
