@<TRIPOS>MOLECULE
NONAME
26 25 1 0 0 
SMALL
USER_CHARGES


@<TRIPOS>ATOM
  1 O        1.1710    -0.4500     1.7620 O.2   1 <1>  -0.5700 
  2 C        1.5770    -0.8740     0.7190 C.2   1 <1>   0.4480 
  3 C        0.8970    -2.0370    -0.0150 C.3   1 <1>  -0.0190 
  4 C        2.8100    -0.2700     0.0620 C.3   1 <1>  -0.0990 
  5 C       -0.5450    -2.2750     0.4650 C.3   1 <1>  -0.2400 
  6 C        1.7070    -3.3340     0.1350 C.3   1 <1>  -0.2400 
  7 C        2.7370     1.2570    -0.0860 C.3   1 <1>   0.2800 
  8 O        2.6550     1.8030     1.1670 O.3   1 <1>  -0.6800 
  9 C        4.0110     1.8130    -0.7180 C.3   1 <1>  -0.2400 
 10 C        1.5020     1.7220    -0.8590 C.3   1 <1>  -0.2400 
 11 H        0.8470    -1.7840    -1.0590 H     1 <1>   0.0800 
 12 H        2.9440    -0.7010    -0.9110 H     1 <1>   0.0800 
 13 H        3.6710    -0.5300     0.6500 H     1 <1>   0.0800 
 14 H       -0.5540    -2.5510     1.5060 H     1 <1>   0.0800 
 15 H       -1.0120    -3.0590    -0.1040 H     1 <1>   0.0800 
 16 H       -1.1260    -1.3760     0.3500 H     1 <1>   0.0800 
 17 H        1.7790    -3.6100     1.1730 H     1 <1>   0.0800 
 18 H        2.7020    -3.2100    -0.2540 H     1 <1>   0.0800 
 19 H        1.2330    -4.1380    -0.4010 H     1 <1>   0.0800 
 20 H        2.0000     1.2830     1.6890 H     1 <1>   0.4000 
 21 H        4.8710     1.5270    -0.1400 H     1 <1>   0.0800 
 22 H        3.9650     2.8860    -0.7640 H     1 <1>   0.0800 
 23 H        4.1280     1.4350    -1.7170 H     1 <1>   0.0800 
 24 H        0.5960     1.4150    -0.3670 H     1 <1>   0.0800 
 25 H        1.5090     1.3100    -1.8510 H     1 <1>   0.0800 
 26 H        1.5010     2.7940    -0.9390 H     1 <1>   0.0800 
@<TRIPOS>BOND
  1   1   2  2   
  2   2   3  1   
  3   2   4  1   
  4   3   5  1   
  5   3   6  1   
  6   3  11  1   
  7   4   7  1   
  8   4  12  1   
  9   4  13  1   
 10   5  14  1   
 11   5  15  1   
 12   5  16  1   
 13   6  17  1   
 14   6  18  1   
 15   6  19  1   
 16   7   8  1   
 17   7   9  1   
 18   7  10  1   
 19   8  20  1   
 20   9  21  1   
 21   9  22  1   
 22   9  23  1   
 23  10  24  1   
 24  10  25  1   
 25  10  26  1   
@<TRIPOS>SUBSTRUCTURE
  1 ****   2 GROUP 4 **** **** 0

# MOE 2024.06 (io_trps.svl 2023.06)
