@<TRIPOS>MOLECULE
NONAME
38 39 1 0 0 
SMALL
USER_CHARGES


@<TRIPOS>ATOM
  1 S        1.3000     1.0010    -1.3690 S.3   1 <1>  -0.3320 
  2 C        0.5330     2.3080    -0.4000 C.ar  1 <1>   0.1020 
  3 C       -0.0200    -0.2410    -1.7280 C.3   1 <1>  -0.0100 
  4 C        1.3630     3.3260     0.0270 C.ar  1 <1>  -0.1500 
  5 C       -0.8170     2.3140    -0.0920 C.ar  1 <1>  -0.1500 
  6 C        0.8440     4.3790     0.7660 C.ar  1 <1>  -0.1430 
  7 C       -1.3340     3.3590     0.6550 C.ar  1 <1>  -0.1500 
  8 C       -0.5080     4.3860     1.0830 C.ar  1 <1>  -0.1500 
  9 C        1.7520     5.5080     1.2100 C.3   1 <1>   0.4860 
 10 N        2.1180     6.3050     0.0050 N.4   1 <1>  -0.9590 
 11 C        3.2870     7.1950     0.2940 C.3   1 <1>   0.3430 
 12 C        0.9280     7.0480    -0.5260 C.3   1 <1>   0.2630 
 13 C        3.8930     7.7950    -0.9770 C.3   1 <1>   0.0210 
 14 C        5.1500     8.5480    -0.6040 C.2   1 <1>  -0.1810 
 15 C        6.3990     7.9960    -0.3300 C.2   1 <1>   0.1390 
 16 C        5.3230     9.8790    -0.4530 C.2   1 <1>  -0.3020 
 17 N        7.2740     8.8990    -0.0200 N.2   1 <1>  -0.7070 
 18 N        6.6120    10.0680    -0.1050 N.pl3 1 <1>   0.3000 
 19 H        0.4320    -1.0420    -2.2860 H     1 <1>   0.0800 
 20 H       -0.7850     0.2420    -2.3070 H     1 <1>   0.0800 
 21 H       -0.4030    -0.6010    -0.7890 H     1 <1>   0.0800 
 22 H        2.4070     3.2700    -0.2270 H     1 <1>   0.1500 
 23 H       -1.4680     1.5260    -0.4190 H     1 <1>   0.1500 
 24 H       -2.3820     3.3680     0.9050 H     1 <1>   0.1500 
 25 H       -0.9380     5.1840     1.6660 H     1 <1>   0.1500 
 26 H        2.6350     5.0890     1.6640 H     1 <1>   0.0800 
 27 H        1.2530     6.1280     1.9370 H     1 <1>   0.0800 
 28 H        2.3920     5.6090    -0.7040 H     1 <1>   0.4500 
 29 H        4.0550     6.6250     0.7930 H     1 <1>   0.0800 
 30 H        2.9900     7.9940     0.9550 H     1 <1>   0.0800 
 31 H        0.5860     7.7750     0.1930 H     1 <1>   0.0800 
 32 H        0.1220     6.3620    -0.7330 H     1 <1>   0.0800 
 33 H        1.1790     7.5590    -1.4420 H     1 <1>   0.0800 
 34 H        3.2040     8.4790    -1.4400 H     1 <1>   0.0800 
 35 H        4.1470     7.0200    -1.6790 H     1 <1>   0.0800 
 36 H        6.6370     6.9450    -0.3640 H     1 <1>   0.1500 
 37 H        4.6300    10.6920    -0.5710 H     1 <1>   0.1500 
 38 H        7.0720    10.9700     0.0780 H     1 <1>   0.2700 
@<TRIPOS>BOND
  1   1   2  1   
  2   1   3  1   
  3   2   4  ar  
  4   2   5  ar  
  5   3  19  1   
  6   3  20  1   
  7   3  21  1   
  8   4   6  ar  
  9   4  22  1   
 10   5   7  ar  
 11   5  23  1   
 12   6   8  ar  
 13   6   9  1   
 14   7   8  ar  
 15   7  24  1   
 16   8  25  1   
 17   9  10  1   
 18   9  26  1   
 19   9  27  1   
 20  10  11  1   
 21  10  12  1   
 22  10  28  1   
 23  11  13  1   
 24  11  29  1   
 25  11  30  1   
 26  12  31  1   
 27  12  32  1   
 28  12  33  1   
 29  13  14  1   
 30  13  34  1   
 31  13  35  1   
 32  14  15  1   
 33  14  16  2   
 34  15  17  2   
 35  15  36  1   
 36  16  18  1   
 37  16  37  1   
 38  17  18  1   
 39  18  38  1   
@<TRIPOS>SUBSTRUCTURE
  1 ****  10 GROUP 4 **** **** 0

# MOE 2024.06 (io_trps.svl 2023.06)
