@<TRIPOS>MOLECULE
NONAME
43 45 1 0 0 
SMALL
USER_CHARGES


@<TRIPOS>ATOM
  1 CL       3.0910     4.8930     2.2620 Cl    1 <1>  -0.1770 
  2 C        1.7120     4.1640     1.4710 C.ar  1 <1>   0.1770 
  3 C        1.8590     3.0290     0.6810 C.ar  1 <1>  -0.1440 
  4 C        0.4780     4.7570     1.6640 C.ar  1 <1>  -0.1500 
  5 C        0.7230     2.4960     0.0830 C.ar  1 <1>  -0.1500 
  6 C        3.2270     2.3900     0.4600 C.3   1 <1>   0.3640 
  7 C       -0.6430     4.2130     1.0620 C.ar  1 <1>  -0.1500 
  8 C       -0.5180     3.0830     0.2740 C.ar  1 <1>  -0.1500 
  9 N        3.1150     0.9300     0.6970 N.am  1 <1>  -0.7300 
 10 C        3.7870     2.6860    -0.9530 C.3   1 <1>   0.2610 
 11 C        3.7260     0.0010    -0.0700 C.2   1 <1>   0.5690 
 12 O        4.8790     1.8230    -1.2440 O.3   1 <1>  -0.5600 
 13 C        4.2150     4.1510    -1.0380 C.2   1 <1>   0.5690 
 14 O        3.6230    -1.1710     0.1860 O.2   1 <1>  -0.5700 
 15 C        4.5350     0.4540    -1.2910 C.3   1 <1>   0.1810 
 16 O        3.3910     4.9930    -1.3040 O.2   1 <1>  -0.5700 
 17 N        5.5120     4.4790    -0.7970 N.am  1 <1>  -0.7300 
 18 C        6.0510     5.8610    -0.7930 C.3   1 <1>   0.1400 
 19 C        5.6430     6.5760     0.4950 C.3   1 <1>   0.1200 
 20 O        6.2700     7.8420     0.5320 O.3   1 <1>  -0.3420 
 21 C        6.0410     8.6140     1.6310 C.2   1 <1>   0.3510 
 22 N        5.3640     8.2880     2.6580 N.2   1 <1>  -0.4100 
 23 C        6.5130     9.8840     1.8060 C.2   1 <1>   0.1080 
 24 O        5.3940     9.3160     3.4770 O.3   1 <1>   0.2420 
 25 N        6.1020    10.2850     2.9410 N.2   1 <1>  -0.4100 
 26 C        7.3640    10.6880     0.8450 C.3   1 <1>  -0.0590 
 27 H        0.4000     5.6360     2.2780 H     1 <1>   0.1500 
 28 H        0.7930     1.6170    -0.5360 H     1 <1>   0.1500 
 29 H        3.9310     2.7710     1.1780 H     1 <1>   0.0800 
 30 H       -1.6080     4.6690     1.2060 H     1 <1>   0.1500 
 31 H       -1.3900     2.6590    -0.1950 H     1 <1>   0.1500 
 32 H        2.5840     0.6240     1.5150 H     1 <1>   0.3700 
 33 H        3.0240     2.5190    -1.6920 H     1 <1>   0.0800 
 34 H        3.9640     0.2770    -2.1840 H     1 <1>   0.0800 
 35 H        5.4460    -0.1130    -1.3450 H     1 <1>   0.0800 
 36 H        6.1860     3.7120    -0.7000 H     1 <1>   0.3700 
 37 H        7.1240     5.8220    -0.8670 H     1 <1>   0.0800 
 38 H        5.6560     6.3970    -1.6390 H     1 <1>   0.0800 
 39 H        5.9620     6.0150     1.3560 H     1 <1>   0.0800 
 40 H        4.5770     6.7250     0.5210 H     1 <1>   0.0800 
 41 H        8.1400    10.0680     0.4340 H     1 <1>   0.0800 
 42 H        7.8150    11.5180     1.3590 H     1 <1>   0.0800 
 43 H        6.7520    11.0630     0.0460 H     1 <1>   0.0800 
@<TRIPOS>BOND
  1   1   2  1   
  2   2   3  ar  
  3   2   4  ar  
  4   3   5  ar  
  5   3   6  1   
  6   4   7  ar  
  7   4  27  1   
  8   5   8  ar  
  9   5  28  1   
 10   6   9  1   
 11   6  10  1   
 12   6  29  1   
 13   7   8  ar  
 14   7  30  1   
 15   8  31  1   
 16   9  11  am  
 17   9  32  1   
 18  10  12  1   
 19  10  13  1   
 20  10  33  1   
 21  11  14  2   
 22  11  15  1   
 23  12  15  1   
 24  13  16  2   
 25  13  17  am  
 26  15  34  1   
 27  15  35  1   
 28  17  18  1   
 29  17  36  1   
 30  18  19  1   
 31  18  37  1   
 32  18  38  1   
 33  19  20  1   
 34  19  39  1   
 35  19  40  1   
 36  20  21  1   
 37  21  22  2   
 38  21  23  1   
 39  22  24  1   
 40  23  25  2   
 41  23  26  1   
 42  24  25  1   
 43  26  41  1   
 44  26  42  1   
 45  26  43  1   
@<TRIPOS>SUBSTRUCTURE
  1 ****  13 GROUP 4 **** **** 0

# MOE 2024.06 (io_trps.svl 2023.06)
