@<TRIPOS>MOLECULE
NONAME
49 51 1 0 0 
SMALL
USER_CHARGES


@<TRIPOS>ATOM
  1 O       -1.4520     0.6120    -1.7920 O.2   1 <1>  -0.5700 
  2 C       -1.7380     1.5540    -1.0950 C.2   1 <1>   0.5690 
  3 N       -2.5260     1.5260     0.0060 N.am  1 <1>  -0.6600 
  4 C       -1.2180     2.9380    -1.3480 C.3   1 <1>  -0.0990 
  5 C       -2.7000     2.8730     0.5890 C.3   1 <1>   0.3000 
  6 C       -3.2100     0.3090     0.5210 C.3   1 <1>   0.0600 
  7 C       -1.4590     3.6150     0.0110 C.3   1 <1>  -0.0190 
  8 C       -2.6580     2.8150     2.1200 C.3   1 <1>  -0.2400 
  9 C       -4.0740     3.3720     0.1130 C.3   1 <1>  -0.2400 
 10 C       -1.4290     5.1460    -0.0490 C.2   1 <1>   0.5690 
 11 O       -2.4500     5.7580     0.1530 O.2   1 <1>  -0.5700 
 12 N       -0.2570     5.8240    -0.3150 N.am  1 <1>  -0.6600 
 13 C        1.1140     5.2210    -0.3830 C.3   1 <1>   0.1400 
 14 C       -0.2860     7.3030    -0.5120 C.3   1 <1>   0.1400 
 15 C        2.0380     5.7630     0.7170 C.3   1 <1>   0.1400 
 16 C        0.1290     8.0100     0.7830 C.3   1 <1>  -0.1600 
 17 N        2.4920     7.1530     0.4120 N.am  1 <1>  -0.6600 
 18 C        1.6360     8.2770     0.8950 C.3   1 <1>   0.1400 
 19 C        3.6510     7.3500    -0.3230 C.2   1 <1>   0.7160 
 20 O        4.0520     6.4150    -0.9990 O.2   1 <1>  -0.5700 
 21 C        4.4060     8.5960    -0.3470 C.2   1 <1>   0.1410 
 22 N        4.3440     9.5660     0.5970 N.2   1 <1>  -0.2270 
 23 C        5.3090     9.0010    -1.2730 C.2   1 <1>  -0.3020 
 24 N        5.1430    10.5180     0.2760 N.2   1 <1>  -0.4180 
 25 N        5.7460    10.1850    -0.8650 N.pl3 1 <1>   0.3000 
 26 H       -1.8020     3.3970    -2.1240 H     1 <1>   0.0800 
 27 H       -0.1830     2.9090    -1.6310 H     1 <1>   0.0800 
 28 H       -3.0070    -0.5280    -0.1270 H     1 <1>   0.0800 
 29 H       -4.2730     0.4660     0.5550 H     1 <1>   0.0800 
 30 H       -2.8500     0.0750     1.5060 H     1 <1>   0.0800 
 31 H       -0.6460     3.3300     0.6520 H     1 <1>   0.0800 
 32 H       -1.7660     2.3210     2.4600 H     1 <1>   0.0800 
 33 H       -3.5170     2.2950     2.5040 H     1 <1>   0.0800 
 34 H       -2.6720     3.8140     2.5190 H     1 <1>   0.0800 
 35 H       -4.0740     3.5380    -0.9480 H     1 <1>   0.0800 
 36 H       -4.3360     4.2930     0.5990 H     1 <1>   0.0800 
 37 H       -4.8430     2.6620     0.3540 H     1 <1>   0.0800 
 38 H        1.5490     5.4230    -1.3470 H     1 <1>   0.0800 
 39 H        1.0720     4.1560    -0.2740 H     1 <1>   0.0800 
 40 H       -1.2830     7.6130    -0.7780 H     1 <1>   0.0800 
 41 H        0.3630     7.5810    -1.3250 H     1 <1>   0.0800 
 42 H        2.9020     5.1240     0.7830 H     1 <1>   0.0800 
 43 H        1.5420     5.7300     1.6710 H     1 <1>   0.0800 
 44 H       -0.2200     7.4520     1.6340 H     1 <1>   0.0800 
 45 H       -0.3670     8.9630     0.8190 H     1 <1>   0.0800 
 46 H        1.8900     8.5010     1.9170 H     1 <1>   0.0800 
 47 H        1.8490     9.1530     0.3070 H     1 <1>   0.0800 
 48 H        5.6400     8.5010    -2.1640 H     1 <1>   0.1500 
 49 H        6.4410    10.7880    -1.3180 H     1 <1>   0.2700 
@<TRIPOS>BOND
  1   1   2  2   
  2   2   3  am  
  3   2   4  1   
  4   3   5  1   
  5   3   6  1   
  6   4   7  1   
  7   4  26  1   
  8   4  27  1   
  9   5   7  1   
 10   5   8  1   
 11   5   9  1   
 12   6  28  1   
 13   6  29  1   
 14   6  30  1   
 15   7  10  1   
 16   7  31  1   
 17   8  32  1   
 18   8  33  1   
 19   8  34  1   
 20   9  35  1   
 21   9  36  1   
 22   9  37  1   
 23  10  11  2   
 24  10  12  am  
 25  12  13  1   
 26  12  14  1   
 27  13  15  1   
 28  13  38  1   
 29  13  39  1   
 30  14  16  1   
 31  14  40  1   
 32  14  41  1   
 33  15  17  1   
 34  15  42  1   
 35  15  43  1   
 36  16  18  1   
 37  16  44  1   
 38  16  45  1   
 39  17  18  1   
 40  17  19  am  
 41  18  46  1   
 42  18  47  1   
 43  19  20  2   
 44  19  21  1   
 45  21  22  1   
 46  21  23  2   
 47  22  24  2   
 48  23  25  1   
 49  23  48  1   
 50  24  25  1   
 51  25  49  1   
@<TRIPOS>SUBSTRUCTURE
  1 ****  13 GROUP 4 **** **** 0

# MOE 2024.06 (io_trps.svl 2023.06)
