@<TRIPOS>MOLECULE
NONAME
51 55 1 0 0 
SMALL
USER_CHARGES


@<TRIPOS>ATOM
  1 O       -0.2460    -1.1010    -2.5810 O.2   1 <1>  -0.5700 
  2 C        0.3710    -1.8030    -1.8000 C.2   1 <1>   0.7160 
  3 N       -0.1790    -2.9600    -1.3540 N.am  1 <1>  -0.4900 
  4 C        1.6550    -1.5050    -1.2800 C.2   1 <1>  -0.0860 
  5 C        0.4470    -3.7690    -0.4380 C.2   1 <1>   0.4490 
  6 C        2.2240    -2.3600    -0.3860 C.2   1 <1>  -0.0260 
  7 C        2.5930    -0.4860    -1.4340 C.2   1 <1>   0.1390 
  8 N        1.6110    -3.5170     0.0550 N.2   1 <1>  -0.5760 
  9 C       -0.3420    -5.0100    -0.0210 C.3   1 <1>   0.1710 
 10 N        3.4280    -1.8390    -0.0590 N.pl3 1 <1>   0.3140 
 11 N        3.6550    -0.6740    -0.7110 N.2   1 <1>  -0.7070 
 12 N       -1.8050    -4.7670    -0.0580 N.3   1 <1>  -0.8100 
 13 C        4.4100    -2.4030     0.8740 C.3   1 <1>   0.0160 
 14 C       -2.6230    -5.9890    -0.0180 C.3   1 <1>   0.1100 
 15 C       -2.2980    -3.9080     1.0330 C.3   1 <1>   0.1100 
 16 C       -4.0130    -5.4860     0.3510 C.3   1 <1>   0.2800 
 17 C       -3.7790    -4.2750     1.2550 C.3   1 <1>  -0.0800 
 18 O       -4.6600    -4.9270    -0.7380 O.3   1 <1>  -0.5600 
 19 C       -5.1160    -6.3810     0.9070 C.3   1 <1>  -0.1600 
 20 C       -4.9290    -3.3460     0.8080 C.3   1 <1>  -0.0800 
 21 C       -5.7060    -4.3000    -0.1110 C.3   1 <1>   0.2000 
 22 C       -6.3340    -5.4780     0.6580 C.3   1 <1>  -0.1600 
 23 C       -4.4650    -2.0920     0.0520 C.3   1 <1>   0.1400 
 24 N       -5.6260    -1.2980    -0.4110 N.am  1 <1>  -0.7300 
 25 C       -6.2990    -0.4070     0.3550 C.2   1 <1>   0.5690 
 26 O       -6.0370    -0.2220     1.5170 O.2   1 <1>  -0.5700 
 27 C       -7.4200     0.3700    -0.2820 C.3   1 <1>  -0.1790 
 28 H       -1.1290    -3.2040    -1.6330 H     1 <1>   0.3700 
 29 H        2.4510     0.3630    -2.0820 H     1 <1>   0.1500 
 30 H       -0.0370    -5.3220     0.9620 H     1 <1>   0.0800 
 31 H       -0.1010    -5.7970    -0.7130 H     1 <1>   0.0800 
 32 H        4.1480    -3.4200     1.0990 H     1 <1>   0.0800 
 33 H        4.4110    -1.8170     1.7730 H     1 <1>   0.0800 
 34 H        5.3820    -2.3700     0.4190 H     1 <1>   0.0800 
 35 H       -2.6300    -6.4950    -0.9680 H     1 <1>   0.0800 
 36 H       -2.2630    -6.6500     0.7510 H     1 <1>   0.0800 
 37 H       -1.7530    -4.1280     1.9360 H     1 <1>   0.0800 
 38 H       -2.1430    -2.8710     0.7970 H     1 <1>   0.0800 
 39 H       -3.9060    -4.5420     2.2890 H     1 <1>   0.0800 
 40 H       -5.1790    -7.2870     0.3310 H     1 <1>   0.0800 
 41 H       -4.9700    -6.6160     1.9460 H     1 <1>   0.0800 
 42 H       -5.5290    -3.0470     1.6500 H     1 <1>   0.0800 
 43 H       -6.3630    -3.8280    -0.8210 H     1 <1>   0.0800 
 44 H       -6.8010    -5.1480     1.5690 H     1 <1>   0.0800 
 45 H       -7.0620    -5.9760     0.0420 H     1 <1>   0.0800 
 46 H       -3.8640    -2.3700    -0.7980 H     1 <1>   0.0800 
 47 H       -3.8700    -1.4780     0.7070 H     1 <1>   0.0800 
 48 H       -5.8850    -1.4260    -1.3900 H     1 <1>   0.3700 
 49 H       -7.0410     0.9440    -1.1060 H     1 <1>   0.0800 
 50 H       -7.8510     1.0390     0.4400 H     1 <1>   0.0800 
 51 H       -8.1780    -0.3060    -0.6290 H     1 <1>   0.0800 
@<TRIPOS>BOND
  1   1   2  2   
  2   2   3  am  
  3   2   4  1   
  4   3   5  1   
  5   3  28  1   
  6   4   6  2   
  7   4   7  1   
  8   5   8  2   
  9   5   9  1   
 10   6   8  1   
 11   6  10  1   
 12   7  11  2   
 13   7  29  1   
 14   9  12  1   
 15   9  30  1   
 16   9  31  1   
 17  10  11  1   
 18  10  13  1   
 19  12  14  1   
 20  12  15  1   
 21  13  32  1   
 22  13  33  1   
 23  13  34  1   
 24  14  16  1   
 25  14  35  1   
 26  14  36  1   
 27  15  17  1   
 28  15  37  1   
 29  15  38  1   
 30  16  17  1   
 31  16  18  1   
 32  16  19  1   
 33  17  20  1   
 34  17  39  1   
 35  18  21  1   
 36  19  22  1   
 37  19  40  1   
 38  19  41  1   
 39  20  21  1   
 40  20  23  1   
 41  20  42  1   
 42  21  22  1   
 43  21  43  1   
 44  22  44  1   
 45  22  45  1   
 46  23  24  1   
 47  23  46  1   
 48  23  47  1   
 49  24  25  am  
 50  24  48  1   
 51  25  26  2   
 52  25  27  1   
 53  27  49  1   
 54  27  50  1   
 55  27  51  1   
@<TRIPOS>SUBSTRUCTURE
  1 ****  15 GROUP 4 **** **** 0

# MOE 2024.06 (io_trps.svl 2023.06)
