@<TRIPOS>MOLECULE
NONAME
48 49 1 0 0 
SMALL
USER_CHARGES


@<TRIPOS>ATOM
  1 S        0.2490     0.2310    -1.0690 S.o2  1 <1>   1.3330 
  2 O        1.2720     0.6500    -2.0010 O.2   1 <1>  -0.6500 
  3 O       -1.1210     0.1240    -1.5170 O.2   1 <1>  -0.6500 
  4 N        0.7170    -1.2690    -0.4280 N.am  1 <1>  -0.8490 
  5 C        0.2690     1.3100     0.3590 C.3   1 <1>  -0.0550 
  6 C        2.1660    -1.3950    -0.2400 C.3   1 <1>   0.1160 
  7 C        0.2190    -2.3910    -1.2300 C.3   1 <1>   0.1160 
  8 C       -0.1810     2.7490     0.0370 C.3   1 <1>  -0.0800 
  9 C       -0.2930     3.6560     1.2620 C.3   1 <1>   0.2000 
 10 C        0.7690     3.4950    -0.9120 C.3   1 <1>   0.2090 
 11 O        0.8010     3.4460     2.0880 O.3   1 <1>  -0.6800 
 12 C       -0.1730     5.0570     0.6690 C.3   1 <1>   0.2090 
 13 N        0.8010     4.9120    -0.4500 N.pl3 1 <1>  -0.8380 
 14 C        2.0530     5.4770    -0.2820 C.ar  1 <1>   0.4100 
 15 N        2.7410     4.9980     0.7450 N.ar  1 <1>  -0.6200 
 16 C        2.5320     6.4650    -1.1500 C.ar  1 <1>   0.0730 
 17 C        3.9390     5.5050     0.9490 C.ar  1 <1>   0.1670 
 18 C        1.6860     6.9010    -2.2210 C.1   1 <1>   0.4840 
 19 C        3.8040     6.9860    -0.9330 C.ar  1 <1>  -0.1430 
 20 C        4.5140     6.5020     0.1610 C.ar  1 <1>  -0.1430 
 21 C        4.6650     4.9000     2.1390 C.3   1 <1>  -0.0970 
 22 N        1.0570     7.2950    -3.0900 N.1   1 <1>  -0.5570 
 23 C        4.4010     8.0520    -1.8580 C.3   1 <1>  -0.0970 
 24 C        5.9040     7.0600     0.4840 C.3   1 <1>  -0.0970 
 25 H       -0.3860     0.9050     1.1060 H     1 <1>   0.0800 
 26 H        1.2580     1.3310     0.7730 H     1 <1>   0.0800 
 27 H        2.3960    -2.3290     0.2440 H     1 <1>   0.0800 
 28 H        2.5320    -0.5940     0.3790 H     1 <1>   0.0800 
 29 H        2.6750    -1.3580    -1.1900 H     1 <1>   0.0800 
 30 H        0.5160    -3.3260    -0.7880 H     1 <1>   0.0800 
 31 H        0.6050    -2.3330    -2.2340 H     1 <1>   0.0800 
 32 H       -0.8570    -2.3650    -1.2710 H     1 <1>   0.0800 
 33 H       -1.1470     2.7110    -0.4350 H     1 <1>   0.0800 
 34 H       -1.1940     3.5050     1.8330 H     1 <1>   0.0800 
 35 H        0.4180     3.4430    -1.9290 H     1 <1>   0.0800 
 36 H        1.7610     3.0740    -0.8670 H     1 <1>   0.0800 
 37 H        1.5730     3.9150     1.6670 H     1 <1>   0.4000 
 38 H        0.1560     5.7730     1.4040 H     1 <1>   0.0800 
 39 H       -1.1190     5.3720     0.2660 H     1 <1>   0.0800 
 40 H        5.6650     4.6210     1.8660 H     1 <1>   0.0800 
 41 H        4.1560     4.0170     2.4840 H     1 <1>   0.0800 
 42 H        4.6940     5.6090     2.9460 H     1 <1>   0.0800 
 43 H        5.4340     7.8370    -2.0640 H     1 <1>   0.0800 
 44 H        4.3330     9.0190    -1.3910 H     1 <1>   0.0800 
 45 H        3.9020     8.1030    -2.8090 H     1 <1>   0.0800 
 46 H        5.9460     8.1180     0.2980 H     1 <1>   0.0800 
 47 H        6.6430     6.5710    -0.1260 H     1 <1>   0.0800 
 48 H        6.1670     6.9240     1.5160 H     1 <1>   0.0800 
@<TRIPOS>BOND
  1   1   2  2   
  2   1   3  2   
  3   1   4  am  
  4   1   5  1   
  5   4   6  1   
  6   4   7  1   
  7   5   8  1   
  8   5  25  1   
  9   5  26  1   
 10   6  27  1   
 11   6  28  1   
 12   6  29  1   
 13   7  30  1   
 14   7  31  1   
 15   7  32  1   
 16   8   9  1   
 17   8  10  1   
 18   8  33  1   
 19   9  11  1   
 20   9  12  1   
 21   9  34  1   
 22  10  13  1   
 23  10  35  1   
 24  10  36  1   
 25  11  37  1   
 26  12  13  1   
 27  12  38  1   
 28  12  39  1   
 29  13  14  1   
 30  14  15  ar  
 31  14  16  ar  
 32  15  17  ar  
 33  16  18  1   
 34  16  19  ar  
 35  17  20  ar  
 36  17  21  1   
 37  18  22  3   
 38  19  20  ar  
 39  19  23  1   
 40  20  24  1   
 41  21  40  1   
 42  21  41  1   
 43  21  42  1   
 44  23  43  1   
 45  23  44  1   
 46  23  45  1   
 47  24  46  1   
 48  24  47  1   
 49  24  48  1   
@<TRIPOS>SUBSTRUCTURE
  1 ****  10 GROUP 4 **** **** 0

# MOE 2024.06 (io_trps.svl 2023.06)
