@<TRIPOS>MOLECULE
NONAME
54 56 1 0 0 
SMALL
USER_CHARGES


@<TRIPOS>ATOM
  1 S       -0.2470    -0.5210     0.0270 S.3   1 <1>  -0.3320 
  2 C       -0.2550     1.2410     0.3950 C.ar  1 <1>   0.1020 
  3 C       -0.7980    -1.3730     1.5850 C.3   1 <1>   0.1310 
  4 C       -0.2750     2.1110    -0.6780 C.ar  1 <1>  -0.1500 
  5 C       -0.2450     1.7140     1.6980 C.ar  1 <1>  -0.1500 
  6 C       -1.2200    -2.8130     1.3060 C.2   1 <1>   0.5690 
  7 C       -0.3040     3.4770    -0.4580 C.ar  1 <1>   0.0830 
  8 C       -0.2720     3.0810     1.9190 C.ar  1 <1>  -0.1500 
  9 O       -0.6780    -3.6780     1.9490 O.2   1 <1>  -0.5700 
 10 N       -2.1920    -3.1400     0.3840 N.am  1 <1>  -0.6600 
 11 O       -0.3330     4.2710    -1.5570 O.3   1 <1>  -0.3630 
 12 C       -0.3040     3.9610     0.8500 C.ar  1 <1>  -0.1500 
 13 C       -3.0040    -2.1410    -0.3910 C.3   1 <1>   0.1400 
 14 C       -2.3540    -4.5760    -0.0270 C.3   1 <1>   0.1400 
 15 C       -0.3060     5.6770    -1.4480 C.3   1 <1>   0.0400 
 16 C       -4.4960    -2.5390    -0.5440 C.3   1 <1>   0.4230 
 17 C       -3.7520    -4.9000    -0.5880 C.3   1 <1>   0.3430 
 18 N       -4.7830    -3.9450    -0.0550 N.4   1 <1>  -0.9590 
 19 C       -4.9570    -2.3470    -2.0080 C.3   1 <1>   0.1200 
 20 C       -6.2130    -4.3160    -0.3360 C.3   1 <1>   0.4230 
 21 O       -6.2930    -2.7300    -2.1620 O.3   1 <1>  -0.5600 
 22 C       -6.5790    -4.0560    -1.8160 C.3   1 <1>   0.1200 
 23 C       -6.4980    -5.7600     0.1080 C.3   1 <1>  -0.1600 
 24 C       -8.0030    -6.0570     0.2020 C.3   1 <1>  -0.1600 
 25 C       -8.2470    -7.4760     0.7230 C.3   1 <1>  -0.2400 
 26 H        0.0350    -1.3550     2.2630 H     1 <1>   0.0800 
 27 H       -1.6170    -0.8130     1.9940 H     1 <1>   0.0800 
 28 H       -0.2680     1.7360    -1.6840 H     1 <1>   0.1500 
 29 H       -0.2070     1.0470     2.5360 H     1 <1>   0.1500 
 30 H       -0.2640     3.4620     2.9260 H     1 <1>   0.1500 
 31 H       -0.3250     5.0150     1.0520 H     1 <1>   0.1500 
 32 H       -2.9690    -1.1760     0.0840 H     1 <1>   0.0800 
 33 H       -2.5530    -2.0240    -1.3620 H     1 <1>   0.0800 
 34 H       -1.6050    -4.8230    -0.7600 H     1 <1>   0.0800 
 35 H       -2.1790    -5.2120     0.8260 H     1 <1>   0.0800 
 36 H       -0.3130     6.0890    -2.4410 H     1 <1>   0.0800 
 37 H        0.5940     5.9710    -0.9370 H     1 <1>   0.0800 
 38 H       -1.1790     6.0040    -0.9110 H     1 <1>   0.0800 
 39 H       -5.0720    -1.8490     0.0510 H     1 <1>   0.0800 
 40 H       -3.9970    -5.9150    -0.3230 H     1 <1>   0.0800 
 41 H       -3.7230    -4.8420    -1.6630 H     1 <1>   0.0800 
 42 H       -4.6460    -3.9260     0.9640 H     1 <1>   0.4500 
 43 H       -4.3550    -2.9220    -2.6900 H     1 <1>   0.0800 
 44 H       -4.8870    -1.3090    -2.2860 H     1 <1>   0.0800 
 45 H       -6.8450    -3.6720     0.2550 H     1 <1>   0.0800 
 46 H       -7.6340    -4.2030    -1.9710 H     1 <1>   0.0800 
 47 H       -6.0430    -4.7130    -2.4770 H     1 <1>   0.0800 
 48 H       -6.0550    -6.4570    -0.5810 H     1 <1>   0.0800 
 49 H       -6.0700    -5.9180     1.0830 H     1 <1>   0.0800 
 50 H       -8.4790    -5.3570     0.8690 H     1 <1>   0.0800 
 51 H       -8.4700    -5.9650    -0.7650 H     1 <1>   0.0800 
 52 H       -7.8280    -7.6000     1.7060 H     1 <1>   0.0800 
 53 H       -7.8090    -8.2060     0.0640 H     1 <1>   0.0800 
 54 H       -9.3040    -7.6680     0.7820 H     1 <1>   0.0800 
@<TRIPOS>BOND
  1   1   2  1   
  2   1   3  1   
  3   2   4  ar  
  4   2   5  ar  
  5   3   6  1   
  6   3  26  1   
  7   3  27  1   
  8   4   7  ar  
  9   4  28  1   
 10   5   8  ar  
 11   5  29  1   
 12   6   9  2   
 13   6  10  am  
 14   7  11  1   
 15   7  12  ar  
 16   8  12  ar  
 17   8  30  1   
 18  10  13  1   
 19  10  14  1   
 20  11  15  1   
 21  12  31  1   
 22  13  16  1   
 23  13  32  1   
 24  13  33  1   
 25  14  17  1   
 26  14  34  1   
 27  14  35  1   
 28  15  36  1   
 29  15  37  1   
 30  15  38  1   
 31  16  18  1   
 32  16  19  1   
 33  16  39  1   
 34  17  18  1   
 35  17  40  1   
 36  17  41  1   
 37  18  20  1   
 38  18  42  1   
 39  19  21  1   
 40  19  43  1   
 41  19  44  1   
 42  20  22  1   
 43  20  23  1   
 44  20  45  1   
 45  21  22  1   
 46  22  46  1   
 47  22  47  1   
 48  23  24  1   
 49  23  48  1   
 50  23  49  1   
 51  24  25  1   
 52  24  50  1   
 53  24  51  1   
 54  25  52  1   
 55  25  53  1   
 56  25  54  1   
@<TRIPOS>SUBSTRUCTURE
  1 ****  13 GROUP 4 **** **** 0

# MOE 2024.06 (io_trps.svl 2023.06)
