@<TRIPOS>MOLECULE
NONAME
50 53 1 0 0 
SMALL
USER_CHARGES


@<TRIPOS>ATOM
  1 S       -0.6930     0.4300     0.3890 S.o2  1 <1>   1.0900 
  2 O       -1.1170     1.6260     1.0750 O.2   1 <1>  -0.6500 
  3 O        0.7030     0.1100     0.1990 O.2   1 <1>  -0.6500 
  4 C       -1.4750    -0.9990     1.0790 C.3   1 <1>  -0.0550 
  5 C       -1.5080     0.2890    -1.1950 C.3   1 <1>  -0.0550 
  6 C       -1.6200    -1.9510    -0.1060 C.3   1 <1>   0.1760 
  7 C       -2.1250    -1.1170    -1.3020 C.3   1 <1>  -0.1600 
  8 N       -2.5390    -3.0750     0.2000 N.pl3 1 <1>   0.3140 
  9 N       -3.7350    -2.8540     0.7750 N.2   1 <1>  -0.7070 
 10 C       -2.3580    -4.3910    -0.0810 C.2   1 <1>  -0.3320 
 11 C       -4.2970    -4.0210     0.8410 C.2   1 <1>   0.1080 
 12 C       -3.4810    -5.0290     0.3170 C.2   1 <1>   0.0630 
 13 C       -1.1120    -4.9680    -0.7400 C.3   1 <1>  -0.0600 
 14 C       -5.6750    -4.2010     1.4400 C.3   1 <1>  -0.0590 
 15 N       -3.7230    -6.4230     0.2240 N.am  1 <1>  -0.4930 
 16 C       -4.8360    -7.0780    -0.2350 C.2   1 <1>   0.5440 
 17 O       -5.8060    -6.4450    -0.6040 O.2   1 <1>  -0.5700 
 18 C       -4.8550    -8.5280    -0.2720 C.ar  1 <1>   0.0860 
 19 C       -6.0180    -9.2370     0.0050 C.ar  1 <1>  -0.1500 
 20 C       -3.7120    -9.2720    -0.5860 C.ar  1 <1>  -0.1500 
 21 C       -6.0640   -10.6250    -0.0040 C.ar  1 <1>   0.1790 
 22 C       -3.7380   -10.6500    -0.6020 C.ar  1 <1>  -0.1500 
 23 N       -7.2540   -11.2600     0.2920 N.2   1 <1>  -0.6290 
 24 C       -4.9090   -11.3520    -0.3100 C.ar  1 <1>   0.0860 
 25 C       -7.2950   -12.5380     0.2810 C.2   1 <1>   0.4500 
 26 C       -5.0050   -12.7840    -0.3050 C.2   1 <1>   0.5440 
 27 N       -6.2240   -13.3500    -0.0060 N.am  1 <1>  -0.4200 
 28 O       -4.0460   -13.4980    -0.5540 O.2   1 <1>  -0.5700 
 29 C       -6.3740   -14.8290     0.0070 C.3   1 <1>   0.0600 
 30 H       -2.4440    -0.7300     1.4550 H     1 <1>   0.0800 
 31 H       -0.8860    -1.4310     1.8640 H     1 <1>   0.0800 
 32 H       -0.8000     0.4510    -1.9860 H     1 <1>   0.0800 
 33 H       -2.2840     1.0270    -1.2780 H     1 <1>   0.0800 
 34 H       -0.6490    -2.3480    -0.3400 H     1 <1>   0.0800 
 35 H       -1.8620    -1.5860    -2.2340 H     1 <1>   0.0800 
 36 H       -3.1980    -1.0270    -1.2490 H     1 <1>   0.0800 
 37 H       -0.9480    -4.4990    -1.6940 H     1 <1>   0.0800 
 38 H       -1.2230    -6.0240    -0.9020 H     1 <1>   0.0800 
 39 H       -0.2510    -4.8070    -0.1160 H     1 <1>   0.0800 
 40 H       -5.8510    -3.4480     2.1850 H     1 <1>   0.0800 
 41 H       -5.7610    -5.1700     1.8930 H     1 <1>   0.0800 
 42 H       -6.4140    -4.1080     0.6660 H     1 <1>   0.0800 
 43 H       -2.9420    -7.0010     0.5200 H     1 <1>   0.3700 
 44 H       -6.9210    -8.6980     0.2350 H     1 <1>   0.1500 
 45 H       -2.7960    -8.7630    -0.8320 H     1 <1>   0.1500 
 46 H       -2.8490   -11.2090    -0.8470 H     1 <1>   0.1500 
 47 H       -8.2220   -13.0350     0.5090 H     1 <1>   0.0600 
 48 H       -7.3840   -15.1080     0.2530 H     1 <1>   0.0800 
 49 H       -5.7030   -15.2510     0.7350 H     1 <1>   0.0800 
 50 H       -6.1250   -15.2220    -0.9640 H     1 <1>   0.0800 
@<TRIPOS>BOND
  1   1   2  2   
  2   1   3  2   
  3   1   4  1   
  4   1   5  1   
  5   4   6  1   
  6   4  30  1   
  7   4  31  1   
  8   5   7  1   
  9   5  32  1   
 10   5  33  1   
 11   6   7  1   
 12   6   8  1   
 13   6  34  1   
 14   7  35  1   
 15   7  36  1   
 16   8   9  1   
 17   8  10  1   
 18   9  11  2   
 19  10  12  2   
 20  10  13  1   
 21  11  12  1   
 22  11  14  1   
 23  12  15  1   
 24  13  37  1   
 25  13  38  1   
 26  13  39  1   
 27  14  40  1   
 28  14  41  1   
 29  14  42  1   
 30  15  16  am  
 31  15  43  1   
 32  16  17  2   
 33  16  18  1   
 34  18  19  ar  
 35  18  20  ar  
 36  19  21  ar  
 37  19  44  1   
 38  20  22  ar  
 39  20  45  1   
 40  21  23  1   
 41  21  24  ar  
 42  22  24  ar  
 43  22  46  1   
 44  23  25  2   
 45  24  26  1   
 46  25  27  1   
 47  25  47  1   
 48  26  27  am  
 49  26  28  2   
 50  27  29  1   
 51  29  48  1   
 52  29  49  1   
 53  29  50  1   
@<TRIPOS>SUBSTRUCTURE
  1 ****  15 GROUP 4 **** **** 0

# MOE 2024.06 (io_trps.svl 2023.06)
