@<TRIPOS>MOLECULE
NONAME
43 44 1 0 0 
SMALL
USER_CHARGES


@<TRIPOS>ATOM
  1 O       -1.3910    -1.0250    -0.6680 O.co2 1 <1>  -0.9000 
  2 C       -0.6810    -1.5120     0.2320 C.2   1 <1>   1.0330 
  3 O       -0.9210    -1.2030     1.4120 O.co2 1 <1>  -0.9000 
  4 C        0.4140    -2.3650    -0.0940 C.2   1 <1>  -0.2330 
  5 C        0.3470    -3.7270    -0.4020 C.2   1 <1>   0.3720 
  6 C        1.7360    -2.0690    -0.1980 C.2   1 <1>   0.0870 
  7 N        1.5210    -4.1900    -0.6660 N.2   1 <1>  -0.4100 
  8 N       -0.8150    -4.5260    -0.4350 N.pl3 1 <1>  -0.8210 
  9 O        2.3410    -3.1820    -0.5380 O.3   1 <1>  -0.0190 
 10 C        2.5070    -0.8590    -0.0270 C.ar  1 <1>   0.0530 
 11 C       -0.6240    -6.0010    -0.6540 C.3   1 <1>   0.2090 
 12 C       -1.9670    -3.9320    -1.1810 C.3   1 <1>   0.1290 
 13 C        3.7540    -0.7150    -0.6390 C.ar  1 <1>  -0.1500 
 14 C        2.0580     0.2130     0.7490 C.ar  1 <1>  -0.1500 
 15 C       -1.7390    -6.8250     0.0120 C.3   1 <1>   0.2000 
 16 C        4.5090     0.4330    -0.4890 C.ar  1 <1>  -0.1500 
 17 C        2.8040     1.3660     0.9030 C.ar  1 <1>  -0.1500 
 18 O       -1.9700    -6.2810     1.2680 O.3   1 <1>  -0.6800 
 19 C       -1.3630    -8.3100     0.1330 C.3   1 <1>   0.1200 
 20 C        4.0430     1.4860     0.2810 C.ar  1 <1>   0.0820 
 21 O       -2.5080    -9.0890     0.3230 O.3   1 <1>  -0.5600 
 22 O        4.8370     2.5790     0.3790 O.3   1 <1>  -0.3620 
 23 C       -2.2420   -10.4120     0.6550 C.3   1 <1>   0.0400 
 24 C        4.4300     3.7130     1.1100 C.3   1 <1>   0.0400 
 25 H        0.3130    -6.3100    -0.2260 H     1 <1>   0.0800 
 26 H       -0.5880    -6.2090    -1.7090 H     1 <1>   0.0800 
 27 H       -2.5940    -3.3850    -0.4970 H     1 <1>   0.0800 
 28 H       -2.5570    -4.6910    -1.6600 H     1 <1>   0.0800 
 29 H       -1.6110    -3.2480    -1.9340 H     1 <1>   0.0800 
 30 H        4.1350    -1.5170    -1.2460 H     1 <1>   0.1500 
 31 H        1.1080     0.1450     1.2470 H     1 <1>   0.1500 
 32 H       -2.6430    -6.7280    -0.5630 H     1 <1>   0.0800 
 33 H        5.4660     0.5220    -0.9700 H     1 <1>   0.1500 
 34 H        2.4020     2.1540     1.5090 H     1 <1>   0.1500 
 35 H       -1.7320    -5.3230     1.1920 H     1 <1>   0.4000 
 36 H       -0.6910    -8.4470     0.9630 H     1 <1>   0.0800 
 37 H       -0.8920    -8.6460    -0.7730 H     1 <1>   0.0800 
 38 H       -3.1820   -10.9250     0.7590 H     1 <1>   0.0800 
 39 H       -1.7090   -10.4420     1.5900 H     1 <1>   0.0800 
 40 H       -1.6630   -10.8680    -0.1290 H     1 <1>   0.0800 
 41 H        5.2040     4.4550     1.0360 H     1 <1>   0.0800 
 42 H        4.2880     3.4330     2.1380 H     1 <1>   0.0800 
 43 H        3.5170     4.0920     0.6850 H     1 <1>   0.0800 
@<TRIPOS>BOND
  1   1   2  ar  
  2   2   3  ar  
  3   2   4  1   
  4   4   5  1   
  5   4   6  2   
  6   5   7  2   
  7   5   8  1   
  8   6   9  1   
  9   6  10  1   
 10   7   9  1   
 11   8  11  1   
 12   8  12  1   
 13  10  13  ar  
 14  10  14  ar  
 15  11  15  1   
 16  11  25  1   
 17  11  26  1   
 18  12  27  1   
 19  12  28  1   
 20  12  29  1   
 21  13  16  ar  
 22  13  30  1   
 23  14  17  ar  
 24  14  31  1   
 25  15  18  1   
 26  15  19  1   
 27  15  32  1   
 28  16  20  ar  
 29  16  33  1   
 30  17  20  ar  
 31  17  34  1   
 32  18  35  1   
 33  19  21  1   
 34  19  36  1   
 35  19  37  1   
 36  20  22  1   
 37  21  23  1   
 38  22  24  1   
 39  23  38  1   
 40  23  39  1   
 41  23  40  1   
 42  24  41  1   
 43  24  42  1   
 44  24  43  1   
@<TRIPOS>SUBSTRUCTURE
  1 ****   4 GROUP 4 **** **** 0

# MOE 2024.06 (io_trps.svl 2023.06)
