@<TRIPOS>MOLECULE
NONAME
48 50 1 0 0 
SMALL
USER_CHARGES


@<TRIPOS>ATOM
  1 S        0.2200    -1.4020     1.8550 S.3   1 <1>  -0.0800 
  2 C       -1.4120    -0.9660     1.4000 C.2   1 <1>   0.1980 
  3 C        0.2190    -2.6210     0.6150 C.2   1 <1>  -0.1100 
  4 N       -1.8920    -1.6580     0.4440 N.2   1 <1>  -0.5650 
  5 C       -2.0640     0.1600     2.1700 C.3   1 <1>  -0.0600 
  6 C       -0.9670    -2.5950    -0.0130 C.2   1 <1>   0.0460 
  7 C       -1.4110    -3.4920    -1.1590 C.3   1 <1>   0.5240 
  8 N       -2.8150    -3.8980    -0.8840 N.4   1 <1>  -0.9590 
  9 C       -2.9000    -4.9030     0.2370 C.3   1 <1>   0.3430 
 10 C       -3.5620    -4.3120    -2.1240 C.3   1 <1>   0.3430 
 11 C       -4.3540    -5.3240     0.5290 C.3   1 <1>   0.1400 
 12 C       -5.0120    -4.7180    -1.8040 C.3   1 <1>   0.1400 
 13 N       -5.0150    -5.7610    -0.7360 N.am  1 <1>  -0.6600 
 14 C       -5.2490    -7.0870    -1.0310 C.2   1 <1>   0.7150 
 15 O       -5.4390    -7.3980    -2.1900 O.2   1 <1>  -0.5700 
 16 C       -5.1900    -8.0890    -0.0070 C.2   1 <1>  -0.2370 
 17 N       -6.2450    -8.4680     0.7940 N.pl3 1 <1>   0.0480 
 18 C       -4.0930    -8.8250     0.3620 C.2   1 <1>  -0.1500 
 19 C       -5.7780    -9.4070     1.6560 C.2   1 <1>  -0.3020 
 20 C       -7.6740    -8.0360     0.7700 C.3   1 <1>   0.1760 
 21 C       -4.4640    -9.6500     1.4160 C.2   1 <1>  -0.1500 
 22 C       -8.3240    -8.3080    -0.5910 C.3   1 <1>  -0.2400 
 23 C       -7.8270    -6.5680     1.1840 C.3   1 <1>  -0.2400 
 24 H        1.1120    -3.2110     0.5010 H     1 <1>   0.1500 
 25 H       -1.4920     1.0610     2.0510 H     1 <1>   0.0800 
 26 H       -2.1140    -0.0900     3.2140 H     1 <1>   0.0800 
 27 H       -3.0600     0.3290     1.8030 H     1 <1>   0.0800 
 28 H       -0.7660    -4.3490    -1.2510 H     1 <1>   0.0800 
 29 H       -1.3710    -2.9200    -2.0710 H     1 <1>   0.0800 
 30 H       -3.2240    -3.0210    -0.5150 H     1 <1>   0.4500 
 31 H       -2.4680    -4.4870     1.1330 H     1 <1>   0.0800 
 32 H       -2.3400    -5.7860    -0.0240 H     1 <1>   0.0800 
 33 H       -3.0720    -5.1560    -2.5820 H     1 <1>   0.0800 
 34 H       -3.5720    -3.5040    -2.8370 H     1 <1>   0.0800 
 35 H       -4.8970    -4.4940     0.9470 H     1 <1>   0.0800 
 36 H       -4.3560    -6.1120     1.2630 H     1 <1>   0.0800 
 37 H       -5.4890    -5.0820    -2.6980 H     1 <1>   0.0800 
 38 H       -5.5690    -3.8610    -1.4690 H     1 <1>   0.0800 
 39 H       -3.1120    -8.7950    -0.0770 H     1 <1>   0.1500 
 40 H       -6.4030    -9.8730     2.3980 H     1 <1>   0.1500 
 41 H       -8.1920    -8.6350     1.4990 H     1 <1>   0.0800 
 42 H       -3.8210   -10.3480     1.9260 H     1 <1>   0.1500 
 43 H       -7.9290    -7.6610    -1.3520 H     1 <1>   0.0800 
 44 H       -9.3840    -8.1390    -0.5300 H     1 <1>   0.0800 
 45 H       -8.1610    -9.3310    -0.8810 H     1 <1>   0.0800 
 46 H       -7.4350    -5.9110     0.4310 H     1 <1>   0.0800 
 47 H       -7.3240    -6.3910     2.1180 H     1 <1>   0.0800 
 48 H       -8.8690    -6.3380     1.3130 H     1 <1>   0.0800 
@<TRIPOS>BOND
  1   1   2  1   
  2   1   3  1   
  3   2   4  2   
  4   2   5  1   
  5   3   6  2   
  6   3  24  1   
  7   4   6  1   
  8   5  25  1   
  9   5  26  1   
 10   5  27  1   
 11   6   7  1   
 12   7   8  1   
 13   7  28  1   
 14   7  29  1   
 15   8   9  1   
 16   8  10  1   
 17   8  30  1   
 18   9  11  1   
 19   9  31  1   
 20   9  32  1   
 21  10  12  1   
 22  10  33  1   
 23  10  34  1   
 24  11  13  1   
 25  11  35  1   
 26  11  36  1   
 27  12  13  1   
 28  12  37  1   
 29  12  38  1   
 30  13  14  am  
 31  14  15  2   
 32  14  16  1   
 33  16  17  1   
 34  16  18  2   
 35  17  19  1   
 36  17  20  1   
 37  18  21  1   
 38  18  39  1   
 39  19  21  2   
 40  19  40  1   
 41  20  22  1   
 42  20  23  1   
 43  20  41  1   
 44  21  42  1   
 45  22  43  1   
 46  22  44  1   
 47  22  45  1   
 48  23  46  1   
 49  23  47  1   
 50  23  48  1   
@<TRIPOS>SUBSTRUCTURE
  1 ****  11 GROUP 4 **** **** 0

# MOE 2024.06 (io_trps.svl 2023.06)
