@<TRIPOS>MOLECULE
NONAME
48 50 1 0 0 
SMALL
USER_CHARGES


@<TRIPOS>ATOM
  1 O       -1.0170     0.6350    -0.9450 O.2   1 <1>  -0.5700 
  2 C       -1.9520     0.6850    -0.1910 C.2   1 <1>   0.4230 
  3 C       -3.1730    -0.0350    -0.4270 C.ar  1 <1>   0.0860 
  4 C       -1.7600     1.4970     1.0750 C.3   1 <1>  -0.1790 
  5 C       -4.4660     0.4460    -0.2390 C.ar  1 <1>   0.1660 
  6 C       -3.1040    -1.3390    -0.8840 C.ar  1 <1>   0.1600 
  7 N       -5.5240    -0.3030    -0.4180 N.ar  1 <1>  -0.6200 
  8 C       -4.7610     1.8830     0.1590 C.3   1 <1>  -0.0960 
  9 N       -4.1490    -2.1010    -1.0770 N.ar  1 <1>  -0.6200 
 10 C       -5.3390    -1.5600    -0.8210 C.ar  1 <1>   0.7200 
 11 N       -6.4540    -2.3490    -0.9930 N.pl3 1 <1>  -0.8380 
 12 C       -6.3790    -3.7980    -1.3410 C.3   1 <1>   0.2090 
 13 C       -7.8470    -1.8260    -0.8780 C.3   1 <1>   0.2090 
 14 C       -7.1280    -4.6160    -0.2900 C.3   1 <1>  -0.1600 
 15 C       -8.6020    -2.6220     0.1850 C.3   1 <1>  -0.1600 
 16 C       -8.5680    -4.1150    -0.1410 C.3   1 <1>   0.2000 
 17 O       -9.1950    -4.8070     0.9190 O.3   1 <1>  -0.3630 
 18 C       -9.6520    -6.0580     0.6590 C.ar  1 <1>   0.0830 
 19 C      -10.6940    -6.3110    -0.2400 C.ar  1 <1>   0.0830 
 20 C       -9.0470    -7.1130     1.3220 C.ar  1 <1>  -0.1500 
 21 O      -11.3620    -5.3210    -0.8820 O.3   1 <1>  -0.3630 
 22 C      -11.0760    -7.6170    -0.4980 C.ar  1 <1>  -0.1500 
 23 C       -9.4440    -8.4160     1.0710 C.ar  1 <1>  -0.1500 
 24 C      -12.1730    -4.4980    -0.0740 C.3   1 <1>   0.0400 
 25 C      -10.4530    -8.6680     0.1570 C.ar  1 <1>  -0.1500 
 26 H       -2.4580     1.1970     1.8340 H     1 <1>   0.0800 
 27 H       -1.8800     2.5420     0.8610 H     1 <1>   0.0800 
 28 H       -0.7640     1.3390     1.4480 H     1 <1>   0.0800 
 29 H       -2.1340    -1.7600    -1.0890 H     1 <1>   0.1500 
 30 H       -4.0500     2.5580    -0.2780 H     1 <1>   0.0800 
 31 H       -4.7460     1.9780     1.2290 H     1 <1>   0.0800 
 32 H       -5.7390     2.1660    -0.1900 H     1 <1>   0.0800 
 33 H       -5.3620    -4.1460    -1.3940 H     1 <1>   0.0800 
 34 H       -6.8260    -3.9470    -2.3090 H     1 <1>   0.0800 
 35 H       -8.3370    -1.9300    -1.8300 H     1 <1>   0.0800 
 36 H       -7.8640    -0.7820    -0.6160 H     1 <1>   0.0800 
 37 H       -6.6110    -4.5260     0.6490 H     1 <1>   0.0800 
 38 H       -7.1300    -5.6480    -0.5880 H     1 <1>   0.0800 
 39 H       -9.6210    -2.2850     0.2220 H     1 <1>   0.0800 
 40 H       -8.1420    -2.4440     1.1410 H     1 <1>   0.0800 
 41 H       -9.1140    -4.2950    -1.0510 H     1 <1>   0.0800 
 42 H       -8.2620    -6.9080     2.0280 H     1 <1>   0.1500 
 43 H      -11.8630    -7.8060    -1.2040 H     1 <1>   0.1500 
 44 H       -8.9670    -9.2320     1.5860 H     1 <1>   0.1500 
 45 H      -12.6820    -3.7970    -0.7110 H     1 <1>   0.0800 
 46 H      -11.5570    -3.9720     0.6330 H     1 <1>   0.0800 
 47 H      -12.8880    -5.1150     0.4420 H     1 <1>   0.0800 
 48 H      -10.7570    -9.6810    -0.0440 H     1 <1>   0.1500 
@<TRIPOS>BOND
  1   1   2  2   
  2   2   3  1   
  3   2   4  1   
  4   3   5  ar  
  5   3   6  ar  
  6   4  26  1   
  7   4  27  1   
  8   4  28  1   
  9   5   7  ar  
 10   5   8  1   
 11   6   9  ar  
 12   6  29  1   
 13   7  10  ar  
 14   8  30  1   
 15   8  31  1   
 16   8  32  1   
 17   9  10  ar  
 18  10  11  1   
 19  11  12  1   
 20  11  13  1   
 21  12  14  1   
 22  12  33  1   
 23  12  34  1   
 24  13  15  1   
 25  13  35  1   
 26  13  36  1   
 27  14  16  1   
 28  14  37  1   
 29  14  38  1   
 30  15  16  1   
 31  15  39  1   
 32  15  40  1   
 33  16  17  1   
 34  16  41  1   
 35  17  18  1   
 36  18  19  ar  
 37  18  20  ar  
 38  19  21  1   
 39  19  22  ar  
 40  20  23  ar  
 41  20  42  1   
 42  21  24  1   
 43  22  25  ar  
 44  22  43  1   
 45  23  25  ar  
 46  23  44  1   
 47  24  45  1   
 48  24  46  1   
 49  24  47  1   
 50  25  48  1   
@<TRIPOS>SUBSTRUCTURE
  1 ****  11 GROUP 4 **** **** 0

# MOE 2024.06 (io_trps.svl 2023.06)
