@<TRIPOS>MOLECULE
NONAME
46 49 1 0 0 
SMALL
USER_CHARGES


@<TRIPOS>ATOM
  1 O        4.0700    -1.4940    -1.9460 O.2   1 <1>  -0.5700 
  2 C        3.3040    -1.5610    -1.0010 C.2   1 <1>   0.5440 
  3 N        3.1820    -0.4200    -0.2490 N.am  1 <1>  -0.6600 
  4 C        2.6240    -2.7960    -0.6480 C.ar  1 <1>   0.0860 
  5 C        4.0410    -0.3230     0.9830 C.3   1 <1>   0.2200 
  6 C        2.7600     0.8370    -0.9430 C.3   1 <1>   0.1400 
  7 C        1.5660    -2.8280     0.2620 C.ar  1 <1>  -0.1500 
  8 C        3.0070    -4.0160    -1.2060 C.ar  1 <1>  -0.1500 
  9 C        3.5220     0.7060     1.9990 C.3   1 <1>   0.1200 
 10 C        5.5220    -0.0340     0.6150 C.3   1 <1>   0.3430 
 11 C        3.6450     2.0680    -0.6670 C.3   1 <1>  -0.0800 
 12 C        0.9360    -4.0110     0.6020 C.ar  1 <1>  -0.1500 
 13 C        2.3780    -5.1980    -0.8650 C.ar  1 <1>  -0.1500 
 14 O        4.0290     1.9760     1.7180 O.3   1 <1>  -0.5600 
 15 N        5.6860     0.5130    -0.7760 N.4   1 <1>  -0.9590 
 16 C        3.3750     2.6800     0.7170 C.3   1 <1>   0.1200 
 17 C        5.1530     1.9000    -0.9530 C.3   1 <1>   0.3430 
 18 C        1.3270    -5.2280     0.0490 C.ar  1 <1>   0.0530 
 19 C        7.0910     0.3950    -1.2550 C.3   1 <1>   0.2630 
 20 C        0.6720    -6.4660     0.4060 C.2   1 <1>   0.0870 
 21 O        1.1300    -7.6230    -0.0110 O.3   1 <1>  -0.2800 
 22 C       -0.4200    -6.7540     1.1510 C.2   1 <1>   0.0770 
 23 C        0.3310    -8.5370     0.4770 C.2   1 <1>   0.3280 
 24 N       -0.6330    -8.0820     1.1920 N.2   1 <1>  -0.5650 
 25 H        4.0080    -1.2780     1.4780 H     1 <1>   0.0800 
 26 H        2.7430     0.6610    -2.0070 H     1 <1>   0.0800 
 27 H        1.7470     1.0590    -0.6530 H     1 <1>   0.0800 
 28 H        1.2240    -1.9110     0.7090 H     1 <1>   0.1500 
 29 H        3.8110    -4.0370    -1.9220 H     1 <1>   0.1500 
 30 H        3.8830     0.4470     2.9800 H     1 <1>   0.0800 
 31 H        2.4450     0.7320     2.0340 H     1 <1>   0.0800 
 32 H        6.0630    -0.9620     0.6900 H     1 <1>   0.0800 
 33 H        5.9470     0.6460     1.3350 H     1 <1>   0.0800 
 34 H        3.3040     2.8210    -1.3550 H     1 <1>   0.0800 
 35 H        0.1250    -3.9890     1.3080 H     1 <1>   0.1500 
 36 H        2.7060    -6.1170    -1.3200 H     1 <1>   0.1500 
 37 H        5.0880    -0.1130    -1.3650 H     1 <1>   0.4500 
 38 H        2.3220     2.7160     0.9420 H     1 <1>   0.0800 
 39 H        3.7550     3.6880     0.7500 H     1 <1>   0.0800 
 40 H        5.7040     2.5790    -0.3240 H     1 <1>   0.0800 
 41 H        5.3260     2.1950    -1.9750 H     1 <1>   0.0800 
 42 H        7.7440     1.0070    -0.6550 H     1 <1>   0.0800 
 43 H        7.1620     0.7120    -2.2820 H     1 <1>   0.0800 
 44 H        7.4190    -0.6300    -1.1920 H     1 <1>   0.0800 
 45 H       -1.0740    -6.0710     1.6640 H     1 <1>   0.1500 
 46 H        0.5270    -9.5720     0.2540 H     1 <1>   0.1500 
@<TRIPOS>BOND
  1   1   2  2   
  2   2   3  am  
  3   2   4  1   
  4   3   5  1   
  5   3   6  1   
  6   4   7  ar  
  7   4   8  ar  
  8   5   9  1   
  9   5  10  1   
 10   5  25  1   
 11   6  11  1   
 12   6  26  1   
 13   6  27  1   
 14   7  12  ar  
 15   7  28  1   
 16   8  13  ar  
 17   8  29  1   
 18   9  14  1   
 19   9  30  1   
 20   9  31  1   
 21  10  15  1   
 22  10  32  1   
 23  10  33  1   
 24  11  16  1   
 25  11  17  1   
 26  11  34  1   
 27  12  18  ar  
 28  12  35  1   
 29  13  18  ar  
 30  13  36  1   
 31  14  16  1   
 32  15  17  1   
 33  15  19  1   
 34  15  37  1   
 35  16  38  1   
 36  16  39  1   
 37  17  40  1   
 38  17  41  1   
 39  18  20  1   
 40  19  42  1   
 41  19  43  1   
 42  19  44  1   
 43  20  21  1   
 44  20  22  2   
 45  21  23  1   
 46  22  24  1   
 47  22  45  1   
 48  23  24  2   
 49  23  46  1   
@<TRIPOS>SUBSTRUCTURE
  1 ****   4 GROUP 4 **** **** 0

# MOE 2024.06 (io_trps.svl 2023.06)
