@<TRIPOS>MOLECULE
NONAME
58 61 1 0 0 
SMALL
USER_CHARGES


@<TRIPOS>ATOM
  1 O       -1.1440     1.5380     1.7180 O.2   1 <1>  -0.5700 
  2 C       -1.9270     2.0810     0.9720 C.2   1 <1>   0.5690 
  3 N       -3.2450     1.6860     0.9060 N.am  1 <1>  -0.6600 
  4 C       -1.4120     3.2220     0.1040 C.3   1 <1>  -0.0990 
  5 C       -4.2130     2.2360    -0.0930 C.3   1 <1>   0.2200 
  6 C       -3.7340     0.6380     1.8570 C.3   1 <1>   0.0600 
  7 C       -0.0080     3.7110     0.4900 C.3   1 <1>   0.0210 
  8 C       -5.1880     3.2260     0.5290 C.3   1 <1>  -0.1600 
  9 C       -5.1200     1.2000    -0.7550 C.3   1 <1>  -0.1600 
 10 C        0.4590     4.8780    -0.3670 C.2   1 <1>  -0.1810 
 11 C       -6.3420     3.3170    -0.4820 C.3   1 <1>  -0.0800 
 12 C       -6.2870     2.0260    -1.3180 C.3   1 <1>  -0.0800 
 13 C        1.7010     5.5240    -0.1710 C.ar  1 <1>   0.0000 
 14 C       -0.1580     5.4930    -1.4070 C.2   1 <1>  -0.3020 
 15 C       -7.7330     3.3650     0.1630 C.3   1 <1>  -0.1600 
 16 C       -7.6560     1.3490    -1.1690 C.3   1 <1>  -0.1600 
 17 C        1.7820     6.5290    -1.1290 C.ar  1 <1>  -0.1520 
 18 C        2.7580     5.3440     0.7280 C.ar  1 <1>  -0.1500 
 19 N        0.6360     6.4990    -1.8790 N.pl3 1 <1>   0.0330 
 20 C       -8.2260     1.9180     0.1280 C.3   1 <1>   0.4230 
 21 C        2.9010     7.3630    -1.2050 C.ar  1 <1>  -0.1500 
 22 C        3.8600     6.1640     0.6530 C.ar  1 <1>  -0.1500 
 23 N       -9.7100     1.7580     0.2350 N.4   1 <1>  -0.9590 
 24 C        3.9320     7.1740    -0.3140 C.ar  1 <1>  -0.1500 
 25 C      -10.5140     2.4880    -0.8020 C.3   1 <1>   0.2630 
 26 C      -10.1830     2.1330     1.6030 C.3   1 <1>   0.2630 
 27 H       -1.3900     2.8890    -0.9170 H     1 <1>   0.0800 
 28 H       -2.0890     4.0510     0.1890 H     1 <1>   0.0800 
 29 H       -3.6850     2.7380    -0.8850 H     1 <1>   0.0800 
 30 H       -4.7310     0.8600     2.1880 H     1 <1>   0.0800 
 31 H       -3.1000     0.5870     2.7260 H     1 <1>   0.0800 
 32 H       -3.7210    -0.3230     1.3720 H     1 <1>   0.0800 
 33 H        0.6950     2.9030     0.3870 H     1 <1>   0.0800 
 34 H       -0.0090     4.0180     1.5220 H     1 <1>   0.0800 
 35 H       -5.5380     2.8480     1.4720 H     1 <1>   0.0800 
 36 H       -4.7230     4.1840     0.6820 H     1 <1>   0.0800 
 37 H       -4.5990     0.6720    -1.5340 H     1 <1>   0.0800 
 38 H       -5.4900     0.4960    -0.0350 H     1 <1>   0.0800 
 39 H       -6.1900     4.1740    -1.1190 H     1 <1>   0.0800 
 40 H       -6.0900     2.2630    -2.3520 H     1 <1>   0.0800 
 41 H       -1.1150     5.2820    -1.8490 H     1 <1>   0.1500 
 42 H       -8.3530     4.0000    -0.4420 H     1 <1>   0.0800 
 43 H       -7.6960     3.7550     1.1650 H     1 <1>   0.0800 
 44 H       -7.5730     0.2770    -1.1370 H     1 <1>   0.0800 
 45 H       -8.2560     1.6330    -2.0130 H     1 <1>   0.0800 
 46 H        2.6910     4.5650     1.4650 H     1 <1>   0.1500 
 47 H        0.4270     7.1300    -2.6590 H     1 <1>   0.2700 
 48 H       -7.7530     1.3930     0.9430 H     1 <1>   0.0800 
 49 H        2.9470     8.1360    -1.9510 H     1 <1>   0.1500 
 50 H        4.6790     6.0360     1.3390 H     1 <1>   0.1500 
 51 H       -9.8950     0.7520     0.1090 H     1 <1>   0.4500 
 52 H        4.8050     7.8020    -0.3510 H     1 <1>   0.1500 
 53 H      -10.3790     3.5530    -0.7060 H     1 <1>   0.0800 
 54 H      -11.5620     2.2670    -0.6830 H     1 <1>   0.0800 
 55 H      -10.2180     2.1910    -1.7940 H     1 <1>   0.0800 
 56 H      -10.0160     3.1830     1.7830 H     1 <1>   0.0800 
 57 H       -9.6520     1.5670     2.3520 H     1 <1>   0.0800 
 58 H      -11.2370     1.9300     1.7040 H     1 <1>   0.0800 
@<TRIPOS>BOND
  1   1   2  2   
  2   2   3  am  
  3   2   4  1   
  4   3   5  1   
  5   3   6  1   
  6   4   7  1   
  7   4  27  1   
  8   4  28  1   
  9   5   8  1   
 10   5   9  1   
 11   5  29  1   
 12   6  30  1   
 13   6  31  1   
 14   6  32  1   
 15   7  10  1   
 16   7  33  1   
 17   7  34  1   
 18   8  11  1   
 19   8  35  1   
 20   8  36  1   
 21   9  12  1   
 22   9  37  1   
 23   9  38  1   
 24  10  13  1   
 25  10  14  2   
 26  11  12  1   
 27  11  15  1   
 28  11  39  1   
 29  12  16  1   
 30  12  40  1   
 31  13  17  ar  
 32  13  18  ar  
 33  14  19  1   
 34  14  41  1   
 35  15  20  1   
 36  15  42  1   
 37  15  43  1   
 38  16  20  1   
 39  16  44  1   
 40  16  45  1   
 41  17  19  1   
 42  17  21  ar  
 43  18  22  ar  
 44  18  46  1   
 45  19  47  1   
 46  20  23  1   
 47  20  48  1   
 48  21  24  ar  
 49  21  49  1   
 50  22  24  ar  
 51  22  50  1   
 52  23  25  1   
 53  23  26  1   
 54  23  51  1   
 55  24  52  1   
 56  25  53  1   
 57  25  54  1   
 58  25  55  1   
 59  26  56  1   
 60  26  57  1   
 61  26  58  1   
@<TRIPOS>SUBSTRUCTURE
  1 ****   4 GROUP 4 **** **** 0

# MOE 2024.06 (io_trps.svl 2023.06)
