@<TRIPOS>MOLECULE
NONAME
48 50 1 0 0 
SMALL
USER_CHARGES


@<TRIPOS>ATOM
  1 F       -1.0540    -0.9350    -1.6270 F     1 <1>  -0.1900 
  2 C       -1.9040    -1.2000    -0.6670 C.ar  1 <1>   0.1900 
  3 C       -2.4280    -0.1900     0.1480 C.ar  1 <1>   0.0830 
  4 C       -2.2530    -2.5260    -0.5100 C.ar  1 <1>  -0.1500 
  5 O       -2.1610     1.1410     0.0850 O.3   1 <1>  -0.3630 
  6 C       -3.3200    -0.5750     1.1380 C.ar  1 <1>  -0.1500 
  7 C       -3.1590    -2.9090     0.4780 C.ar  1 <1>   0.0860 
  8 C       -1.2490     1.7080    -0.8280 C.3   1 <1>   0.0400 
  9 C       -3.6740    -1.9030     1.3000 C.ar  1 <1>  -0.1500 
 10 C       -3.5410    -4.2990     0.6420 C.2   1 <1>   0.5440 
 11 O       -2.7300    -5.1860     0.4400 O.2   1 <1>  -0.5700 
 12 N       -4.8180    -4.6670     0.9990 N.am  1 <1>  -0.6600 
 13 C       -5.0890    -6.0480     1.4930 C.3   1 <1>   0.1400 
 14 C       -6.0210    -4.0110     0.4100 C.3   1 <1>   0.1400 
 15 C       -5.5290    -6.9220     0.2950 C.3   1 <1>   0.4230 
 16 C       -6.5260    -4.8700    -0.7600 C.3   1 <1>  -0.1600 
 17 N       -5.7210    -8.3760     0.6240 N.4   1 <1>  -0.9590 
 18 C       -6.8150    -6.3380    -0.3320 C.3   1 <1>  -0.1060 
 19 C       -6.0220    -9.1820    -0.5860 C.3   1 <1>   0.3430 
 20 C       -4.6460    -8.9810     1.4550 C.3   1 <1>   0.2630 
 21 C       -7.9400    -6.3870     0.7210 C.2   1 <1>   0.9060 
 22 C       -7.1990    -7.1560    -1.5880 C.3   1 <1>  -0.1600 
 23 C       -7.2830    -8.6590    -1.2770 C.3   1 <1>  -0.1600 
 24 O       -7.9540    -7.3200     1.5410 O.co2 1 <1>  -0.9000 
 25 O       -8.7860    -5.4950     0.7470 O.co2 1 <1>  -0.9000 
 26 H       -1.8220    -3.2710    -1.1540 H     1 <1>   0.1500 
 27 H       -3.7350     0.1790     1.7840 H     1 <1>   0.1500 
 28 H       -1.2120     2.7680    -0.6490 H     1 <1>   0.0800 
 29 H       -1.5920     1.5190    -1.8300 H     1 <1>   0.0800 
 30 H       -0.2770     1.2780    -0.6650 H     1 <1>   0.0800 
 31 H       -4.3640    -2.1710     2.0820 H     1 <1>   0.1500 
 32 H       -4.1930    -6.4390     1.9380 H     1 <1>   0.0800 
 33 H       -5.8550    -6.0110     2.2490 H     1 <1>   0.0800 
 34 H       -6.7860    -3.9170     1.1640 H     1 <1>   0.0800 
 35 H       -5.7860    -3.0240     0.0530 H     1 <1>   0.0800 
 36 H       -4.7410    -6.8520    -0.4350 H     1 <1>   0.0800 
 37 H       -7.4260    -4.4240    -1.1470 H     1 <1>   0.0800 
 38 H       -5.7910    -4.8440    -1.5450 H     1 <1>   0.0800 
 39 H       -6.6170    -8.3340     1.1820 H     1 <1>   0.4500 
 40 H       -5.1900    -9.1310    -1.2680 H     1 <1>   0.0800 
 41 H       -6.1750   -10.2120    -0.3080 H     1 <1>   0.0800 
 42 H       -3.6980    -8.9130     0.9460 H     1 <1>   0.0800 
 43 H       -4.8690   -10.0160     1.6500 H     1 <1>   0.0800 
 44 H       -4.5730    -8.4670     2.3990 H     1 <1>   0.0800 
 45 H       -8.1520    -6.8130    -1.9590 H     1 <1>   0.0800 
 46 H       -6.4680    -7.0000    -2.3630 H     1 <1>   0.0800 
 47 H       -7.4370    -9.2040    -2.1910 H     1 <1>   0.0800 
 48 H       -8.1340    -8.8530    -0.6460 H     1 <1>   0.0800 
@<TRIPOS>BOND
  1   1   2  1   
  2   2   3  ar  
  3   2   4  ar  
  4   3   5  1   
  5   3   6  ar  
  6   4   7  ar  
  7   4  26  1   
  8   5   8  1   
  9   6   9  ar  
 10   6  27  1   
 11   7   9  ar  
 12   7  10  1   
 13   8  28  1   
 14   8  29  1   
 15   8  30  1   
 16   9  31  1   
 17  10  11  2   
 18  10  12  am  
 19  12  13  1   
 20  12  14  1   
 21  13  15  1   
 22  13  32  1   
 23  13  33  1   
 24  14  16  1   
 25  14  34  1   
 26  14  35  1   
 27  15  17  1   
 28  15  18  1   
 29  15  36  1   
 30  16  18  1   
 31  16  37  1   
 32  16  38  1   
 33  17  19  1   
 34  17  20  1   
 35  17  39  1   
 36  18  21  1   
 37  18  22  1   
 38  19  23  1   
 39  19  40  1   
 40  19  41  1   
 41  20  42  1   
 42  20  43  1   
 43  20  44  1   
 44  21  24  ar  
 45  21  25  ar  
 46  22  23  1   
 47  22  45  1   
 48  22  46  1   
 49  23  47  1   
 50  23  48  1   
@<TRIPOS>SUBSTRUCTURE
  1 ****  12 GROUP 4 **** **** 0

# MOE 2024.06 (io_trps.svl 2023.06)
