@<TRIPOS>MOLECULE
NONAME
50 53 1 0 0 
SMALL
USER_CHARGES


@<TRIPOS>ATOM
  1 F       -1.4620    -0.3600     2.1260 F     1 <1>  -0.1900 
  2 C       -2.4930    -0.3620     1.3190 C.ar  1 <1>   0.1900 
  3 C       -3.5890    -1.1250     1.6410 C.ar  1 <1>  -0.1500 
  4 C       -2.4190     0.4220     0.1630 C.ar  1 <1>  -0.1500 
  5 C       -4.6670    -1.1020     0.7590 C.ar  1 <1>   0.2270 
  6 C       -3.4880     0.4410    -0.7070 C.ar  1 <1>  -0.1500 
  7 N       -5.8590    -1.7540     0.8340 N.2   1 <1>  -0.5650 
  8 C       -4.6110    -0.3320    -0.3900 C.ar  1 <1>  -0.1520 
  9 C       -6.4960    -1.3930    -0.2260 C.2   1 <1>   0.0060 
 10 N       -5.7980    -0.5310    -1.0140 N.pl3 1 <1>   0.0330 
 11 C       -7.8960    -1.8840    -0.5690 C.3   1 <1>   0.1000 
 12 C       -8.8610    -1.5690     0.5850 C.3   1 <1>  -0.1600 
 13 C       -7.8640    -3.3960    -0.8400 C.3   1 <1>  -0.1600 
 14 C      -10.2440    -2.1740     0.3610 C.3   1 <1>   0.3430 
 15 C       -9.2610    -3.9760    -1.0420 C.3   1 <1>   0.3430 
 16 N      -10.1160    -3.6390     0.1330 N.4   1 <1>  -0.9590 
 17 C      -11.4570    -4.3400     0.0730 C.3   1 <1>   0.4040 
 18 C      -11.3620    -5.8720     0.2080 C.2   1 <1>   0.5690 
 19 O      -10.3510    -6.3260     0.6890 O.2   1 <1>  -0.5700 
 20 N      -12.3740    -6.6730    -0.2150 N.am  1 <1>  -0.7300 
 21 C      -12.3780    -8.1530    -0.0930 C.3   1 <1>   0.3200 
 22 C      -13.7830    -8.6370     0.2040 C.2   1 <1>  -0.0400 
 23 O      -14.0790    -9.8760    -0.1210 O.3   1 <1>  -0.2800 
 24 C      -14.8560    -8.0330     0.7600 C.2   1 <1>  -0.1500 
 25 C      -15.3500   -10.1220     0.2010 C.2   1 <1>  -0.0920 
 26 C      -15.8690    -8.9930     0.7570 C.2   1 <1>  -0.1500 
 27 C      -15.9950   -11.4070    -0.0360 C.2   1 <1>   1.0320 
 28 O      -17.1870   -11.5670     0.2960 O.co2 1 <1>  -0.9000 
 29 O      -15.3960   -12.3610    -0.5680 O.co2 1 <1>  -0.9000 
 30 H       -3.6320    -1.7210     2.5310 H     1 <1>   0.1500 
 31 H       -1.5290     0.9950    -0.0260 H     1 <1>   0.1500 
 32 H       -3.4650     1.0330    -1.6050 H     1 <1>   0.1500 
 33 H       -6.0860    -0.1070    -1.8990 H     1 <1>   0.2700 
 34 H       -8.2390    -1.3780    -1.4550 H     1 <1>   0.0800 
 35 H       -8.9510    -0.5030     0.6920 H     1 <1>   0.0800 
 36 H       -8.4620    -1.9480     1.5110 H     1 <1>   0.0800 
 37 H       -7.3920    -3.9050    -0.0160 H     1 <1>   0.0800 
 38 H       -7.2680    -3.5910    -1.7140 H     1 <1>   0.0800 
 39 H      -10.7080    -1.7080    -0.4930 H     1 <1>   0.0800 
 40 H      -10.8580    -1.9860     1.2280 H     1 <1>   0.0800 
 41 H       -9.1860    -5.0480    -1.1480 H     1 <1>   0.0800 
 42 H       -9.6960    -3.5730    -1.9430 H     1 <1>   0.0800 
 43 H       -9.6290    -4.0570     0.9460 H     1 <1>   0.4500 
 44 H      -11.9490    -4.1040    -0.8540 H     1 <1>   0.0800 
 45 H      -12.0770    -3.9860     0.8790 H     1 <1>   0.0800 
 46 H      -13.2440    -6.3250    -0.6250 H     1 <1>   0.3700 
 47 H      -11.7110    -8.4790     0.6870 H     1 <1>   0.0800 
 48 H      -12.0520    -8.5850    -1.0230 H     1 <1>   0.0800 
 49 H      -14.9590    -7.0360     1.1430 H     1 <1>   0.1500 
 50 H      -16.8740    -8.8750     1.1230 H     1 <1>   0.1500 
@<TRIPOS>BOND
  1   1   2  1   
  2   2   3  ar  
  3   2   4  ar  
  4   3   5  ar  
  5   3  30  1   
  6   4   6  ar  
  7   4  31  1   
  8   5   7  1   
  9   5   8  ar  
 10   6   8  ar  
 11   6  32  1   
 12   7   9  2   
 13   8  10  1   
 14   9  10  1   
 15   9  11  1   
 16  10  33  1   
 17  11  12  1   
 18  11  13  1   
 19  11  34  1   
 20  12  14  1   
 21  12  35  1   
 22  12  36  1   
 23  13  15  1   
 24  13  37  1   
 25  13  38  1   
 26  14  16  1   
 27  14  39  1   
 28  14  40  1   
 29  15  16  1   
 30  15  41  1   
 31  15  42  1   
 32  16  17  1   
 33  16  43  1   
 34  17  18  1   
 35  17  44  1   
 36  17  45  1   
 37  18  19  2   
 38  18  20  am  
 39  20  21  1   
 40  20  46  1   
 41  21  22  1   
 42  21  47  1   
 43  21  48  1   
 44  22  23  1   
 45  22  24  2   
 46  23  25  1   
 47  24  26  1   
 48  24  49  1   
 49  25  26  2   
 50  25  27  1   
 51  26  50  1   
 52  27  28  ar  
 53  27  29  ar  
@<TRIPOS>SUBSTRUCTURE
  1 ****  16 GROUP 4 **** **** 0

# MOE 2024.06 (io_trps.svl 2023.06)
