@<TRIPOS>MOLECULE
NONAME
55 59 1 0 0 
SMALL
USER_CHARGES


@<TRIPOS>ATOM
  1 O       -3.0510     2.8200     2.1700 O.2   1 <1>  -0.5700 
  2 C       -3.0840     2.4910     1.0040 C.2   1 <1>   0.6300 
  3 N       -4.0580     1.6480     0.5220 N.am  1 <1>  -0.6600 
  4 C       -1.9870     3.0450     0.0810 C.3   1 <1>   0.0320 
  5 C       -5.0160     0.9670     1.4340 C.3   1 <1>   0.1400 
  6 C       -4.1600     1.1720    -0.8830 C.3   1 <1>   0.1400 
  7 C       -0.8400     2.0600    -0.1160 C.ar  1 <1>  -0.0320 
  8 C       -2.3290     4.0530    -0.9870 C.3   1 <1>  -0.2000 
  9 C       -1.5900     4.4900     0.2330 C.3   1 <1>  -0.2000 
 10 C       -4.7100    -0.5330     1.4410 C.3   1 <1>  -0.1600 
 11 C       -3.8350    -0.3220    -0.9270 C.3   1 <1>  -0.1600 
 12 C       -0.6020     1.4540    -1.3420 C.ar  1 <1>  -0.1500 
 13 C       -0.0130     1.7590     0.9550 C.ar  1 <1>  -0.1500 
 14 C       -4.7340    -1.1370     0.0210 C.3   1 <1>   0.4240 
 15 C        0.4470     0.5630    -1.4930 C.ar  1 <1>  -0.1500 
 16 C        1.0390     0.8720     0.8070 C.ar  1 <1>  -0.1500 
 17 O       -6.0330    -0.9220    -0.4890 O.3   1 <1>  -0.5600 
 18 C       -4.3540    -2.6460    -0.0010 C.ar  1 <1>  -0.1430 
 19 C        1.2700     0.2730    -0.4190 C.ar  1 <1>  -0.1500 
 20 C       -7.0200    -1.8440    -0.1590 C.3   1 <1>   0.1200 
 21 C       -3.0880    -3.0990     0.3950 C.ar  1 <1>   0.0830 
 22 C       -5.2850    -3.5930    -0.4260 C.ar  1 <1>  -0.1440 
 23 C       -6.6780    -3.1630    -0.8360 C.3   1 <1>  -0.0170 
 24 O       -2.1770    -2.1950     0.8390 O.3   1 <1>  -0.3630 
 25 C       -2.7770    -4.4560     0.3390 C.ar  1 <1>  -0.1500 
 26 C       -4.9640    -4.9390    -0.4800 C.ar  1 <1>  -0.1500 
 27 C       -0.8100    -2.4990     0.9960 C.3   1 <1>   0.0400 
 28 C       -3.7110    -5.3720    -0.1000 C.ar  1 <1>  -0.1500 
 29 H       -6.0200     1.1410     1.0870 H     1 <1>   0.0800 
 30 H       -4.9360     1.3580     2.4340 H     1 <1>   0.0800 
 31 H       -3.4910     1.7070    -1.5280 H     1 <1>   0.0800 
 32 H       -5.1630     1.3410    -1.2380 H     1 <1>   0.0800 
 33 H       -3.3560     4.3540    -1.0980 H     1 <1>   0.1000 
 34 H       -1.7970     4.0400    -1.9210 H     1 <1>   0.1000 
 35 H       -0.5480     4.7440     0.1490 H     1 <1>   0.1000 
 36 H       -2.1010     5.0830     0.9720 H     1 <1>   0.1000 
 37 H       -5.4040    -1.0490     2.0750 H     1 <1>   0.0800 
 38 H       -3.7400    -0.6570     1.8810 H     1 <1>   0.0800 
 39 H       -2.8020    -0.4350    -0.6680 H     1 <1>   0.0800 
 40 H       -3.9550    -0.6940    -1.9270 H     1 <1>   0.0800 
 41 H       -1.2320     1.6720    -2.1840 H     1 <1>   0.1500 
 42 H       -0.1970     2.2200     1.9110 H     1 <1>   0.1500 
 43 H        0.6230     0.0970    -2.4470 H     1 <1>   0.1500 
 44 H        1.6750     0.6510     1.6460 H     1 <1>   0.1500 
 45 H        2.0880    -0.4150    -0.5370 H     1 <1>   0.1500 
 46 H       -7.9600    -1.4660    -0.5200 H     1 <1>   0.0800 
 47 H       -7.0660    -1.9540     0.9100 H     1 <1>   0.0800 
 48 H       -6.7240    -3.0420    -1.9030 H     1 <1>   0.0800 
 49 H       -7.3990    -3.9050    -0.5460 H     1 <1>   0.0800 
 50 H       -1.8140    -4.8200     0.6380 H     1 <1>   0.1500 
 51 H       -5.6910    -5.6580    -0.8190 H     1 <1>   0.1500 
 52 H       -0.2980    -1.5890     1.2500 H     1 <1>   0.0800 
 53 H       -0.4290    -2.8850     0.0670 H     1 <1>   0.0800 
 54 H       -0.6980    -3.2140     1.7900 H     1 <1>   0.0800 
 55 H       -3.4650    -6.4180    -0.1430 H     1 <1>   0.1500 
@<TRIPOS>BOND
  1   1   2  2   
  2   2   3  am  
  3   2   4  1   
  4   3   5  1   
  5   3   6  1   
  6   4   7  1   
  7   4   8  1   
  8   4   9  1   
  9   5  10  1   
 10   5  29  1   
 11   5  30  1   
 12   6  11  1   
 13   6  31  1   
 14   6  32  1   
 15   7  12  ar  
 16   7  13  ar  
 17   8   9  1   
 18   8  33  1   
 19   8  34  1   
 20   9  35  1   
 21   9  36  1   
 22  10  14  1   
 23  10  37  1   
 24  10  38  1   
 25  11  14  1   
 26  11  39  1   
 27  11  40  1   
 28  12  15  ar  
 29  12  41  1   
 30  13  16  ar  
 31  13  42  1   
 32  14  17  1   
 33  14  18  1   
 34  15  19  ar  
 35  15  43  1   
 36  16  19  ar  
 37  16  44  1   
 38  17  20  1   
 39  18  21  ar  
 40  18  22  ar  
 41  19  45  1   
 42  20  23  1   
 43  20  46  1   
 44  20  47  1   
 45  21  24  1   
 46  21  25  ar  
 47  22  23  1   
 48  22  26  ar  
 49  23  48  1   
 50  23  49  1   
 51  24  27  1   
 52  25  28  ar  
 53  25  50  1   
 54  26  28  ar  
 55  26  51  1   
 56  27  52  1   
 57  27  53  1   
 58  27  54  1   
 59  28  55  1   
@<TRIPOS>SUBSTRUCTURE
  1 ****  11 GROUP 4 **** **** 0

# MOE 2024.06 (io_trps.svl 2023.06)
