@<TRIPOS>MOLECULE
NONAME
47 50 1 0 0 
SMALL
USER_CHARGES


@<TRIPOS>ATOM
  1 CL      -0.5350     0.0980    -0.3780 Cl    1 <1>  -0.1770 
  2 C       -2.1820    -0.3460    -0.0020 C.ar  1 <1>   0.1770 
  3 C       -2.9720    -0.9110    -0.9750 C.ar  1 <1>  -0.1500 
  4 C       -2.6540    -0.1110     1.2940 C.ar  1 <1>  -0.1500 
  5 C       -4.2800    -1.2530    -0.6410 C.ar  1 <1>   0.2270 
  6 C       -3.9480    -0.4480     1.6260 C.ar  1 <1>  -0.1500 
  7 N       -5.2490    -1.8180    -1.4130 N.2   1 <1>  -0.5650 
  8 C       -4.7530    -1.0230     0.6390 C.ar  1 <1>  -0.1520 
  9 C       -6.2640    -1.9240    -0.6290 C.2   1 <1>   0.0060 
 10 N       -6.0370    -1.4620     0.6280 N.pl3 1 <1>   0.0330 
 11 C       -7.5970    -2.5090    -1.0560 C.3   1 <1>   0.0200 
 12 C       -7.8270    -3.8830    -0.4150 C.3   1 <1>  -0.1600 
 13 C       -9.1390    -4.5020    -0.8910 C.3   1 <1>   0.2090 
 14 N       -9.3430    -5.7760    -0.1800 N.pl3 1 <1>  -0.8690 
 15 C      -10.4960    -6.4820    -0.2490 C.ar  1 <1>   0.7200 
 16 N      -10.3380    -7.7780    -0.0410 N.ar  1 <1>  -0.6200 
 17 N      -11.6180    -5.8190    -0.5150 N.ar  1 <1>  -0.6200 
 18 C      -11.4320    -8.5170    -0.0840 C.ar  1 <1>   0.4100 
 19 C      -12.7060    -6.5630    -0.5660 C.ar  1 <1>   0.1600 
 20 N      -11.2800    -9.8790     0.1500 N.pl3 1 <1>  -0.8380 
 21 C      -12.6580    -7.9120    -0.3560 C.ar  1 <1>   0.1900 
 22 C      -12.0100   -10.5140     1.2860 C.3   1 <1>   0.2090 
 23 C       -9.9610   -10.5360    -0.1020 C.3   1 <1>   0.2090 
 24 F      -13.7730    -8.6110    -0.4290 F     1 <1>  -0.1900 
 25 C      -12.0670   -12.0420     1.1100 C.3   1 <1>   0.1200 
 26 C      -10.1200   -12.0640    -0.1980 C.3   1 <1>   0.1200 
 27 O      -10.7840   -12.5760     0.9270 O.3   1 <1>  -0.5600 
 28 H       -2.6120    -1.0930    -1.9680 H     1 <1>   0.1500 
 29 H       -1.9920     0.3340     2.0150 H     1 <1>   0.1500 
 30 H       -4.3340    -0.2770     2.6160 H     1 <1>   0.1500 
 31 H       -6.6930    -1.4500     1.4110 H     1 <1>   0.2700 
 32 H       -7.6000    -2.6080    -2.1280 H     1 <1>   0.0800 
 33 H       -8.3880    -1.8320    -0.7840 H     1 <1>   0.0800 
 34 H       -7.8550    -3.7800     0.6550 H     1 <1>   0.0800 
 35 H       -7.0100    -4.5320    -0.6800 H     1 <1>   0.0800 
 36 H       -9.1100    -4.6830    -1.9520 H     1 <1>   0.0800 
 37 H       -9.9590    -3.8350    -0.6760 H     1 <1>   0.0800 
 38 H       -8.5370    -6.3980    -0.1450 H     1 <1>   0.4000 
 39 H      -13.6460    -6.0850    -0.7780 H     1 <1>   0.1500 
 40 H      -13.0110   -10.1280     1.3540 H     1 <1>   0.0800 
 41 H      -11.5020   -10.2840     2.2070 H     1 <1>   0.0800 
 42 H       -9.2840   -10.2970     0.7000 H     1 <1>   0.0800 
 43 H       -9.5410   -10.1610    -1.0190 H     1 <1>   0.0800 
 44 H      -12.6710   -12.2980     0.2570 H     1 <1>   0.0800 
 45 H      -12.4900   -12.5000     1.9850 H     1 <1>   0.0800 
 46 H       -9.1550   -12.5330    -0.2520 H     1 <1>   0.0800 
 47 H      -10.6820   -12.3250    -1.0770 H     1 <1>   0.0800 
@<TRIPOS>BOND
  1   1   2  1   
  2   2   3  ar  
  3   2   4  ar  
  4   3   5  ar  
  5   3  28  1   
  6   4   6  ar  
  7   4  29  1   
  8   5   7  1   
  9   5   8  ar  
 10   6   8  ar  
 11   6  30  1   
 12   7   9  2   
 13   8  10  1   
 14   9  10  1   
 15   9  11  1   
 16  10  31  1   
 17  11  12  1   
 18  11  32  1   
 19  11  33  1   
 20  12  13  1   
 21  12  34  1   
 22  12  35  1   
 23  13  14  1   
 24  13  36  1   
 25  13  37  1   
 26  14  15  1   
 27  14  38  1   
 28  15  16  ar  
 29  15  17  ar  
 30  16  18  ar  
 31  17  19  ar  
 32  18  20  1   
 33  18  21  ar  
 34  19  21  ar  
 35  19  39  1   
 36  20  22  1   
 37  20  23  1   
 38  21  24  1   
 39  22  25  1   
 40  22  40  1   
 41  22  41  1   
 42  23  26  1   
 43  23  42  1   
 44  23  43  1   
 45  25  27  1   
 46  25  44  1   
 47  25  45  1   
 48  26  27  1   
 49  26  46  1   
 50  26  47  1   
@<TRIPOS>SUBSTRUCTURE
  1 ****  14 GROUP 4 **** **** 0

# MOE 2024.06 (io_trps.svl 2023.06)
