@<TRIPOS>MOLECULE
NONAME
48 50 1 0 0 
SMALL
USER_CHARGES


@<TRIPOS>ATOM
  1 CL      -1.6120     0.8360    -1.0400 Cl    1 <1>  -0.1770 
  2 C       -2.3210    -0.5060    -0.1830 C.ar  1 <1>   0.1770 
  3 C       -2.7570    -0.3210     1.1130 C.ar  1 <1>  -0.1500 
  4 C       -2.4410    -1.7280    -0.8170 C.ar  1 <1>  -0.1500 
  5 C       -3.3130    -1.4010     1.7670 C.ar  1 <1>   0.1770 
  6 C       -3.0130    -2.8210    -0.1630 C.ar  1 <1>   0.0860 
  7 CL      -3.8950    -1.2060     3.3990 Cl    1 <1>  -0.1770 
  8 C       -3.4310    -2.6340     1.1560 C.ar  1 <1>  -0.1500 
  9 C       -3.1700    -4.0990    -0.8360 C.2   1 <1>   0.5440 
 10 O       -2.3360    -4.4520    -1.6470 O.2   1 <1>  -0.5700 
 11 N       -4.2240    -4.9480    -0.5650 N.am  1 <1>  -0.6600 
 12 C       -5.6630    -4.6270    -0.8030 C.3   1 <1>   0.2200 
 13 C       -3.9490    -6.4130    -0.5500 C.3   1 <1>   0.0600 
 14 C       -5.9830    -3.2360    -1.3530 C.3   1 <1>  -0.1600 
 15 C       -6.4830    -4.7110     0.4810 C.3   1 <1>  -0.1600 
 16 C       -7.4740    -3.0460    -1.0440 C.3   1 <1>  -0.0800 
 17 C       -7.7650    -3.9180     0.1820 C.3   1 <1>  -0.0800 
 18 C       -7.8900    -1.6070    -0.6850 C.3   1 <1>  -0.1600 
 19 C       -8.2200    -2.9650     1.2970 C.3   1 <1>  -0.1600 
 20 C       -8.6950    -1.6810     0.6170 C.3   1 <1>   0.4230 
 21 N      -10.1800    -1.6950     0.4030 N.4   1 <1>  -0.9590 
 22 C      -10.6830    -2.7120    -0.5760 C.3   1 <1>   0.2630 
 23 C      -10.6740    -0.3320     0.0290 C.3   1 <1>   0.2630 
 24 H       -2.6630     0.6340     1.5970 H     1 <1>   0.1500 
 25 H       -2.0900    -1.8390    -1.8290 H     1 <1>   0.1500 
 26 H       -3.8470    -3.4570     1.7060 H     1 <1>   0.1500 
 27 H       -6.0580    -5.3450    -1.5040 H     1 <1>   0.0800 
 28 H       -4.5400    -6.8950     0.2080 H     1 <1>   0.0800 
 29 H       -2.9080    -6.5920    -0.3390 H     1 <1>   0.0800 
 30 H       -4.1790    -6.8380    -1.5120 H     1 <1>   0.0800 
 31 H       -5.4230    -2.4880    -0.8340 H     1 <1>   0.0800 
 32 H       -5.7810    -3.1730    -2.4090 H     1 <1>   0.0800 
 33 H       -6.7060    -5.7320     0.7320 H     1 <1>   0.0800 
 34 H       -5.9320    -4.2630     1.2860 H     1 <1>   0.0800 
 35 H       -8.0550    -3.4090    -1.8760 H     1 <1>   0.0800 
 36 H       -8.5530    -4.6100    -0.0610 H     1 <1>   0.0800 
 37 H       -8.4230    -1.1330    -1.4880 H     1 <1>   0.0800 
 38 H       -7.0140    -1.0160    -0.4850 H     1 <1>   0.0800 
 39 H       -7.3750    -2.7010     1.9100 H     1 <1>   0.0800 
 40 H       -8.9650    -3.4070     1.9340 H     1 <1>   0.0800 
 41 H       -8.4460    -0.8380     1.2440 H     1 <1>   0.0800 
 42 H      -10.5930    -1.9250     1.3180 H     1 <1>   0.4500 
 43 H      -10.2520    -2.5430    -1.5490 H     1 <1>   0.0800 
 44 H      -11.7560    -2.6510    -0.6600 H     1 <1>   0.0800 
 45 H      -10.4240    -3.7050    -0.2510 H     1 <1>   0.0800 
 46 H      -10.2770    -0.0370    -0.9280 H     1 <1>   0.0800 
 47 H      -10.3700     0.3930     0.7670 H     1 <1>   0.0800 
 48 H      -11.7510    -0.3280    -0.0310 H     1 <1>   0.0800 
@<TRIPOS>BOND
  1   1   2  1   
  2   2   3  ar  
  3   2   4  ar  
  4   3   5  ar  
  5   3  24  1   
  6   4   6  ar  
  7   4  25  1   
  8   5   7  1   
  9   5   8  ar  
 10   6   8  ar  
 11   6   9  1   
 12   8  26  1   
 13   9  10  2   
 14   9  11  am  
 15  11  12  1   
 16  11  13  1   
 17  12  14  1   
 18  12  15  1   
 19  12  27  1   
 20  13  28  1   
 21  13  29  1   
 22  13  30  1   
 23  14  16  1   
 24  14  31  1   
 25  14  32  1   
 26  15  17  1   
 27  15  33  1   
 28  15  34  1   
 29  16  17  1   
 30  16  18  1   
 31  16  35  1   
 32  17  19  1   
 33  17  36  1   
 34  18  20  1   
 35  18  37  1   
 36  18  38  1   
 37  19  20  1   
 38  19  39  1   
 39  19  40  1   
 40  20  21  1   
 41  20  41  1   
 42  21  22  1   
 43  21  23  1   
 44  21  42  1   
 45  22  43  1   
 46  22  44  1   
 47  22  45  1   
 48  23  46  1   
 49  23  47  1   
 50  23  48  1   
@<TRIPOS>SUBSTRUCTURE
  1 ****  14 GROUP 4 **** **** 0

# MOE 2024.06 (io_trps.svl 2023.06)
