@<TRIPOS>MOLECULE
NONAME
42 43 1 0 0 
SMALL
USER_CHARGES


@<TRIPOS>ATOM
  1 F       -2.5460     0.3320     1.8810 F     1 <1>  -0.1900 
  2 C       -2.3470     0.4840     0.5950 C.ar  1 <1>   0.1900 
  3 C       -2.0530     1.7510     0.1010 C.ar  1 <1>   0.0820 
  4 C       -2.4360    -0.6370    -0.2140 C.ar  1 <1>  -0.1440 
  5 O       -2.0030     2.7940     0.9720 O.3   1 <1>  -0.3630 
  6 C       -1.8270     1.8800    -1.2660 C.ar  1 <1>  -0.1500 
  7 C       -2.1890    -0.4840    -1.5730 C.ar  1 <1>  -0.1500 
  8 C       -2.7710    -1.9940     0.3840 C.3   1 <1>   0.4870 
  9 C       -1.6300     4.0900     0.5560 C.3   1 <1>   0.0400 
 10 C       -1.8920     0.7680    -2.0900 C.ar  1 <1>  -0.1500 
 11 N       -4.2430    -2.2230     0.4360 N.4   1 <1>  -0.9590 
 12 C       -4.8970    -2.1090    -0.8960 C.3   1 <1>   0.5240 
 13 C       -4.9180    -1.4100     1.5010 C.3   1 <1>   0.3430 
 14 C       -5.8970    -3.2540    -0.9980 C.2   1 <1>   0.0460 
 15 C       -6.3240    -1.9210     1.8530 C.3   1 <1>   0.1200 
 16 N       -5.6530    -4.4190    -0.3580 N.2   1 <1>  -0.5650 
 17 C       -7.0780    -3.3040    -1.6510 C.2   1 <1>  -0.3020 
 18 O       -6.8020    -1.1650     2.9090 O.3   1 <1>  -0.6800 
 19 C       -6.6780    -5.1530    -0.6450 C.2   1 <1>   0.0060 
 20 N       -7.5850    -4.5310    -1.4310 N.pl3 1 <1>   0.0330 
 21 C       -6.8630    -6.5770    -0.1600 C.3   1 <1>  -0.0600 
 22 H       -1.5960     2.8340    -1.7050 H     1 <1>   0.1500 
 23 H       -2.2150    -1.3270    -2.2430 H     1 <1>   0.1500 
 24 H       -2.3570    -2.0590     1.3780 H     1 <1>   0.0800 
 25 H       -2.3090    -2.7640    -0.2130 H     1 <1>   0.0800 
 26 H       -1.6310     4.7310     1.4190 H     1 <1>   0.0800 
 27 H       -2.3450     4.4480    -0.1640 H     1 <1>   0.0800 
 28 H       -0.6420     4.0520     0.1320 H     1 <1>   0.0800 
 29 H       -1.7030     0.8800    -3.1460 H     1 <1>   0.1500 
 30 H       -4.4070    -3.2240     0.6580 H     1 <1>   0.4500 
 31 H       -4.1680    -2.2340    -1.6780 H     1 <1>   0.0800 
 32 H       -5.3830    -1.1550    -1.0160 H     1 <1>   0.0800 
 33 H       -4.9850    -0.3810     1.1870 H     1 <1>   0.0800 
 34 H       -4.3240    -1.4440     2.3990 H     1 <1>   0.0800 
 35 H       -6.2910    -2.9510     2.1660 H     1 <1>   0.0800 
 36 H       -7.0050    -1.8030     1.0290 H     1 <1>   0.0800 
 37 H       -7.5810    -2.5640    -2.2510 H     1 <1>   0.1500 
 38 H       -7.6880    -1.4680     3.1970 H     1 <1>   0.4000 
 39 H       -8.4640    -4.9240    -1.7850 H     1 <1>   0.2700 
 40 H       -6.0240    -6.8720     0.4440 H     1 <1>   0.0800 
 41 H       -6.9320    -7.2460    -0.9980 H     1 <1>   0.0800 
 42 H       -7.7570    -6.6560     0.4310 H     1 <1>   0.0800 
@<TRIPOS>BOND
  1   1   2  1   
  2   2   3  ar  
  3   2   4  ar  
  4   3   5  1   
  5   3   6  ar  
  6   4   7  ar  
  7   4   8  1   
  8   5   9  1   
  9   6  10  ar  
 10   6  22  1   
 11   7  10  ar  
 12   7  23  1   
 13   8  11  1   
 14   8  24  1   
 15   8  25  1   
 16   9  26  1   
 17   9  27  1   
 18   9  28  1   
 19  10  29  1   
 20  11  12  1   
 21  11  13  1   
 22  11  30  1   
 23  12  14  1   
 24  12  31  1   
 25  12  32  1   
 26  13  15  1   
 27  13  33  1   
 28  13  34  1   
 29  14  16  1   
 30  14  17  2   
 31  15  18  1   
 32  15  35  1   
 33  15  36  1   
 34  16  19  2   
 35  17  20  1   
 36  17  37  1   
 37  18  38  1   
 38  19  20  1   
 39  19  21  1   
 40  20  39  1   
 41  21  40  1   
 42  21  41  1   
 43  21  42  1   
@<TRIPOS>SUBSTRUCTURE
  1 ****  11 GROUP 4 **** **** 0

# MOE 2024.06 (io_trps.svl 2023.06)
