@<TRIPOS>MOLECULE
NONAME
53 56 1 0 0 
SMALL
USER_CHARGES


@<TRIPOS>ATOM
  1 O        2.9650    -1.1240     2.2540 O.2   1 <1>  -0.5700 
  2 C        2.5110    -0.3630     1.4160 C.2   1 <1>   0.5440 
  3 N        1.3900     0.3690     1.7340 N.am  1 <1>  -0.6600 
  4 C        3.1730    -0.2360     0.1430 C.ar  1 <1>   0.0860 
  5 C        0.6680     1.2560     0.7940 C.3   1 <1>   0.1400 
  6 C        0.6160     0.1630     2.9760 C.3   1 <1>   0.1400 
  7 C        2.6320    -0.7210    -1.0710 C.ar  1 <1>   0.4100 
  8 C        4.4050     0.4010     0.1040 C.ar  1 <1>  -0.1500 
  9 C       -0.5060     1.7990     1.6010 C.3   1 <1>  -0.1600 
 10 C       -0.7610     0.7390     2.6700 C.3   1 <1>  -0.1600 
 11 N        3.2380    -0.5410    -2.2480 N.ar  1 <1>  -0.6200 
 12 N        1.4260    -1.4120    -1.1510 N.pl3 1 <1>  -0.8380 
 13 C        5.0250     0.5590    -1.1120 C.ar  1 <1>  -0.1500 
 14 C        4.4000     0.0780    -2.2460 C.ar  1 <1>   0.1600 
 15 C        0.7730    -1.7480    -2.4490 C.3   1 <1>   0.2090 
 16 C        0.9050    -2.3270    -0.1030 C.3   1 <1>   0.2090 
 17 C       -0.3200    -2.7780    -2.1270 C.3   1 <1>   0.2000 
 18 C        0.1900    -3.4510    -0.8500 C.3   1 <1>  -0.0800 
 19 O       -1.5380    -2.1400    -1.8480 O.3   1 <1>  -0.5600 
 20 C       -0.8990    -4.1470    -0.0110 C.3   1 <1>   0.0200 
 21 C       -2.2950    -1.7900    -2.9640 C.3   1 <1>   0.0400 
 22 C       -0.3540    -4.8800     1.2040 C.2   1 <1>  -0.0400 
 23 O       -1.2010    -5.4340     2.0320 O.3   1 <1>  -0.0190 
 24 C        0.8830    -5.1140     1.6730 C.2   1 <1>  -0.1500 
 25 N       -0.6010    -6.0180     3.0280 N.2   1 <1>  -0.4100 
 26 C        0.6570    -5.8380     2.8400 C.2   1 <1>   0.1080 
 27 C        1.7400    -6.3420     3.7650 C.3   1 <1>  -0.0590 
 28 H        1.3080     2.0460     0.4390 H     1 <1>   0.0800 
 29 H        0.3060     0.6790    -0.0390 H     1 <1>   0.0800 
 30 H        0.5640    -0.8820     3.2310 H     1 <1>   0.0800 
 31 H        1.0890     0.7070     3.7750 H     1 <1>   0.0800 
 32 H        4.8540     0.7620     1.0130 H     1 <1>   0.1500 
 33 H       -0.2130     2.7240     2.0650 H     1 <1>   0.0800 
 34 H       -1.3680     1.9720     0.9810 H     1 <1>   0.0800 
 35 H       -1.3830    -0.0420     2.2680 H     1 <1>   0.0800 
 36 H       -1.2300     1.1440     3.5490 H     1 <1>   0.0800 
 37 H        5.9790     1.0490    -1.1850 H     1 <1>   0.1500 
 38 H        4.8840     0.2100    -3.1980 H     1 <1>   0.1500 
 39 H        0.3760    -0.8630    -2.9120 H     1 <1>   0.0800 
 40 H        1.5000    -2.1970    -3.1020 H     1 <1>   0.0800 
 41 H        1.7030    -2.7110     0.5080 H     1 <1>   0.0800 
 42 H        0.2050    -1.7890     0.5130 H     1 <1>   0.0800 
 43 H       -0.4650    -3.4860    -2.9240 H     1 <1>   0.0800 
 44 H        0.9310    -4.1770    -1.1320 H     1 <1>   0.0800 
 45 H       -1.4240    -4.8540    -0.6280 H     1 <1>   0.0800 
 46 H       -1.6140    -3.4190     0.3300 H     1 <1>   0.0800 
 47 H       -3.1990    -1.3200    -2.6190 H     1 <1>   0.0800 
 48 H       -2.5400    -2.6780    -3.5210 H     1 <1>   0.0800 
 49 H       -1.7420    -1.0990    -3.5750 H     1 <1>   0.0800 
 50 H        1.8450    -4.8330     1.2880 H     1 <1>   0.1500 
 51 H        2.3230    -5.5150     4.1270 H     1 <1>   0.0800 
 52 H        2.3810    -7.0250     3.2390 H     1 <1>   0.0800 
 53 H        1.3000    -6.8520     4.6030 H     1 <1>   0.0800 
@<TRIPOS>BOND
  1   1   2  2   
  2   2   3  am  
  3   2   4  1   
  4   3   5  1   
  5   3   6  1   
  6   4   7  ar  
  7   4   8  ar  
  8   5   9  1   
  9   5  28  1   
 10   5  29  1   
 11   6  10  1   
 12   6  30  1   
 13   6  31  1   
 14   7  11  ar  
 15   7  12  1   
 16   8  13  ar  
 17   8  32  1   
 18   9  10  1   
 19   9  33  1   
 20   9  34  1   
 21  10  35  1   
 22  10  36  1   
 23  11  14  ar  
 24  12  15  1   
 25  12  16  1   
 26  13  14  ar  
 27  13  37  1   
 28  14  38  1   
 29  15  17  1   
 30  15  39  1   
 31  15  40  1   
 32  16  18  1   
 33  16  41  1   
 34  16  42  1   
 35  17  18  1   
 36  17  19  1   
 37  17  43  1   
 38  18  20  1   
 39  18  44  1   
 40  19  21  1   
 41  20  22  1   
 42  20  45  1   
 43  20  46  1   
 44  21  47  1   
 45  21  48  1   
 46  21  49  1   
 47  22  23  1   
 48  22  24  2   
 49  23  25  1   
 50  24  26  1   
 51  24  50  1   
 52  25  26  2   
 53  26  27  1   
 54  27  51  1   
 55  27  52  1   
 56  27  53  1   
@<TRIPOS>SUBSTRUCTURE
  1 ****  16 GROUP 4 **** **** 0

# MOE 2024.06 (io_trps.svl 2023.06)
