@<TRIPOS>MOLECULE
NONAME
57 60 1 0 0 
SMALL
USER_CHARGES


@<TRIPOS>ATOM
  1 O        0.3130     1.3150     2.0290 O.2   1 <1>  -0.5700 
  2 C        0.3130     1.9730     1.0060 C.2   1 <1>   0.5440 
  3 N        1.4630     2.0130     0.2400 N.am  1 <1>  -0.6600 
  4 C       -0.8950     2.6820     0.6310 C.ar  1 <1>   0.0860 
  5 C        2.7810     1.6440     0.8350 C.3   1 <1>   0.2200 
  6 C        1.4560     2.3340    -1.2230 C.3   1 <1>   0.1400 
  7 C       -0.8810     4.0430     0.3300 C.ar  1 <1>  -0.1500 
  8 C       -2.1240     2.0270     0.5770 C.ar  1 <1>  -0.1500 
  9 C        3.8430     2.7270     0.5490 C.3   1 <1>  -0.1600 
 10 C        3.1980     0.2670     0.3140 C.3   1 <1>  -0.2400 
 11 C        2.6890     3.1510    -1.6350 C.3   1 <1>  -0.1600 
 12 C       -2.0350     4.7150    -0.0280 C.ar  1 <1>   0.0820 
 13 C       -3.2870     2.6870     0.2210 C.ar  1 <1>  -0.1500 
 14 C        3.3540     3.8020    -0.4240 C.3   1 <1>   0.2200 
 15 O       -1.9210     6.0320    -0.3180 O.3   1 <1>  -0.3630 
 16 C       -3.2580     4.0430    -0.0930 C.ar  1 <1>   0.0820 
 17 N        4.4890     4.6330    -0.8670 N.am  1 <1>  -0.7300 
 18 C       -2.5390     6.9320     0.5790 C.3   1 <1>   0.1200 
 19 O       -4.3680     4.7380    -0.4610 O.3   1 <1>  -0.3630 
 20 C        4.5280     5.9720    -1.0630 C.2   1 <1>   0.5690 
 21 C       -1.8200     8.2790     0.5130 C.3   1 <1>   0.0960 
 22 C       -5.6200     4.1100    -0.6280 C.3   1 <1>   0.0400 
 23 O        5.5590     6.5030    -1.3800 O.2   1 <1>  -0.5700 
 24 C        3.2850     6.8190    -0.8940 C.3   1 <1>  -0.0990 
 25 N       -0.4010     8.1200     0.8700 N.pl3 1 <1>   0.3140 
 26 C        3.0930     7.2310     0.5730 C.3   1 <1>   0.0210 
 27 N        0.0550     8.2710     2.1160 N.2   1 <1>  -0.4180 
 28 C        0.6010     7.7460     0.0740 C.2   1 <1>  -0.3020 
 29 C        1.6700     7.6600     0.8810 C.2   1 <1>   0.0460 
 30 N        1.3130     7.9950     2.1250 N.2   1 <1>  -0.2270 
 31 H        2.6770     1.5670     1.9050 H     1 <1>   0.0800 
 32 H        1.4300     1.4140    -1.7820 H     1 <1>   0.0800 
 33 H        0.5710     2.8870    -1.4790 H     1 <1>   0.0800 
 34 H        0.0440     4.5880     0.3840 H     1 <1>   0.1500 
 35 H       -2.1580     0.9790     0.8260 H     1 <1>   0.1500 
 36 H        4.1040     3.1990     1.4780 H     1 <1>   0.0800 
 37 H        4.7330     2.2620     0.1640 H     1 <1>   0.0800 
 38 H        3.3770     0.2860    -0.7450 H     1 <1>   0.0800 
 39 H        2.4250    -0.4490     0.5330 H     1 <1>   0.0800 
 40 H        4.0970    -0.0520     0.8080 H     1 <1>   0.0800 
 41 H        2.3890     3.9010    -2.3440 H     1 <1>   0.0800 
 42 H        3.3910     2.4990    -2.1220 H     1 <1>   0.0800 
 43 H       -4.2030     2.1270     0.1960 H     1 <1>   0.1500 
 44 H        2.6280     4.4140     0.0840 H     1 <1>   0.0800 
 45 H        5.3680     4.1400    -1.0350 H     1 <1>   0.3700 
 46 H       -3.5700     7.0360     0.2950 H     1 <1>   0.0800 
 47 H       -2.4810     6.5280     1.5760 H     1 <1>   0.0800 
 48 H       -2.2700     8.9650     1.2070 H     1 <1>   0.0800 
 49 H       -1.8930     8.6900    -0.4760 H     1 <1>   0.0800 
 50 H       -6.3260     4.8520    -0.9530 H     1 <1>   0.0800 
 51 H       -5.9320     3.6970     0.3150 H     1 <1>   0.0800 
 52 H       -5.5290     3.3420    -1.3750 H     1 <1>   0.0800 
 53 H        3.3710     7.7000    -1.5040 H     1 <1>   0.0800 
 54 H        2.4410     6.2610    -1.2470 H     1 <1>   0.0800 
 55 H        3.7690     8.0330     0.8140 H     1 <1>   0.0800 
 56 H        3.3300     6.4030     1.2180 H     1 <1>   0.0800 
 57 H        0.4770     7.5560    -0.9750 H     1 <1>   0.1500 
@<TRIPOS>BOND
  1   1   2  2   
  2   2   3  am  
  3   2   4  1   
  4   3   5  1   
  5   3   6  1   
  6   4   7  ar  
  7   4   8  ar  
  8   5   9  1   
  9   5  10  1   
 10   5  31  1   
 11   6  11  1   
 12   6  32  1   
 13   6  33  1   
 14   7  12  ar  
 15   7  34  1   
 16   8  13  ar  
 17   8  35  1   
 18   9  14  1   
 19   9  36  1   
 20   9  37  1   
 21  10  38  1   
 22  10  39  1   
 23  10  40  1   
 24  11  14  1   
 25  11  41  1   
 26  11  42  1   
 27  12  15  1   
 28  12  16  ar  
 29  13  16  ar  
 30  13  43  1   
 31  14  17  1   
 32  14  44  1   
 33  15  18  1   
 34  16  19  1   
 35  17  20  am  
 36  17  45  1   
 37  18  21  1   
 38  18  46  1   
 39  18  47  1   
 40  19  22  1   
 41  20  23  2   
 42  20  24  1   
 43  21  25  1   
 44  21  48  1   
 45  21  49  1   
 46  22  50  1   
 47  22  51  1   
 48  22  52  1   
 49  24  26  1   
 50  24  53  1   
 51  24  54  1   
 52  25  27  1   
 53  25  28  1   
 54  26  29  1   
 55  26  55  1   
 56  26  56  1   
 57  27  30  2   
 58  28  29  2   
 59  28  57  1   
 60  29  30  1   
@<TRIPOS>SUBSTRUCTURE
  1 ****   7 GROUP 4 **** **** 0

# MOE 2024.06 (io_trps.svl 2023.06)
