@<TRIPOS>MOLECULE
NONAME
37 39 1 0 0 
SMALL
USER_CHARGES


@<TRIPOS>ATOM
  1 O       -0.2010     0.0420     0.2880 O.3   1 <1>  -0.2800 
  2 C       -1.3540     0.6800     0.4620 C.2   1 <1>   0.5620 
  3 C        0.6980     0.9920     0.1160 C.ar  1 <1>   0.1400 
  4 N       -1.2760     1.9660     0.4160 N.2   1 <1>  -0.5650 
  5 N       -2.5020    -0.0540     0.6650 N.pl3 1 <1>  -0.8220 
  6 C        0.0420     2.1920     0.1950 C.ar  1 <1>   0.2270 
  7 C        2.0620     0.9020    -0.1060 C.ar  1 <1>  -0.1500 
  8 C       -2.5090    -1.5460     0.7500 C.3   1 <1>   0.2090 
  9 C       -3.8170     0.6000     0.9020 C.3   1 <1>   0.2090 
 10 C        0.7550     3.3770     0.0490 C.ar  1 <1>  -0.1500 
 11 C        2.7690     2.0820    -0.2500 C.ar  1 <1>  -0.1500 
 12 C       -3.5100    -2.1200    -0.2660 C.3   1 <1>   0.2000 
 13 C       -4.8620     0.0320    -0.0650 C.3   1 <1>  -0.1600 
 14 C        2.1210     3.3200    -0.1730 C.ar  1 <1>  -0.1440 
 15 O       -3.0620    -1.7870    -1.5330 O.3   1 <1>  -0.6800 
 16 C       -4.9140    -1.5160    -0.0540 C.3   1 <1>  -0.0800 
 17 C        2.9330     4.5930    -0.3360 C.3   1 <1>  -0.0970 
 18 C       -5.9020    -2.0580    -1.1000 C.3   1 <1>   0.1200 
 19 O       -7.1880    -1.6420    -0.7880 O.3   1 <1>  -0.6800 
 20 H        2.5390    -0.0600    -0.1620 H     1 <1>   0.1500 
 21 H       -1.5320    -1.9560     0.5580 H     1 <1>   0.0800 
 22 H       -2.7980    -1.8380     1.7450 H     1 <1>   0.0800 
 23 H       -4.1190     0.4170     1.9190 H     1 <1>   0.0800 
 24 H       -3.7440     1.6660     0.7650 H     1 <1>   0.0800 
 25 H        0.2240     4.3090     0.1140 H     1 <1>   0.1500 
 26 H        3.8310     2.0490    -0.4240 H     1 <1>   0.1500 
 27 H       -3.5410    -3.1940    -0.2000 H     1 <1>   0.0800 
 28 H       -5.8250     0.4300     0.1980 H     1 <1>   0.0800 
 29 H       -4.6350     0.3830    -1.0560 H     1 <1>   0.0800 
 30 H       -2.7710    -0.8500    -1.4920 H     1 <1>   0.4000 
 31 H       -5.2490    -1.8380     0.9160 H     1 <1>   0.0800 
 32 H        3.6900     4.6450     0.4260 H     1 <1>   0.0800 
 33 H        2.3050     5.4620    -0.2540 H     1 <1>   0.0800 
 34 H        3.4080     4.6030    -1.3010 H     1 <1>   0.0800 
 35 H       -5.8930    -3.1340    -1.1250 H     1 <1>   0.0800 
 36 H       -5.6610    -1.6850    -2.0810 H     1 <1>   0.0800 
 37 H       -7.4900    -2.0420     0.0490 H     1 <1>   0.4000 
@<TRIPOS>BOND
  1   1   2  1   
  2   1   3  1   
  3   2   4  2   
  4   2   5  1   
  5   3   6  ar  
  6   3   7  ar  
  7   4   6  1   
  8   5   8  1   
  9   5   9  1   
 10   6  10  ar  
 11   7  11  ar  
 12   7  20  1   
 13   8  12  1   
 14   8  21  1   
 15   8  22  1   
 16   9  13  1   
 17   9  23  1   
 18   9  24  1   
 19  10  14  ar  
 20  10  25  1   
 21  11  14  ar  
 22  11  26  1   
 23  12  15  1   
 24  12  16  1   
 25  12  27  1   
 26  13  16  1   
 27  13  28  1   
 28  13  29  1   
 29  14  17  1   
 30  15  30  1   
 31  16  18  1   
 32  16  31  1   
 33  17  32  1   
 34  17  33  1   
 35  17  34  1   
 36  18  19  1   
 37  18  35  1   
 38  18  36  1   
 39  19  37  1   
@<TRIPOS>SUBSTRUCTURE
  1 ****   2 GROUP 4 **** **** 0

# MOE 2024.06 (io_trps.svl 2023.06)
