@<TRIPOS>MOLECULE
NONAME
47 49 1 0 0 
SMALL
USER_CHARGES


@<TRIPOS>ATOM
  1 O       -0.4950     0.1140     1.0410 O.2   1 <1>  -0.5700 
  2 C       -1.4450     0.7470     0.6440 C.2   1 <1>   0.5690 
  3 N       -2.5640     0.0920     0.1890 N.am  1 <1>  -0.6600 
  4 C       -1.3020     2.2770     0.6770 C.3   1 <1>  -0.0190 
  5 C       -3.8120     0.6520    -0.3890 C.3   1 <1>   0.1400 
  6 C       -2.6160    -1.3940     0.1630 C.3   1 <1>   0.1400 
  7 C       -2.4160     3.0180     1.4480 C.3   1 <1>  -0.1600 
  8 C       -1.0740     2.8900    -0.7210 C.3   1 <1>  -0.1600 
  9 C       -4.4900    -0.5310    -1.0740 C.3   1 <1>   0.2000 
 10 C       -4.0320    -1.7540    -0.2880 C.3   1 <1>  -0.0800 
 11 C       -2.1250     4.5250     1.5320 C.3   1 <1>  -0.1600 
 12 C       -0.8040     4.4010    -0.6340 C.3   1 <1>  -0.1600 
 13 O       -5.8710    -0.4200    -1.0370 O.3   1 <1>  -0.6800 
 14 C       -4.1090    -3.0590    -1.0940 C.3   1 <1>   0.0210 
 15 C       -1.9180     5.1170     0.1350 C.3   1 <1>   0.2000 
 16 C       -3.5570    -4.2210    -0.2930 C.2   1 <1>   0.1080 
 17 O       -1.5680     6.4400     0.2740 O.3   1 <1>  -0.6800 
 18 N       -4.0940    -4.6300     0.8140 N.2   1 <1>  -0.7070 
 19 C       -2.4290    -4.9610    -0.6350 C.2   1 <1>  -0.1500 
 20 N       -3.3150    -5.6530     1.2120 N.pl3 1 <1>   0.3000 
 21 C       -2.2990    -5.8720     0.3510 C.2   1 <1>  -0.3320 
 22 C       -1.2490    -6.9530     0.5280 C.3   1 <1>  -0.0600 
 23 H       -0.3950     2.4590     1.2300 H     1 <1>   0.0800 
 24 H       -4.4340     1.0200     0.4080 H     1 <1>   0.0800 
 25 H       -3.6070     1.4290    -1.1000 H     1 <1>   0.0800 
 26 H       -1.8820    -1.7550    -0.5380 H     1 <1>   0.0800 
 27 H       -2.4010    -1.8030     1.1360 H     1 <1>   0.0800 
 28 H       -3.3620     2.8890     0.9590 H     1 <1>   0.0800 
 29 H       -2.4960     2.6100     2.4410 H     1 <1>   0.0800 
 30 H       -0.2330     2.4040    -1.1870 H     1 <1>   0.0800 
 31 H       -1.9310     2.7250    -1.3460 H     1 <1>   0.0800 
 32 H       -4.1790    -0.5830    -2.1030 H     1 <1>   0.0800 
 33 H       -4.6280    -1.8560     0.6030 H     1 <1>   0.0800 
 34 H       -1.2410     4.6770     2.1270 H     1 <1>   0.0800 
 35 H       -2.9500     5.0210     2.0120 H     1 <1>   0.0800 
 36 H       -0.7380     4.8090    -1.6280 H     1 <1>   0.0800 
 37 H        0.1370     4.5570    -0.1370 H     1 <1>   0.0800 
 38 H       -6.1980    -0.5680    -0.1280 H     1 <1>   0.4000 
 39 H       -3.5580    -2.9630    -2.0110 H     1 <1>   0.0800 
 40 H       -5.1350    -3.2690    -1.3400 H     1 <1>   0.0800 
 41 H       -2.8390     5.0800    -0.4240 H     1 <1>   0.0800 
 42 H       -0.7340     6.5110     0.7740 H     1 <1>   0.4000 
 43 H       -1.8120    -4.8150    -1.5030 H     1 <1>   0.1500 
 44 H       -3.5020    -6.1790     2.0740 H     1 <1>   0.2700 
 45 H       -0.5490    -6.9250    -0.2880 H     1 <1>   0.0800 
 46 H       -1.7130    -7.9230     0.5480 H     1 <1>   0.0800 
 47 H       -0.7100    -6.8020     1.4460 H     1 <1>   0.0800 
@<TRIPOS>BOND
  1   1   2  2   
  2   2   3  am  
  3   2   4  1   
  4   3   5  1   
  5   3   6  1   
  6   4   7  1   
  7   4   8  1   
  8   4  23  1   
  9   5   9  1   
 10   5  24  1   
 11   5  25  1   
 12   6  10  1   
 13   6  26  1   
 14   6  27  1   
 15   7  11  1   
 16   7  28  1   
 17   7  29  1   
 18   8  12  1   
 19   8  30  1   
 20   8  31  1   
 21   9  10  1   
 22   9  13  1   
 23   9  32  1   
 24  10  14  1   
 25  10  33  1   
 26  11  15  1   
 27  11  34  1   
 28  11  35  1   
 29  12  15  1   
 30  12  36  1   
 31  12  37  1   
 32  13  38  1   
 33  14  16  1   
 34  14  39  1   
 35  14  40  1   
 36  15  17  1   
 37  15  41  1   
 38  16  18  2   
 39  16  19  1   
 40  17  42  1   
 41  18  20  1   
 42  19  21  2   
 43  19  43  1   
 44  20  21  1   
 45  20  44  1   
 46  21  22  1   
 47  22  45  1   
 48  22  46  1   
 49  22  47  1   
@<TRIPOS>SUBSTRUCTURE
  1 ****   3 GROUP 4 **** **** 0

# MOE 2024.06 (io_trps.svl 2023.06)
