@<TRIPOS>MOLECULE
NONAME
47 50 1 0 0 
SMALL
USER_CHARGES


@<TRIPOS>ATOM
  1 O        0.6040     1.8500    -1.2810 O.2   1 <1>  -0.5700 
  2 C        0.0770     2.9340    -1.1810 C.2   1 <1>   0.5690 
  3 N       -0.7360     3.2910    -0.1360 N.am  1 <1>  -0.5090 
  4 C        0.3360     3.9620    -2.2740 C.3   1 <1>   0.1810 
  5 C       -1.3500     4.6580    -0.0690 C.3   1 <1>   0.3640 
  6 C       -0.8240     2.4710     1.0990 C.3   1 <1>   0.0490 
  7 O        0.4200     5.2540    -1.7320 O.3   1 <1>  -0.5600 
  8 C       -2.8590     4.5660    -0.2960 C.ar  1 <1>  -0.1440 
  9 C       -0.7570     5.6950    -1.0700 C.3   1 <1>   0.2610 
 10 C       -1.2800     1.0500     0.9900 C.3   1 <1>  -0.2000 
 11 C       -2.1530     2.0610     1.6590 C.3   1 <1>  -0.2000 
 12 C       -3.4010     3.7100    -1.2480 C.ar  1 <1>   0.1600 
 13 C       -3.7200     5.3540     0.4440 C.ar  1 <1>  -0.1500 
 14 C       -0.4940     7.0220    -0.3460 C.2   1 <1>   0.5690 
 15 N       -4.6900     3.5920    -1.5180 N.ar  1 <1>  -0.6200 
 16 C       -5.0670     5.2380     0.1790 C.ar  1 <1>  -0.1500 
 17 O       -1.3670     7.5150     0.3280 O.2   1 <1>  -0.5700 
 18 N        0.7140     7.6230    -0.4700 N.am  1 <1>  -0.7300 
 19 C       -5.4930     4.3570    -0.7980 C.ar  1 <1>   0.1600 
 20 C        1.1200     8.8780     0.1760 C.3   1 <1>   0.3210 
 21 C        2.6130     8.8210     0.4140 C.2   1 <1>  -0.1810 
 22 C        3.2600     8.0180     1.3450 C.2   1 <1>   0.1390 
 23 C        3.6070     9.5010    -0.1960 C.2   1 <1>  -0.3020 
 24 N        4.5470     8.1800     1.3230 N.2   1 <1>  -0.7070 
 25 N        4.7630     9.0990     0.3680 N.pl3 1 <1>   0.3140 
 26 C        6.1160     9.5590     0.0420 C.3   1 <1>   0.0160 
 27 H       -0.4500     3.9380    -3.0070 H     1 <1>   0.0800 
 28 H        1.2730     3.7460    -2.7540 H     1 <1>   0.0800 
 29 H       -1.1860     5.0260     0.9290 H     1 <1>   0.0800 
 30 H       -0.0210     2.6830     1.7860 H     1 <1>   0.1000 
 31 H       -1.4830     5.8970    -1.8370 H     1 <1>   0.0800 
 32 H       -1.5640     0.6740     0.0220 H     1 <1>   0.1000 
 33 H       -0.7950     0.3060     1.5950 H     1 <1>   0.1000 
 34 H       -2.2700     1.9940     2.7260 H     1 <1>   0.1000 
 35 H       -3.0750     2.3080     1.1640 H     1 <1>   0.1000 
 36 H       -2.7450     3.0800    -1.8220 H     1 <1>   0.1500 
 37 H       -3.3650     6.0400     1.1960 H     1 <1>   0.1500 
 38 H       -5.7830     5.8270     0.7230 H     1 <1>   0.1500 
 39 H        1.4390     7.1590    -1.0280 H     1 <1>   0.3700 
 40 H       -6.5490     4.2760    -0.9970 H     1 <1>   0.1500 
 41 H        0.8820     9.7050    -0.4700 H     1 <1>   0.0800 
 42 H        0.5970     9.0040     1.1090 H     1 <1>   0.0800 
 43 H        2.7610     7.3350     2.0130 H     1 <1>   0.1500 
 44 H        3.5610    10.2320    -0.9820 H     1 <1>   0.1500 
 45 H        6.0930    10.1400    -0.8610 H     1 <1>   0.0800 
 46 H        6.7520     8.7040    -0.0910 H     1 <1>   0.0800 
 47 H        6.4840    10.1570     0.8540 H     1 <1>   0.0800 
@<TRIPOS>BOND
  1   1   2  2   
  2   2   3  am  
  3   2   4  1   
  4   3   5  1   
  5   3   6  1   
  6   4   7  1   
  7   4  27  1   
  8   4  28  1   
  9   5   8  1   
 10   5   9  1   
 11   5  29  1   
 12   6  10  1   
 13   6  11  1   
 14   6  30  1   
 15   7   9  1   
 16   8  12  ar  
 17   8  13  ar  
 18   9  14  1   
 19   9  31  1   
 20  10  11  1   
 21  10  32  1   
 22  10  33  1   
 23  11  34  1   
 24  11  35  1   
 25  12  15  ar  
 26  12  36  1   
 27  13  16  ar  
 28  13  37  1   
 29  14  17  2   
 30  14  18  am  
 31  15  19  ar  
 32  16  19  ar  
 33  16  38  1   
 34  18  20  1   
 35  18  39  1   
 36  19  40  1   
 37  20  21  1   
 38  20  41  1   
 39  20  42  1   
 40  21  22  1   
 41  21  23  2   
 42  22  24  2   
 43  22  43  1   
 44  23  25  1   
 45  23  44  1   
 46  24  25  1   
 47  25  26  1   
 48  26  45  1   
 49  26  46  1   
 50  26  47  1   
@<TRIPOS>SUBSTRUCTURE
  1 ****   9 GROUP 4 **** **** 0

# MOE 2024.06 (io_trps.svl 2023.06)
