@<TRIPOS>MOLECULE
NONAME
47 49 1 0 0 
SMALL
USER_CHARGES


@<TRIPOS>ATOM
  1 S        1.4470     1.1500     0.7670 S.3   1 <1>  -0.0800 
  2 C        2.9470     0.2510     0.7430 C.2   1 <1>   0.1980 
  3 C        1.8180     1.7580    -0.8190 C.2   1 <1>  -0.1100 
  4 N        3.6370     0.4030    -0.3160 N.2   1 <1>  -0.5650 
  5 C        3.2610    -0.5990     1.9520 C.3   1 <1>  -0.0600 
  6 C        2.9980     1.2550    -1.2160 C.2   1 <1>   0.0460 
  7 C        3.6650     1.5380    -2.5600 C.3   1 <1>   0.3900 
  8 N        4.3090     2.8940    -2.5870 N.pl3 1 <1>  -0.8380 
  9 C        5.1580     3.3210    -1.6140 C.ar  1 <1>   0.4100 
 10 C        3.7590     3.8140    -3.6280 C.3   1 <1>   0.1290 
 11 N        5.1930     4.6140    -1.3510 N.ar  1 <1>  -0.6200 
 12 C        5.9620     2.4130    -0.8990 C.ar  1 <1>  -0.1500 
 13 C        5.9510     5.0390    -0.3510 C.ar  1 <1>   0.7710 
 14 C        6.7340     2.8600     0.1170 C.ar  1 <1>   0.2180 
 15 N        6.7010     4.1880     0.3720 N.ar  1 <1>  -0.1790 
 16 N        5.9790     6.3670    -0.0500 N.pl3 1 <1>  -0.8380 
 17 C        7.6180     1.9550     0.9640 C.3   1 <1>  -0.0170 
 18 C        6.6540     7.0330     1.1200 C.3   1 <1>   0.2090 
 19 C        5.2600     7.3880    -0.9020 C.3   1 <1>   0.2090 
 20 C        9.1070     2.2920     0.8120 C.3   1 <1>  -0.2400 
 21 C        5.6810     7.9650     1.8680 C.3   1 <1>   0.1200 
 22 C        4.3700     8.3050    -0.0450 C.3   1 <1>   0.1200 
 23 O        5.1140     8.8870     0.9880 O.3   1 <1>  -0.5600 
 24 H        1.1140     2.4240    -1.2820 H     1 <1>   0.1500 
 25 H        2.4880    -1.3320     2.0890 H     1 <1>   0.0800 
 26 H        3.3210     0.0190     2.8280 H     1 <1>   0.0800 
 27 H        4.1990    -1.1040     1.8100 H     1 <1>   0.0800 
 28 H        2.9130     1.4810    -3.3270 H     1 <1>   0.0800 
 29 H        4.3980     0.7790    -2.7710 H     1 <1>   0.0800 
 30 H        3.7120     3.3110    -4.5790 H     1 <1>   0.0800 
 31 H        4.3860     4.6810    -3.7410 H     1 <1>   0.0800 
 32 H        2.7710     4.1340    -3.3450 H     1 <1>   0.0800 
 33 H        5.9450     1.3750    -1.1710 H     1 <1>   0.1500 
 34 H        7.2690     4.6000     1.0970 H     1 <1>   0.4570 
 35 H        7.4640     0.9310     0.6660 H     1 <1>   0.0800 
 36 H        7.3300     2.0310     1.9980 H     1 <1>   0.0800 
 37 H        7.4820     7.6230     0.7620 H     1 <1>   0.0800 
 38 H        7.0360     6.3150     1.8200 H     1 <1>   0.0800 
 39 H        4.6440     6.9280    -1.6530 H     1 <1>   0.0800 
 40 H        5.9870     7.9960    -1.4140 H     1 <1>   0.0800 
 41 H        9.4070     2.2170    -0.2200 H     1 <1>   0.0800 
 42 H        9.6980     1.5940     1.3810 H     1 <1>   0.0800 
 43 H        9.3280     3.2830     1.1670 H     1 <1>   0.0800 
 44 H        6.2040     8.5200     2.6260 H     1 <1>   0.0800 
 45 H        4.8900     7.4030     2.3350 H     1 <1>   0.0800 
 46 H        3.5530     7.7500     0.3840 H     1 <1>   0.0800 
 47 H        3.9680     9.1000    -0.6470 H     1 <1>   0.0800 
@<TRIPOS>BOND
  1   1   2  1   
  2   1   3  1   
  3   2   4  2   
  4   2   5  1   
  5   3   6  2   
  6   3  24  1   
  7   4   6  1   
  8   5  25  1   
  9   5  26  1   
 10   5  27  1   
 11   6   7  1   
 12   7   8  1   
 13   7  28  1   
 14   7  29  1   
 15   8   9  1   
 16   8  10  1   
 17   9  11  ar  
 18   9  12  ar  
 19  10  30  1   
 20  10  31  1   
 21  10  32  1   
 22  11  13  ar  
 23  12  14  ar  
 24  12  33  1   
 25  13  15  ar  
 26  13  16  1   
 27  14  15  ar  
 28  14  17  1   
 29  15  34  1   
 30  16  18  1   
 31  16  19  1   
 32  17  20  1   
 33  17  35  1   
 34  17  36  1   
 35  18  21  1   
 36  18  37  1   
 37  18  38  1   
 38  19  22  1   
 39  19  39  1   
 40  19  40  1   
 41  20  41  1   
 42  20  42  1   
 43  20  43  1   
 44  21  23  1   
 45  21  44  1   
 46  21  45  1   
 47  22  23  1   
 48  22  46  1   
 49  22  47  1   
@<TRIPOS>SUBSTRUCTURE
  1 ****   9 GROUP 4 **** **** 0

# MOE 2024.06 (io_trps.svl 2023.06)
