@<TRIPOS>MOLECULE
NONAME
58 60 1 0 0 
SMALL
USER_CHARGES


@<TRIPOS>ATOM
  1 O        0.2590    -0.2970     1.2100 O.2   1 <1>  -0.5700 
  2 C        1.0480    -0.7000     0.3870 C.2   1 <1>   0.5690 
  3 N        2.0750     0.0840    -0.0840 N.am  1 <1>  -0.6600 
  4 C        0.8810    -2.1300    -0.1140 C.3   1 <1>  -0.0990 
  5 C        2.1550     1.5240     0.3140 C.3   1 <1>   0.2200 
  6 C        3.1490    -0.4350    -0.9860 C.3   1 <1>   0.0600 
  7 C       -0.5300    -2.7040     0.1130 C.3   1 <1>  -0.0990 
  8 C        2.3220     2.4450    -0.9070 C.3   1 <1>  -0.1600 
  9 C        3.2760     1.7400     1.3390 C.3   1 <1>  -0.1600 
 10 C       -0.6400    -4.1280    -0.3860 C.2   1 <1>   0.5690 
 11 C        2.3920     3.9170    -0.4740 C.3   1 <1>  -0.1600 
 12 C        3.3550     3.2140     1.7660 C.3   1 <1>  -0.1600 
 13 O       -0.4540    -4.3600    -1.5550 O.2   1 <1>  -0.5700 
 14 N       -0.9460    -5.1080     0.4970 N.am  1 <1>  -0.7300 
 15 C        3.5140     4.1390     0.5510 C.3   1 <1>  -0.1600 
 16 C       -1.0930    -6.5390     0.1480 C.3   1 <1>   0.2200 
 17 C       -2.5700    -6.8900     0.0910 C.3   1 <1>  -0.0800 
 18 C       -0.6090    -7.4060     1.3060 C.3   1 <1>   0.1200 
 19 C       -2.8890    -7.1620     1.5650 C.3   1 <1>   0.1200 
 20 C       -2.8240    -8.1210    -0.8000 C.3   1 <1>  -0.0170 
 21 O       -1.6890    -7.5240     2.1860 O.3   1 <1>  -0.5600 
 22 C       -4.3060    -8.4550    -0.8780 C.ar  1 <1>  -0.1440 
 23 C       -5.1790    -7.7050    -1.6400 C.ar  1 <1>  -0.1500 
 24 C       -4.8560    -9.5220    -0.1960 C.ar  1 <1>  -0.1500 
 25 C       -6.5210    -8.0450    -1.6780 C.ar  1 <1>   0.1600 
 26 C       -6.2130    -9.7770    -0.3020 C.ar  1 <1>   0.1600 
 27 N       -7.0600    -9.0620    -1.0250 N.ar  1 <1>  -0.6200 
 28 H        1.0860    -2.1580    -1.1680 H     1 <1>   0.0800 
 29 H        1.6010    -2.7490     0.3890 H     1 <1>   0.0800 
 30 H        1.2300     1.8070     0.7890 H     1 <1>   0.0800 
 31 H        4.0710     0.0930    -0.8220 H     1 <1>   0.0800 
 32 H        2.8520    -0.3040    -2.0120 H     1 <1>   0.0800 
 33 H        3.3320    -1.4790    -0.8020 H     1 <1>   0.0800 
 34 H       -1.2490    -2.1030    -0.4120 H     1 <1>   0.0800 
 35 H       -0.7720    -2.6710     1.1600 H     1 <1>   0.0800 
 36 H        3.2250     2.2060    -1.4360 H     1 <1>   0.0800 
 37 H        1.4860     2.3080    -1.5700 H     1 <1>   0.0800 
 38 H        3.0820     1.1310     2.2040 H     1 <1>   0.0800 
 39 H        4.2230     1.4510     0.9220 H     1 <1>   0.0800 
 40 H        2.5620     4.5390    -1.3360 H     1 <1>   0.0800 
 41 H        1.4500     4.2060    -0.0390 H     1 <1>   0.0800 
 42 H        2.4560     3.4780     2.2970 H     1 <1>   0.0800 
 43 H        4.1850     3.3520     2.4370 H     1 <1>   0.0800 
 44 H       -1.1270    -4.8890     1.4780 H     1 <1>   0.3700 
 45 H        3.5050     5.1650     0.8770 H     1 <1>   0.0800 
 46 H        4.4660     3.9520     0.0830 H     1 <1>   0.0800 
 47 H       -0.5690    -6.7550    -0.7690 H     1 <1>   0.0800 
 48 H       -3.1510    -6.0660    -0.2850 H     1 <1>   0.0800 
 49 H        0.2330    -6.9780     1.8210 H     1 <1>   0.0800 
 50 H       -0.3610    -8.3940     0.9620 H     1 <1>   0.0800 
 51 H       -3.6090    -7.9490     1.7060 H     1 <1>   0.0800 
 52 H       -3.2440    -6.2670     2.0460 H     1 <1>   0.0800 
 53 H       -2.2820    -8.9720    -0.4260 H     1 <1>   0.0800 
 54 H       -2.4660    -7.9200    -1.7950 H     1 <1>   0.0800 
 55 H       -4.8280    -6.8610    -2.2050 H     1 <1>   0.1500 
 56 H       -4.2430   -10.1580     0.4180 H     1 <1>   0.1500 
 57 H       -7.1860    -7.4480    -2.2780 H     1 <1>   0.1500 
 58 H       -6.6240   -10.6120     0.2380 H     1 <1>   0.1500 
@<TRIPOS>BOND
  1   1   2  2   
  2   2   3  am  
  3   2   4  1   
  4   3   5  1   
  5   3   6  1   
  6   4   7  1   
  7   4  28  1   
  8   4  29  1   
  9   5   8  1   
 10   5   9  1   
 11   5  30  1   
 12   6  31  1   
 13   6  32  1   
 14   6  33  1   
 15   7  10  1   
 16   7  34  1   
 17   7  35  1   
 18   8  11  1   
 19   8  36  1   
 20   8  37  1   
 21   9  12  1   
 22   9  38  1   
 23   9  39  1   
 24  10  13  2   
 25  10  14  am  
 26  11  15  1   
 27  11  40  1   
 28  11  41  1   
 29  12  15  1   
 30  12  42  1   
 31  12  43  1   
 32  14  16  1   
 33  14  44  1   
 34  15  45  1   
 35  15  46  1   
 36  16  17  1   
 37  16  18  1   
 38  16  47  1   
 39  17  19  1   
 40  17  20  1   
 41  17  48  1   
 42  18  21  1   
 43  18  49  1   
 44  18  50  1   
 45  19  21  1   
 46  19  51  1   
 47  19  52  1   
 48  20  22  1   
 49  20  53  1   
 50  20  54  1   
 51  22  23  ar  
 52  22  24  ar  
 53  23  25  ar  
 54  23  55  1   
 55  24  26  ar  
 56  24  56  1   
 57  25  27  ar  
 58  25  57  1   
 59  26  27  ar  
 60  26  58  1   
@<TRIPOS>SUBSTRUCTURE
  1 ****  10 GROUP 4 **** **** 0

# MOE 2024.06 (io_trps.svl 2023.06)
