@<TRIPOS>MOLECULE
NONAME
44 46 1 0 0 
SMALL
USER_CHARGES


@<TRIPOS>ATOM
  1 O       -0.1440    -0.1370     2.1020 O.2   1 <1>  -0.5700 
  2 C       -0.9610     0.6460     1.6840 C.2   1 <1>   0.5690 
  3 N       -2.0390     0.2360     0.9510 N.am  1 <1>  -0.6600 
  4 C       -0.7440     2.1180     1.9890 C.3   1 <1>  -0.0990 
  5 C       -3.0690     1.0930     0.3110 C.3   1 <1>   0.1400 
  6 C       -2.2610    -1.1900     0.6150 C.3   1 <1>   0.1400 
  7 C        0.0510     2.8150     0.8720 C.3   1 <1>  -0.1600 
  8 C       -3.8470     0.1520    -0.6080 C.3   1 <1>   0.2000 
  9 C       -3.6500    -1.2460    -0.0250 C.3   1 <1>  -0.0800 
 10 C        0.2930     4.2960     1.1900 C.3   1 <1>   0.0960 
 11 O       -5.1940     0.4720    -0.6410 O.3   1 <1>  -0.6800 
 12 C       -3.8030    -2.3580    -1.0740 C.3   1 <1>  -0.0170 
 13 N        0.8860     4.9830     0.0280 N.pl3 1 <1>   0.3140 
 14 C       -3.6100    -3.7310    -0.4500 C.ar  1 <1>  -0.1440 
 15 N        0.1520     5.4680    -0.9630 N.2   1 <1>  -0.7070 
 16 C        2.1730     5.2160    -0.2400 C.2   1 <1>   0.0360 
 17 C       -2.4030    -4.3990    -0.4970 C.ar  1 <1>  -0.1500 
 18 C       -4.6400    -4.3810     0.1990 C.ar  1 <1>  -0.1500 
 19 C        1.0470     5.9600    -1.7550 C.2   1 <1>   0.3660 
 20 N        2.3190     5.8320    -1.3570 N.2   1 <1>  -0.5650 
 21 C       -2.2870    -5.6460     0.0940 C.ar  1 <1>   0.1600 
 22 C       -4.4190    -5.6300     0.7570 C.ar  1 <1>   0.1600 
 23 N       -3.2660    -6.2780     0.7200 N.ar  1 <1>  -0.6200 
 24 H       -1.6930     2.6000     2.1340 H     1 <1>   0.0800 
 25 H       -0.2000     2.1880     2.9140 H     1 <1>   0.0800 
 26 H       -3.7110     1.5020     1.0710 H     1 <1>   0.0800 
 27 H       -2.6130     1.8830    -0.2590 H     1 <1>   0.0800 
 28 H       -1.5010    -1.5030    -0.0810 H     1 <1>   0.0800 
 29 H       -2.2070    -1.8060     1.4980 H     1 <1>   0.0800 
 30 H       -0.4940     2.7370    -0.0530 H     1 <1>   0.0800 
 31 H        0.9970     2.3140     0.7480 H     1 <1>   0.0800 
 32 H       -3.4570     0.2190    -1.6100 H     1 <1>   0.0800 
 33 H       -4.3570    -1.4050     0.7700 H     1 <1>   0.0800 
 34 H        0.9520     4.4000     2.0330 H     1 <1>   0.0800 
 35 H       -0.6390     4.7830     1.4180 H     1 <1>   0.0800 
 36 H       -5.5950     0.3620     0.2430 H     1 <1>   0.4000 
 37 H       -3.0900    -2.2170    -1.8680 H     1 <1>   0.0800 
 38 H       -4.7860    -2.3020    -1.5100 H     1 <1>   0.0800 
 39 H        2.9740     4.9150     0.4110 H     1 <1>   0.1500 
 40 H       -1.5500    -3.9650    -0.9860 H     1 <1>   0.1500 
 41 H       -5.6120    -3.9290     0.2770 H     1 <1>   0.1500 
 42 H        0.8080     6.4480    -2.6870 H     1 <1>   0.1500 
 43 H       -1.3370    -6.1510     0.0490 H     1 <1>   0.1500 
 44 H       -5.2350    -6.1220     1.2590 H     1 <1>   0.1500 
@<TRIPOS>BOND
  1   1   2  2   
  2   2   3  am  
  3   2   4  1   
  4   3   5  1   
  5   3   6  1   
  6   4   7  1   
  7   4  24  1   
  8   4  25  1   
  9   5   8  1   
 10   5  26  1   
 11   5  27  1   
 12   6   9  1   
 13   6  28  1   
 14   6  29  1   
 15   7  10  1   
 16   7  30  1   
 17   7  31  1   
 18   8   9  1   
 19   8  11  1   
 20   8  32  1   
 21   9  12  1   
 22   9  33  1   
 23  10  13  1   
 24  10  34  1   
 25  10  35  1   
 26  11  36  1   
 27  12  14  1   
 28  12  37  1   
 29  12  38  1   
 30  13  15  1   
 31  13  16  1   
 32  14  17  ar  
 33  14  18  ar  
 34  15  19  2   
 35  16  20  2   
 36  16  39  1   
 37  17  21  ar  
 38  17  40  1   
 39  18  22  ar  
 40  18  41  1   
 41  19  20  1   
 42  19  42  1   
 43  21  23  ar  
 44  21  43  1   
 45  22  23  ar  
 46  22  44  1   
@<TRIPOS>SUBSTRUCTURE
  1 ****   3 GROUP 4 **** **** 0

# MOE 2024.06 (io_trps.svl 2023.06)
