@<TRIPOS>MOLECULE
NONAME
49 51 1 0 0 
SMALL
USER_CHARGES


@<TRIPOS>ATOM
  1 S       -0.7540    -0.1860     0.3430 S.3   1 <1>  -0.3320 
  2 C        0.9110     0.4910     0.1840 C.ar  1 <1>   0.1020 
  3 C       -0.7250    -1.8500    -0.4560 C.3   1 <1>   0.0700 
  4 C        1.1300     1.7450     0.7260 C.ar  1 <1>  -0.1500 
  5 C        1.9320    -0.2050    -0.4490 C.ar  1 <1>  -0.1500 
  6 C       -2.1330    -2.4400    -0.3490 C.3   1 <1>  -0.0990 
  7 C        2.3880     2.3140     0.6350 C.ar  1 <1>   0.0830 
  8 C        3.1900     0.3690    -0.5440 C.ar  1 <1>  -0.1500 
  9 C       -2.2400    -3.8270    -0.9620 C.2   1 <1>   0.5690 
 10 O        2.5950     3.5370     1.1850 O.3   1 <1>  -0.3630 
 11 C        3.4200     1.6260    -0.0110 C.ar  1 <1>   0.0830 
 12 O       -1.2400    -4.3300    -1.4180 O.2   1 <1>  -0.5700 
 13 N       -3.4410    -4.4850    -0.9770 N.am  1 <1>  -0.6600 
 14 C        3.9410     3.9410     1.3570 C.3   1 <1>   0.1200 
 15 O        4.6570     2.1720    -0.1330 O.3   1 <1>  -0.3630 
 16 C       -3.5380    -5.8830    -1.4880 C.3   1 <1>   0.3200 
 17 C       -4.7210    -3.9410    -0.4090 C.3   1 <1>   0.1400 
 18 C        4.7720     3.5590     0.1250 C.3   1 <1>   0.1200 
 19 C       -3.7550    -6.8330    -0.3250 C.2   1 <1>  -0.3320 
 20 C       -5.4620    -3.0200    -1.3930 C.3   1 <1>   0.1200 
 21 N       -2.8240    -7.1600     0.5940 N.pl3 1 <1>   0.0480 
 22 C       -4.8740    -7.5160     0.0040 C.2   1 <1>   0.0770 
 23 O       -5.4670    -3.5720    -2.6640 O.3   1 <1>  -0.6800 
 24 C       -3.4540    -8.0180     1.4270 C.2   1 <1>   0.0360 
 25 C       -1.4220    -6.7130     0.6810 C.3   1 <1>   0.0160 
 26 N       -4.6850    -8.2570     1.1100 N.2   1 <1>  -0.5650 
 27 H       -0.0030    -2.4510     0.0680 H     1 <1>   0.0800 
 28 H       -0.4320    -1.7150    -1.4830 H     1 <1>   0.0800 
 29 H        0.3340     2.2740     1.2150 H     1 <1>   0.1500 
 30 H        1.7710    -1.1790    -0.8690 H     1 <1>   0.1500 
 31 H       -2.8140    -1.7810    -0.8510 H     1 <1>   0.0800 
 32 H       -2.4020    -2.5000     0.6890 H     1 <1>   0.0800 
 33 H        3.9940    -0.1510    -1.0320 H     1 <1>   0.1500 
 34 H        4.3270     3.4530     2.2340 H     1 <1>   0.0800 
 35 H        3.9500     5.0050     1.5100 H     1 <1>   0.0800 
 36 H       -2.6500    -6.1640    -2.0270 H     1 <1>   0.0800 
 37 H       -4.3680    -5.9550    -2.1690 H     1 <1>   0.0800 
 38 H       -4.5230    -3.4050     0.5020 H     1 <1>   0.0800 
 39 H       -5.3770    -4.7530    -0.1480 H     1 <1>   0.0800 
 40 H        5.8110     3.7830     0.2800 H     1 <1>   0.0800 
 41 H        4.4210     4.0900    -0.7420 H     1 <1>   0.0800 
 42 H       -4.9860    -2.0570    -1.4500 H     1 <1>   0.0800 
 43 H       -6.4830    -2.8790    -1.0830 H     1 <1>   0.0800 
 44 H       -5.8250    -7.5130    -0.5030 H     1 <1>   0.1500 
 45 H       -4.5490    -3.8010    -2.9130 H     1 <1>   0.4000 
 46 H       -2.9570    -8.4560     2.2740 H     1 <1>   0.1500 
 47 H       -0.9720    -6.7510    -0.2950 H     1 <1>   0.0800 
 48 H       -0.8780    -7.3530     1.3490 H     1 <1>   0.0800 
 49 H       -1.3940    -5.7040     1.0470 H     1 <1>   0.0800 
@<TRIPOS>BOND
  1   1   2  1   
  2   1   3  1   
  3   2   4  ar  
  4   2   5  ar  
  5   3   6  1   
  6   3  27  1   
  7   3  28  1   
  8   4   7  ar  
  9   4  29  1   
 10   5   8  ar  
 11   5  30  1   
 12   6   9  1   
 13   6  31  1   
 14   6  32  1   
 15   7  10  1   
 16   7  11  ar  
 17   8  11  ar  
 18   8  33  1   
 19   9  12  2   
 20   9  13  am  
 21  10  14  1   
 22  11  15  1   
 23  13  16  1   
 24  13  17  1   
 25  14  18  1   
 26  14  34  1   
 27  14  35  1   
 28  15  18  1   
 29  16  19  1   
 30  16  36  1   
 31  16  37  1   
 32  17  20  1   
 33  17  38  1   
 34  17  39  1   
 35  18  40  1   
 36  18  41  1   
 37  19  21  1   
 38  19  22  2   
 39  20  23  1   
 40  20  42  1   
 41  20  43  1   
 42  21  24  1   
 43  21  25  1   
 44  22  26  1   
 45  22  44  1   
 46  23  45  1   
 47  24  26  2   
 48  24  46  1   
 49  25  47  1   
 50  25  48  1   
 51  25  49  1   
@<TRIPOS>SUBSTRUCTURE
  1 ****   3 GROUP 4 **** **** 0

# MOE 2024.06 (io_trps.svl 2023.06)
