@<TRIPOS>MOLECULE
NONAME
43 45 1 0 0 
SMALL
USER_CHARGES


@<TRIPOS>ATOM
  1 S       -1.2690     0.3910    -0.6380 S.3   1 <1>  -0.3320 
  2 C       -2.4040    -1.0040    -0.5620 C.ar  1 <1>   0.1020 
  3 C       -1.8490     1.5000    -1.9980 C.3   1 <1>  -0.0100 
  4 C       -2.1590    -1.9590     0.3930 C.ar  1 <1>  -0.1500 
  5 C       -3.4880    -1.1150    -1.4310 C.ar  1 <1>  -0.1500 
  6 C       -2.9930    -3.0810     0.5260 C.ar  1 <1>   0.0000 
  7 C       -4.3190    -2.2060    -1.3250 C.ar  1 <1>  -0.1500 
  8 C       -4.0820    -3.1940    -0.3630 C.ar  1 <1>   0.3610 
  9 C       -2.8170    -4.1080     1.5070 C.ar  1 <1>  -0.1440 
 10 N       -4.9080    -4.2900    -0.2550 N.ar  1 <1>  -0.1790 
 11 C       -3.6900    -5.1530     1.5500 C.ar  1 <1>  -0.1500 
 12 C       -1.6600    -4.0320     2.4960 C.3   1 <1>  -0.0970 
 13 C       -4.7700    -5.2590     0.6420 C.ar  1 <1>   0.4610 
 14 N       -5.6840    -6.2410     0.6790 N.pl3 1 <1>  -0.8380 
 15 C       -6.4570    -6.7190    -0.5230 C.3   1 <1>   0.2090 
 16 C       -6.4190    -6.5360     1.9390 C.3   1 <1>   0.2090 
 17 C       -7.7860    -5.9550    -0.6610 C.3   1 <1>   0.2000 
 18 C       -7.7270    -5.7310     1.9110 C.3   1 <1>  -0.1600 
 19 O       -7.5100    -4.6250    -0.9740 O.3   1 <1>  -0.6800 
 20 C       -8.5870    -6.0220     0.6540 C.3   1 <1>  -0.1860 
 21 C       -9.8050    -5.1230     0.5820 C.2   1 <1>   0.9060 
 22 O      -10.9050    -5.5990     0.8560 O.co2 1 <1>  -0.9000 
 23 O       -9.6420    -3.9480     0.2220 O.co2 1 <1>  -0.9000 
 24 H       -1.1750     2.3360    -2.0420 H     1 <1>   0.0800 
 25 H       -2.8450     1.8280    -1.7590 H     1 <1>   0.0800 
 26 H       -1.8240     0.9430    -2.9170 H     1 <1>   0.0800 
 27 H       -1.3120    -1.8290     1.0430 H     1 <1>   0.1500 
 28 H       -3.6770    -0.3620    -2.1740 H     1 <1>   0.1500 
 29 H       -5.1630    -2.3010    -1.9870 H     1 <1>   0.1500 
 30 H       -5.8040    -4.3150    -0.7640 H     1 <1>   0.4570 
 31 H       -3.5860    -5.9440     2.2710 H     1 <1>   0.1500 
 32 H       -1.6650    -4.8740     3.1650 H     1 <1>   0.0800 
 33 H       -1.7330    -3.1350     3.0860 H     1 <1>   0.0800 
 34 H       -0.7210    -4.0280     1.9700 H     1 <1>   0.0800 
 35 H       -5.8760    -6.6070    -1.4220 H     1 <1>   0.0800 
 36 H       -6.6690    -7.7690    -0.4070 H     1 <1>   0.0800 
 37 H       -6.6300    -7.5900     2.0040 H     1 <1>   0.0800 
 38 H       -5.8390    -6.2510     2.8010 H     1 <1>   0.0800 
 39 H       -8.3770    -6.3570    -1.4670 H     1 <1>   0.0800 
 40 H       -8.3060    -5.9580     2.7890 H     1 <1>   0.0800 
 41 H       -7.4960    -4.6800     1.9470 H     1 <1>   0.0800 
 42 H       -8.3320    -4.1160    -0.6530 H     1 <1>   0.4000 
 43 H       -8.9580    -7.0260     0.7470 H     1 <1>   0.0800 
@<TRIPOS>BOND
  1   1   2  1   
  2   1   3  1   
  3   2   4  ar  
  4   2   5  ar  
  5   3  24  1   
  6   3  25  1   
  7   3  26  1   
  8   4   6  ar  
  9   4  27  1   
 10   5   7  ar  
 11   5  28  1   
 12   6   8  ar  
 13   6   9  ar  
 14   7   8  ar  
 15   7  29  1   
 16   8  10  ar  
 17   9  11  ar  
 18   9  12  1   
 19  10  13  ar  
 20  10  30  1   
 21  11  13  ar  
 22  11  31  1   
 23  12  32  1   
 24  12  33  1   
 25  12  34  1   
 26  13  14  1   
 27  14  15  1   
 28  14  16  1   
 29  15  17  1   
 30  15  35  1   
 31  15  36  1   
 32  16  18  1   
 33  16  37  1   
 34  16  38  1   
 35  17  19  1   
 36  17  20  1   
 37  17  39  1   
 38  18  20  1   
 39  18  40  1   
 40  18  41  1   
 41  19  42  1   
 42  20  21  1   
 43  20  43  1   
 44  21  22  ar  
 45  21  23  ar  
@<TRIPOS>SUBSTRUCTURE
  1 ****  10 GROUP 4 **** **** 0

# MOE 2024.06 (io_trps.svl 2023.06)
