@<TRIPOS>MOLECULE
NONAME
49 51 1 0 0 
SMALL
USER_CHARGES


@<TRIPOS>ATOM
  1 CL      -3.3650    -7.6170     1.2880 Cl    1 <1>  -0.1770 
  2 C       -4.0090    -6.0110     1.0810 C.ar  1 <1>   0.1770 
  3 C       -4.8780    -5.5030     2.0270 C.ar  1 <1>  -0.1500 
  4 C       -3.6470    -5.2740    -0.0300 C.ar  1 <1>  -0.1500 
  5 C       -5.4070    -4.2360     1.8460 C.ar  1 <1>  -0.1500 
  6 C       -4.1750    -4.0060    -0.2040 C.ar  1 <1>  -0.1500 
  7 C       -5.0690    -3.4880     0.7260 C.ar  1 <1>  -0.1430 
  8 C       -5.6860    -2.1040     0.5310 C.3   1 <1>   0.0450 
  9 C       -7.2070    -2.1810     0.5450 C.2   1 <1>   0.5690 
 10 O       -7.7770    -1.7720     1.5260 O.2   1 <1>  -0.5700 
 11 N       -7.9120    -2.7750    -0.4770 N.am  1 <1>  -0.6600 
 12 C       -9.3740    -3.0620    -0.3240 C.3   1 <1>   0.1400 
 13 C       -7.3090    -3.5780    -1.5810 C.3   1 <1>   0.1400 
 14 C       -9.6320    -4.5790    -0.1240 C.3   1 <1>   0.4230 
 15 C       -7.4510    -5.0930    -1.2930 C.3   1 <1>   0.3430 
 16 N       -8.3480    -5.3950    -0.1110 N.4   1 <1>  -0.9590 
 17 C      -10.6130    -5.1300    -1.1820 C.3   1 <1>   0.1200 
 18 C       -8.6790    -6.8490     0.0680 C.3   1 <1>   0.4230 
 19 O      -10.8440    -6.4950    -0.9760 O.3   1 <1>  -0.5600 
 20 C       -9.7060    -7.3140    -0.9930 C.3   1 <1>   0.1200 
 21 C       -7.4000    -7.7010     0.0810 C.3   1 <1>  -0.1600 
 22 C       -7.6550    -9.1370     0.5690 C.3   1 <1>  -0.1600 
 23 C       -6.3420    -9.9140     0.6850 C.3   1 <1>  -0.2400 
 24 H       -5.1250    -6.0890     2.8950 H     1 <1>   0.1500 
 25 H       -2.9520    -5.6880    -0.7410 H     1 <1>   0.1500 
 26 H       -6.0750    -3.8290     2.5900 H     1 <1>   0.1500 
 27 H       -3.8760    -3.4260    -1.0620 H     1 <1>   0.1500 
 28 H       -5.3610    -1.6550    -0.3890 H     1 <1>   0.0800 
 29 H       -5.3640    -1.4620     1.3320 H     1 <1>   0.0800 
 30 H       -9.7850    -2.5260     0.5150 H     1 <1>   0.0800 
 31 H       -9.8930    -2.7040    -1.1970 H     1 <1>   0.0800 
 32 H       -7.8220    -3.3460    -2.4990 H     1 <1>   0.0800 
 33 H       -6.2770    -3.3270    -1.7370 H     1 <1>   0.0800 
 34 H      -10.1190    -4.6900     0.8310 H     1 <1>   0.0800 
 35 H       -6.4680    -5.4940    -1.1020 H     1 <1>   0.0800 
 36 H       -7.8290    -5.5780    -2.1770 H     1 <1>   0.0800 
 37 H       -7.8300    -5.0720     0.7180 H     1 <1>   0.4500 
 38 H      -10.2370    -4.9910    -2.1800 H     1 <1>   0.0800 
 39 H      -11.5630    -4.6290    -1.1030 H     1 <1>   0.0800 
 40 H       -9.1510    -6.9690     1.0300 H     1 <1>   0.0800 
 41 H      -10.0360    -8.3150    -0.7790 H     1 <1>   0.0800 
 42 H       -9.2840    -7.3010    -1.9830 H     1 <1>   0.0800 
 43 H       -6.9650    -7.7480    -0.9020 H     1 <1>   0.0800 
 44 H       -6.6890    -7.2490     0.7490 H     1 <1>   0.0800 
 45 H       -8.1340    -9.1210     1.5340 H     1 <1>   0.0800 
 46 H       -8.3010    -9.6600    -0.1160 H     1 <1>   0.0800 
 47 H       -5.6890    -9.4560     1.4080 H     1 <1>   0.0800 
 48 H       -5.8330    -9.9540    -0.2630 H     1 <1>   0.0800 
 49 H       -6.5380   -10.9230     1.0040 H     1 <1>   0.0800 
@<TRIPOS>BOND
  1   1   2  1   
  2   2   3  ar  
  3   2   4  ar  
  4   3   5  ar  
  5   3  24  1   
  6   4   6  ar  
  7   4  25  1   
  8   5   7  ar  
  9   5  26  1   
 10   6   7  ar  
 11   6  27  1   
 12   7   8  1   
 13   8   9  1   
 14   8  28  1   
 15   8  29  1   
 16   9  10  2   
 17   9  11  am  
 18  11  12  1   
 19  11  13  1   
 20  12  14  1   
 21  12  30  1   
 22  12  31  1   
 23  13  15  1   
 24  13  32  1   
 25  13  33  1   
 26  14  16  1   
 27  14  17  1   
 28  14  34  1   
 29  15  16  1   
 30  15  35  1   
 31  15  36  1   
 32  16  18  1   
 33  16  37  1   
 34  17  19  1   
 35  17  38  1   
 36  17  39  1   
 37  18  20  1   
 38  18  21  1   
 39  18  40  1   
 40  19  20  1   
 41  20  41  1   
 42  20  42  1   
 43  21  22  1   
 44  21  43  1   
 45  21  44  1   
 46  22  23  1   
 47  22  45  1   
 48  22  46  1   
 49  23  47  1   
 50  23  48  1   
 51  23  49  1   
@<TRIPOS>SUBSTRUCTURE
  1 ****  16 GROUP 4 **** **** 0

# MOE 2024.06 (io_trps.svl 2023.06)
