@<TRIPOS>MOLECULE
NONAME
52 56 1 0 0 
SMALL
USER_CHARGES


@<TRIPOS>ATOM
  1 O        1.7180    -0.2340     1.8510 O.2   1 <1>  -0.5700 
  2 C        2.4010    -0.9960     1.1940 C.2   1 <1>   0.5440 
  3 N        3.6600    -0.5720     0.8220 N.am  1 <1>  -0.6600 
  4 C        1.8890    -2.2850     0.7850 C.ar  1 <1>   0.0860 
  5 C        4.3650     0.5130     1.5830 C.3   1 <1>   0.1400 
  6 C        4.3480    -1.0490    -0.4150 C.3   1 <1>   0.1400 
  7 C        0.7250    -2.4260    -0.0120 C.ar  1 <1>   0.0000 
  8 C        2.5450    -3.4380     1.1290 C.ar  1 <1>  -0.1500 
  9 C        4.5800     1.8490     0.8150 C.3   1 <1>   0.4230 
 10 C        4.3870     0.0560    -1.4930 C.3   1 <1>  -0.0800 
 11 C        0.3690    -3.7270    -0.4320 C.ar  1 <1>   0.3100 
 12 C       -0.0930    -1.3480    -0.4210 C.ar  1 <1>  -0.1500 
 13 C        2.1030    -4.6810     0.6760 C.ar  1 <1>   0.2780 
 14 N        3.5600     2.1760    -0.2610 N.4   1 <1>  -0.9590 
 15 C        6.0210     1.9700     0.2720 C.3   1 <1>   0.1200 
 16 C        5.7880     0.6560    -1.6970 C.3   1 <1>   0.1200 
 17 C        3.2870     1.1130    -1.2930 C.3   1 <1>   0.3430 
 18 N        1.0650    -4.8330    -0.0830 N.ar  1 <1>  -0.6200 
 19 C       -0.7570    -3.8910    -1.2550 C.ar  1 <1>  -0.1500 
 20 C       -1.1870    -1.5410    -1.2210 C.ar  1 <1>  -0.1500 
 21 C        2.8710    -5.9280     1.0840 C.3   1 <1>  -0.0680 
 22 C        2.2660     2.5820     0.3750 C.3   1 <1>   0.2630 
 23 O        6.4200     0.8650    -0.4780 O.3   1 <1>  -0.5600 
 24 C       -1.5230    -2.8270    -1.6480 C.ar  1 <1>  -0.1500 
 25 C        4.3660    -6.0060     0.9610 C.3   1 <1>  -0.2000 
 26 C        3.4970    -6.7990     0.0360 C.3   1 <1>  -0.2000 
 27 H        3.8140     0.7330     2.4810 H     1 <1>   0.0800 
 28 H        5.3190     0.1350     1.9100 H     1 <1>   0.0800 
 29 H        5.3430    -1.3830    -0.1690 H     1 <1>   0.0800 
 30 H        3.8250    -1.8990    -0.8180 H     1 <1>   0.0800 
 31 H        3.4190    -3.4000     1.7540 H     1 <1>   0.1500 
 32 H        4.5080     2.6240     1.5590 H     1 <1>   0.0800 
 33 H        4.1500    -0.4330    -2.4210 H     1 <1>   0.0800 
 34 H        0.1370    -0.3530    -0.0890 H     1 <1>   0.1500 
 35 H        3.9280     2.9910    -0.7660 H     1 <1>   0.4500 
 36 H        6.7010     2.0290     1.1040 H     1 <1>   0.0800 
 37 H        6.1480     2.8600    -0.3190 H     1 <1>   0.0800 
 38 H        5.7650     1.5760    -2.2570 H     1 <1>   0.0800 
 39 H        6.3990    -0.0480    -2.2380 H     1 <1>   0.0800 
 40 H        2.3850     0.5890    -1.0230 H     1 <1>   0.0800 
 41 H        3.0980     1.5940    -2.2390 H     1 <1>   0.0800 
 42 H       -1.0020    -4.8900    -1.5660 H     1 <1>   0.1500 
 43 H       -1.8070    -0.7140    -1.5250 H     1 <1>   0.1500 
 44 H        2.4040    -6.4310     1.9130 H     1 <1>   0.1000 
 45 H        1.8400     1.7580     0.9200 H     1 <1>   0.0800 
 46 H        1.5600     2.8960    -0.3760 H     1 <1>   0.0800 
 47 H        2.4220     3.3990     1.0610 H     1 <1>   0.0800 
 48 H       -2.3850    -2.9690    -2.2770 H     1 <1>   0.1500 
 49 H        4.9150    -5.1790     0.5460 H     1 <1>   0.1000 
 50 H        4.9190    -6.5290     1.7210 H     1 <1>   0.1000 
 51 H        3.4330    -7.8660     0.1570 H     1 <1>   0.1000 
 52 H        3.4040    -6.4950    -0.9930 H     1 <1>   0.1000 
@<TRIPOS>BOND
  1   1   2  2   
  2   2   3  am  
  3   2   4  1   
  4   3   5  1   
  5   3   6  1   
  6   4   7  ar  
  7   4   8  ar  
  8   5   9  1   
  9   5  27  1   
 10   5  28  1   
 11   6  10  1   
 12   6  29  1   
 13   6  30  1   
 14   7  11  ar  
 15   7  12  ar  
 16   8  13  ar  
 17   8  31  1   
 18   9  14  1   
 19   9  15  1   
 20   9  32  1   
 21  10  16  1   
 22  10  17  1   
 23  10  33  1   
 24  11  18  ar  
 25  11  19  ar  
 26  12  20  ar  
 27  12  34  1   
 28  13  18  ar  
 29  13  21  1   
 30  14  17  1   
 31  14  22  1   
 32  14  35  1   
 33  15  23  1   
 34  15  36  1   
 35  15  37  1   
 36  16  23  1   
 37  16  38  1   
 38  16  39  1   
 39  17  40  1   
 40  17  41  1   
 41  19  24  ar  
 42  19  42  1   
 43  20  24  ar  
 44  20  43  1   
 45  21  25  1   
 46  21  26  1   
 47  21  44  1   
 48  22  45  1   
 49  22  46  1   
 50  22  47  1   
 51  24  48  1   
 52  25  26  1   
 53  25  49  1   
 54  25  50  1   
 55  26  51  1   
 56  26  52  1   
@<TRIPOS>SUBSTRUCTURE
  1 ****   4 GROUP 4 **** **** 0

# MOE 2024.06 (io_trps.svl 2023.06)
