@<TRIPOS>MOLECULE
NONAME
52 54 1 0 0 
SMALL
USER_CHARGES


@<TRIPOS>ATOM
  1 O        0.7130    -1.4500    -0.4220 O.3   1 <1>  -0.3630 
  2 C        0.2460    -2.6380     0.0480 C.ar  1 <1>   0.0830 
  3 C        1.9630    -1.3390    -1.0650 C.3   1 <1>   0.0400 
  4 C       -0.9650    -2.6290     0.7280 C.ar  1 <1>  -0.1440 
  5 C        0.9260    -3.8400    -0.1250 C.ar  1 <1>  -0.1500 
  6 C       -1.4790    -3.8160     1.2180 C.ar  1 <1>  -0.1500 
  7 C       -1.7230    -1.3250     0.9380 C.3   1 <1>  -0.0960 
  8 C        0.4120    -5.0290     0.3660 C.ar  1 <1>  -0.1430 
  9 C       -0.8080    -5.0180     1.0370 C.ar  1 <1>  -0.1430 
 10 C        1.2210    -6.2990     0.1360 C.3   1 <1>  -0.0970 
 11 C       -1.4590    -6.2800     1.5760 C.3   1 <1>   0.4860 
 12 N       -2.0170    -7.0700     0.4490 N.4   1 <1>  -0.9590 
 13 C       -2.8140    -6.2930    -0.5560 C.3   1 <1>   0.3430 
 14 C       -2.8210    -8.2520     0.8300 C.3   1 <1>   0.3430 
 15 C       -4.0000    -7.1940    -0.9400 C.3   1 <1>   0.2000 
 16 C       -3.6010    -8.5850    -0.4440 C.3   1 <1>  -0.0800 
 17 O       -5.1430    -6.7870    -0.2580 O.3   1 <1>  -0.6800 
 18 C       -2.7540    -9.3200    -1.5190 C.3   1 <1>   0.0210 
 19 C       -1.4490    -9.9080    -1.0080 C.2   1 <1>   0.1080 
 20 N       -0.4080    -9.1820    -0.7180 N.2   1 <1>  -0.7070 
 21 C       -1.2210   -11.2630    -0.8080 C.2   1 <1>  -0.1500 
 22 N        0.5350   -10.0820    -0.3520 N.pl3 1 <1>   0.3000 
 23 C        0.0570   -11.3420    -0.3850 C.2   1 <1>  -0.3320 
 24 C        0.8700   -12.5720    -0.0200 C.3   1 <1>  -0.0600 
 25 H        2.1170    -0.3050    -1.3150 H     1 <1>   0.0800 
 26 H        1.9490    -1.9330    -1.9610 H     1 <1>   0.0800 
 27 H        2.7330    -1.6700    -0.3910 H     1 <1>   0.0800 
 28 H        1.8630    -3.8590    -0.6470 H     1 <1>   0.1500 
 29 H       -2.4170    -3.7930     1.7460 H     1 <1>   0.1500 
 30 H       -2.6360    -1.4820     1.4820 H     1 <1>   0.0800 
 31 H       -1.9600    -0.8850    -0.0140 H     1 <1>   0.0800 
 32 H       -1.1100    -0.6350     1.4890 H     1 <1>   0.0800 
 33 H        2.2700    -6.0660     0.0810 H     1 <1>   0.0800 
 34 H        0.9310    -6.7520    -0.7950 H     1 <1>   0.0800 
 35 H        1.0890    -7.0060     0.9330 H     1 <1>   0.0800 
 36 H       -2.2470    -6.0070     2.2580 H     1 <1>   0.0800 
 37 H       -0.7320    -6.8640     2.1150 H     1 <1>   0.0800 
 38 H       -1.2070    -7.4770    -0.0670 H     1 <1>   0.4500 
 39 H       -3.1710    -5.3600    -0.1530 H     1 <1>   0.0800 
 40 H       -2.2010    -6.0920    -1.4190 H     1 <1>   0.0800 
 41 H       -2.1980    -9.0720     1.1500 H     1 <1>   0.0800 
 42 H       -3.5070    -7.9960     1.6190 H     1 <1>   0.0800 
 43 H       -4.2210    -7.1550    -1.9940 H     1 <1>   0.0800 
 44 H       -4.4640    -9.1870    -0.2130 H     1 <1>   0.0800 
 45 H       -5.0330    -6.7730     0.7110 H     1 <1>   0.4000 
 46 H       -2.4990    -8.6570    -2.3270 H     1 <1>   0.0800 
 47 H       -3.3450   -10.1100    -1.9500 H     1 <1>   0.0800 
 48 H       -1.9230   -12.0640    -0.9710 H     1 <1>   0.1500 
 49 H        1.4970    -9.8200    -0.0990 H     1 <1>   0.2700 
 50 H        0.2720   -13.4590    -0.1330 H     1 <1>   0.0800 
 51 H        1.2040   -12.5130     1.0000 H     1 <1>   0.0800 
 52 H        1.7280   -12.6580    -0.6650 H     1 <1>   0.0800 
@<TRIPOS>BOND
  1   1   2  1   
  2   1   3  1   
  3   2   4  ar  
  4   2   5  ar  
  5   3  25  1   
  6   3  26  1   
  7   3  27  1   
  8   4   6  ar  
  9   4   7  1   
 10   5   8  ar  
 11   5  28  1   
 12   6   9  ar  
 13   6  29  1   
 14   7  30  1   
 15   7  31  1   
 16   7  32  1   
 17   8   9  ar  
 18   8  10  1   
 19   9  11  1   
 20  10  33  1   
 21  10  34  1   
 22  10  35  1   
 23  11  12  1   
 24  11  36  1   
 25  11  37  1   
 26  12  13  1   
 27  12  14  1   
 28  12  38  1   
 29  13  15  1   
 30  13  39  1   
 31  13  40  1   
 32  14  16  1   
 33  14  41  1   
 34  14  42  1   
 35  15  16  1   
 36  15  17  1   
 37  15  43  1   
 38  16  18  1   
 39  16  44  1   
 40  17  45  1   
 41  18  19  1   
 42  18  46  1   
 43  18  47  1   
 44  19  20  2   
 45  19  21  1   
 46  20  22  1   
 47  21  23  2   
 48  21  48  1   
 49  22  23  1   
 50  22  49  1   
 51  23  24  1   
 52  24  50  1   
 53  24  51  1   
 54  24  52  1   
@<TRIPOS>SUBSTRUCTURE
  1 ****  12 GROUP 4 **** **** 0

# MOE 2024.06 (io_trps.svl 2023.06)
