@<TRIPOS>MOLECULE
NONAME
50 53 1 0 0 
SMALL
USER_CHARGES


@<TRIPOS>ATOM
  1 O       -0.5710     0.4330    -1.2390 O.2   1 <1>  -0.5700 
  2 C       -1.5650     1.0210    -0.8880 C.2   1 <1>   0.5690 
  3 N       -2.6630     0.3450    -0.4320 N.am  1 <1>  -0.6600 
  4 C       -1.5490     2.5380    -0.9770 C.3   1 <1>   0.0690 
  5 C       -4.0150     0.8940    -0.1390 C.3   1 <1>   0.1400 
  6 C       -2.6810    -1.1380    -0.3280 C.3   1 <1>   0.1400 
  7 C       -0.2520     3.1530    -0.4580 C.2   1 <1>   0.1820 
  8 C       -4.9340    -0.3250    -0.0910 C.3   1 <1>   0.2000 
  9 C       -4.0310    -1.4890     0.3000 C.3   1 <1>  -0.0800 
 10 N       -0.0360     4.5220    -0.4780 N.pl3 1 <1>  -0.6290 
 11 C        0.8460     2.5720     0.0740 C.2   1 <1>   0.2000 
 12 O       -5.9460    -0.1610     0.8390 O.3   1 <1>  -0.6800 
 13 C       -4.5740    -2.8580    -0.1370 C.3   1 <1>   0.0210 
 14 C        1.1980     4.7410     0.0430 C.cat 1 <1>   0.7910 
 15 C       -0.7960     5.5870    -0.9150 C.2   1 <1>   0.2290 
 16 N        1.7390     3.5620     0.3840 N.pl3 1 <1>  -0.7000 
 17 C       -3.5780    -3.9600     0.1690 C.2   1 <1>   0.1080 
 18 C        1.7250     6.0470     0.1570 C.2   1 <1>  -0.1290 
 19 C       -0.3120     6.8580    -0.8170 C.2   1 <1>  -0.1500 
 20 N       -3.1050    -4.1700     1.3580 N.2   1 <1>  -0.7070 
 21 C       -3.0580    -4.8460    -0.7690 C.2   1 <1>  -0.1500 
 22 C        0.9650     7.1020    -0.2740 C.2   1 <1>  -0.1500 
 23 C        3.1130     6.2750     0.7470 C.3   1 <1>  -0.1020 
 24 N       -2.2640    -5.2120     1.2100 N.pl3 1 <1>   0.3000 
 25 C       -2.2160    -5.6360    -0.0700 C.2   1 <1>  -0.3320 
 26 C       -1.3560    -6.7890    -0.5540 C.3   1 <1>  -0.0600 
 27 H       -1.6760     2.8060    -2.0080 H     1 <1>   0.0800 
 28 H       -2.3640     2.9510    -0.4160 H     1 <1>   0.0800 
 29 H       -3.9990     1.3880     0.8170 H     1 <1>   0.0800 
 30 H       -4.3330     1.5730    -0.9110 H     1 <1>   0.0800 
 31 H       -2.5930    -1.5610    -1.3150 H     1 <1>   0.0800 
 32 H       -1.8650    -1.4940     0.2800 H     1 <1>   0.0800 
 33 H       -5.3830    -0.4790    -1.0580 H     1 <1>   0.0800 
 34 H       -3.8880    -1.4940     1.3670 H     1 <1>   0.0800 
 35 H        1.0500     1.5260     0.2490 H     1 <1>   0.1500 
 36 H       -5.6080    -0.3080     1.7440 H     1 <1>   0.4000 
 37 H       -4.7860    -2.8540    -1.1910 H     1 <1>   0.0800 
 38 H       -5.4890    -3.0660     0.3880 H     1 <1>   0.0800 
 39 H       -1.7710     5.3870    -1.3310 H     1 <1>   0.1500 
 40 H        2.6690     3.4400     0.7890 H     1 <1>   0.4500 
 41 H       -0.8970     7.6980    -1.1540 H     1 <1>   0.1500 
 42 H       -3.2920    -4.8740    -1.8180 H     1 <1>   0.1500 
 43 H        1.3150     8.1210    -0.2120 H     1 <1>   0.1500 
 44 H        3.8580     5.7650     0.1610 H     1 <1>   0.0800 
 45 H        3.1540     5.9110     1.7600 H     1 <1>   0.0800 
 46 H        3.3570     7.3230     0.7590 H     1 <1>   0.0800 
 47 H       -1.7410    -5.6090     1.9990 H     1 <1>   0.2700 
 48 H       -1.4920    -6.9330    -1.6120 H     1 <1>   0.0800 
 49 H       -1.6310    -7.6970    -0.0470 H     1 <1>   0.0800 
 50 H       -0.3170    -6.5820    -0.3680 H     1 <1>   0.0800 
@<TRIPOS>BOND
  1   1   2  2   
  2   2   3  am  
  3   2   4  1   
  4   3   5  1   
  5   3   6  1   
  6   4   7  1   
  7   4  27  1   
  8   4  28  1   
  9   5   8  1   
 10   5  29  1   
 11   5  30  1   
 12   6   9  1   
 13   6  31  1   
 14   6  32  1   
 15   7  10  1   
 16   7  11  2   
 17   8   9  1   
 18   8  12  1   
 19   8  33  1   
 20   9  13  1   
 21   9  34  1   
 22  10  14  ar  
 23  10  15  1   
 24  11  16  1   
 25  11  35  1   
 26  12  36  1   
 27  13  17  1   
 28  13  37  1   
 29  13  38  1   
 30  14  16  ar  
 31  14  18  1   
 32  15  19  2   
 33  15  39  1   
 34  16  40  1   
 35  17  20  2   
 36  17  21  1   
 37  18  22  2   
 38  18  23  1   
 39  19  22  1   
 40  19  41  1   
 41  20  24  1   
 42  21  25  2   
 43  21  42  1   
 44  22  43  1   
 45  23  44  1   
 46  23  45  1   
 47  23  46  1   
 48  24  25  1   
 49  24  47  1   
 50  25  26  1   
 51  26  48  1   
 52  26  49  1   
 53  26  50  1   
@<TRIPOS>SUBSTRUCTURE
  1 ****   2 GROUP 4 **** **** 0

# MOE 2024.06 (io_trps.svl 2023.06)
