@<TRIPOS>MOLECULE
NONAME
42 44 1 0 0 
SMALL
USER_CHARGES


@<TRIPOS>ATOM
  1 O       -0.4100     0.3840    -0.0580 O.2   1 <1>  -0.5700 
  2 C       -1.4700     0.9900    -0.0110 C.2   1 <1>   0.7160 
  3 N       -2.6240     0.2240    -0.0440 N.am  1 <1>  -0.6600 
  4 C       -1.4640     2.4520     0.0700 C.2   1 <1>   0.2030 
  5 C       -4.0120     0.7440    -0.0960 C.3   1 <1>   0.1400 
  6 C       -2.6130    -1.2570    -0.0600 C.3   1 <1>   0.1400 
  7 N       -2.5010     3.2720     0.1610 N.2   1 <1>  -0.7070 
  8 C       -0.2790     3.2010     0.0620 C.2   1 <1>  -0.1500 
  9 C       -4.8880    -0.4920    -0.3010 C.3   1 <1>   0.2000 
 10 C       -4.0600    -1.6700     0.2100 C.3   1 <1>  -0.0800 
 11 N       -1.9910     4.5070     0.2080 N.pl3 1 <1>   0.3140 
 12 C       -0.6440     4.4940     0.1500 C.2   1 <1>  -0.3320 
 13 O       -6.0770    -0.4050     0.4050 O.3   1 <1>  -0.6800 
 14 C       -4.4540    -3.0030    -0.4420 C.3   1 <1>   0.0200 
 15 C       -2.8560     5.6890     0.3120 C.3   1 <1>   0.0160 
 16 C        0.2450     5.7260     0.1820 C.3   1 <1>  -0.0600 
 17 C       -3.5560    -4.1300     0.0310 C.2   1 <1>  -0.0400 
 18 O       -3.5420    -4.4710     1.2920 O.3   1 <1>  -0.0190 
 19 C       -2.6920    -4.9230    -0.6200 C.2   1 <1>  -0.1500 
 20 N       -2.7120    -5.4470     1.5210 N.2   1 <1>  -0.4100 
 21 C       -2.1860    -5.7410     0.3870 C.2   1 <1>   0.1080 
 22 C       -1.1550    -6.8290     0.1840 C.3   1 <1>  -0.0590 
 23 H       -4.2400     1.2350     0.8350 H     1 <1>   0.0800 
 24 H       -4.1250     1.4330    -0.9140 H     1 <1>   0.0800 
 25 H       -2.2870    -1.5920    -1.0300 H     1 <1>   0.0800 
 26 H       -1.9460    -1.6450     0.6930 H     1 <1>   0.0800 
 27 H        0.7090     2.7810    -0.0030 H     1 <1>   0.1500 
 28 H       -5.1210    -0.5990    -1.3470 H     1 <1>   0.0800 
 29 H       -4.1720    -1.7490     1.2780 H     1 <1>   0.0800 
 30 H       -5.8960    -0.2910     1.3580 H     1 <1>   0.4000 
 31 H       -4.3840    -2.9230    -1.5120 H     1 <1>   0.0800 
 32 H       -5.4730    -3.2390    -0.1920 H     1 <1>   0.0800 
 33 H       -2.6200     6.2200     1.2140 H     1 <1>   0.0800 
 34 H       -3.8830     5.3730     0.3380 H     1 <1>   0.0800 
 35 H       -2.6950     6.3190    -0.5410 H     1 <1>   0.0800 
 36 H        1.2790     5.4360     0.1220 H     1 <1>   0.0800 
 37 H        0.0960     6.2700     1.0980 H     1 <1>   0.0800 
 38 H        0.0220     6.3690    -0.6510 H     1 <1>   0.0800 
 39 H       -2.4260    -4.9500    -1.6600 H     1 <1>   0.1500 
 40 H       -1.5250    -7.5570    -0.5140 H     1 <1>   0.0800 
 41 H       -0.9490    -7.3170     1.1200 H     1 <1>   0.0800 
 42 H       -0.2440    -6.4040    -0.1940 H     1 <1>   0.0800 
@<TRIPOS>BOND
  1   1   2  2   
  2   2   3  am  
  3   2   4  1   
  4   3   5  1   
  5   3   6  1   
  6   4   7  2   
  7   4   8  1   
  8   5   9  1   
  9   5  23  1   
 10   5  24  1   
 11   6  10  1   
 12   6  25  1   
 13   6  26  1   
 14   7  11  1   
 15   8  12  2   
 16   8  27  1   
 17   9  10  1   
 18   9  13  1   
 19   9  28  1   
 20  10  14  1   
 21  10  29  1   
 22  11  12  1   
 23  11  15  1   
 24  12  16  1   
 25  13  30  1   
 26  14  17  1   
 27  14  31  1   
 28  14  32  1   
 29  15  33  1   
 30  15  34  1   
 31  15  35  1   
 32  16  36  1   
 33  16  37  1   
 34  16  38  1   
 35  17  18  1   
 36  17  19  2   
 37  18  20  1   
 38  19  21  1   
 39  19  39  1   
 40  20  21  2   
 41  21  22  1   
 42  22  40  1   
 43  22  41  1   
 44  22  42  1   
@<TRIPOS>SUBSTRUCTURE
  1 ****   3 GROUP 4 **** **** 0

# MOE 2024.06 (io_trps.svl 2023.06)
