@<TRIPOS>MOLECULE
NONAME
42 44 1 0 0 
SMALL
USER_CHARGES


@<TRIPOS>ATOM
  1 O       -0.9400     0.0030     1.8590 O.2   1 <1>  -0.5700 
  2 C       -1.7760     0.6650     1.2760 C.2   1 <1>   0.5440 
  3 N       -3.0330     0.1380     1.0920 N.am  1 <1>  -0.6600 
  4 C       -1.4470     1.9830     0.7810 C.ar  1 <1>   0.0860 
  5 C       -4.0530     0.6880     0.1590 C.3   1 <1>   0.1400 
  6 C       -3.3940    -1.2470     1.4920 C.3   1 <1>   0.1400 
  7 C       -0.5260     2.2130    -0.2390 C.ar  1 <1>  -0.1440 
  8 C       -2.0840     3.0920     1.3330 C.ar  1 <1>   0.1600 
  9 C       -5.1940    -0.3330     0.1770 C.3   1 <1>   0.2000 
 10 C       -4.5180    -1.6580     0.5330 C.3   1 <1>  -0.0800 
 11 C       -0.3280     3.5230    -0.6260 C.ar  1 <1>  -0.1500 
 12 C        0.2390     1.0760    -0.9020 C.3   1 <1>  -0.0970 
 13 N       -1.9140     4.3510     0.9640 N.ar  1 <1>  -0.6200 
 14 O       -6.0630     0.0020     1.2030 O.3   1 <1>  -0.6800 
 15 C       -3.9580    -2.3470    -0.7260 C.3   1 <1>   0.0210 
 16 C       -1.0360     4.5380    -0.0060 C.ar  1 <1>   0.1600 
 17 C       -3.2920    -3.6640    -0.3850 C.2   1 <1>   0.1080 
 18 N       -3.9630    -4.7210    -0.0480 N.2   1 <1>  -0.7070 
 19 C       -1.9190    -3.8890    -0.3830 C.2   1 <1>  -0.1500 
 20 N       -3.0260    -5.6600     0.1790 N.pl3 1 <1>   0.3000 
 21 C       -1.7790    -5.1800    -0.0170 C.2   1 <1>  -0.3320 
 22 C       -0.5120    -5.9940     0.1650 C.3   1 <1>  -0.0600 
 23 H       -4.3930     1.6620     0.4650 H     1 <1>   0.0800 
 24 H       -3.6300     0.7480    -0.8280 H     1 <1>   0.0800 
 25 H       -2.5430    -1.9040     1.4410 H     1 <1>   0.0800 
 26 H       -3.7560    -1.2340     2.5060 H     1 <1>   0.0800 
 27 H       -2.7840     2.9150     2.1320 H     1 <1>   0.1500 
 28 H       -5.7540    -0.3600    -0.7420 H     1 <1>   0.0800 
 29 H       -5.2070    -2.3350     1.0090 H     1 <1>   0.0800 
 30 H        0.3710     3.7680    -1.4050 H     1 <1>   0.1500 
 31 H        0.8500     1.4380    -1.7090 H     1 <1>   0.0800 
 32 H       -0.4460     0.3450    -1.2930 H     1 <1>   0.0800 
 33 H        0.8770     0.5960    -0.1800 H     1 <1>   0.0800 
 34 H       -5.5590     0.0780     2.0370 H     1 <1>   0.4000 
 35 H       -3.2450    -1.7120    -1.2210 H     1 <1>   0.0800 
 36 H       -4.7600    -2.5480    -1.4120 H     1 <1>   0.0800 
 37 H       -0.8700     5.5540    -0.3230 H     1 <1>   0.1500 
 38 H       -1.1570    -3.1690    -0.6220 H     1 <1>   0.1500 
 39 H       -3.2690    -6.6160     0.4660 H     1 <1>   0.2700 
 40 H        0.3500    -5.3880    -0.0470 H     1 <1>   0.0800 
 41 H       -0.5110    -6.8370    -0.5030 H     1 <1>   0.0800 
 42 H       -0.4390    -6.3480     1.1780 H     1 <1>   0.0800 
@<TRIPOS>BOND
  1   1   2  2   
  2   2   3  am  
  3   2   4  1   
  4   3   5  1   
  5   3   6  1   
  6   4   7  ar  
  7   4   8  ar  
  8   5   9  1   
  9   5  23  1   
 10   5  24  1   
 11   6  10  1   
 12   6  25  1   
 13   6  26  1   
 14   7  11  ar  
 15   7  12  1   
 16   8  13  ar  
 17   8  27  1   
 18   9  10  1   
 19   9  14  1   
 20   9  28  1   
 21  10  15  1   
 22  10  29  1   
 23  11  16  ar  
 24  11  30  1   
 25  12  31  1   
 26  12  32  1   
 27  12  33  1   
 28  13  16  ar  
 29  14  34  1   
 30  15  17  1   
 31  15  35  1   
 32  15  36  1   
 33  16  37  1   
 34  17  18  2   
 35  17  19  1   
 36  18  20  1   
 37  19  21  2   
 38  19  38  1   
 39  20  21  1   
 40  20  39  1   
 41  21  22  1   
 42  22  40  1   
 43  22  41  1   
 44  22  42  1   
@<TRIPOS>SUBSTRUCTURE
  1 ****   3 GROUP 4 **** **** 0

# MOE 2024.06 (io_trps.svl 2023.06)
