@<TRIPOS>MOLECULE
NONAME
41 42 1 0 0 
SMALL
USER_CHARGES


@<TRIPOS>ATOM
  1 CL       1.1860     0.4860    -2.7730 Cl    1 <1>  -0.1770 
  2 C        1.9510     0.5970    -1.2070 C.ar  1 <1>   0.1770 
  3 C        2.0030    -0.5200    -0.3930 C.ar  1 <1>  -0.1440 
  4 C        2.4830     1.8100    -0.8070 C.ar  1 <1>  -0.1500 
  5 C        2.6120    -0.3770     0.8410 C.ar  1 <1>   0.1900 
  6 C        1.4290    -1.8500    -0.8320 C.3   1 <1>   0.4860 
  7 C        3.0860     1.9220     0.4370 C.ar  1 <1>  -0.1500 
  8 F        2.6680    -1.4230     1.6230 F     1 <1>  -0.1900 
  9 C        3.1570     0.8220     1.2800 C.ar  1 <1>  -0.1440 
 10 N        0.1130    -2.0810    -0.1820 N.4   1 <1>  -0.9590 
 11 C        3.8190     0.9380     2.6460 C.3   1 <1>  -0.0970 
 12 C       -0.3550    -3.4710    -0.4130 C.3   1 <1>   0.5240 
 13 C       -0.9230    -1.0440    -0.4770 C.3   1 <1>   0.3430 
 14 C        0.3010    -4.3150     0.6660 C.2   1 <1>   0.0460 
 15 C       -2.0430    -1.0390     0.5730 C.3   1 <1>   0.1200 
 16 N        0.3180    -3.8450     1.9320 N.2   1 <1>  -0.5650 
 17 C        0.9300    -5.5100     0.5820 C.2   1 <1>  -0.3320 
 18 O       -3.0270    -0.1690     0.1380 O.3   1 <1>  -0.6800 
 19 C        0.9480    -4.7630     2.5920 C.2   1 <1>   0.0360 
 20 N        1.3460    -5.8030     1.8310 N.pl3 1 <1>   0.0330 
 21 C        1.1840    -6.4370    -0.5960 C.3   1 <1>  -0.0600 
 22 H        2.4270     2.6620    -1.4640 H     1 <1>   0.1500 
 23 H        2.1140    -2.6330    -0.5470 H     1 <1>   0.0800 
 24 H        1.3210    -1.8690    -1.9040 H     1 <1>   0.0800 
 25 H        3.4990     2.8690     0.7420 H     1 <1>   0.1500 
 26 H        0.3080    -2.0930     0.8400 H     1 <1>   0.4500 
 27 H        4.6510     0.2590     2.7110 H     1 <1>   0.0800 
 28 H        3.1130     0.6930     3.4200 H     1 <1>   0.0800 
 29 H        4.1800     1.9360     2.8190 H     1 <1>   0.0800 
 30 H       -0.0890    -3.8210    -1.3960 H     1 <1>   0.0800 
 31 H       -1.4230    -3.5340    -0.2920 H     1 <1>   0.0800 
 32 H       -1.3480    -1.2200    -1.4510 H     1 <1>   0.0800 
 33 H       -0.4720    -0.0660    -0.4780 H     1 <1>   0.0800 
 34 H       -1.6760    -0.6850     1.5220 H     1 <1>   0.0800 
 35 H       -2.4910    -2.0100     0.6870 H     1 <1>   0.0800 
 36 H       -3.7480    -0.0810     0.7970 H     1 <1>   0.4000 
 37 H        1.1480    -4.7230     3.6510 H     1 <1>   0.1500 
 38 H        1.8550    -6.6350     2.1480 H     1 <1>   0.2700 
 39 H        0.7650    -6.0370    -1.5010 H     1 <1>   0.0800 
 40 H        0.7370    -7.3990    -0.4130 H     1 <1>   0.0800 
 41 H        2.2420    -6.5740    -0.7410 H     1 <1>   0.0800 
@<TRIPOS>BOND
  1   1   2  1   
  2   2   3  ar  
  3   2   4  ar  
  4   3   5  ar  
  5   3   6  1   
  6   4   7  ar  
  7   4  22  1   
  8   5   8  1   
  9   5   9  ar  
 10   6  10  1   
 11   6  23  1   
 12   6  24  1   
 13   7   9  ar  
 14   7  25  1   
 15   9  11  1   
 16  10  12  1   
 17  10  13  1   
 18  10  26  1   
 19  11  27  1   
 20  11  28  1   
 21  11  29  1   
 22  12  14  1   
 23  12  30  1   
 24  12  31  1   
 25  13  15  1   
 26  13  32  1   
 27  13  33  1   
 28  14  16  1   
 29  14  17  2   
 30  15  18  1   
 31  15  34  1   
 32  15  35  1   
 33  16  19  2   
 34  17  20  1   
 35  17  21  1   
 36  18  36  1   
 37  19  20  1   
 38  19  37  1   
 39  20  38  1   
 40  21  39  1   
 41  21  40  1   
 42  21  41  1   
@<TRIPOS>SUBSTRUCTURE
  1 ****  10 GROUP 4 **** **** 0

# MOE 2024.06 (io_trps.svl 2023.06)
