@<TRIPOS>MOLECULE
NONAME
40 42 1 0 0 
SMALL
USER_CHARGES


@<TRIPOS>ATOM
  1 S       -1.3610    -0.4750     1.6380 S.3   1 <1>  -0.0800 
  2 C       -1.5130    -1.0280    -0.0260 C.2   1 <1>  -0.1400 
  3 C       -1.2600     1.2000     1.1260 C.2   1 <1>  -0.1100 
  4 C       -1.4770     0.0250    -0.8670 C.2   1 <1>  -0.1500 
  5 C       -1.6450    -2.5290    -0.2490 C.3   1 <1>   0.3800 
  6 C       -1.3360     1.2910    -0.2130 C.2   1 <1>  -0.1500 
  7 O       -1.6740    -2.7610    -1.6110 O.3   1 <1>  -0.6800 
  8 C       -2.9160    -3.1280     0.4000 C.3   1 <1>  -0.0800 
  9 C       -3.0180    -4.6520     0.1770 C.3   1 <1>  -0.1600 
 10 C       -4.2230    -2.4440    -0.0590 C.3   1 <1>  -0.1600 
 11 C       -4.2570    -5.2410     0.8550 C.3   1 <1>   0.2090 
 12 C       -5.4530    -3.0530     0.6190 C.3   1 <1>   0.2090 
 13 N       -5.4690    -4.5210     0.3770 N.pl3 1 <1>  -0.8380 
 14 C       -6.5230    -5.1640    -0.2400 C.ar  1 <1>   0.7200 
 15 N       -7.7040    -4.5480    -0.2090 N.ar  1 <1>  -0.6200 
 16 N       -6.2600    -6.3440    -0.8090 N.ar  1 <1>  -0.6200 
 17 C       -8.7040    -5.1720    -0.8020 C.ar  1 <1>   0.3930 
 18 C       -7.2690    -6.9510    -1.3980 C.ar  1 <1>   0.1600 
 19 O       -9.9310    -4.6020    -0.8040 O.3   1 <1>  -0.3620 
 20 C       -8.5180    -6.3930    -1.4170 C.ar  1 <1>   0.1900 
 21 C      -10.1610    -3.3600    -0.1680 C.3   1 <1>   0.0400 
 22 F       -9.5070    -7.0230    -2.0130 F     1 <1>  -0.1900 
 23 H       -1.1520     1.9470     1.8920 H     1 <1>   0.1500 
 24 H       -1.5380    -0.0320    -1.9400 H     1 <1>   0.1500 
 25 H       -0.7690    -3.0210     0.1380 H     1 <1>   0.0800 
 26 H       -1.2960     2.2040    -0.7810 H     1 <1>   0.1500 
 27 H       -2.4890    -2.3670    -1.9710 H     1 <1>   0.4000 
 28 H       -2.8270    -2.9710     1.4610 H     1 <1>   0.0800 
 29 H       -2.1420    -5.1380     0.5660 H     1 <1>   0.0800 
 30 H       -3.0750    -4.8740    -0.8750 H     1 <1>   0.0800 
 31 H       -4.3450    -2.5460    -1.1220 H     1 <1>   0.0800 
 32 H       -4.1940    -1.3940     0.1720 H     1 <1>   0.0800 
 33 H       -4.1800    -5.1200     1.9220 H     1 <1>   0.0800 
 34 H       -4.3150    -6.2950     0.6490 H     1 <1>   0.0800 
 35 H       -6.3380    -2.5810     0.2280 H     1 <1>   0.0800 
 36 H       -5.4200    -2.8720     1.6790 H     1 <1>   0.0800 
 37 H       -7.0970    -7.9020    -1.8700 H     1 <1>   0.1500 
 38 H      -11.1980    -3.1060    -0.2880 H     1 <1>   0.0800 
 39 H       -9.5400    -2.6130    -0.6310 H     1 <1>   0.0800 
 40 H       -9.9200    -3.4550     0.8760 H     1 <1>   0.0800 
@<TRIPOS>BOND
  1   1   2  1   
  2   1   3  1   
  3   2   4  2   
  4   2   5  1   
  5   3   6  2   
  6   3  23  1   
  7   4   6  1   
  8   4  24  1   
  9   5   7  1   
 10   5   8  1   
 11   5  25  1   
 12   6  26  1   
 13   7  27  1   
 14   8   9  1   
 15   8  10  1   
 16   8  28  1   
 17   9  11  1   
 18   9  29  1   
 19   9  30  1   
 20  10  12  1   
 21  10  31  1   
 22  10  32  1   
 23  11  13  1   
 24  11  33  1   
 25  11  34  1   
 26  12  13  1   
 27  12  35  1   
 28  12  36  1   
 29  13  14  1   
 30  14  15  ar  
 31  14  16  ar  
 32  15  17  ar  
 33  16  18  ar  
 34  17  19  1   
 35  17  20  ar  
 36  18  20  ar  
 37  18  37  1   
 38  19  21  1   
 39  20  22  1   
 40  21  38  1   
 41  21  39  1   
 42  21  40  1   
@<TRIPOS>SUBSTRUCTURE
  1 ****  12 GROUP 4 **** **** 0

# MOE 2024.06 (io_trps.svl 2023.06)
