@<TRIPOS>MOLECULE
NONAME
41 44 1 0 0 
SMALL
USER_CHARGES


@<TRIPOS>ATOM
  1 S        0.0630    -0.3340    -0.0850 S.3   1 <1>  -0.0800 
  2 C       -1.6530    -0.2680    -0.5270 C.2   1 <1>   0.4620 
  3 C       -0.0610     1.2560     0.6280 C.ar  1 <1>   0.0400 
  4 N       -2.2330     0.8230    -0.1780 N.2   1 <1>  -0.5650 
  5 N       -2.2240    -1.3320    -1.1930 N.pl3 1 <1>  -0.8220 
  6 C       -1.3640     1.6860     0.4700 C.ar  1 <1>   0.2270 
  7 C        0.9240     1.9990     1.2510 C.ar  1 <1>  -0.1500 
  8 C       -3.6230    -1.1920    -1.7120 C.3   1 <1>   0.2090 
  9 C       -1.5160    -2.6330    -1.3830 C.3   1 <1>   0.2090 
 10 C       -1.6990     2.9390     0.9670 C.ar  1 <1>  -0.1500 
 11 C        0.5710     3.2470     1.7390 C.ar  1 <1>  -0.1500 
 12 C       -4.6590    -1.7650    -0.7330 C.3   1 <1>   0.2090 
 13 C       -2.4320    -3.8620    -1.4520 C.3   1 <1>  -0.1600 
 14 C       -0.7350     3.7120     1.5970 C.ar  1 <1>  -0.1500 
 15 N       -4.7270    -3.2540    -0.7870 N.pl3 1 <1>  -0.8380 
 16 C       -3.4780    -3.9220    -0.3370 C.3   1 <1>   0.2090 
 17 C       -5.9160    -3.7990    -0.3250 C.ar  1 <1>   0.4100 
 18 N       -5.9590    -4.1500     0.9470 N.ar  1 <1>  -0.6200 
 19 C       -7.0140    -3.9440    -1.1820 C.ar  1 <1>   0.1600 
 20 C       -7.1450    -4.6640     1.3390 C.ar  1 <1>   0.1310 
 21 N       -8.1910    -4.4260    -0.8400 N.ar  1 <1>  -0.6200 
 22 C       -7.4010    -5.1370     2.7070 C.2   1 <1>   0.9790 
 23 C       -8.2110    -4.7750     0.4410 C.ar  1 <1>   0.1600 
 24 O       -6.4960    -5.5280     3.4720 O.co2 1 <1>  -0.9000 
 25 O       -8.5740    -5.1970     3.1340 O.co2 1 <1>  -0.9000 
 26 H        1.9240     1.6160     1.3470 H     1 <1>   0.1500 
 27 H       -3.7170    -1.6760    -2.6680 H     1 <1>   0.0800 
 28 H       -3.8410    -0.1490    -1.8610 H     1 <1>   0.0800 
 29 H       -0.8410    -2.7860    -0.5600 H     1 <1>   0.0800 
 30 H       -0.9280    -2.5780    -2.2840 H     1 <1>   0.0800 
 31 H       -2.7080     3.2900     0.8530 H     1 <1>   0.1500 
 32 H        1.3060     3.8600     2.2310 H     1 <1>   0.1500 
 33 H       -5.6250    -1.3660    -0.9870 H     1 <1>   0.0800 
 34 H       -4.4270    -1.4430     0.2680 H     1 <1>   0.0800 
 35 H       -1.8040    -4.7290    -1.3620 H     1 <1>   0.0800 
 36 H       -2.9120    -3.9240    -2.4110 H     1 <1>   0.0800 
 37 H       -0.9960     4.6830     1.9810 H     1 <1>   0.1500 
 38 H       -3.1140    -3.4640     0.5680 H     1 <1>   0.0800 
 39 H       -3.6960    -4.9550    -0.1170 H     1 <1>   0.0800 
 40 H       -6.8780    -3.6360    -2.1990 H     1 <1>   0.1500 
 41 H       -9.1370    -5.1820     0.8130 H     1 <1>   0.1500 
@<TRIPOS>BOND
  1   1   2  1   
  2   1   3  1   
  3   2   4  2   
  4   2   5  1   
  5   3   6  ar  
  6   3   7  ar  
  7   4   6  1   
  8   5   8  1   
  9   5   9  1   
 10   6  10  ar  
 11   7  11  ar  
 12   7  26  1   
 13   8  12  1   
 14   8  27  1   
 15   8  28  1   
 16   9  13  1   
 17   9  29  1   
 18   9  30  1   
 19  10  14  ar  
 20  10  31  1   
 21  11  14  ar  
 22  11  32  1   
 23  12  15  1   
 24  12  33  1   
 25  12  34  1   
 26  13  16  1   
 27  13  35  1   
 28  13  36  1   
 29  14  37  1   
 30  15  16  1   
 31  15  17  1   
 32  16  38  1   
 33  16  39  1   
 34  17  18  ar  
 35  17  19  ar  
 36  18  20  ar  
 37  19  21  ar  
 38  19  40  1   
 39  20  22  1   
 40  20  23  ar  
 41  21  23  ar  
 42  22  24  ar  
 43  22  25  ar  
 44  23  41  1   
@<TRIPOS>SUBSTRUCTURE
  1 ****  12 GROUP 4 **** **** 0

# MOE 2024.06 (io_trps.svl 2023.06)
