@<TRIPOS>MOLECULE
NONAME
49 52 1 0 0 
SMALL
USER_CHARGES


@<TRIPOS>ATOM
  1 S       -0.7390     0.2910     0.8470 S.3   1 <1>  -0.0800 
  2 C       -2.1170    -0.7900     0.7070 C.2   1 <1>  -0.1400 
  3 C        0.3840    -1.0560     0.8160 C.2   1 <1>  -0.1100 
  4 C       -1.7000    -2.0710     0.6410 C.2   1 <1>  -0.1500 
  5 C       -3.4790    -0.1260     0.6830 C.3   1 <1>   0.3200 
  6 C       -0.2780    -2.2210     0.7050 C.2   1 <1>  -0.1500 
  7 N       -4.5320    -1.1510     0.8750 N.am  1 <1>  -0.7300 
  8 C       -5.7040    -1.1770     0.1870 C.2   1 <1>   0.5690 
  9 O       -5.9910    -0.3180    -0.6140 O.2   1 <1>  -0.5700 
 10 C       -6.7230    -2.3150     0.3950 C.3   1 <1>   0.4040 
 11 N       -8.0400    -2.0460    -0.2970 N.4   1 <1>  -0.9590 
 12 C       -8.8690    -1.0520     0.4670 C.3   1 <1>   0.3430 
 13 C       -8.8050    -3.2810    -0.6210 C.3   1 <1>   0.3430 
 14 C      -10.1150    -0.6240    -0.3280 C.3   1 <1>   0.1430 
 15 C      -10.0270    -2.9150    -1.4680 C.3   1 <1>  -0.1600 
 16 C      -10.9740     0.2530     0.5520 C.ar  1 <1>   0.1670 
 17 C      -10.9180    -1.8640    -0.7810 C.3   1 <1>  -0.1600 
 18 C       -9.7720     0.3180    -1.5140 C.3   1 <1>  -0.1600 
 19 N      -11.3110    -0.0350     1.7840 N.ar  1 <1>  -0.6200 
 20 C      -11.3540     1.3960    -0.0860 C.ar  1 <1>  -0.1430 
 21 C      -10.8080     1.4600    -1.4900 C.3   1 <1>  -0.0170 
 22 C      -12.0670     0.8920     2.3600 C.ar  1 <1>   0.7200 
 23 C      -12.1420     2.2800     0.6110 C.ar  1 <1>   0.1600 
 24 N      -12.5110     2.0310     1.8470 N.ar  1 <1>  -0.6200 
 25 N      -12.4480     0.6380     3.6120 N.pl3 1 <1>  -0.9000 
 26 H        1.4330    -0.8280     0.8850 H     1 <1>   0.1500 
 27 H       -2.3270    -2.9390     0.5430 H     1 <1>   0.1500 
 28 H       -3.6130     0.3890    -0.2550 H     1 <1>   0.0800 
 29 H       -3.5400     0.5960     1.4800 H     1 <1>   0.0800 
 30 H        0.1790    -3.1950     0.6630 H     1 <1>   0.1500 
 31 H       -4.2700    -1.8560     1.5670 H     1 <1>   0.3700 
 32 H       -6.8850    -2.4580     1.4500 H     1 <1>   0.0800 
 33 H       -6.2870    -3.2140    -0.0050 H     1 <1>   0.0800 
 34 H       -7.7770    -1.5710    -1.1780 H     1 <1>   0.4500 
 35 H       -8.2850    -0.1740     0.6940 H     1 <1>   0.0800 
 36 H       -9.1920    -1.4860     1.3990 H     1 <1>   0.0800 
 37 H       -9.1300    -3.7590     0.2900 H     1 <1>   0.0800 
 38 H       -8.1840    -3.9730    -1.1670 H     1 <1>   0.0800 
 39 H      -10.6080    -3.8050    -1.6430 H     1 <1>   0.0800 
 40 H       -9.7000    -2.5600    -2.4290 H     1 <1>   0.0800 
 41 H      -11.7160    -1.5670    -1.4400 H     1 <1>   0.0800 
 42 H      -11.3750    -2.3140     0.0850 H     1 <1>   0.0800 
 43 H       -9.7750    -0.1830    -2.4660 H     1 <1>   0.0800 
 44 H       -8.7980     0.7530    -1.3640 H     1 <1>   0.0800 
 45 H      -11.6010     1.2750    -2.1950 H     1 <1>   0.0800 
 46 H      -10.3530     2.4140    -1.6980 H     1 <1>   0.0800 
 47 H      -12.4720     3.1980     0.1530 H     1 <1>   0.1500 
 48 H      -13.2180     1.2110     3.9470 H     1 <1>   0.4000 
 49 H      -12.4550    -0.3380     3.8900 H     1 <1>   0.4000 
@<TRIPOS>BOND
  1   1   2  1   
  2   1   3  1   
  3   2   4  2   
  4   2   5  1   
  5   3   6  2   
  6   3  26  1   
  7   4   6  1   
  8   4  27  1   
  9   5   7  1   
 10   5  28  1   
 11   5  29  1   
 12   6  30  1   
 13   7   8  am  
 14   7  31  1   
 15   8   9  2   
 16   8  10  1   
 17  10  11  1   
 18  10  32  1   
 19  10  33  1   
 20  11  12  1   
 21  11  13  1   
 22  11  34  1   
 23  12  14  1   
 24  12  35  1   
 25  12  36  1   
 26  13  15  1   
 27  13  37  1   
 28  13  38  1   
 29  14  16  1   
 30  14  17  1   
 31  14  18  1   
 32  15  17  1   
 33  15  39  1   
 34  15  40  1   
 35  16  19  ar  
 36  16  20  ar  
 37  17  41  1   
 38  17  42  1   
 39  18  21  1   
 40  18  43  1   
 41  18  44  1   
 42  19  22  ar  
 43  20  21  1   
 44  20  23  ar  
 45  21  45  1   
 46  21  46  1   
 47  22  24  ar  
 48  22  25  1   
 49  23  24  ar  
 50  23  47  1   
 51  25  48  1   
 52  25  49  1   
@<TRIPOS>SUBSTRUCTURE
  1 ****  12 GROUP 4 **** **** 0

# MOE 2024.06 (io_trps.svl 2023.06)
