@<TRIPOS>MOLECULE
NONAME
47 49 1 0 0 
SMALL
USER_CHARGES


@<TRIPOS>ATOM
  1 F        2.4980     0.1140     0.0690 F     1 <1>  -0.1900 
  2 C        3.4270     1.0300     0.0030 C.ar  1 <1>   0.1900 
  3 C        4.6120     0.7530    -0.6570 C.ar  1 <1>   0.1600 
  4 C        3.2060     2.2510     0.5930 C.ar  1 <1>  -0.1500 
  5 N        5.6020     1.6290    -0.7680 N.ar  1 <1>  -0.6200 
  6 C        4.2260     3.1860     0.4890 C.ar  1 <1>   0.0860 
  7 C        5.3840     2.8070    -0.1950 C.ar  1 <1>   0.1600 
  8 C        4.0930     4.4960     1.0850 C.2   1 <1>   0.5440 
  9 O        4.1950     4.5910     2.2920 O.2   1 <1>  -0.5700 
 10 N        3.8260     5.6290     0.3420 N.am  1 <1>  -0.6600 
 11 C        3.8840     5.6640    -1.1580 C.3   1 <1>   0.1400 
 12 C        3.4570     6.9050     1.0210 C.3   1 <1>   0.1400 
 13 C        4.6360     6.8820    -1.7280 C.3   1 <1>   0.1400 
 14 C        4.7060     7.7300     1.3600 C.3   1 <1>  -0.1600 
 15 N        5.7650     7.3230    -0.8570 N.am  1 <1>  -0.6600 
 16 C        5.4070     8.3570     0.1490 C.3   1 <1>   0.1400 
 17 C        6.9310     6.5930    -0.7870 C.2   1 <1>   0.7160 
 18 O        7.0330     5.5770    -1.4490 O.2   1 <1>  -0.5700 
 19 C        8.0170     7.0090     0.0600 C.2   1 <1>  -0.0860 
 20 C        8.4570     6.4100     1.2290 C.2   1 <1>   0.1080 
 21 C        8.8570     8.0600    -0.0300 C.2   1 <1>  -0.0400 
 22 N        9.4270     7.0750     1.7350 N.2   1 <1>  -0.4100 
 23 C        7.8860     5.1460     1.8490 C.3   1 <1>   0.0210 
 24 O        9.7020     8.1090     0.9710 O.3   1 <1>  -0.0190 
 25 C        8.9410     9.1340    -1.0960 C.3   1 <1>  -0.0600 
 26 C        8.5930     3.8980     1.3080 C.3   1 <1>  -0.2400 
 27 H        4.7440    -0.2160    -1.1050 H     1 <1>   0.1500 
 28 H        2.2920     2.4700     1.1150 H     1 <1>   0.1500 
 29 H        6.1760     3.5320    -0.2720 H     1 <1>   0.1500 
 30 H        2.8830     5.6540    -1.5490 H     1 <1>   0.0800 
 31 H        4.3760     4.7850    -1.5300 H     1 <1>   0.0800 
 32 H        2.9330     6.6770     1.9350 H     1 <1>   0.0800 
 33 H        2.7870     7.4730     0.4000 H     1 <1>   0.0800 
 34 H        3.9430     7.6950    -1.8590 H     1 <1>   0.0800 
 35 H        5.0160     6.6310    -2.7040 H     1 <1>   0.0800 
 36 H        5.3990     7.1210     1.9110 H     1 <1>   0.0800 
 37 H        4.4090     8.5280     2.0150 H     1 <1>   0.0800 
 38 H        6.2880     8.8770     0.4810 H     1 <1>   0.0800 
 39 H        4.7600     9.0870    -0.3070 H     1 <1>   0.0800 
 40 H        6.8340     5.0870     1.6440 H     1 <1>   0.0800 
 41 H        8.0090     5.1920     2.9160 H     1 <1>   0.0800 
 42 H        8.1970     8.9730    -1.8550 H     1 <1>   0.0800 
 43 H        9.9130     9.1120    -1.5540 H     1 <1>   0.0800 
 44 H        8.7870    10.1010    -0.6530 H     1 <1>   0.0800 
 45 H        8.5020     3.8490     0.2370 H     1 <1>   0.0800 
 46 H        8.1600     3.0110     1.7350 H     1 <1>   0.0800 
 47 H        9.6380     3.9320     1.5610 H     1 <1>   0.0800 
@<TRIPOS>BOND
  1   1   2  1   
  2   2   3  ar  
  3   2   4  ar  
  4   3   5  ar  
  5   3  27  1   
  6   4   6  ar  
  7   4  28  1   
  8   5   7  ar  
  9   6   7  ar  
 10   6   8  1   
 11   7  29  1   
 12   8   9  2   
 13   8  10  am  
 14  10  11  1   
 15  10  12  1   
 16  11  13  1   
 17  11  30  1   
 18  11  31  1   
 19  12  14  1   
 20  12  32  1   
 21  12  33  1   
 22  13  15  1   
 23  13  34  1   
 24  13  35  1   
 25  14  16  1   
 26  14  36  1   
 27  14  37  1   
 28  15  16  1   
 29  15  17  am  
 30  16  38  1   
 31  16  39  1   
 32  17  18  2   
 33  17  19  1   
 34  19  20  1   
 35  19  21  2   
 36  20  22  2   
 37  20  23  1   
 38  21  24  1   
 39  21  25  1   
 40  22  24  1   
 41  23  26  1   
 42  23  40  1   
 43  23  41  1   
 44  25  42  1   
 45  25  43  1   
 46  25  44  1   
 47  26  45  1   
 48  26  46  1   
 49  26  47  1   
@<TRIPOS>SUBSTRUCTURE
  1 ****  17 GROUP 4 **** **** 0

# MOE 2024.06 (io_trps.svl 2023.06)
