@<TRIPOS>MOLECULE
NONAME
56 58 1 0 0 
SMALL
USER_CHARGES


@<TRIPOS>ATOM
  1 O       -0.0300     1.1280    -0.2840 O.2   1 <1>  -0.5700 
  2 C       -0.0010     2.3270    -0.4260 C.2   1 <1>   0.5690 
  3 N       -0.7870     3.1760     0.3070 N.am  1 <1>  -0.6600 
  4 C        0.9420     2.9000    -1.4840 C.3   1 <1>   0.1810 
  5 C       -0.7480     4.6630     0.1020 C.3   1 <1>   0.3640 
  6 C       -1.7000     2.6760     1.3780 C.3   1 <1>   0.0600 
  7 O        1.2750     4.2480    -1.2460 O.3   1 <1>  -0.5600 
  8 C       -2.1870     5.1760    -0.0740 C.ar  1 <1>  -0.1430 
  9 C        0.1490     5.0970    -1.0950 C.3   1 <1>   0.2610 
 10 C       -2.7940     6.0460     0.8330 C.ar  1 <1>  -0.1430 
 11 C       -2.9150     4.7420    -1.1770 C.ar  1 <1>  -0.1500 
 12 C        0.6320     6.5500    -0.9680 C.2   1 <1>   0.5690 
 13 C       -4.0890     6.4830     0.6010 C.ar  1 <1>  -0.1500 
 14 C       -2.0960     6.5380     2.0950 C.3   1 <1>  -0.0960 
 15 C       -4.2060     5.1830    -1.3990 C.ar  1 <1>  -0.1500 
 16 O       -0.0550     7.4040    -0.4590 O.2   1 <1>  -0.5700 
 17 N        1.8680     6.8750    -1.4400 N.am  1 <1>  -0.7300 
 18 C       -4.7930     6.0600    -0.5100 C.ar  1 <1>  -0.1500 
 19 C        2.3810     8.2360    -1.7760 C.3   1 <1>   0.1400 
 20 C        2.8830     9.0110    -0.5400 C.3   1 <1>   0.3430 
 21 N        1.7840     9.2690     0.4360 N.4   1 <1>  -0.9590 
 22 C        0.9470    10.4460     0.0710 C.3   1 <1>   0.3430 
 23 C        2.2780     9.3290     1.8380 C.3   1 <1>   0.3430 
 24 C       -0.2640    10.5210     1.0030 C.3   1 <1>  -0.1600 
 25 C        1.0920     9.3890     2.8020 C.3   1 <1>  -0.1600 
 26 C        0.1520    10.5570     2.4790 C.3   1 <1>  -0.1600 
 27 H        0.4850     2.8230    -2.4530 H     1 <1>   0.0800 
 28 H        1.8550     2.3320    -1.4850 H     1 <1>   0.0800 
 29 H       -0.3160     5.0880     0.9870 H     1 <1>   0.0800 
 30 H       -1.5290     3.2180     2.2900 H     1 <1>   0.0800 
 31 H       -1.5290     1.6290     1.5660 H     1 <1>   0.0800 
 32 H       -2.7250     2.8040     1.0760 H     1 <1>   0.0800 
 33 H       -0.4170     5.0330    -2.0050 H     1 <1>   0.0800 
 34 H       -2.4860     4.0440    -1.8740 H     1 <1>   0.1500 
 35 H       -4.5680     7.1590     1.2880 H     1 <1>   0.1500 
 36 H       -2.7590     7.1360     2.6940 H     1 <1>   0.0800 
 37 H       -1.2460     7.1390     1.8370 H     1 <1>   0.0800 
 38 H       -1.7760     5.7030     2.6920 H     1 <1>   0.0800 
 39 H       -4.7540     4.8410    -2.2600 H     1 <1>   0.1500 
 40 H        2.4210     6.0780    -1.7890 H     1 <1>   0.3700 
 41 H       -5.7970     6.4080    -0.6780 H     1 <1>   0.1500 
 42 H        3.1940     8.1320    -2.4740 H     1 <1>   0.0800 
 43 H        1.6040     8.7990    -2.2660 H     1 <1>   0.0800 
 44 H        3.3200     9.9460    -0.8500 H     1 <1>   0.0800 
 45 H        3.6560     8.4240    -0.0720 H     1 <1>   0.0800 
 46 H        1.1390     8.4550     0.3560 H     1 <1>   0.4500 
 47 H        1.5260    11.3500     0.1570 H     1 <1>   0.0800 
 48 H        0.6020    10.3530    -0.9470 H     1 <1>   0.0800 
 49 H        2.8720     8.4560     2.0570 H     1 <1>   0.0800 
 50 H        2.8940    10.2040     1.9700 H     1 <1>   0.0800 
 51 H       -0.8340    11.4040     0.7700 H     1 <1>   0.0800 
 52 H       -0.9030     9.6730     0.8220 H     1 <1>   0.0800 
 53 H        0.5530     8.4600     2.7540 H     1 <1>   0.0800 
 54 H        1.4610     9.4950     3.8070 H     1 <1>   0.0800 
 55 H       -0.7230    10.5070     3.1060 H     1 <1>   0.0800 
 56 H        0.6510    11.4890     2.6880 H     1 <1>   0.0800 
@<TRIPOS>BOND
  1   1   2  2   
  2   2   3  am  
  3   2   4  1   
  4   3   5  1   
  5   3   6  1   
  6   4   7  1   
  7   4  27  1   
  8   4  28  1   
  9   5   8  1   
 10   5   9  1   
 11   5  29  1   
 12   6  30  1   
 13   6  31  1   
 14   6  32  1   
 15   7   9  1   
 16   8  10  ar  
 17   8  11  ar  
 18   9  12  1   
 19   9  33  1   
 20  10  13  ar  
 21  10  14  1   
 22  11  15  ar  
 23  11  34  1   
 24  12  16  2   
 25  12  17  am  
 26  13  18  ar  
 27  13  35  1   
 28  14  36  1   
 29  14  37  1   
 30  14  38  1   
 31  15  18  ar  
 32  15  39  1   
 33  17  19  1   
 34  17  40  1   
 35  18  41  1   
 36  19  20  1   
 37  19  42  1   
 38  19  43  1   
 39  20  21  1   
 40  20  44  1   
 41  20  45  1   
 42  21  22  1   
 43  21  23  1   
 44  21  46  1   
 45  22  24  1   
 46  22  47  1   
 47  22  48  1   
 48  23  25  1   
 49  23  49  1   
 50  23  50  1   
 51  24  26  1   
 52  24  51  1   
 53  24  52  1   
 54  25  26  1   
 55  25  53  1   
 56  25  54  1   
 57  26  55  1   
 58  26  56  1   
@<TRIPOS>SUBSTRUCTURE
  1 ****  16 GROUP 4 **** **** 0

# MOE 2024.06 (io_trps.svl 2023.06)
