@<TRIPOS>MOLECULE
NONAME
54 56 1 0 0 
SMALL
USER_CHARGES


@<TRIPOS>ATOM
  1 O        5.0630    -1.1800    -0.4930 O.2   1 <1>  -0.5700 
  2 C        3.8490    -1.2190    -0.4090 C.2   1 <1>   0.5440 
  3 N        3.1440    -0.5210    -1.3600 N.am  1 <1>  -0.6600 
  4 C        3.1930    -1.9160     0.6830 C.ar  1 <1>   0.0860 
  5 C        3.5810    -0.5180    -2.7950 C.3   1 <1>   0.1400 
  6 C        2.2330     0.5860    -0.9690 C.3   1 <1>   0.1400 
  7 C        1.8760    -2.3410     0.6250 C.ar  1 <1>  -0.1500 
  8 C        3.8460    -2.2160     1.8730 C.ar  1 <1>  -0.1500 
  9 C        4.8360     0.3460    -3.0510 C.3   1 <1>   0.3430 
 10 C        3.0380     1.8550    -0.6530 C.3   1 <1>  -0.1600 
 11 C        1.2920    -2.9870     1.6990 C.ar  1 <1>   0.3920 
 12 C        3.1820    -2.8710     2.8910 C.ar  1 <1>   0.1600 
 13 N        5.0830     1.3230    -1.9480 N.4   1 <1>  -0.9590 
 14 C        3.9870     2.3150    -1.7640 C.3   1 <1>   0.3430 
 15 O        0.0020    -3.3540     1.5580 O.3   1 <1>  -0.3630 
 16 N        1.9200    -3.2580     2.8370 N.ar  1 <1>  -0.6200 
 17 C        6.4230     1.9380    -2.0150 C.3   1 <1>   0.5230 
 18 C       -0.6760    -4.0380     2.5950 C.3   1 <1>   0.0400 
 19 C        6.6740     2.6090    -0.6840 C.2   1 <1>  -0.3320 
 20 N        7.0700     1.9590     0.4500 N.pl3 1 <1>   0.0480 
 21 C        6.5500     3.9340    -0.4130 C.2   1 <1>  -0.1500 
 22 C        7.1720     2.8900     1.4220 C.2   1 <1>  -0.3020 
 23 C        7.3870     0.5290     0.6410 C.3   1 <1>   0.0160 
 24 C        6.8560     4.1380     0.9440 C.2   1 <1>  -0.0860 
 25 C        6.8190     5.4140     1.6080 C.2   1 <1>   0.5950 
 26 O        6.4290     6.4210     1.0730 O.2   1 <1>  -0.5700 
 27 C        7.2770     5.5080     3.0460 C.3   1 <1>  -0.1790 
 28 H        2.7750    -0.1680    -3.4150 H     1 <1>   0.0800 
 29 H        3.7920    -1.5300    -3.0990 H     1 <1>   0.0800 
 30 H        1.6650     0.3030    -0.0970 H     1 <1>   0.0800 
 31 H        1.5310     0.7770    -1.7640 H     1 <1>   0.0800 
 32 H        1.2850    -2.1810    -0.2570 H     1 <1>   0.1500 
 33 H        4.8770    -1.9410     2.0030 H     1 <1>   0.1500 
 34 H        4.7420     0.8550    -3.9960 H     1 <1>   0.0800 
 35 H        5.6800    -0.3200    -3.1200 H     1 <1>   0.0800 
 36 H        3.5940     1.7190     0.2580 H     1 <1>   0.0800 
 37 H        2.3370     2.6490    -0.4670 H     1 <1>   0.0800 
 38 H        3.7150    -3.0900     3.8020 H     1 <1>   0.1500 
 39 H        5.0830     0.7310    -1.0960 H     1 <1>   0.4500 
 40 H        4.4010     3.2680    -1.4790 H     1 <1>   0.0800 
 41 H        3.4450     2.4520    -2.6860 H     1 <1>   0.0800 
 42 H        6.4580     2.6670    -2.8080 H     1 <1>   0.0800 
 43 H        7.1790     1.1900    -2.1940 H     1 <1>   0.0800 
 44 H       -1.6810    -4.2350     2.2710 H     1 <1>   0.0800 
 45 H       -0.6850    -3.4170     3.4740 H     1 <1>   0.0800 
 46 H       -0.1630    -4.9630     2.7950 H     1 <1>   0.0800 
 47 H        6.2710     4.7400    -1.0740 H     1 <1>   0.1500 
 48 H        7.4710     2.6360     2.4240 H     1 <1>   0.1500 
 49 H        7.4610     0.0280    -0.3050 H     1 <1>   0.0800 
 50 H        6.6150     0.0700     1.2310 H     1 <1>   0.0800 
 51 H        8.3250     0.4420     1.1590 H     1 <1>   0.0800 
 52 H        8.2610     5.0910     3.1420 H     1 <1>   0.0800 
 53 H        6.5950     4.9710     3.6770 H     1 <1>   0.0800 
 54 H        7.3030     6.5370     3.3550 H     1 <1>   0.0800 
@<TRIPOS>BOND
  1   1   2  2   
  2   2   3  am  
  3   2   4  1   
  4   3   5  1   
  5   3   6  1   
  6   4   7  ar  
  7   4   8  ar  
  8   5   9  1   
  9   5  28  1   
 10   5  29  1   
 11   6  10  1   
 12   6  30  1   
 13   6  31  1   
 14   7  11  ar  
 15   7  32  1   
 16   8  12  ar  
 17   8  33  1   
 18   9  13  1   
 19   9  34  1   
 20   9  35  1   
 21  10  14  1   
 22  10  36  1   
 23  10  37  1   
 24  11  15  1   
 25  11  16  ar  
 26  12  16  ar  
 27  12  38  1   
 28  13  14  1   
 29  13  17  1   
 30  13  39  1   
 31  14  40  1   
 32  14  41  1   
 33  15  18  1   
 34  17  19  1   
 35  17  42  1   
 36  17  43  1   
 37  18  44  1   
 38  18  45  1   
 39  18  46  1   
 40  19  20  1   
 41  19  21  2   
 42  20  22  1   
 43  20  23  1   
 44  21  24  1   
 45  21  47  1   
 46  22  24  2   
 47  22  48  1   
 48  23  49  1   
 49  23  50  1   
 50  23  51  1   
 51  24  25  1   
 52  25  26  2   
 53  25  27  1   
 54  27  52  1   
 55  27  53  1   
 56  27  54  1   
@<TRIPOS>SUBSTRUCTURE
  1 ****   2 GROUP 4 **** **** 0

# MOE 2024.06 (io_trps.svl 2023.06)
