@<TRIPOS>MOLECULE
NONAME
40 42 1 0 0 
SMALL
USER_CHARGES


@<TRIPOS>ATOM
  1 F       -0.5440    -1.1880    -1.5530 F     1 <1>  -0.1900 
  2 C       -1.7240    -1.4910    -1.0560 C.ar  1 <1>   0.1900 
  3 C       -2.5220    -0.5860    -0.3660 C.ar  1 <1>   0.3920 
  4 C       -2.1880    -2.7670    -1.2330 C.ar  1 <1>   0.1600 
  5 O       -2.2130     0.7070    -0.1070 O.3   1 <1>  -0.3630 
  6 N       -3.6930    -0.9550     0.1030 N.ar  1 <1>  -0.6200 
  7 N       -3.3590    -3.1460    -0.7670 N.ar  1 <1>  -0.6200 
  8 C       -0.9920     1.3250    -0.4510 C.3   1 <1>   0.0400 
  9 C       -4.0570    -2.2140    -0.1180 C.ar  1 <1>   0.7200 
 10 N       -5.2760    -2.5990     0.3830 N.pl3 1 <1>  -0.8380 
 11 C       -5.9210    -3.8950     0.0240 C.3   1 <1>   0.2090 
 12 C       -6.3140    -1.6320     0.8100 C.3   1 <1>   0.2090 
 13 C       -7.3040    -3.8620     0.6930 C.3   1 <1>   0.4240 
 14 C       -7.6370    -2.3690     0.6090 C.3   1 <1>  -0.1600 
 15 O       -7.1290    -4.1280     2.0410 O.3   1 <1>  -0.6800 
 16 C       -8.3510    -4.8450     0.1110 C.ar  1 <1>  -0.1430 
 17 C       -8.1050    -6.2170    -0.0410 C.ar  1 <1>  -0.1430 
 18 C       -9.6010    -4.3640    -0.2810 C.ar  1 <1>  -0.1500 
 19 C       -9.0730    -7.0380    -0.6030 C.ar  1 <1>  -0.1500 
 20 C       -6.8150    -6.9040     0.3920 C.3   1 <1>  -0.0970 
 21 C      -10.5600    -5.1910    -0.8350 C.ar  1 <1>  -0.1500 
 22 C      -10.2940    -6.5330    -1.0020 C.ar  1 <1>  -0.1500 
 23 H       -1.5900    -3.4870    -1.7630 H     1 <1>   0.1500 
 24 H       -1.0200     2.3390    -0.0920 H     1 <1>   0.0800 
 25 H       -0.8850     1.3230    -1.5210 H     1 <1>   0.0800 
 26 H       -0.1840     0.7950     0.0210 H     1 <1>   0.0800 
 27 H       -5.3230    -4.7170     0.3680 H     1 <1>   0.0800 
 28 H       -6.0340    -3.9540    -1.0450 H     1 <1>   0.0800 
 29 H       -6.2770    -0.7290     0.2220 H     1 <1>   0.0800 
 30 H       -6.1630    -1.3880     1.8480 H     1 <1>   0.0800 
 31 H       -7.9840    -2.1320    -0.3800 H     1 <1>   0.0800 
 32 H       -8.3830    -2.0710     1.3230 H     1 <1>   0.0800 
 33 H       -6.3230    -3.6500     2.3180 H     1 <1>   0.4000 
 34 H       -9.8670    -3.3310    -0.1620 H     1 <1>   0.1500 
 35 H       -8.8840    -8.0890    -0.7310 H     1 <1>   0.1500 
 36 H       -6.4750    -6.5250     1.3380 H     1 <1>   0.0800 
 37 H       -6.0510    -6.7620    -0.3510 H     1 <1>   0.0800 
 38 H       -6.9690    -7.9610     0.5140 H     1 <1>   0.0800 
 39 H      -11.5120    -4.7900    -1.1320 H     1 <1>   0.1500 
 40 H      -11.0340    -7.1830    -1.4350 H     1 <1>   0.1500 
@<TRIPOS>BOND
  1   1   2  1   
  2   2   3  ar  
  3   2   4  ar  
  4   3   5  1   
  5   3   6  ar  
  6   4   7  ar  
  7   4  23  1   
  8   5   8  1   
  9   6   9  ar  
 10   7   9  ar  
 11   8  24  1   
 12   8  25  1   
 13   8  26  1   
 14   9  10  1   
 15  10  11  1   
 16  10  12  1   
 17  11  13  1   
 18  11  27  1   
 19  11  28  1   
 20  12  14  1   
 21  12  29  1   
 22  12  30  1   
 23  13  14  1   
 24  13  15  1   
 25  13  16  1   
 26  14  31  1   
 27  14  32  1   
 28  15  33  1   
 29  16  17  ar  
 30  16  18  ar  
 31  17  19  ar  
 32  17  20  1   
 33  18  21  ar  
 34  18  34  1   
 35  19  22  ar  
 36  19  35  1   
 37  20  36  1   
 38  20  37  1   
 39  20  38  1   
 40  21  22  ar  
 41  21  39  1   
 42  22  40  1   
@<TRIPOS>SUBSTRUCTURE
  1 ****  11 GROUP 4 **** **** 0

# MOE 2024.06 (io_trps.svl 2023.06)
