@<TRIPOS>MOLECULE
NONAME
51 53 1 0 0 
SMALL
USER_CHARGES


@<TRIPOS>ATOM
  1 CL      -1.1310    -0.1010     2.7180 Cl    1 <1>  -0.1230 
  2 C       -1.6730     0.0070     1.0530 C.2   1 <1>   0.1230 
  3 C       -2.4740    -0.9260     0.4170 C.2   1 <1>   0.1080 
  4 C       -1.4120     0.9730     0.1510 C.2   1 <1>  -0.3320 
  5 N       -2.7200    -0.5790    -0.8200 N.2   1 <1>  -0.7070 
  6 C       -3.0010    -2.1980     1.0660 C.3   1 <1>   0.5240 
  7 N       -2.0540     0.5970    -0.9800 N.pl3 1 <1>   0.3000 
  8 C       -0.5860     2.2420     0.2870 C.3   1 <1>  -0.0600 
  9 N       -4.0640    -2.7220     0.1680 N.4   1 <1>  -0.9590 
 10 C       -4.0680    -4.2100     0.0450 C.3   1 <1>   0.5660 
 11 C       -5.4150    -2.1620     0.4680 C.3   1 <1>   0.3430 
 12 C       -2.7170    -4.6550    -0.4990 C.ar  1 <1>  -0.1430 
 13 C       -5.2350    -4.7300    -0.8370 C.3   1 <1>   0.2000 
 14 C       -6.4680    -2.7260    -0.5040 C.3   1 <1>   0.1200 
 15 C       -1.9940    -5.6080     0.2060 C.ar  1 <1>  -0.1500 
 16 C       -2.1860    -4.1330    -1.6740 C.ar  1 <1>  -0.1500 
 17 O       -6.4550    -4.1240    -0.4740 O.3   1 <1>  -0.5600 
 18 C       -5.3850    -6.2530    -0.6910 C.3   1 <1>   0.1200 
 19 C       -0.7570    -6.0340    -0.2430 C.ar  1 <1>   0.0830 
 20 C       -0.9430    -4.5460    -2.1210 C.ar  1 <1>  -0.1500 
 21 O       -5.3590    -6.6140     0.6540 O.3   1 <1>  -0.6800 
 22 O       -0.1320    -6.9850     0.4920 O.3   1 <1>  -0.3630 
 23 C       -0.2140    -5.4800    -1.4070 C.ar  1 <1>   0.0830 
 24 C        0.1130    -8.2230    -0.1410 C.3   1 <1>   0.0400 
 25 O        1.0110    -5.8100    -1.8820 O.3   1 <1>  -0.3630 
 26 C        2.1180    -5.4360    -1.0920 C.3   1 <1>   0.0400 
 27 H       -3.3880    -1.9930     2.0500 H     1 <1>   0.0800 
 28 H       -2.1890    -2.9010     1.1460 H     1 <1>   0.0800 
 29 H       -2.0510     1.1180    -1.8680 H     1 <1>   0.2700 
 30 H       -0.1760     2.3180     1.2790 H     1 <1>   0.0800 
 31 H       -1.1960     3.1090     0.1060 H     1 <1>   0.0800 
 32 H        0.2290     2.2350    -0.4160 H     1 <1>   0.0800 
 33 H       -3.7670    -2.3270    -0.7410 H     1 <1>   0.4500 
 34 H       -4.1970    -4.6360     1.0270 H     1 <1>   0.0800 
 35 H       -5.7070    -2.4170     1.4730 H     1 <1>   0.0800 
 36 H       -5.3930    -1.0870     0.3850 H     1 <1>   0.0800 
 37 H       -5.0530    -4.4970    -1.8710 H     1 <1>   0.0800 
 38 H       -6.2840    -2.3960    -1.5120 H     1 <1>   0.0800 
 39 H       -7.4520    -2.4020    -0.2110 H     1 <1>   0.0800 
 40 H       -2.3830    -6.0450     1.1100 H     1 <1>   0.1500 
 41 H       -2.7180    -3.4010    -2.2570 H     1 <1>   0.1500 
 42 H       -4.5730    -6.7620    -1.1840 H     1 <1>   0.0800 
 43 H       -6.3170    -6.5760    -1.1220 H     1 <1>   0.0800 
 44 H       -0.5250    -4.1430    -3.0270 H     1 <1>   0.1500 
 45 H       -5.6890    -7.5300     0.7720 H     1 <1>   0.4000 
 46 H        0.4770    -8.9130     0.5980 H     1 <1>   0.0800 
 47 H        0.8510    -8.0930    -0.9110 H     1 <1>   0.0800 
 48 H       -0.8070    -8.5870    -0.5640 H     1 <1>   0.0800 
 49 H        3.0140    -5.6940    -1.6260 H     1 <1>   0.0800 
 50 H        2.0860    -5.9650    -0.1560 H     1 <1>   0.0800 
 51 H        2.0820    -4.3740    -0.9230 H     1 <1>   0.0800 
@<TRIPOS>BOND
  1   1   2  1   
  2   2   3  1   
  3   2   4  2   
  4   3   5  2   
  5   3   6  1   
  6   4   7  1   
  7   4   8  1   
  8   5   7  1   
  9   6   9  1   
 10   6  27  1   
 11   6  28  1   
 12   7  29  1   
 13   8  30  1   
 14   8  31  1   
 15   8  32  1   
 16   9  10  1   
 17   9  11  1   
 18   9  33  1   
 19  10  12  1   
 20  10  13  1   
 21  10  34  1   
 22  11  14  1   
 23  11  35  1   
 24  11  36  1   
 25  12  15  ar  
 26  12  16  ar  
 27  13  17  1   
 28  13  18  1   
 29  13  37  1   
 30  14  17  1   
 31  14  38  1   
 32  14  39  1   
 33  15  19  ar  
 34  15  40  1   
 35  16  20  ar  
 36  16  41  1   
 37  18  21  1   
 38  18  42  1   
 39  18  43  1   
 40  19  22  1   
 41  19  23  ar  
 42  20  23  ar  
 43  20  44  1   
 44  21  45  1   
 45  22  24  1   
 46  23  25  1   
 47  24  46  1   
 48  24  47  1   
 49  24  48  1   
 50  25  26  1   
 51  26  49  1   
 52  26  50  1   
 53  26  51  1   
@<TRIPOS>SUBSTRUCTURE
  1 ****  12 GROUP 4 **** **** 0

# MOE 2024.06 (io_trps.svl 2023.06)
