@<TRIPOS>MOLECULE
NONAME
33 32 1 0 0 
SMALL
USER_CHARGES


@<TRIPOS>ATOM
  1 O        0.0610    -0.6680    -1.6790 O.3   1 <1>  -0.6800 
  2 C       -1.2440    -1.0780    -1.3800 C.3   1 <1>   0.1200 
  3 C       -1.2840    -1.7000     0.0390 C.3   1 <1>   0.4230 
  4 N        0.0140    -2.3550     0.2910 N.4   1 <1>  -0.8530 
  5 C       -2.4590    -2.6830     0.2800 C.3   1 <1>  -0.0800 
  6 C       -2.3280    -4.0250    -0.4890 C.3   1 <1>  -0.1600 
  7 C       -3.8240    -2.0320    -0.0380 C.3   1 <1>  -0.1600 
  8 C       -1.6740    -5.1420     0.3430 C.3   1 <1>  -0.1600 
  9 C       -4.0950    -0.7500     0.7680 C.3   1 <1>  -0.1600 
 10 C       -1.5110    -6.4140    -0.4920 C.3   1 <1>  -0.2400 
 11 C       -5.4960    -0.2120     0.4700 C.3   1 <1>  -0.2400 
 12 H        0.0890    -0.1800    -2.5340 H     1 <1>   0.4000 
 13 H       -1.8960    -0.2220    -1.4320 H     1 <1>   0.0800 
 14 H       -1.5500    -1.7870    -2.1300 H     1 <1>   0.0800 
 15 H       -1.3900    -0.8800     0.7320 H     1 <1>   0.0800 
 16 H        0.0160    -3.2970    -0.1080 H     1 <1>   0.4500 
 17 H        0.2650    -2.3780     1.2810 H     1 <1>   0.4500 
 18 H        0.6990    -1.7890    -0.2400 H     1 <1>   0.4500 
 19 H       -2.4820    -2.9040     1.3340 H     1 <1>   0.0800 
 20 H       -3.3100    -4.3800    -0.7590 H     1 <1>   0.0800 
 21 H       -1.7950    -3.8930    -1.4140 H     1 <1>   0.0800 
 22 H       -3.9080    -1.8210    -1.0910 H     1 <1>   0.0800 
 23 H       -4.6040    -2.7380     0.2020 H     1 <1>   0.0800 
 24 H       -0.7100    -4.8560     0.7200 H     1 <1>   0.0800 
 25 H       -2.3010    -5.3670     1.1900 H     1 <1>   0.0800 
 26 H       -4.0240    -0.9590     1.8230 H     1 <1>   0.0800 
 27 H       -3.3820     0.0200     0.5290 H     1 <1>   0.0800 
 28 H       -0.8730    -6.2420    -1.3410 H     1 <1>   0.0800 
 29 H       -2.4680    -6.7590    -0.8460 H     1 <1>   0.0800 
 30 H       -1.0750    -7.1960     0.1070 H     1 <1>   0.0800 
 31 H       -6.2460    -0.9380     0.7340 H     1 <1>   0.0800 
 32 H       -5.6000     0.0270    -0.5740 H     1 <1>   0.0800 
 33 H       -5.6780     0.6820     1.0420 H     1 <1>   0.0800 
@<TRIPOS>BOND
  1   1   2  1   
  2   1  12  1   
  3   2   3  1   
  4   2  13  1   
  5   2  14  1   
  6   3   4  1   
  7   3   5  1   
  8   3  15  1   
  9   4  16  1   
 10   4  17  1   
 11   4  18  1   
 12   5   6  1   
 13   5   7  1   
 14   5  19  1   
 15   6   8  1   
 16   6  20  1   
 17   6  21  1   
 18   7   9  1   
 19   7  22  1   
 20   7  23  1   
 21   8  10  1   
 22   8  24  1   
 23   8  25  1   
 24   9  11  1   
 25   9  26  1   
 26   9  27  1   
 27  10  28  1   
 28  10  29  1   
 29  10  30  1   
 30  11  31  1   
 31  11  32  1   
 32  11  33  1   
@<TRIPOS>SUBSTRUCTURE
  1 ****   5 GROUP 4 **** **** 0

# MOE 2024.06 (io_trps.svl 2023.06)
