@<TRIPOS>MOLECULE
NONAME
53 55 1 0 0 
SMALL
USER_CHARGES


@<TRIPOS>ATOM
  1 O       -1.6360    -2.2580    -0.8930 O.2   1 <1>  -0.5700 
  2 C       -0.5950    -2.6550    -0.4290 C.2   1 <1>   0.5690 
  3 N       -0.4840    -3.7990     0.3140 N.am  1 <1>  -0.6600 
  4 C        0.6680    -1.8550    -0.6720 C.3   1 <1>  -0.0990 
  5 C        0.8240    -4.2160     0.8710 C.3   1 <1>   0.1400 
  6 C       -1.6600    -4.6460     0.6530 C.3   1 <1>   0.0600 
  7 C        1.8250    -2.7900    -1.0720 C.3   1 <1>  -0.0800 
  8 C        1.9280    -4.0620    -0.1970 C.3   1 <1>  -0.0800 
  9 C        3.2010    -2.1110    -1.0270 C.3   1 <1>  -0.1600 
 10 C        3.3450    -4.0540     0.3920 C.3   1 <1>  -0.1600 
 11 C        4.1550    -3.2200    -0.5990 C.3   1 <1>   0.4230 
 12 N        5.4490    -2.7040    -0.0700 N.4   1 <1>  -0.9590 
 13 C        5.3720    -1.9310     1.2000 C.3   1 <1>   0.4810 
 14 C        6.4580    -3.8060     0.0480 C.3   1 <1>   0.2630 
 15 C        6.6440    -1.1260     1.3890 C.2   1 <1>  -0.2880 
 16 C        7.5950    -0.8290     0.4810 C.2   1 <1>  -0.1780 
 17 C        8.8150    -0.0820     0.6980 C.ar  1 <1>   0.0280 
 18 C        9.9620    -0.3340    -0.0690 C.ar  1 <1>   0.0820 
 19 C        8.8800     0.9110     1.6730 C.ar  1 <1>  -0.1500 
 20 O        9.8910    -1.3120    -1.0130 O.3   1 <1>  -0.3630 
 21 C       11.1260     0.4000     0.1530 C.ar  1 <1>  -0.1500 
 22 C       10.0380     1.6330     1.8900 C.ar  1 <1>  -0.1500 
 23 C       10.9840    -1.6220    -1.8510 C.3   1 <1>   0.0400 
 24 C       11.1630     1.3770     1.1290 C.ar  1 <1>  -0.1500 
 25 H        0.4880    -1.1330    -1.4480 H     1 <1>   0.0800 
 26 H        0.8950    -1.3260     0.2350 H     1 <1>   0.0800 
 27 H        1.0350    -3.5970     1.7260 H     1 <1>   0.0800 
 28 H        0.7760    -5.2410     1.2000 H     1 <1>   0.0800 
 29 H       -1.5180    -5.6390     0.2670 H     1 <1>   0.0800 
 30 H       -2.5580    -4.2360     0.2230 H     1 <1>   0.0800 
 31 H       -1.7820    -4.6910     1.7210 H     1 <1>   0.0800 
 32 H        1.6360    -3.1150    -2.0840 H     1 <1>   0.0800 
 33 H        1.8460    -4.9110    -0.8560 H     1 <1>   0.0800 
 34 H        3.1810    -1.3140    -0.3070 H     1 <1>   0.0800 
 35 H        3.4630    -1.7130    -1.9920 H     1 <1>   0.0800 
 36 H        3.7300    -5.0550     0.4810 H     1 <1>   0.0800 
 37 H        3.3210    -3.5870     1.3600 H     1 <1>   0.0800 
 38 H        4.3470    -3.8320    -1.4670 H     1 <1>   0.0800 
 39 H        5.8070    -2.0340    -0.7620 H     1 <1>   0.4500 
 40 H        4.5320    -1.2570     1.1890 H     1 <1>   0.0800 
 41 H        5.2490    -2.6100     2.0270 H     1 <1>   0.0800 
 42 H        6.1420    -4.5290     0.7820 H     1 <1>   0.0800 
 43 H        7.4160    -3.4090     0.3480 H     1 <1>   0.0800 
 44 H        6.5810    -4.3060    -0.9000 H     1 <1>   0.0800 
 45 H        6.7290    -0.7870     2.4080 H     1 <1>   0.1500 
 46 H        7.5110    -1.1580    -0.5380 H     1 <1>   0.1500 
 47 H        8.0150     1.1340     2.2700 H     1 <1>   0.1500 
 48 H       12.0170     0.2260    -0.4190 H     1 <1>   0.1500 
 49 H       10.0660     2.3970     2.6490 H     1 <1>   0.1500 
 50 H       10.6860    -2.4100    -2.5180 H     1 <1>   0.0800 
 51 H       11.8090    -1.9510    -1.2440 H     1 <1>   0.0800 
 52 H       11.2490    -0.7460    -2.4180 H     1 <1>   0.0800 
 53 H       12.0650     1.9410     1.2970 H     1 <1>   0.1500 
@<TRIPOS>BOND
  1   1   2  2   
  2   2   3  am  
  3   2   4  1   
  4   3   5  1   
  5   3   6  1   
  6   4   7  1   
  7   4  25  1   
  8   4  26  1   
  9   5   8  1   
 10   5  27  1   
 11   5  28  1   
 12   6  29  1   
 13   6  30  1   
 14   6  31  1   
 15   7   8  1   
 16   7   9  1   
 17   7  32  1   
 18   8  10  1   
 19   8  33  1   
 20   9  11  1   
 21   9  34  1   
 22   9  35  1   
 23  10  11  1   
 24  10  36  1   
 25  10  37  1   
 26  11  12  1   
 27  11  38  1   
 28  12  13  1   
 29  12  14  1   
 30  12  39  1   
 31  13  15  1   
 32  13  40  1   
 33  13  41  1   
 34  14  42  1   
 35  14  43  1   
 36  14  44  1   
 37  15  16  2   
 38  15  45  1   
 39  16  17  1   
 40  16  46  1   
 41  17  18  ar  
 42  17  19  ar  
 43  18  20  1   
 44  18  21  ar  
 45  19  22  ar  
 46  19  47  1   
 47  20  23  1   
 48  21  24  ar  
 49  21  48  1   
 50  22  24  ar  
 51  22  49  1   
 52  23  50  1   
 53  23  51  1   
 54  23  52  1   
 55  24  53  1   
@<TRIPOS>SUBSTRUCTURE
  1 ****  12 GROUP 4 **** **** 0

# MOE 2024.06 (io_trps.svl 2023.06)
