@<TRIPOS>MOLECULE
NONAME
51 54 1 0 0 
SMALL
USER_CHARGES


@<TRIPOS>ATOM
  1 O        1.7580     0.7650     2.6080 O.2   1 <1>  -0.5700 
  2 C        2.2000    -0.0550     1.8400 C.2   1 <1>   0.9370 
  3 N        3.0970     0.3310     0.8400 N.pl3 1 <1>  -0.5760 
  4 C        1.8090    -1.4140     1.9280 C.2   1 <1>  -0.1360 
  5 C        3.5850    -0.5960    -0.0200 C.cat 1 <1>   0.7390 
  6 C        3.5050     1.6420     0.7250 C.2   1 <1>   0.1910 
  7 C        2.2780    -2.3310     1.0580 C.2   1 <1>   0.2030 
  8 N        3.1740    -1.8900     0.0910 N.pl3 1 <1>  -0.6450 
  9 C        4.5010    -0.2130    -1.0100 C.2   1 <1>  -0.1800 
 10 C        4.3960     2.0360    -0.2360 C.2   1 <1>  -0.1380 
 11 C        1.8640    -3.8190     1.1200 C.3   1 <1>   0.4810 
 12 C        4.9100     1.0880    -1.1270 C.2   1 <1>  -0.1500 
 13 C        4.8510     3.4810    -0.3670 C.3   1 <1>  -0.1020 
 14 N        1.1030    -4.2960    -0.0960 N.4   1 <1>  -0.9590 
 15 C       -0.3840    -4.1350     0.0250 C.3   1 <1>   0.4230 
 16 C        1.4390    -5.7400    -0.3570 C.3   1 <1>   0.2630 
 17 C       -1.1060    -4.5820    -1.2460 C.3   1 <1>  -0.1600 
 18 C       -0.8090    -2.6760     0.1880 C.3   1 <1>  -0.1600 
 19 C       -2.4400    -3.8280    -1.2450 C.3   1 <1>  -0.0800 
 20 C       -2.2520    -2.6140    -0.3250 C.3   1 <1>  -0.0800 
 21 C       -3.6120    -4.6360    -0.6660 C.3   1 <1>  -0.1600 
 22 C       -3.3110    -2.7410     0.7810 C.3   1 <1>  -0.1600 
 23 C       -4.3840    -3.6310     0.1740 C.3   1 <1>   0.2000 
 24 O       -5.0930    -4.2730     1.1640 O.3   1 <1>  -0.6800 
 25 H        1.1250    -1.6420     2.7260 H     1 <1>   0.1500 
 26 H        3.1050     2.3700     1.4180 H     1 <1>   0.1500 
 27 H        3.6470    -2.5450    -0.5430 H     1 <1>   0.4500 
 28 H        4.8890    -0.9510    -1.6880 H     1 <1>   0.1500 
 29 H        1.2680    -3.9890     2.0020 H     1 <1>   0.0800 
 30 H        2.7630    -4.4040     1.2280 H     1 <1>   0.0800 
 31 H        5.6160     1.3940    -1.8860 H     1 <1>   0.1500 
 32 H        4.5960     3.8630    -1.3400 H     1 <1>   0.0800 
 33 H        5.9180     3.5480    -0.2410 H     1 <1>   0.0800 
 34 H        4.3840     4.1060     0.3750 H     1 <1>   0.0800 
 35 H        1.3800    -3.7530    -0.9240 H     1 <1>   0.4500 
 36 H       -0.7660    -4.7060     0.8580 H     1 <1>   0.0800 
 37 H        1.0920    -6.3620     0.4540 H     1 <1>   0.0800 
 38 H        2.5040    -5.8730    -0.4600 H     1 <1>   0.0800 
 39 H        0.9710    -6.0800    -1.2680 H     1 <1>   0.0800 
 40 H       -0.5520    -4.2760    -2.1170 H     1 <1>   0.0800 
 41 H       -1.2600    -5.6460    -1.2800 H     1 <1>   0.0800 
 42 H       -0.7550    -2.3440     1.2080 H     1 <1>   0.0800 
 43 H       -0.2100    -2.0410    -0.4410 H     1 <1>   0.0800 
 44 H       -2.6940    -3.5010    -2.2420 H     1 <1>   0.0800 
 45 H       -2.4250    -1.7040    -0.8770 H     1 <1>   0.0800 
 46 H       -3.2550    -5.4340    -0.0400 H     1 <1>   0.0800 
 47 H       -4.2340    -5.0410    -1.4460 H     1 <1>   0.0800 
 48 H       -3.7180    -1.7820     1.0500 H     1 <1>   0.0800 
 49 H       -2.9020    -3.2170     1.6540 H     1 <1>   0.0800 
 50 H       -5.0690    -3.0580    -0.4320 H     1 <1>   0.0800 
 51 H       -4.5160    -4.8410     1.7030 H     1 <1>   0.4000 
@<TRIPOS>BOND
  1   1   2  2   
  2   2   3  1   
  3   2   4  1   
  4   3   5  ar  
  5   3   6  1   
  6   4   7  2   
  7   4  25  1   
  8   5   8  ar  
  9   5   9  1   
 10   6  10  2   
 11   6  26  1   
 12   7   8  1   
 13   7  11  1   
 14   8  27  1   
 15   9  12  2   
 16   9  28  1   
 17  10  12  1   
 18  10  13  1   
 19  11  14  1   
 20  11  29  1   
 21  11  30  1   
 22  12  31  1   
 23  13  32  1   
 24  13  33  1   
 25  13  34  1   
 26  14  15  1   
 27  14  16  1   
 28  14  35  1   
 29  15  17  1   
 30  15  18  1   
 31  15  36  1   
 32  16  37  1   
 33  16  38  1   
 34  16  39  1   
 35  17  19  1   
 36  17  40  1   
 37  17  41  1   
 38  18  20  1   
 39  18  42  1   
 40  18  43  1   
 41  19  20  1   
 42  19  21  1   
 43  19  44  1   
 44  20  22  1   
 45  20  45  1   
 46  21  23  1   
 47  21  46  1   
 48  21  47  1   
 49  22  23  1   
 50  22  48  1   
 51  22  49  1   
 52  23  24  1   
 53  23  50  1   
 54  24  51  1   
@<TRIPOS>SUBSTRUCTURE
  1 ****   7 GROUP 4 **** **** 0

# MOE 2024.06 (io_trps.svl 2023.06)
