@<TRIPOS>MOLECULE
NONAME
50 53 1 0 0 
SMALL
USER_CHARGES


@<TRIPOS>ATOM
  1 O       -0.6430     0.2230    -0.7660 O.2   1 <1>  -0.5700 
  2 C       -1.6800     0.8040    -0.5400 C.2   1 <1>   0.5690 
  3 N       -2.8900     0.1710    -0.7020 N.am  1 <1>  -0.6600 
  4 C       -1.6010     2.2650    -0.0710 C.3   1 <1>  -0.0190 
  5 C       -4.2500     0.7520    -0.4650 C.3   1 <1>   0.1400 
  6 C       -2.9610    -1.2590    -1.1420 C.3   1 <1>   0.1400 
  7 C       -1.9040     3.2450    -1.2190 C.3   1 <1>  -0.1600 
  8 C       -0.2370     2.6410     0.5410 C.3   1 <1>  -0.1600 
  9 C       -5.0580    -0.1230     0.5130 C.3   1 <1>   0.1900 
 10 C       -3.8120    -2.0950    -0.1710 C.3   1 <1>   0.1100 
 11 C       -1.7630     4.6980    -0.7510 C.3   1 <1>   0.1200 
 12 C       -0.1930     4.1270     0.9100 C.3   1 <1>   0.1200 
 13 N       -5.1620    -1.5140     0.0090 N.3   1 <1>  -0.8100 
 14 C       -6.4620     0.4740     0.7370 C.3   1 <1>   0.1200 
 15 O       -0.4910     4.8950    -0.2160 O.3   1 <1>  -0.5600 
 16 C       -5.9950    -2.3250     0.9290 C.3   1 <1>   0.3330 
 17 O       -7.1920    -0.3190     1.6270 O.3   1 <1>  -0.5600 
 18 C       -6.2320    -3.7270     0.3670 C.ar  1 <1>  -0.1440 
 19 C       -7.3560    -1.6410     1.1820 C.3   1 <1>   0.1200 
 20 C       -6.0600    -4.8400     1.1780 C.ar  1 <1>  -0.1500 
 21 C       -6.6260    -3.9080    -0.9520 C.ar  1 <1>  -0.1500 
 22 C       -6.2780    -6.1120     0.6790 C.ar  1 <1>  -0.1500 
 23 C       -6.8460    -5.1800    -1.4520 C.ar  1 <1>  -0.1500 
 24 C       -6.6720    -6.2830    -0.6360 C.ar  1 <1>  -0.1500 
 25 H       -2.3280     2.4040     0.7060 H     1 <1>   0.0800 
 26 H       -4.1860     1.7480    -0.0740 H     1 <1>   0.0800 
 27 H       -4.7730     0.8010    -1.4040 H     1 <1>   0.0800 
 28 H       -3.4000    -1.3050    -2.1230 H     1 <1>   0.0800 
 29 H       -1.9770    -1.6910    -1.2030 H     1 <1>   0.0800 
 30 H       -2.8970     3.0870    -1.5970 H     1 <1>   0.0800 
 31 H       -1.2160     3.0750    -2.0300 H     1 <1>   0.0800 
 32 H        0.5530     2.4420    -0.1640 H     1 <1>   0.0800 
 33 H       -0.0520     2.0440     1.4150 H     1 <1>   0.0800 
 34 H       -4.5460    -0.1220     1.4600 H     1 <1>   0.0800 
 35 H       -3.3060    -2.1550     0.7780 H     1 <1>   0.0800 
 36 H       -3.8940    -3.0920    -0.5680 H     1 <1>   0.0800 
 37 H       -2.4920     4.9430     0.0010 H     1 <1>   0.0800 
 38 H       -1.8750     5.3740    -1.5810 H     1 <1>   0.0800 
 39 H        0.7930     4.4020     1.2420 H     1 <1>   0.0800 
 40 H       -0.9030     4.3620     1.6850 H     1 <1>   0.0800 
 41 H       -7.0020     0.5360    -0.1920 H     1 <1>   0.0800 
 42 H       -6.3880     1.4570     1.1660 H     1 <1>   0.0800 
 43 H       -5.4890    -2.4100     1.8750 H     1 <1>   0.0800 
 44 H       -7.9010    -2.1780     1.9370 H     1 <1>   0.0800 
 45 H       -7.9410    -1.6290     0.2800 H     1 <1>   0.0800 
 46 H       -5.7540    -4.7230     2.2030 H     1 <1>   0.1500 
 47 H       -6.7570    -3.0520    -1.5920 H     1 <1>   0.1500 
 48 H       -6.1430    -6.9700     1.3140 H     1 <1>   0.1500 
 49 H       -7.1500    -5.3090    -2.4760 H     1 <1>   0.1500 
 50 H       -6.8420    -7.2720    -1.0240 H     1 <1>   0.1500 
@<TRIPOS>BOND
  1   1   2  2   
  2   2   3  am  
  3   2   4  1   
  4   3   5  1   
  5   3   6  1   
  6   4   7  1   
  7   4   8  1   
  8   4  25  1   
  9   5   9  1   
 10   5  26  1   
 11   5  27  1   
 12   6  10  1   
 13   6  28  1   
 14   6  29  1   
 15   7  11  1   
 16   7  30  1   
 17   7  31  1   
 18   8  12  1   
 19   8  32  1   
 20   8  33  1   
 21   9  13  1   
 22   9  14  1   
 23   9  34  1   
 24  10  13  1   
 25  10  35  1   
 26  10  36  1   
 27  11  15  1   
 28  11  37  1   
 29  11  38  1   
 30  12  15  1   
 31  12  39  1   
 32  12  40  1   
 33  13  16  1   
 34  14  17  1   
 35  14  41  1   
 36  14  42  1   
 37  16  18  1   
 38  16  19  1   
 39  16  43  1   
 40  17  19  1   
 41  18  20  ar  
 42  18  21  ar  
 43  19  44  1   
 44  19  45  1   
 45  20  22  ar  
 46  20  46  1   
 47  21  23  ar  
 48  21  47  1   
 49  22  24  ar  
 50  22  48  1   
 51  23  24  ar  
 52  23  49  1   
 53  24  50  1   
@<TRIPOS>SUBSTRUCTURE
  1 ****   9 GROUP 4 **** **** 0

# MOE 2024.06 (io_trps.svl 2023.06)
