@<TRIPOS>MOLECULE
NONAME
43 44 1 0 0 
SMALL
USER_CHARGES


@<TRIPOS>ATOM
  1 F       -0.8910     3.3710     1.5130 F     1 <1>  -0.3400 
  2 C        0.4230     3.4510     1.6900 C.3   1 <1>   1.1640 
  3 F        0.7560     2.4340     2.4740 F     1 <1>  -0.3400 
  4 F        0.6330     4.5530     2.4010 F     1 <1>  -0.3400 
  5 C        1.2180     3.4500     0.3740 C.ar  1 <1>  -0.1440 
  6 C        2.5700     3.7770     0.3820 C.ar  1 <1>  -0.1500 
  7 C        0.6210     3.1250    -0.8400 C.ar  1 <1>  -0.1500 
  8 C        3.3130     3.7850    -0.7880 C.ar  1 <1>  -0.1440 
  9 C        1.3570     3.1310    -2.0120 C.ar  1 <1>  -0.1500 
 10 C        2.7000     3.4600    -1.9870 C.ar  1 <1>  -0.1500 
 11 C        4.7850     4.1560    -0.7470 C.3   1 <1>   0.2840 
 12 N        4.8750     5.6230    -0.6640 N.am  1 <1>  -0.7300 
 13 C        5.6950     6.3040     0.1720 C.2   1 <1>   0.5690 
 14 O        6.4930     5.7380     0.8780 O.2   1 <1>  -0.5700 
 15 C        5.5980     7.8260     0.2340 C.3   1 <1>  -0.0190 
 16 C        4.1770     8.3000     0.6000 C.3   1 <1>  -0.1600 
 17 C        6.0930     8.4900    -1.0740 C.3   1 <1>  -0.1600 
 18 C        4.1120     9.8260     0.8200 C.3   1 <1>   0.2000 
 19 C        5.5510     9.9180    -1.2890 C.3   1 <1>  -0.1600 
 20 O        2.8460    10.2720     0.4000 O.3   1 <1>  -0.5600 
 21 C        5.2100    10.5980     0.0390 C.3   1 <1>   0.2000 
 22 C        1.8150    10.0800     1.3190 C.3   1 <1>   0.0400 
 23 O        4.7590    11.8720    -0.2380 O.3   1 <1>  -0.6800 
 24 H        3.0560     4.0340     1.3100 H     1 <1>   0.1500 
 25 H       -0.4230     2.8620    -0.8870 H     1 <1>   0.1500 
 26 H        0.8840     2.8780    -2.9450 H     1 <1>   0.1500 
 27 H        3.2610     3.4620    -2.9050 H     1 <1>   0.1500 
 28 H        5.2870     3.8160    -1.6360 H     1 <1>   0.0800 
 29 H        5.2600     3.7030     0.1070 H     1 <1>   0.0800 
 30 H        4.1740     6.1230    -1.2120 H     1 <1>   0.3700 
 31 H        6.2520     8.1420     1.0290 H     1 <1>   0.0800 
 32 H        3.8550     7.8000     1.4960 H     1 <1>   0.0800 
 33 H        3.5070     8.0300    -0.1980 H     1 <1>   0.0800 
 34 H        7.1700     8.5180    -1.0490 H     1 <1>   0.0800 
 35 H        5.8140     7.8940    -1.9260 H     1 <1>   0.0800 
 36 H        4.2330    10.0560     1.8650 H     1 <1>   0.0800 
 37 H        4.6550     9.8660    -1.8840 H     1 <1>   0.0800 
 38 H        6.2780    10.5030    -1.8240 H     1 <1>   0.0800 
 39 H        6.1020    10.6850     0.6350 H     1 <1>   0.0800 
 40 H        0.9090    10.4700     0.8910 H     1 <1>   0.0800 
 41 H        2.0430    10.6140     2.2260 H     1 <1>   0.0800 
 42 H        1.6970     9.0290     1.5170 H     1 <1>   0.0800 
 43 H        3.7810    11.7950    -0.3230 H     1 <1>   0.4000 
@<TRIPOS>BOND
  1   1   2  1   
  2   2   3  1   
  3   2   4  1   
  4   2   5  1   
  5   5   6  ar  
  6   5   7  ar  
  7   6   8  ar  
  8   6  24  1   
  9   7   9  ar  
 10   7  25  1   
 11   8  10  ar  
 12   8  11  1   
 13   9  10  ar  
 14   9  26  1   
 15  10  27  1   
 16  11  12  1   
 17  11  28  1   
 18  11  29  1   
 19  12  13  am  
 20  12  30  1   
 21  13  14  2   
 22  13  15  1   
 23  15  16  1   
 24  15  17  1   
 25  15  31  1   
 26  16  18  1   
 27  16  32  1   
 28  16  33  1   
 29  17  19  1   
 30  17  34  1   
 31  17  35  1   
 32  18  20  1   
 33  18  21  1   
 34  18  36  1   
 35  19  21  1   
 36  19  37  1   
 37  19  38  1   
 38  20  22  1   
 39  21  23  1   
 40  21  39  1   
 41  22  40  1   
 42  22  41  1   
 43  22  42  1   
 44  23  43  1   
@<TRIPOS>SUBSTRUCTURE
  1 ****  12 GROUP 4 **** **** 0

# MOE 2024.06 (io_trps.svl 2023.06)
