@<TRIPOS>MOLECULE
NONAME
38 40 1 0 0 
SMALL
USER_CHARGES


@<TRIPOS>ATOM
  1 F        0.7630    -2.2110    -1.6520 F     1 <1>  -0.3400 
  2 C        0.2170    -1.5750    -0.6240 C.3   1 <1>   1.1640 
  3 F        1.1960    -1.3640     0.2480 F     1 <1>  -0.3400 
  4 F       -0.1430    -0.3800    -1.0760 F     1 <1>  -0.3400 
  5 C       -0.9590    -2.3440    -0.0360 C.ar  1 <1>  -0.1440 
  6 C       -2.0740    -2.5510    -0.8310 C.ar  1 <1>   0.1600 
  7 C       -0.9670    -2.8500     1.2560 C.ar  1 <1>  -0.1500 
  8 N       -3.1630    -3.2010    -0.4620 N.ar  1 <1>  -0.6200 
  9 C       -2.0940    -3.5290     1.6520 C.ar  1 <1>  -0.1500 
 10 C       -3.1600    -3.6840     0.7750 C.ar  1 <1>   0.4100 
 11 N       -4.2710    -4.3890     1.1790 N.pl3 1 <1>  -0.8380 
 12 C       -5.5880    -3.7080     1.0150 C.3   1 <1>   0.2090 
 13 C       -4.3700    -5.7660     0.6200 C.3   1 <1>   0.2090 
 14 C       -6.4010    -4.6080     0.0870 C.3   1 <1>   0.2000 
 15 C       -5.8480    -6.0080     0.3150 C.3   1 <1>  -0.0800 
 16 O       -7.7580    -4.5790     0.3830 O.3   1 <1>  -0.6800 
 17 C       -6.0940    -6.9420    -0.8820 C.3   1 <1>  -0.0170 
 18 C       -5.5990    -8.3540    -0.6100 C.ar  1 <1>   0.1670 
 19 N       -4.2980    -8.5630    -0.7350 N.ar  1 <1>  -0.6200 
 20 C       -6.5050    -9.3490    -0.2470 C.ar  1 <1>   0.1600 
 21 C       -3.9680    -9.8180    -0.4800 C.ar  1 <1>   0.1600 
 22 N       -6.1770   -10.6040     0.0130 N.ar  1 <1>  -0.6200 
 23 C       -4.8770   -10.8050    -0.1180 C.ar  1 <1>   0.1600 
 24 H       -2.0770    -2.1610    -1.8370 H     1 <1>   0.1500 
 25 H       -0.1340    -2.7250     1.9290 H     1 <1>   0.1500 
 26 H       -2.1760    -3.9520     2.6360 H     1 <1>   0.1500 
 27 H       -6.0560    -3.6320     1.9800 H     1 <1>   0.0800 
 28 H       -5.4750    -2.7260     0.5900 H     1 <1>   0.0800 
 29 H       -3.7850    -5.8350    -0.2830 H     1 <1>   0.0800 
 30 H       -3.9980    -6.4880     1.3280 H     1 <1>   0.0800 
 31 H       -6.2620    -4.2910    -0.9320 H     1 <1>   0.0800 
 32 H       -6.2920    -6.4280     1.2000 H     1 <1>   0.0800 
 33 H       -7.9070    -4.8250     1.3160 H     1 <1>   0.4000 
 34 H       -5.5950    -6.5570    -1.7550 H     1 <1>   0.0800 
 35 H       -7.1470    -6.9650    -1.0990 H     1 <1>   0.0800 
 36 H       -7.5480    -9.0970    -0.1670 H     1 <1>   0.1500 
 37 H       -2.9280   -10.0790    -0.5610 H     1 <1>   0.1500 
 38 H       -4.5120   -11.7990     0.0710 H     1 <1>   0.1500 
@<TRIPOS>BOND
  1   1   2  1   
  2   2   3  1   
  3   2   4  1   
  4   2   5  1   
  5   5   6  ar  
  6   5   7  ar  
  7   6   8  ar  
  8   6  24  1   
  9   7   9  ar  
 10   7  25  1   
 11   8  10  ar  
 12   9  10  ar  
 13   9  26  1   
 14  10  11  1   
 15  11  12  1   
 16  11  13  1   
 17  12  14  1   
 18  12  27  1   
 19  12  28  1   
 20  13  15  1   
 21  13  29  1   
 22  13  30  1   
 23  14  15  1   
 24  14  16  1   
 25  14  31  1   
 26  15  17  1   
 27  15  32  1   
 28  16  33  1   
 29  17  18  1   
 30  17  34  1   
 31  17  35  1   
 32  18  19  ar  
 33  18  20  ar  
 34  19  21  ar  
 35  20  22  ar  
 36  20  36  1   
 37  21  23  ar  
 38  21  37  1   
 39  22  23  ar  
 40  23  38  1   
@<TRIPOS>SUBSTRUCTURE
  1 ****  13 GROUP 4 **** **** 0

# MOE 2024.06 (io_trps.svl 2023.06)
