@<TRIPOS>MOLECULE
NONAME
54 57 1 0 0 
SMALL
USER_CHARGES


@<TRIPOS>ATOM
  1 O       -5.5310     2.9720     1.1820 O.co2 1 <1>  -0.9000 
  2 C       -4.8110     2.0840     0.7300 C.2   1 <1>   0.9060 
  3 O       -5.0230     1.5940    -0.3850 O.co2 1 <1>  -0.9000 
  4 C       -3.8620     1.3830     1.6590 C.3   1 <1>  -0.2660 
  5 C       -4.4030     0.0080     2.0970 C.3   1 <1>  -0.1600 
  6 C       -5.8470     0.0710     2.6460 C.3   1 <1>  -0.1600 
  7 C       -6.8910    -0.5710     1.7220 C.3   1 <1>   0.3430 
  8 N       -7.2060     0.2240     0.5050 N.4   1 <1>  -0.9590 
  9 C       -8.1970     1.3260     0.7840 C.3   1 <1>   0.3430 
 10 C       -7.5560    -0.6760    -0.6180 C.3   1 <1>   0.3430 
 11 C       -8.7780     2.0380    -0.4640 C.3   1 <1>   0.1430 
 12 C       -7.8870     0.1230    -1.8720 C.3   1 <1>  -0.1600 
 13 C      -10.0710     2.7340    -0.0900 C.ar  1 <1>   0.1670 
 14 C       -9.0760     1.0530    -1.6140 C.3   1 <1>  -0.1600 
 15 C       -7.9230     3.2320    -0.9620 C.3   1 <1>  -0.1600 
 16 N      -11.0240     2.2100     0.6430 N.ar  1 <1>  -0.6200 
 17 C      -10.1430     3.9850    -0.6210 C.ar  1 <1>  -0.1440 
 18 C       -8.9050     4.3250    -1.4130 C.3   1 <1>  -0.0170 
 19 C      -12.0980     2.9900     0.8400 C.ar  1 <1>   0.6200 
 20 C      -11.2720     4.7200    -0.3700 C.ar  1 <1>   0.1600 
 21 N      -12.2530     4.2300     0.3540 N.ar  1 <1>  -0.6200 
 22 C      -13.1820     2.4450     1.6430 C.ar  1 <1>   0.0000 
 23 C      -14.5170     2.7660     1.3810 C.ar  1 <1>  -0.1500 
 24 C      -12.9400     1.5760     2.7100 C.ar  1 <1>  -0.1500 
 25 C      -15.5520     2.2490     2.1390 C.ar  1 <1>  -0.1500 
 26 C      -13.9690     1.0550     3.4730 C.ar  1 <1>  -0.1500 
 27 C      -15.2800     1.3900     3.1880 C.ar  1 <1>  -0.1500 
 28 H       -3.7120     2.0110     2.5170 H     1 <1>   0.0800 
 29 H       -2.9220     1.2690     1.1550 H     1 <1>   0.0800 
 30 H       -3.7490    -0.3780     2.8590 H     1 <1>   0.0800 
 31 H       -4.3520    -0.6680     1.2590 H     1 <1>   0.0800 
 32 H       -6.1350     1.0750     2.9050 H     1 <1>   0.0800 
 33 H       -5.8620    -0.4900     3.5630 H     1 <1>   0.0800 
 34 H       -7.8000    -0.7330     2.2760 H     1 <1>   0.0800 
 35 H       -6.5140    -1.5360     1.4260 H     1 <1>   0.0800 
 36 H       -6.3370     0.7330     0.1920 H     1 <1>   0.4500 
 37 H       -7.7350     2.0670     1.4180 H     1 <1>   0.0800 
 38 H       -9.0260     0.9050     1.3270 H     1 <1>   0.0800 
 39 H       -8.4060    -1.2790    -0.3460 H     1 <1>   0.0800 
 40 H       -6.7230    -1.3280    -0.8250 H     1 <1>   0.0800 
 41 H       -8.1320    -0.5580    -2.6670 H     1 <1>   0.0800 
 42 H       -7.0180     0.6810    -2.1760 H     1 <1>   0.0800 
 43 H       -9.3200     1.5940    -2.5110 H     1 <1>   0.0800 
 44 H       -9.9350     0.4570    -1.3540 H     1 <1>   0.0800 
 45 H       -7.2100     2.9680    -1.7230 H     1 <1>   0.0800 
 46 H       -7.3800     3.6410    -0.1330 H     1 <1>   0.0800 
 47 H       -9.1070     4.2470    -2.4670 H     1 <1>   0.0800 
 48 H       -8.5310     5.3070    -1.1790 H     1 <1>   0.0800 
 49 H      -11.3730     5.7160    -0.7660 H     1 <1>   0.1500 
 50 H      -14.7470     3.4350     0.5690 H     1 <1>   0.1500 
 51 H      -11.9260     1.3080     2.9470 H     1 <1>   0.1500 
 52 H      -16.5700     2.5160     1.9130 H     1 <1>   0.1500 
 53 H      -13.7530     0.3880     4.2890 H     1 <1>   0.1500 
 54 H      -16.0840     0.9870     3.7790 H     1 <1>   0.1500 
@<TRIPOS>BOND
  1   1   2  ar  
  2   2   3  ar  
  3   2   4  1   
  4   4   5  1   
  5   4  28  1   
  6   4  29  1   
  7   5   6  1   
  8   5  30  1   
  9   5  31  1   
 10   6   7  1   
 11   6  32  1   
 12   6  33  1   
 13   7   8  1   
 14   7  34  1   
 15   7  35  1   
 16   8   9  1   
 17   8  10  1   
 18   8  36  1   
 19   9  11  1   
 20   9  37  1   
 21   9  38  1   
 22  10  12  1   
 23  10  39  1   
 24  10  40  1   
 25  11  13  1   
 26  11  14  1   
 27  11  15  1   
 28  12  14  1   
 29  12  41  1   
 30  12  42  1   
 31  13  16  ar  
 32  13  17  ar  
 33  14  43  1   
 34  14  44  1   
 35  15  18  1   
 36  15  45  1   
 37  15  46  1   
 38  16  19  ar  
 39  17  18  1   
 40  17  20  ar  
 41  18  47  1   
 42  18  48  1   
 43  19  21  ar  
 44  19  22  1   
 45  20  21  ar  
 46  20  49  1   
 47  22  23  ar  
 48  22  24  ar  
 49  23  25  ar  
 50  23  50  1   
 51  24  26  ar  
 52  24  51  1   
 53  25  27  ar  
 54  25  52  1   
 55  26  27  ar  
 56  26  53  1   
 57  27  54  1   
@<TRIPOS>SUBSTRUCTURE
  1 ****  13 GROUP 4 **** **** 0

# MOE 2024.06 (io_trps.svl 2023.06)
