@<TRIPOS>MOLECULE
NONAME
54 58 1 0 0 
SMALL
USER_CHARGES


@<TRIPOS>ATOM
  1 O       -1.0150     0.1240    -0.7640 O.2   1 <1>  -0.5700 
  2 C       -1.8600     0.7300    -0.1270 C.2   1 <1>   0.6160 
  3 N       -2.8650     0.0070     0.4790 N.am  1 <1>  -0.6600 
  4 C       -1.8200     2.1640    -0.1030 C.2   1 <1>   0.0290 
  5 C       -4.1060     0.5770     1.0430 C.3   1 <1>   0.1400 
  6 C       -2.9670    -1.4630     0.4360 C.3   1 <1>   0.1400 
  7 C       -1.7830     2.8450     1.1620 C.2   1 <1>   0.6160 
  8 C       -1.8070     2.9080    -1.2610 C.2   1 <1>  -0.1500 
  9 C       -5.1830    -0.4870     0.7930 C.3   1 <1>  -0.0800 
 10 C       -4.4580    -1.7370     0.2320 C.3   1 <1>  -0.0800 
 11 O       -1.7670     2.2920     2.2520 O.2   1 <1>  -0.5700 
 12 N       -1.7690     4.2180     1.1740 N.am  1 <1>  -0.5390 
 13 C       -1.7870     4.3130    -1.1830 C.2   1 <1>  -0.1380 
 14 C       -6.3810     0.0220    -0.0480 C.3   1 <1>   0.4240 
 15 C       -4.7690    -2.0230    -1.2490 C.3   1 <1>  -0.1600 
 16 C       -1.7700     4.9330     0.0120 C.2   1 <1>  -0.0290 
 17 C       -1.7730     5.3010    -2.3220 C.3   1 <1>  -0.0220 
 18 O       -5.9010     0.7280    -1.1390 O.3   1 <1>  -0.6800 
 19 C       -7.2910     0.9400     0.7960 C.ar  1 <1>  -0.1430 
 20 C       -7.1400    -1.1790    -0.6370 C.3   1 <1>  -0.1600 
 21 C       -6.2790    -2.0870    -1.5450 C.3   1 <1>  -0.1600 
 22 C       -1.7470     6.4320    -0.1030 C.3   1 <1>  -0.0220 
 23 C       -1.9200     6.6680    -1.6180 C.3   1 <1>  -0.1600 
 24 C       -8.0570     0.4040     1.8280 C.ar  1 <1>  -0.1500 
 25 C       -7.3720     2.3130     0.5740 C.ar  1 <1>  -0.1500 
 26 C       -8.8760     1.2050     2.6050 C.ar  1 <1>  -0.1500 
 27 C       -8.1890     3.1170     1.3500 C.ar  1 <1>  -0.1500 
 28 C       -8.9440     2.5640     2.3660 C.ar  1 <1>  -0.1500 
 29 H       -3.9740     0.7320     2.1010 H     1 <1>   0.0800 
 30 H       -4.3450     1.5210     0.5840 H     1 <1>   0.0800 
 31 H       -2.3640    -1.8830    -0.3510 H     1 <1>   0.0800 
 32 H       -2.6380    -1.8580     1.3820 H     1 <1>   0.0800 
 33 H       -1.8140     2.4320    -2.2270 H     1 <1>   0.1500 
 34 H       -5.5680    -0.7630     1.7580 H     1 <1>   0.0800 
 35 H       -4.7380    -2.6070     0.8020 H     1 <1>   0.0800 
 36 H       -1.7430     4.6470     2.0990 H     1 <1>   0.3700 
 37 H       -4.3150    -1.2580    -1.8560 H     1 <1>   0.0800 
 38 H       -4.3120    -2.9540    -1.5410 H     1 <1>   0.0800 
 39 H       -0.8360     5.2370    -2.8480 H     1 <1>   0.0800 
 40 H       -2.5870     5.1210    -3.0010 H     1 <1>   0.0800 
 41 H       -5.3090     0.1320    -1.6310 H     1 <1>   0.4000 
 42 H       -7.5030    -1.7810     0.1760 H     1 <1>   0.0800 
 43 H       -8.0030    -0.8270    -1.1740 H     1 <1>   0.0800 
 44 H       -6.6220    -3.1020    -1.4330 H     1 <1>   0.0800 
 45 H       -6.4380    -1.8120    -2.5740 H     1 <1>   0.0800 
 46 H       -2.5510     6.8770     0.4570 H     1 <1>   0.0800 
 47 H       -0.8010     6.8110     0.2430 H     1 <1>   0.0800 
 48 H       -2.9070     7.0540    -1.8040 H     1 <1>   0.0800 
 49 H       -1.1960     7.3730    -1.9870 H     1 <1>   0.0800 
 50 H       -8.0250    -0.6480     2.0440 H     1 <1>   0.1500 
 51 H       -6.7980     2.7760    -0.2090 H     1 <1>   0.1500 
 52 H       -9.4620     0.7700     3.3960 H     1 <1>   0.1500 
 53 H       -8.2350     4.1750     1.1580 H     1 <1>   0.1500 
 54 H       -9.5800     3.1890     2.9680 H     1 <1>   0.1500 
@<TRIPOS>BOND
  1   1   2  2   
  2   2   3  am  
  3   2   4  1   
  4   3   5  1   
  5   3   6  1   
  6   4   7  1   
  7   4   8  2   
  8   5   9  1   
  9   5  29  1   
 10   5  30  1   
 11   6  10  1   
 12   6  31  1   
 13   6  32  1   
 14   7  11  2   
 15   7  12  am  
 16   8  13  1   
 17   8  33  1   
 18   9  10  1   
 19   9  14  1   
 20   9  34  1   
 21  10  15  1   
 22  10  35  1   
 23  12  16  1   
 24  12  36  1   
 25  13  16  2   
 26  13  17  1   
 27  14  18  1   
 28  14  19  1   
 29  14  20  1   
 30  15  21  1   
 31  15  37  1   
 32  15  38  1   
 33  16  22  1   
 34  17  23  1   
 35  17  39  1   
 36  17  40  1   
 37  18  41  1   
 38  19  24  ar  
 39  19  25  ar  
 40  20  21  1   
 41  20  42  1   
 42  20  43  1   
 43  21  44  1   
 44  21  45  1   
 45  22  23  1   
 46  22  46  1   
 47  22  47  1   
 48  23  48  1   
 49  23  49  1   
 50  24  26  ar  
 51  24  50  1   
 52  25  27  ar  
 53  25  51  1   
 54  26  28  ar  
 55  26  52  1   
 56  27  28  ar  
 57  27  53  1   
 58  28  54  1   
@<TRIPOS>SUBSTRUCTURE
  1 ****   5 GROUP 4 **** **** 0

# MOE 2024.06 (io_trps.svl 2023.06)
