@<TRIPOS>MOLECULE
NONAME
44 45 1 0 0 
SMALL
USER_CHARGES


@<TRIPOS>ATOM
  1 N       -0.4700     0.5520     1.1230 N.2   1 <1>  -0.3380 
  2 N       -0.2030     1.8470     0.9850 N.2   1 <1>  -0.3380 
  3 C       -0.9750     0.1450     0.0120 C.2   1 <1>   0.0070 
  4 C       -0.5490     2.1790    -0.2120 C.2   1 <1>   0.0060 
  5 N       -1.0530     1.1340    -0.8770 N.pl3 1 <1>   0.0330 
  6 C       -1.4270    -1.2770    -0.2580 C.3   1 <1>  -0.0600 
  7 C       -0.3980     3.5890    -0.7620 C.3   1 <1>   0.5230 
  8 N        0.4980     4.3570     0.1560 N.4   1 <1>  -0.9590 
  9 C        0.2160     5.8300     0.3070 C.3   1 <1>   0.5030 
 10 C        1.9260     3.9930    -0.0970 C.3   1 <1>   0.3430 
 11 C        1.1480     6.3500     1.4310 C.3   1 <1>  -0.1600 
 12 C        0.4930     6.5460    -1.0500 C.3   1 <1>  -0.0220 
 13 C       -1.2710     6.0030     0.7430 C.3   1 <1>  -0.0220 
 14 C        2.8050     4.5020     1.0410 C.3   1 <1>  -0.1600 
 15 C        2.6350     6.0080     1.2530 C.3   1 <1>  -0.1600 
 16 C        0.1910     8.0380    -1.0890 C.2   1 <1>  -0.2880 
 17 C       -1.6360     7.3140     1.4350 C.2   1 <1>  -0.2880 
 18 C       -0.6700     8.6180    -1.9310 C.2   1 <1>  -0.3000 
 19 C       -2.4710     8.2320     0.9420 C.2   1 <1>  -0.3000 
 20 H       -1.4200     1.0650    -1.8300 H     1 <1>   0.2700 
 21 H       -1.2590    -1.8840     0.6140 H     1 <1>   0.0800 
 22 H       -0.8720    -1.6970    -1.0770 H     1 <1>   0.0800 
 23 H       -2.4760    -1.2970    -0.4900 H     1 <1>   0.0800 
 24 H       -1.3740     4.0410    -0.8070 H     1 <1>   0.0800 
 25 H        0.0180     3.5640    -1.7550 H     1 <1>   0.0800 
 26 H        0.2970     3.9310     1.0770 H     1 <1>   0.4500 
 27 H        2.2590     4.4190    -1.0300 H     1 <1>   0.0800 
 28 H        2.0260     2.9200    -0.1580 H     1 <1>   0.0800 
 29 H        0.8190     5.9380     2.3700 H     1 <1>   0.0800 
 30 H        1.0590     7.4180     1.5200 H     1 <1>   0.0800 
 31 H       -0.0950     6.0830    -1.8210 H     1 <1>   0.0800 
 32 H        1.5240     6.4300    -1.3250 H     1 <1>   0.0800 
 33 H       -1.5320     5.2180     1.4310 H     1 <1>   0.0800 
 34 H       -1.9080     5.9060    -0.1180 H     1 <1>   0.0800 
 35 H        3.8350     4.2860     0.8160 H     1 <1>   0.0800 
 36 H        2.5570     3.9710     1.9440 H     1 <1>   0.0800 
 37 H        3.1830     6.3120     2.1300 H     1 <1>   0.0800 
 38 H        3.0450     6.5470     0.4160 H     1 <1>   0.0800 
 39 H        0.7480     8.6170    -0.3700 H     1 <1>   0.1500 
 40 H       -1.1670     7.4450     2.3980 H     1 <1>   0.1500 
 41 H       -0.8650     9.6780    -1.9440 H     1 <1>   0.1500 
 42 H       -1.2510     8.1030    -2.6760 H     1 <1>   0.1500 
 43 H       -2.7230     9.1480     1.4510 H     1 <1>   0.1500 
 44 H       -2.9750     8.1590    -0.0070 H     1 <1>   0.1500 
@<TRIPOS>BOND
  1   1   2  1   
  2   1   3  2   
  3   2   4  2   
  4   3   5  1   
  5   3   6  1   
  6   4   5  1   
  7   4   7  1   
  8   5  20  1   
  9   6  21  1   
 10   6  22  1   
 11   6  23  1   
 12   7   8  1   
 13   7  24  1   
 14   7  25  1   
 15   8   9  1   
 16   8  10  1   
 17   8  26  1   
 18   9  11  1   
 19   9  12  1   
 20   9  13  1   
 21  10  14  1   
 22  10  27  1   
 23  10  28  1   
 24  11  15  1   
 25  11  29  1   
 26  11  30  1   
 27  12  16  1   
 28  12  31  1   
 29  12  32  1   
 30  13  17  1   
 31  13  33  1   
 32  13  34  1   
 33  14  15  1   
 34  14  35  1   
 35  14  36  1   
 36  15  37  1   
 37  15  38  1   
 38  16  18  2   
 39  16  39  1   
 40  17  19  2   
 41  17  40  1   
 42  18  41  1   
 43  18  42  1   
 44  19  43  1   
 45  19  44  1   
@<TRIPOS>SUBSTRUCTURE
  1 ****   8 GROUP 4 **** **** 0

# MOE 2024.06 (io_trps.svl 2023.06)
