@<TRIPOS>MOLECULE
NONAME
49 51 1 0 0 
SMALL
USER_CHARGES


@<TRIPOS>ATOM
  1 O       -0.4890     0.1140     1.0640 O.2   1 <1>  -0.5700 
  2 C       -1.4630     0.7870     0.7850 C.2   1 <1>   0.5440 
  3 N       -2.6490     0.1410     0.5200 N.am  1 <1>  -0.6600 
  4 C       -1.3460     2.2300     0.7190 C.ar  1 <1>   0.0860 
  5 C       -3.8460     0.7540    -0.1140 C.3   1 <1>   0.1400 
  6 C       -2.7630    -1.3400     0.5000 C.3   1 <1>   0.1400 
  7 C       -2.1640     3.0710     1.4750 C.ar  1 <1>  -0.1500 
  8 C       -0.3950     2.8290    -0.1060 C.ar  1 <1>  -0.1500 
  9 C       -4.8970    -0.3550    -0.0830 C.3   1 <1>   0.2000 
 10 C       -4.0720    -1.6370    -0.2410 C.3   1 <1>  -0.0800 
 11 C       -2.0520     4.4460     1.3900 C.ar  1 <1>  -0.1500 
 12 C       -0.2740     4.2040    -0.1960 C.ar  1 <1>  -0.1500 
 13 O       -5.4950    -0.3410     1.1690 O.3   1 <1>  -0.6800 
 14 C       -4.7700    -2.9310     0.2170 C.3   1 <1>  -0.0170 
 15 C       -1.1110     5.0260     0.5530 C.ar  1 <1>   0.0830 
 16 C       -3.9050    -4.1470    -0.0740 C.ar  1 <1>  -0.1430 
 17 O       -1.0660     6.3760     0.5250 O.3   1 <1>  -0.3630 
 18 C       -3.9000    -4.7540    -1.3140 C.ar  1 <1>  -0.1500 
 19 C       -3.0790    -4.7060     0.8800 C.ar  1 <1>  -0.1500 
 20 C       -0.1200     7.0710    -0.2540 C.3   1 <1>   0.1200 
 21 C       -3.0910    -5.8560    -1.5340 C.ar  1 <1>   0.1600 
 22 C       -2.3080    -5.8100     0.5570 C.ar  1 <1>   0.1600 
 23 C       -0.3310     8.5700    -0.0390 C.3   1 <1>  -0.1600 
 24 N       -2.2940    -6.3990    -0.6280 N.ar  1 <1>  -0.6200 
 25 C        0.6650     9.3980    -0.8570 C.3   1 <1>  -0.2400 
 26 H       -4.1860     1.6300     0.4090 H     1 <1>   0.0800 
 27 H       -3.6100     1.0090    -1.1320 H     1 <1>   0.0800 
 28 H       -1.9190    -1.7850    -0.0020 H     1 <1>   0.0800 
 29 H       -2.8000    -1.6980     1.5140 H     1 <1>   0.0800 
 30 H       -2.8900     2.6370     2.1390 H     1 <1>   0.1500 
 31 H        0.2590     2.1950    -0.6810 H     1 <1>   0.1500 
 32 H       -5.6610    -0.2380    -0.8310 H     1 <1>   0.0800 
 33 H       -3.8300    -1.7380    -1.2850 H     1 <1>   0.0800 
 34 H       -2.6900     5.0850     1.9740 H     1 <1>   0.1500 
 35 H        0.4720     4.6150    -0.8480 H     1 <1>   0.1500 
 36 H       -4.7910    -0.3070     1.8480 H     1 <1>   0.4000 
 37 H       -5.7100    -3.0310    -0.2970 H     1 <1>   0.0800 
 38 H       -4.9850    -2.8890     1.2710 H     1 <1>   0.0800 
 39 H       -4.5170    -4.3810    -2.1110 H     1 <1>   0.1500 
 40 H       -3.0250    -4.2960     1.8720 H     1 <1>   0.1500 
 41 H        0.8650     6.7760     0.0650 H     1 <1>   0.0800 
 42 H       -0.2730     6.8100    -1.2870 H     1 <1>   0.0800 
 43 H       -3.1010    -6.3170    -2.5070 H     1 <1>   0.1500 
 44 H       -1.6680    -6.2320     1.3130 H     1 <1>   0.1500 
 45 H       -1.3340     8.8310    -0.3310 H     1 <1>   0.0800 
 46 H       -0.2080     8.7970     1.0060 H     1 <1>   0.0800 
 47 H        0.5480     9.2000    -1.9080 H     1 <1>   0.0800 
 48 H        1.6760     9.1660    -0.5690 H     1 <1>   0.0800 
 49 H        0.4960    10.4470    -0.6870 H     1 <1>   0.0800 
@<TRIPOS>BOND
  1   1   2  2   
  2   2   3  am  
  3   2   4  1   
  4   3   5  1   
  5   3   6  1   
  6   4   7  ar  
  7   4   8  ar  
  8   5   9  1   
  9   5  26  1   
 10   5  27  1   
 11   6  10  1   
 12   6  28  1   
 13   6  29  1   
 14   7  11  ar  
 15   7  30  1   
 16   8  12  ar  
 17   8  31  1   
 18   9  10  1   
 19   9  13  1   
 20   9  32  1   
 21  10  14  1   
 22  10  33  1   
 23  11  15  ar  
 24  11  34  1   
 25  12  15  ar  
 26  12  35  1   
 27  13  36  1   
 28  14  16  1   
 29  14  37  1   
 30  14  38  1   
 31  15  17  1   
 32  16  18  ar  
 33  16  19  ar  
 34  17  20  1   
 35  18  21  ar  
 36  18  39  1   
 37  19  22  ar  
 38  19  40  1   
 39  20  23  1   
 40  20  41  1   
 41  20  42  1   
 42  21  24  ar  
 43  21  43  1   
 44  22  24  ar  
 45  22  44  1   
 46  23  25  1   
 47  23  45  1   
 48  23  46  1   
 49  25  47  1   
 50  25  48  1   
 51  25  49  1   
@<TRIPOS>SUBSTRUCTURE
  1 ****   3 GROUP 4 **** **** 0

# MOE 2024.06 (io_trps.svl 2023.06)
