@<TRIPOS>MOLECULE
NONAME
43 43 1 0 0 
SMALL
USER_CHARGES


@<TRIPOS>ATOM
  1 F       -2.1050    -1.7790     3.4320 F     1 <1>  -0.1900 
  2 C       -2.4720    -1.8710     2.1810 C.ar  1 <1>   0.1900 
  3 C       -2.8800    -3.0980     1.6950 C.ar  1 <1>  -0.1500 
  4 C       -2.4410    -0.7360     1.3960 C.ar  1 <1>  -0.1500 
  5 C       -3.2800    -3.1970     0.3670 C.ar  1 <1>  -0.1440 
  6 C       -2.8390    -0.8340     0.0740 C.ar  1 <1>  -0.1500 
  7 C       -3.2610    -2.0600    -0.4410 C.ar  1 <1>   0.0830 
  8 C       -3.7460    -4.5270    -0.2280 C.3   1 <1>   0.4600 
  9 O       -3.6810    -2.2020    -1.7240 O.3   1 <1>  -0.3630 
 10 N       -5.1910    -4.7750     0.1840 N.4   1 <1>  -0.9590 
 11 C       -2.8380    -5.7220     0.1620 C.2   1 <1>   0.9060 
 12 C       -3.2740    -1.2870    -2.7210 C.3   1 <1>   0.0400 
 13 C       -5.6710    -6.0340    -0.4540 C.3   1 <1>   0.3430 
 14 C       -6.0950    -3.6150    -0.0500 C.3   1 <1>   0.2630 
 15 O       -3.0180    -6.2320     1.2800 O.co2 1 <1>  -0.9000 
 16 O       -2.1310    -6.2590    -0.6940 O.co2 1 <1>  -0.9000 
 17 C       -6.1980    -6.9840     0.6060 C.3   1 <1>  -0.0990 
 18 C       -6.5000    -8.2860    -0.0910 C.2   1 <1>   0.5690 
 19 O       -7.6430    -8.4400    -0.4510 O.2   1 <1>  -0.5700 
 20 N       -5.5110    -9.2020    -0.3530 N.am  1 <1>  -0.6600 
 21 C       -4.0690    -9.0380     0.0200 C.3   1 <1>   0.0600 
 22 C       -5.7970   -10.4550    -1.1060 C.3   1 <1>   0.0600 
 23 H       -2.8710    -3.9510     2.3530 H     1 <1>   0.1500 
 24 H       -2.1130     0.1980     1.8150 H     1 <1>   0.1500 
 25 H       -2.8200     0.0510    -0.5340 H     1 <1>   0.1500 
 26 H       -3.6940    -4.4570    -1.2990 H     1 <1>   0.0800 
 27 H       -5.0800    -4.9800     1.1920 H     1 <1>   0.4500 
 28 H       -3.5590    -1.6850    -3.6780 H     1 <1>   0.0800 
 29 H       -2.2040    -1.1750    -2.6790 H     1 <1>   0.0800 
 30 H       -3.7650    -0.3440    -2.5580 H     1 <1>   0.0800 
 31 H       -4.8600    -6.5210    -0.9730 H     1 <1>   0.0800 
 32 H       -6.4450    -5.8250    -1.1750 H     1 <1>   0.0800 
 33 H       -6.1010    -3.3570    -1.0960 H     1 <1>   0.0800 
 34 H       -5.7560    -2.7590     0.5110 H     1 <1>   0.0800 
 35 H       -7.0990    -3.8550     0.2590 H     1 <1>   0.0800 
 36 H       -7.1030    -6.5960     1.0340 H     1 <1>   0.0800 
 37 H       -5.4830    -7.1400     1.3900 H     1 <1>   0.0800 
 38 H       -3.9630    -8.5930     0.9930 H     1 <1>   0.0800 
 39 H       -3.5660    -8.4210    -0.7040 H     1 <1>   0.0800 
 40 H       -3.5800    -9.9960     0.0470 H     1 <1>   0.0800 
 41 H       -6.8330   -10.5060    -1.3950 H     1 <1>   0.0800 
 42 H       -5.5720   -11.3070    -0.4900 H     1 <1>   0.0800 
 43 H       -5.1910   -10.4900    -1.9950 H     1 <1>   0.0800 
@<TRIPOS>BOND
  1   1   2  1   
  2   2   3  ar  
  3   2   4  ar  
  4   3   5  ar  
  5   3  23  1   
  6   4   6  ar  
  7   4  24  1   
  8   5   7  ar  
  9   5   8  1   
 10   6   7  ar  
 11   6  25  1   
 12   7   9  1   
 13   8  10  1   
 14   8  11  1   
 15   8  26  1   
 16   9  12  1   
 17  10  13  1   
 18  10  14  1   
 19  10  27  1   
 20  11  15  ar  
 21  11  16  ar  
 22  12  28  1   
 23  12  29  1   
 24  12  30  1   
 25  13  17  1   
 26  13  31  1   
 27  13  32  1   
 28  14  33  1   
 29  14  34  1   
 30  14  35  1   
 31  17  18  1   
 32  17  36  1   
 33  17  37  1   
 34  18  19  2   
 35  18  20  am  
 36  20  21  1   
 37  20  22  1   
 38  21  38  1   
 39  21  39  1   
 40  21  40  1   
 41  22  41  1   
 42  22  42  1   
 43  22  43  1   
@<TRIPOS>SUBSTRUCTURE
  1 ****   8 GROUP 4 **** **** 0

# MOE 2024.06 (io_trps.svl 2023.06)
