@<TRIPOS>MOLECULE
NONAME
45 46 1 0 0 
SMALL
USER_CHARGES


@<TRIPOS>ATOM
  1 S       -0.0910     0.1390     1.2050 S.o2  1 <1>   1.3330 
  2 O       -0.9830     0.1800     2.3410 O.2   1 <1>  -0.6500 
  3 O        1.2480     0.6690     1.2920 O.2   1 <1>  -0.6500 
  4 N       -0.8760     0.8590    -0.1180 N.am  1 <1>  -0.8490 
  5 C        0.0010    -1.5830     0.6990 C.3   1 <1>  -0.0550 
  6 C       -1.6800     2.0190     0.2900 C.3   1 <1>   0.1160 
  7 C        0.0520     1.2720    -1.1800 C.3   1 <1>   0.1160 
  8 C       -1.3870    -2.2250     0.4970 C.3   1 <1>  -0.1600 
  9 C       -1.2850    -3.7080     0.1420 C.3   1 <1>   0.3430 
 10 N       -2.6510    -4.3220     0.0970 N.4   1 <1>  -0.9590 
 11 C       -2.5390    -5.8270     0.1440 C.3   1 <1>   0.5110 
 12 C       -3.4040    -3.8490    -1.1190 C.3   1 <1>   0.2630 
 13 C       -3.8710    -6.5820     0.3060 C.2   1 <1>   0.1820 
 14 N       -4.0380    -7.9110    -0.0740 N.pl3 1 <1>  -0.6290 
 15 C       -5.0470    -6.1550     0.8170 C.2   1 <1>   0.2000 
 16 C       -5.3220    -8.2530     0.2180 C.cat 1 <1>   0.7910 
 17 C       -3.1980    -8.8600    -0.6330 C.2   1 <1>   0.2290 
 18 N       -5.9380    -7.1900     0.7540 N.pl3 1 <1>  -0.7000 
 19 C       -5.8120    -9.5430    -0.0430 C.2   1 <1>  -0.1410 
 20 C       -3.6560   -10.1200    -0.8940 C.2   1 <1>  -0.1500 
 21 C       -4.9860   -10.4790    -0.5990 C.2   1 <1>  -0.1500 
 22 H        0.5360    -2.1240     1.4570 H     1 <1>   0.0800 
 23 H        0.5670    -1.6480    -0.2100 H     1 <1>   0.0800 
 24 H       -2.4380     1.7180     0.9930 H     1 <1>   0.0800 
 25 H       -2.1690     2.4560    -0.5640 H     1 <1>   0.0800 
 26 H       -1.0550     2.7630     0.7580 H     1 <1>   0.0800 
 27 H        0.6460     0.4360    -1.5050 H     1 <1>   0.0800 
 28 H        0.7140     2.0450    -0.8240 H     1 <1>   0.0800 
 29 H       -0.4970     1.6490    -2.0270 H     1 <1>   0.0800 
 30 H       -1.8940    -1.6850    -0.2830 H     1 <1>   0.0800 
 31 H       -1.9460    -2.1100     1.4110 H     1 <1>   0.0800 
 32 H       -0.6890    -4.1980     0.8970 H     1 <1>   0.0800 
 33 H       -0.7870    -3.8250    -0.8080 H     1 <1>   0.0800 
 34 H       -3.1340    -3.9860     0.9440 H     1 <1>   0.4500 
 35 H       -1.8930    -6.1150     0.9580 H     1 <1>   0.0800 
 36 H       -2.0740    -6.1640    -0.7680 H     1 <1>   0.0800 
 37 H       -2.8740    -4.1170    -2.0200 H     1 <1>   0.0800 
 38 H       -3.5170    -2.7770    -1.1000 H     1 <1>   0.0800 
 39 H       -4.3880    -4.2880    -1.1580 H     1 <1>   0.0800 
 40 H       -5.3170    -5.1920     1.2250 H     1 <1>   0.1500 
 41 H       -2.1780    -8.5920    -0.8590 H     1 <1>   0.1500 
 42 H       -6.9150    -7.1930     1.0710 H     1 <1>   0.4500 
 43 H       -6.8340    -9.7710     0.2000 H     1 <1>   0.1500 
 44 H       -3.0100   -10.8650    -1.3310 H     1 <1>   0.1500 
 45 H       -5.3240   -11.4820    -0.8160 H     1 <1>   0.1500 
@<TRIPOS>BOND
  1   1   2  2   
  2   1   3  2   
  3   1   4  am  
  4   1   5  1   
  5   4   6  1   
  6   4   7  1   
  7   5   8  1   
  8   5  22  1   
  9   5  23  1   
 10   6  24  1   
 11   6  25  1   
 12   6  26  1   
 13   7  27  1   
 14   7  28  1   
 15   7  29  1   
 16   8   9  1   
 17   8  30  1   
 18   8  31  1   
 19   9  10  1   
 20   9  32  1   
 21   9  33  1   
 22  10  11  1   
 23  10  12  1   
 24  10  34  1   
 25  11  13  1   
 26  11  35  1   
 27  11  36  1   
 28  12  37  1   
 29  12  38  1   
 30  12  39  1   
 31  13  14  1   
 32  13  15  2   
 33  14  16  ar  
 34  14  17  1   
 35  15  18  1   
 36  15  40  1   
 37  16  18  ar  
 38  16  19  1   
 39  17  20  2   
 40  17  41  1   
 41  18  42  1   
 42  19  21  2   
 43  19  43  1   
 44  20  21  1   
 45  20  44  1   
 46  21  45  1   
@<TRIPOS>SUBSTRUCTURE
  1 ****  10 GROUP 4 **** **** 0

# MOE 2024.06 (io_trps.svl 2023.06)
