@<TRIPOS>MOLECULE
NONAME
45 47 1 0 0 
SMALL
USER_CHARGES


@<TRIPOS>ATOM
  1 O        0.9510     0.1060    -0.4400 O.3   1 <1>  -0.2800 
  2 C        1.5460     1.0990     0.1360 C.2   1 <1>   0.2980 
  3 C        0.9770    -0.8240     0.4600 C.2   1 <1>   0.2980 
  4 N        1.9250     0.8200     1.3240 N.2   1 <1>  -0.3380 
  5 C        1.7380     2.4260    -0.5870 C.3   1 <1>   0.5230 
  6 N        1.5540    -0.4410     1.5340 N.2   1 <1>  -0.3380 
  7 C        0.3670    -2.1770     0.1740 C.3   1 <1>  -0.0600 
  8 N        2.7750     3.2830     0.0910 N.4   1 <1>  -0.9590 
  9 C        2.5530     4.7290    -0.1750 C.3   1 <1>   0.4230 
 10 C        4.1570     2.7600    -0.1970 C.3   1 <1>   0.3430 
 11 C        2.8370     5.0880    -1.6360 C.3   1 <1>  -0.2400 
 12 C        3.4080     5.5670     0.7690 C.3   1 <1>  -0.2400 
 13 C        4.9650     2.5150     1.0780 C.3   1 <1>   0.0210 
 14 C        6.3090     1.9580     0.6710 C.2   1 <1>  -0.1810 
 15 C        7.3280     2.6940     0.0240 C.ar  1 <1>   0.0000 
 16 C        6.7510     0.6890     0.8290 C.2   1 <1>  -0.3020 
 17 C        8.3700     1.7990    -0.1990 C.ar  1 <1>  -0.1520 
 18 C        7.4690     4.0260    -0.3860 C.ar  1 <1>  -0.1500 
 19 N        8.0080     0.5770     0.3060 N.pl3 1 <1>   0.0330 
 20 C        9.5420     2.2020    -0.8420 C.ar  1 <1>  -0.1500 
 21 C        8.6250     4.4230    -1.0190 C.ar  1 <1>  -0.1500 
 22 C        9.6600     3.5100    -1.2500 C.ar  1 <1>  -0.1500 
 23 H        0.7900     2.9370    -0.5970 H     1 <1>   0.0800 
 24 H        2.0280     2.2360    -1.6070 H     1 <1>   0.0800 
 25 H        0.8590    -2.6300    -0.6670 H     1 <1>   0.0800 
 26 H       -0.6790    -2.0670    -0.0450 H     1 <1>   0.0800 
 27 H        0.4780    -2.8170     1.0310 H     1 <1>   0.0800 
 28 H        2.6140     3.1240     1.0980 H     1 <1>   0.4500 
 29 H        1.5190     4.9600     0.0320 H     1 <1>   0.0800 
 30 H        4.7000     3.4460    -0.8250 H     1 <1>   0.0800 
 31 H        4.0930     1.8220    -0.7250 H     1 <1>   0.0800 
 32 H        3.8740     4.9620    -1.8880 H     1 <1>   0.0800 
 33 H        2.5960     6.1250    -1.7940 H     1 <1>   0.0800 
 34 H        2.2310     4.5140    -2.3110 H     1 <1>   0.0800 
 35 H        4.4550     5.4730     0.5470 H     1 <1>   0.0800 
 36 H        3.2270     5.2930     1.7930 H     1 <1>   0.0800 
 37 H        3.1460     6.6050     0.6580 H     1 <1>   0.0800 
 38 H        4.4680     1.7970     1.7050 H     1 <1>   0.0800 
 39 H        5.1160     3.4230     1.6310 H     1 <1>   0.0800 
 40 H        6.2530    -0.1520     1.2820 H     1 <1>   0.1500 
 41 H        6.6820     4.7290    -0.2000 H     1 <1>   0.1500 
 42 H        8.5950    -0.2640     0.2950 H     1 <1>   0.2700 
 43 H       10.3360     1.4960    -1.0110 H     1 <1>   0.1500 
 44 H        8.7500     5.4420    -1.3410 H     1 <1>   0.1500 
 45 H       10.5540     3.8460    -1.7470 H     1 <1>   0.1500 
@<TRIPOS>BOND
  1   1   2  1   
  2   1   3  1   
  3   2   4  2   
  4   2   5  1   
  5   3   6  2   
  6   3   7  1   
  7   4   6  1   
  8   5   8  1   
  9   5  23  1   
 10   5  24  1   
 11   7  25  1   
 12   7  26  1   
 13   7  27  1   
 14   8   9  1   
 15   8  10  1   
 16   8  28  1   
 17   9  11  1   
 18   9  12  1   
 19   9  29  1   
 20  10  13  1   
 21  10  30  1   
 22  10  31  1   
 23  11  32  1   
 24  11  33  1   
 25  11  34  1   
 26  12  35  1   
 27  12  36  1   
 28  12  37  1   
 29  13  14  1   
 30  13  38  1   
 31  13  39  1   
 32  14  15  1   
 33  14  16  2   
 34  15  17  ar  
 35  15  18  ar  
 36  16  19  1   
 37  16  40  1   
 38  17  19  1   
 39  17  20  ar  
 40  18  21  ar  
 41  18  41  1   
 42  19  42  1   
 43  20  22  ar  
 44  20  43  1   
 45  21  22  ar  
 46  21  44  1   
 47  22  45  1   
@<TRIPOS>SUBSTRUCTURE
  1 ****  10 GROUP 4 **** **** 0

# MOE 2024.06 (io_trps.svl 2023.06)
