@<TRIPOS>MOLECULE
NONAME
48 51 1 0 0 
SMALL
USER_CHARGES


@<TRIPOS>ATOM
  1 CL      -0.6640    -0.8490     1.3900 Cl    1 <1>  -0.1230 
  2 C       -2.0530     0.1570     1.0080 C.2   1 <1>   0.1230 
  3 C       -3.0700    -0.1500     0.0970 C.2   1 <1>   0.2030 
  4 C       -2.3370     1.3520     1.5560 C.2   1 <1>  -0.3320 
  5 N       -3.9610     0.8350     0.1030 N.2   1 <1>  -0.7070 
  6 C       -3.0920    -1.3620    -0.7110 C.2   1 <1>   0.7160 
  7 N       -3.4960     1.7390     0.9840 N.pl3 1 <1>   0.3000 
  8 C       -1.5810     2.1640     2.5950 C.3   1 <1>  -0.0600 
  9 O       -2.0640    -1.7400    -1.2510 O.2   1 <1>  -0.5700 
 10 N       -4.2370    -2.1250    -0.8980 N.am  1 <1>  -0.6600 
 11 C       -4.3120    -3.2100    -1.9160 C.3   1 <1>   0.1400 
 12 C       -5.4980    -1.9380    -0.1290 C.3   1 <1>   0.1400 
 13 C       -4.6590    -4.5310    -1.2270 C.3   1 <1>  -0.1600 
 14 C       -5.8560    -3.2490     0.5760 C.3   1 <1>  -0.1600 
 15 C       -5.9540    -4.4270    -0.4080 C.3   1 <1>   0.4240 
 16 O       -6.9630    -4.1320    -1.3460 O.3   1 <1>  -0.5600 
 17 C       -6.2330    -5.7540     0.3340 C.ar  1 <1>  -0.1430 
 18 C       -8.2800    -4.4110    -0.9860 C.3   1 <1>   0.1200 
 19 C       -7.4110    -6.4630     0.1230 C.ar  1 <1>  -0.1430 
 20 C       -5.3060    -6.2640     1.2380 C.ar  1 <1>  -0.1500 
 21 C       -8.4420    -5.9210    -0.8480 C.3   1 <1>  -0.0170 
 22 C       -7.6510    -7.6540     0.7900 C.ar  1 <1>  -0.1500 
 23 C       -5.5450    -7.4500     1.9060 C.ar  1 <1>  -0.1500 
 24 C       -6.7150    -8.1550     1.6880 C.ar  1 <1>   0.0830 
 25 O       -6.8720    -9.3110     2.3810 O.3   1 <1>  -0.3620 
 26 C       -8.0180   -10.1160     2.2160 C.3   1 <1>   0.0400 
 27 H       -3.9910     2.6200     1.1770 H     1 <1>   0.2700 
 28 H       -0.6880     1.6460     2.8960 H     1 <1>   0.0800 
 29 H       -2.1930     2.3210     3.4650 H     1 <1>   0.0800 
 30 H       -1.2980     3.1190     2.1880 H     1 <1>   0.0800 
 31 H       -3.3800    -3.3120    -2.4440 H     1 <1>   0.0800 
 32 H       -5.0730    -2.9610    -2.6370 H     1 <1>   0.0800 
 33 H       -6.2840    -1.6540    -0.8080 H     1 <1>   0.0800 
 34 H       -5.3960    -1.1630     0.6080 H     1 <1>   0.0800 
 35 H       -3.8360    -4.8000    -0.5930 H     1 <1>   0.0800 
 36 H       -4.7690    -5.3080    -1.9610 H     1 <1>   0.0800 
 37 H       -6.7780    -3.1370     1.1120 H     1 <1>   0.0800 
 38 H       -5.0940    -3.4530     1.3040 H     1 <1>   0.0800 
 39 H       -8.9210    -4.0330    -1.7630 H     1 <1>   0.0800 
 40 H       -8.5100    -3.9100    -0.0630 H     1 <1>   0.0800 
 41 H       -4.3870    -5.7410     1.4320 H     1 <1>   0.1500 
 42 H       -8.3120    -6.3840    -1.8100 H     1 <1>   0.0800 
 43 H       -9.4350    -6.1390    -0.4980 H     1 <1>   0.0800 
 44 H       -8.5670    -8.1790     0.6020 H     1 <1>   0.1500 
 45 H       -4.8240    -7.8390     2.6020 H     1 <1>   0.1500 
 46 H       -7.9160   -10.9750     2.8530 H     1 <1>   0.0800 
 47 H       -8.0790   -10.4280     1.1880 H     1 <1>   0.0800 
 48 H       -8.8860    -9.5490     2.5010 H     1 <1>   0.0800 
@<TRIPOS>BOND
  1   1   2  1   
  2   2   3  1   
  3   2   4  2   
  4   3   5  2   
  5   3   6  1   
  6   4   7  1   
  7   4   8  1   
  8   5   7  1   
  9   6   9  2   
 10   6  10  am  
 11   7  27  1   
 12   8  28  1   
 13   8  29  1   
 14   8  30  1   
 15  10  11  1   
 16  10  12  1   
 17  11  13  1   
 18  11  31  1   
 19  11  32  1   
 20  12  14  1   
 21  12  33  1   
 22  12  34  1   
 23  13  15  1   
 24  13  35  1   
 25  13  36  1   
 26  14  15  1   
 27  14  37  1   
 28  14  38  1   
 29  15  16  1   
 30  15  17  1   
 31  16  18  1   
 32  17  19  ar  
 33  17  20  ar  
 34  18  21  1   
 35  18  39  1   
 36  18  40  1   
 37  19  21  1   
 38  19  22  ar  
 39  20  23  ar  
 40  20  41  1   
 41  21  42  1   
 42  21  43  1   
 43  22  24  ar  
 44  22  44  1   
 45  23  24  ar  
 46  23  45  1   
 47  24  25  1   
 48  25  26  1   
 49  26  46  1   
 50  26  47  1   
 51  26  48  1   
@<TRIPOS>SUBSTRUCTURE
  1 ****  14 GROUP 4 **** **** 0

# MOE 2024.06 (io_trps.svl 2023.06)
