@<TRIPOS>MOLECULE
NONAME
40 42 1 0 0 
SMALL
USER_CHARGES


@<TRIPOS>ATOM
  1 O        1.4960     0.1370     0.6330 O.3   1 <1>  -0.0190 
  2 N        0.8700    -0.6760     1.4300 N.2   1 <1>  -0.4100 
  3 C        1.7390    -0.5860    -0.4330 C.2   1 <1>   0.2980 
  4 C        0.7830    -1.7910     0.8290 C.2   1 <1>   0.3350 
  5 N        1.3190    -1.7880    -0.3870 N.2   1 <1>  -0.5650 
  6 C        2.4730     0.0530    -1.5910 C.3   1 <1>  -0.0600 
  7 C        0.1060    -3.0420     1.3850 C.3   1 <1>   0.5240 
  8 N       -0.6610    -3.7620     0.3050 N.4   1 <1>  -0.9590 
  9 C       -2.0870    -3.3340     0.2240 C.3   1 <1>   0.4230 
 10 C       -0.4980    -5.2420     0.4380 C.3   1 <1>   0.2630 
 11 C       -2.8210    -4.0180    -0.9280 C.3   1 <1>  -0.1600 
 12 C       -2.2440    -1.8460    -0.0850 C.3   1 <1>  -0.1600 
 13 C       -4.0050    -3.0990    -1.2510 C.3   1 <1>  -0.0800 
 14 C       -3.6380    -1.7110    -0.7050 C.3   1 <1>  -0.0800 
 15 C       -5.3140    -3.5060    -0.5560 C.3   1 <1>  -0.1600 
 16 C       -4.7330    -1.3370     0.3050 C.3   1 <1>  -0.1600 
 17 C       -5.9250    -2.1910    -0.0980 C.3   1 <1>   0.2000 
 18 O       -6.7570    -2.3960     0.9790 O.3   1 <1>  -0.6800 
 19 H        2.5990    -0.6570    -2.3880 H     1 <1>   0.0800 
 20 H        3.4410     0.3890    -1.2660 H     1 <1>   0.0800 
 21 H        1.9140     0.8950    -1.9570 H     1 <1>   0.0800 
 22 H       -0.5450    -2.7690     2.1980 H     1 <1>   0.0800 
 23 H        0.8800    -3.6830     1.7710 H     1 <1>   0.0800 
 24 H       -0.1990    -3.4510    -0.5690 H     1 <1>   0.4500 
 25 H       -2.6020    -3.5560     1.1450 H     1 <1>   0.0800 
 26 H       -0.9670    -5.5930     1.3430 H     1 <1>   0.0800 
 27 H        0.5480    -5.5040     0.4650 H     1 <1>   0.0800 
 28 H       -0.9500    -5.7470    -0.4010 H     1 <1>   0.0800 
 29 H       -2.1840    -4.0610    -1.7940 H     1 <1>   0.0800 
 30 H       -3.1480    -5.0110    -0.6740 H     1 <1>   0.0800 
 31 H       -2.1360    -1.2270     0.7890 H     1 <1>   0.0800 
 32 H       -1.5230    -1.5460    -0.8260 H     1 <1>   0.0800 
 33 H       -4.1680    -3.0470    -2.3160 H     1 <1>   0.0800 
 34 H       -3.6300    -0.9880    -1.5060 H     1 <1>   0.0800 
 35 H       -5.1140    -4.1290     0.2980 H     1 <1>   0.0800 
 36 H       -5.9740    -4.0220    -1.2310 H     1 <1>   0.0800 
 37 H       -4.9750    -0.2890     0.2520 H     1 <1>   0.0800 
 38 H       -4.4290    -1.5860     1.3060 H     1 <1>   0.0800 
 39 H       -6.4870    -1.7260    -0.8920 H     1 <1>   0.0800 
 40 H       -6.2750    -2.8030     1.7200 H     1 <1>   0.4000 
@<TRIPOS>BOND
  1   1   2  1   
  2   1   3  1   
  3   2   4  2   
  4   3   5  2   
  5   3   6  1   
  6   4   5  1   
  7   4   7  1   
  8   6  19  1   
  9   6  20  1   
 10   6  21  1   
 11   7   8  1   
 12   7  22  1   
 13   7  23  1   
 14   8   9  1   
 15   8  10  1   
 16   8  24  1   
 17   9  11  1   
 18   9  12  1   
 19   9  25  1   
 20  10  26  1   
 21  10  27  1   
 22  10  28  1   
 23  11  13  1   
 24  11  29  1   
 25  11  30  1   
 26  12  14  1   
 27  12  31  1   
 28  12  32  1   
 29  13  14  1   
 30  13  15  1   
 31  13  33  1   
 32  14  16  1   
 33  14  34  1   
 34  15  17  1   
 35  15  35  1   
 36  15  36  1   
 37  16  17  1   
 38  16  37  1   
 39  16  38  1   
 40  17  18  1   
 41  17  39  1   
 42  18  40  1   
@<TRIPOS>SUBSTRUCTURE
  1 ****  12 GROUP 4 **** **** 0

# MOE 2024.06 (io_trps.svl 2023.06)
