@<TRIPOS>MOLECULE
NONAME
50 53 1 0 0 
SMALL
USER_CHARGES


@<TRIPOS>ATOM
  1 S        0.2290    -0.0550    -1.2390 S.o2  1 <1>   1.5760 
  2 O       -0.5680     0.4080    -2.3520 O.2   1 <1>  -0.6500 
  3 O        1.4060    -0.8640    -1.4620 O.2   1 <1>  -0.6500 
  4 N       -0.8070    -0.8890    -0.1950 N.am  1 <1>  -0.8490 
  5 N        0.6610     1.2530    -0.2660 N.am  1 <1>  -0.8490 
  6 C       -1.0860    -2.2310    -0.7290 C.3   1 <1>   0.1960 
  7 C       -2.0360    -0.1060     0.0440 C.3   1 <1>   0.1960 
  8 C        1.5450     0.8430     0.8290 C.3   1 <1>   0.1960 
  9 C        1.2750     2.3140    -1.0660 C.3   1 <1>   0.1960 
 10 C       -1.5770    -3.2070     0.3460 C.3   1 <1>   0.0960 
 11 C       -2.7690    -0.5450     1.3120 C.3   1 <1>   0.0200 
 12 C        1.8000     2.0230     1.7710 C.3   1 <1>  -0.1600 
 13 C        1.5320     3.5510    -0.1980 C.3   1 <1>  -0.1600 
 14 N       -2.9950    -2.9730     0.6880 N.pl3 1 <1>   0.0480 
 15 C       -3.5410    -1.8310     1.1060 C.2   1 <1>   0.0070 
 16 C        2.4030     3.2150     1.0180 C.3   1 <1>  -0.1600 
 17 C       -4.0420    -3.8100     0.6540 C.2   1 <1>   0.0060 
 18 N       -4.8050    -1.9530     1.3070 N.2   1 <1>  -0.3380 
 19 N       -5.1250    -3.2130     1.0190 N.2   1 <1>  -0.3380 
 20 C       -3.9470    -5.2760     0.2390 C.3   1 <1>   0.1630 
 21 C       -5.2730    -6.0310     0.2430 C.ar  1 <1>  -0.1440 
 22 C       -5.9560    -6.2520     1.4330 C.ar  1 <1>   0.1600 
 23 C       -5.8120    -6.5260    -0.9290 C.ar  1 <1>  -0.1500 
 24 N       -7.0860    -6.9330     1.5470 N.ar  1 <1>  -0.6200 
 25 C       -6.9970    -7.2230    -0.8300 C.ar  1 <1>  -0.1500 
 26 C       -7.5810    -7.3970     0.4120 C.ar  1 <1>   0.1600 
 27 H       -0.1720    -2.6500    -1.1170 H     1 <1>   0.0800 
 28 H       -1.7850    -2.1780    -1.5480 H     1 <1>   0.0800 
 29 H       -2.6950    -0.1640    -0.8080 H     1 <1>   0.0800 
 30 H       -1.7790     0.9310     0.1760 H     1 <1>   0.0800 
 31 H        2.4810     0.4820     0.4330 H     1 <1>   0.0800 
 32 H        1.0860     0.0430     1.3860 H     1 <1>   0.0800 
 33 H        0.6150     2.5890    -1.8730 H     1 <1>   0.0800 
 34 H        2.2010     1.9620    -1.4930 H     1 <1>   0.0800 
 35 H       -0.9760    -3.1050     1.2310 H     1 <1>   0.0800 
 36 H       -1.4690    -4.2090    -0.0210 H     1 <1>   0.0800 
 37 H       -3.4700     0.2250     1.5820 H     1 <1>   0.0800 
 38 H       -2.0720    -0.6490     2.1240 H     1 <1>   0.0800 
 39 H        2.4680     1.7160     2.5560 H     1 <1>   0.0800 
 40 H        0.8680     2.3110     2.2250 H     1 <1>   0.0800 
 41 H        0.5850     3.9440     0.1290 H     1 <1>   0.0800 
 42 H        2.0140     4.3080    -0.7910 H     1 <1>   0.0800 
 43 H        3.3960     2.9640     0.6880 H     1 <1>   0.0800 
 44 H        2.4710     4.0680     1.6710 H     1 <1>   0.0800 
 45 H       -3.2740    -5.7780     0.9100 H     1 <1>   0.0800 
 46 H       -3.5210    -5.3230    -0.7460 H     1 <1>   0.0800 
 47 H       -5.5490    -5.8450     2.3430 H     1 <1>   0.1500 
 48 H       -5.3390    -6.3790    -1.8840 H     1 <1>   0.1500 
 49 H       -7.4680    -7.6290    -1.7070 H     1 <1>   0.1500 
 50 H       -8.5060    -7.9450     0.4760 H     1 <1>   0.1500 
@<TRIPOS>BOND
  1   1   2  2   
  2   1   3  2   
  3   1   4  am  
  4   1   5  am  
  5   4   6  1   
  6   4   7  1   
  7   5   8  1   
  8   5   9  1   
  9   6  10  1   
 10   6  27  1   
 11   6  28  1   
 12   7  11  1   
 13   7  29  1   
 14   7  30  1   
 15   8  12  1   
 16   8  31  1   
 17   8  32  1   
 18   9  13  1   
 19   9  33  1   
 20   9  34  1   
 21  10  14  1   
 22  10  35  1   
 23  10  36  1   
 24  11  15  1   
 25  11  37  1   
 26  11  38  1   
 27  12  16  1   
 28  12  39  1   
 29  12  40  1   
 30  13  16  1   
 31  13  41  1   
 32  13  42  1   
 33  14  15  1   
 34  14  17  1   
 35  15  18  2   
 36  16  43  1   
 37  16  44  1   
 38  17  19  2   
 39  17  20  1   
 40  18  19  1   
 41  20  21  1   
 42  20  45  1   
 43  20  46  1   
 44  21  22  ar  
 45  21  23  ar  
 46  22  24  ar  
 47  22  47  1   
 48  23  25  ar  
 49  23  48  1   
 50  24  26  ar  
 51  25  26  ar  
 52  25  49  1   
 53  26  50  1   
@<TRIPOS>SUBSTRUCTURE
  1 ****  14 GROUP 4 **** **** 0

# MOE 2024.06 (io_trps.svl 2023.06)
