@<TRIPOS>MOLECULE
NONAME
58 61 1 0 0 
SMALL
USER_CHARGES


@<TRIPOS>ATOM
  1 O       -0.5230     0.0390     0.6420 O.2   1 <1>  -0.5700 
  2 C       -1.3400     0.5790     1.3660 C.2   1 <1>   0.7150 
  3 N       -2.4370    -0.1320     1.7530 N.am  1 <1>  -0.7300 
  4 C       -1.1600     1.9460     1.8070 C.2   1 <1>   0.0550 
  5 C       -2.6920    -1.5590     1.4560 C.3   1 <1>   0.2200 
  6 O       -0.0210     2.5850     1.5630 O.3   1 <1>  -0.2800 
  7 C       -1.9820     2.7990     2.4810 C.2   1 <1>  -0.1500 
  8 C       -3.9290    -1.6730     0.5780 C.3   1 <1>  -0.0800 
  9 C       -3.1590    -2.2520     2.7290 C.3   1 <1>   0.1200 
 10 C       -0.0870     3.8040     2.0440 C.2   1 <1>  -0.0400 
 11 C       -1.2880     4.0020     2.6310 C.2   1 <1>  -0.1500 
 12 C       -5.0730    -1.6740     1.6030 C.3   1 <1>   0.1200 
 13 C       -3.9020    -2.9620    -0.2670 C.3   1 <1>  -0.0160 
 14 O       -4.5020    -1.9010     2.8600 O.3   1 <1>  -0.5600 
 15 C        1.1080     4.7270     1.8710 C.3   1 <1>   0.5230 
 16 C       -5.1370    -3.0790    -1.1480 C.ar  1 <1>  -0.1440 
 17 N        1.4430     4.8440     0.4230 N.4   1 <1>  -0.9590 
 18 C       -6.1590    -3.9630    -0.8670 C.ar  1 <1>  -0.1500 
 19 C       -5.2960    -2.3040    -2.2790 C.ar  1 <1>  -0.1500 
 20 C        2.2480     3.6750    -0.0500 C.3   1 <1>   0.3430 
 21 C        2.1000     6.1410     0.1050 C.3   1 <1>   0.3430 
 22 C       -7.2620    -4.0230    -1.7020 C.ar  1 <1>   0.1600 
 23 C       -6.4400    -2.4430    -3.0490 C.ar  1 <1>   0.1600 
 24 C        2.4380     3.7610    -1.5640 C.3   1 <1>  -0.1600 
 25 C        2.2840     6.2680    -1.4080 C.3   1 <1>  -0.1600 
 26 N       -7.4280    -3.2820    -2.7850 N.ar  1 <1>  -0.6200 
 27 C        3.0840     5.0900    -1.9820 C.3   1 <1>  -0.0800 
 28 C        3.1710     5.1900    -3.5090 C.3   1 <1>  -0.2400 
 29 H       -3.1130     0.2780     2.3990 H     1 <1>   0.3700 
 30 H       -1.8190    -2.0270     1.0320 H     1 <1>   0.0800 
 31 H       -2.9810     2.6150     2.8390 H     1 <1>   0.1500 
 32 H       -4.0110    -0.8310    -0.0860 H     1 <1>   0.0800 
 33 H       -2.6140    -1.9370     3.6010 H     1 <1>   0.0800 
 34 H       -3.1040    -3.3220     2.6290 H     1 <1>   0.0800 
 35 H       -1.6740     4.8790     3.1230 H     1 <1>   0.1500 
 36 H       -5.8030    -2.4410     1.4150 H     1 <1>   0.0800 
 37 H       -5.5640    -0.7170     1.6350 H     1 <1>   0.0800 
 38 H       -3.8310    -3.8250     0.3700 H     1 <1>   0.0800 
 39 H       -3.0300    -2.9550    -0.8990 H     1 <1>   0.0800 
 40 H        1.9510     4.3400     2.4200 H     1 <1>   0.0800 
 41 H        0.8540     5.6950     2.2710 H     1 <1>   0.0800 
 42 H        0.5470     4.7970    -0.0800 H     1 <1>   0.4500 
 43 H       -6.1110    -4.6070    -0.0070 H     1 <1>   0.1500 
 44 H       -4.5430    -1.5950    -2.5710 H     1 <1>   0.1500 
 45 H        3.2110     3.6730     0.4340 H     1 <1>   0.0800 
 46 H        1.7490     2.7490     0.1880 H     1 <1>   0.0800 
 47 H        1.4960     6.9610     0.4600 H     1 <1>   0.0800 
 48 H        3.0630     6.1920     0.5880 H     1 <1>   0.0800 
 49 H       -8.0500    -4.7180    -1.4670 H     1 <1>   0.1500 
 50 H       -6.5470    -1.8300    -3.9280 H     1 <1>   0.1500 
 51 H        3.0620     2.9440    -1.8800 H     1 <1>   0.0800 
 52 H        1.4830     3.6400    -2.0460 H     1 <1>   0.0800 
 53 H        1.3180     6.3280    -1.8790 H     1 <1>   0.0800 
 54 H        2.8020     7.1880    -1.6190 H     1 <1>   0.0800 
 55 H        4.0860     5.1260    -1.5860 H     1 <1>   0.0800 
 56 H        2.1930     5.1550    -3.9550 H     1 <1>   0.0800 
 57 H        3.7540     4.3760    -3.9050 H     1 <1>   0.0800 
 58 H        3.6460     6.1110    -3.7990 H     1 <1>   0.0800 
@<TRIPOS>BOND
  1   1   2  2   
  2   2   3  am  
  3   2   4  1   
  4   3   5  1   
  5   3  29  1   
  6   4   6  1   
  7   4   7  2   
  8   5   8  1   
  9   5   9  1   
 10   5  30  1   
 11   6  10  1   
 12   7  11  1   
 13   7  31  1   
 14   8  12  1   
 15   8  13  1   
 16   8  32  1   
 17   9  14  1   
 18   9  33  1   
 19   9  34  1   
 20  10  11  2   
 21  10  15  1   
 22  11  35  1   
 23  12  14  1   
 24  12  36  1   
 25  12  37  1   
 26  13  16  1   
 27  13  38  1   
 28  13  39  1   
 29  15  17  1   
 30  15  40  1   
 31  15  41  1   
 32  16  18  ar  
 33  16  19  ar  
 34  17  20  1   
 35  17  21  1   
 36  17  42  1   
 37  18  22  ar  
 38  18  43  1   
 39  19  23  ar  
 40  19  44  1   
 41  20  24  1   
 42  20  45  1   
 43  20  46  1   
 44  21  25  1   
 45  21  47  1   
 46  21  48  1   
 47  22  26  ar  
 48  22  49  1   
 49  23  26  ar  
 50  23  50  1   
 51  24  27  1   
 52  24  51  1   
 53  24  52  1   
 54  25  27  1   
 55  25  53  1   
 56  25  54  1   
 57  27  28  1   
 58  27  55  1   
 59  28  56  1   
 60  28  57  1   
 61  28  58  1   
@<TRIPOS>SUBSTRUCTURE
  1 ****   2 GROUP 4 **** **** 0

# MOE 2024.06 (io_trps.svl 2023.06)
