@<TRIPOS>MOLECULE
NONAME
51 53 1 0 0 
SMALL
USER_CHARGES


@<TRIPOS>ATOM
  1 O       -2.3140    -0.7090    -0.7010 O.2   1 <1>  -0.5700 
  2 C       -2.2260     0.4010    -0.2260 C.2   1 <1>   0.5690 
  3 N       -2.3110     0.6030     1.1320 N.am  1 <1>  -0.6600 
  4 C       -2.0450     1.5560    -1.2070 C.3   1 <1>   0.0440 
  5 C       -2.4110    -0.5580     2.0730 C.3   1 <1>   0.1400 
  6 C       -2.4350     1.9410     1.7780 C.3   1 <1>   0.1400 
  7 C       -0.7190     2.2940    -1.0520 C.ar  1 <1>  -0.1440 
  8 C       -3.7750    -0.6590     2.7880 C.3   1 <1>   0.1400 
  9 C       -3.8930     2.4290     1.7660 C.3   1 <1>  -0.1600 
 10 C        0.4660     1.5860    -0.9120 C.ar  1 <1>  -0.1500 
 11 C       -0.6850     3.6800    -1.0520 C.ar  1 <1>  -0.1500 
 12 N       -4.8440     0.1610     2.1380 N.am  1 <1>  -0.6600 
 13 C       -4.8720     1.5780     2.5880 C.3   1 <1>   0.1400 
 14 C        1.6730     2.2480    -0.7630 C.ar  1 <1>  -0.1430 
 15 C        0.5180     4.3470    -0.9030 C.ar  1 <1>  -0.1500 
 16 C       -5.5920    -0.2350     1.0570 C.2   1 <1>   0.5690 
 17 C        1.6940     3.6330    -0.7570 C.ar  1 <1>  -0.1500 
 18 C        2.9630     1.4640    -0.6060 C.3   1 <1>  -0.0970 
 19 O       -6.4330     0.4860     0.5730 O.2   1 <1>  -0.5700 
 20 C       -5.3940    -1.5940     0.4050 C.3   1 <1>  -0.0990 
 21 C       -5.4860    -1.4810    -1.1210 C.3   1 <1>   0.0960 
 22 N       -5.1940    -2.7820    -1.7480 N.pl3 1 <1>   0.0480 
 23 C       -6.0460    -3.7380    -2.1180 C.2   1 <1>   0.0360 
 24 C       -4.0100    -3.3040    -2.0700 C.2   1 <1>   0.0360 
 25 N       -5.4360    -4.7560    -2.6210 N.2   1 <1>  -0.3380 
 26 N       -4.1300    -4.4780    -2.5900 N.2   1 <1>  -0.3380 
 27 H       -2.8680     2.2350    -1.0950 H     1 <1>   0.0800 
 28 H       -2.0940     1.1640    -2.2060 H     1 <1>   0.0800 
 29 H       -1.6300    -0.4820     2.8090 H     1 <1>   0.0800 
 30 H       -2.2370    -1.4770     1.5420 H     1 <1>   0.0800 
 31 H       -1.8130     2.6540     1.2670 H     1 <1>   0.0800 
 32 H       -2.0790     1.8850     2.7920 H     1 <1>   0.0800 
 33 H       -3.6530    -0.3330     3.8060 H     1 <1>   0.0800 
 34 H       -4.0790    -1.6890     2.8370 H     1 <1>   0.0800 
 35 H       -4.2520     2.4880     0.7550 H     1 <1>   0.0800 
 36 H       -3.9150     3.4280     2.1610 H     1 <1>   0.0800 
 37 H        0.4500     0.5090    -0.9170 H     1 <1>   0.1500 
 38 H       -1.5900     4.2490    -1.1690 H     1 <1>   0.1500 
 39 H       -5.8680     1.9720     2.4720 H     1 <1>   0.0800 
 40 H       -4.6230     1.6350     3.6330 H     1 <1>   0.0800 
 41 H        0.5410     5.4230    -0.9020 H     1 <1>   0.1500 
 42 H        2.6240     4.1590    -0.6400 H     1 <1>   0.1500 
 43 H        2.8850     0.5090    -1.0940 H     1 <1>   0.0800 
 44 H        3.1670     1.3060     0.4370 H     1 <1>   0.0800 
 45 H        3.7840     2.0010    -1.0450 H     1 <1>   0.0800 
 46 H       -6.1560    -2.2570     0.7700 H     1 <1>   0.0800 
 47 H       -4.4320    -1.9970     0.6500 H     1 <1>   0.0800 
 48 H       -4.7760    -0.7570    -1.4800 H     1 <1>   0.0800 
 49 H       -6.4710    -1.1630    -1.4130 H     1 <1>   0.0800 
 50 H       -7.1110    -3.6560    -2.0040 H     1 <1>   0.1500 
 51 H       -3.0770    -2.7930    -1.9060 H     1 <1>   0.1500 
@<TRIPOS>BOND
  1   1   2  2   
  2   2   3  am  
  3   2   4  1   
  4   3   5  1   
  5   3   6  1   
  6   4   7  1   
  7   4  27  1   
  8   4  28  1   
  9   5   8  1   
 10   5  29  1   
 11   5  30  1   
 12   6   9  1   
 13   6  31  1   
 14   6  32  1   
 15   7  10  ar  
 16   7  11  ar  
 17   8  12  1   
 18   8  33  1   
 19   8  34  1   
 20   9  13  1   
 21   9  35  1   
 22   9  36  1   
 23  10  14  ar  
 24  10  37  1   
 25  11  15  ar  
 26  11  38  1   
 27  12  13  1   
 28  12  16  am  
 29  13  39  1   
 30  13  40  1   
 31  14  17  ar  
 32  14  18  1   
 33  15  17  ar  
 34  15  41  1   
 35  16  19  2   
 36  16  20  1   
 37  17  42  1   
 38  18  43  1   
 39  18  44  1   
 40  18  45  1   
 41  20  21  1   
 42  20  46  1   
 43  20  47  1   
 44  21  22  1   
 45  21  48  1   
 46  21  49  1   
 47  22  23  1   
 48  22  24  1   
 49  23  25  2   
 50  23  50  1   
 51  24  26  2   
 52  24  51  1   
 53  25  26  1   
@<TRIPOS>SUBSTRUCTURE
  1 ****   2 GROUP 4 **** **** 0

# MOE 2024.06 (io_trps.svl 2023.06)
