@<TRIPOS>MOLECULE
NONAME
18 19 1 0 0 
SMALL
USER_CHARGES


@<TRIPOS>ATOM
  1 S        0.1110     0.1620    -0.4540 S.3   1 <1>  -0.1640 
  2 C       -0.5620     1.5330     0.3740 C.cat 1 <1>   0.8130 
  3 C       -1.3090    -0.8230    -0.0880 C.2   1 <1>  -0.0780 
  4 N        0.1240     2.6610     0.4340 N.pl3 1 <1>  -0.7460 
  5 N       -1.7610     1.2220     0.8620 N.pl3 1 <1>  -0.2130 
  6 C       -2.1870    -0.0930     0.6090 C.2   1 <1>   0.1530 
  7 C       -1.3110    -2.2520    -0.5800 C.3   1 <1>  -0.0490 
  8 C       -2.1390    -3.2860     0.1090 C.3   1 <1>  -0.2290 
  9 C       -0.6430    -3.3120     0.2310 C.3   1 <1>  -0.2290 
 10 H       -0.1660     3.5300     0.8910 H     1 <1>   0.4280 
 11 H        1.0510     2.7370    -0.0010 H     1 <1>   0.4280 
 12 H       -2.3480     1.8690     1.3890 H     1 <1>   0.4280 
 13 H       -3.1460    -0.4280     0.9740 H     1 <1>   0.1190 
 14 H       -1.2240    -2.3260    -1.6500 H     1 <1>   0.0680 
 15 H       -2.6150    -4.0470    -0.4860 H     1 <1>   0.0680 
 16 H       -2.7090    -3.0320     0.9840 H     1 <1>   0.0680 
 17 H       -0.2000    -3.0520     1.1760 H     1 <1>   0.0680 
 18 H       -0.0980    -4.0860    -0.2810 H     1 <1>   0.0680 
@<TRIPOS>BOND
  1   1   2  1   
  2   1   3  1   
  3   2   4  ar  
  4   2   5  ar  
  5   3   6  2   
  6   3   7  1   
  7   4  10  1   
  8   4  11  1   
  9   5   6  1   
 10   5  12  1   
 11   6  13  1   
 12   7   8  1   
 13   7   9  1   
 14   7  14  1   
 15   8   9  1   
 16   8  15  1   
 17   8  16  1   
 18   9  17  1   
 19   9  18  1   
@<TRIPOS>SUBSTRUCTURE
  1 ****   3 GROUP 4 **** **** 0

# MOE 2024.06 (io_trps.svl 2023.06)
