@<TRIPOS>MOLECULE
NONAME
44 46 1 0 0 
SMALL
USER_CHARGES


@<TRIPOS>ATOM
  1 CL      -0.2680    -0.0850     0.7620 Cl    1 <1>  -0.1770 
  2 C        1.2520    -0.9230     0.4900 C.ar  1 <1>   0.1770 
  3 C        1.2970    -2.2870     0.2160 C.ar  1 <1>   0.4100 
  4 C        2.4330    -0.2370     0.5580 C.ar  1 <1>   0.1600 
  5 N        2.4560    -2.8940     0.0390 N.ar  1 <1>  -0.6200 
  6 N        0.1690    -3.0840     0.1100 N.pl3 1 <1>  -0.8380 
  7 N        3.5970    -0.8370     0.3720 N.ar  1 <1>  -0.6200 
  8 C        3.5350    -2.1340     0.1240 C.ar  1 <1>   0.4770 
  9 C        0.2290    -4.4970     0.5930 C.3   1 <1>   0.2090 
 10 C       -0.7800    -2.8510    -1.0180 C.3   1 <1>   0.2090 
 11 C        4.8610    -2.8270    -0.0820 C.3   1 <1>  -0.0960 
 12 C       -1.1830    -5.0300     0.9120 C.3   1 <1>   0.3430 
 13 C       -2.1820    -3.3930    -0.6700 C.3   1 <1>   0.3430 
 14 N       -2.1530    -4.8380    -0.2320 N.4   1 <1>  -0.9590 
 15 C       -3.5240    -5.3200     0.1020 C.3   1 <1>   0.3430 
 16 C       -3.5590    -6.8510     0.2290 C.3   1 <1>  -0.0800 
 17 C       -3.0290    -7.6020    -0.9950 C.3   1 <1>  -0.1600 
 18 C       -4.9830    -7.3830     0.3780 C.3   1 <1>  -0.1600 
 19 C       -3.6580    -8.9940    -0.9080 C.3   1 <1>  -0.1600 
 20 C       -4.8930    -8.8580    -0.0100 C.3   1 <1>  -0.1600 
 21 H        2.4330     0.8180     0.7690 H     1 <1>   0.1500 
 22 H        0.8370    -4.5460     1.4800 H     1 <1>   0.0800 
 23 H        0.6950    -5.1120    -0.1580 H     1 <1>   0.0800 
 24 H       -0.4080    -3.3430    -1.9000 H     1 <1>   0.0800 
 25 H       -0.8470    -1.8000    -1.2360 H     1 <1>   0.0800 
 26 H        4.7200    -3.7830    -0.5500 H     1 <1>   0.0800 
 27 H        5.3400    -2.9670     0.8690 H     1 <1>   0.0800 
 28 H        5.4930    -2.2230    -0.7070 H     1 <1>   0.0800 
 29 H       -1.5460    -4.5080     1.7820 H     1 <1>   0.0800 
 30 H       -1.1090    -6.0750     1.1620 H     1 <1>   0.0800 
 31 H       -2.8230    -3.2830    -1.5300 H     1 <1>   0.0800 
 32 H       -2.5860    -2.7840     0.1230 H     1 <1>   0.0800 
 33 H       -1.8110    -5.3980    -1.0230 H     1 <1>   0.4500 
 34 H       -4.2050    -5.0300    -0.6810 H     1 <1>   0.0800 
 35 H       -3.8630    -4.8710     1.0220 H     1 <1>   0.0800 
 36 H       -3.0070    -7.1620     1.1000 H     1 <1>   0.0800 
 37 H       -1.9550    -7.6640    -1.0110 H     1 <1>   0.0800 
 38 H       -3.3740    -7.1270    -1.8990 H     1 <1>   0.0800 
 39 H       -5.6430    -6.8840    -0.3120 H     1 <1>   0.0800 
 40 H       -5.3650    -7.2600     1.3780 H     1 <1>   0.0800 
 41 H       -2.9650    -9.6880    -0.4630 H     1 <1>   0.0800 
 42 H       -3.9260    -9.3570    -1.8860 H     1 <1>   0.0800 
 43 H       -5.7860    -9.1800    -0.5180 H     1 <1>   0.0800 
 44 H       -4.7630    -9.4630     0.8720 H     1 <1>   0.0800 
@<TRIPOS>BOND
  1   1   2  1   
  2   2   3  ar  
  3   2   4  ar  
  4   3   5  ar  
  5   3   6  1   
  6   4   7  ar  
  7   4  21  1   
  8   5   8  ar  
  9   6   9  1   
 10   6  10  1   
 11   7   8  ar  
 12   8  11  1   
 13   9  12  1   
 14   9  22  1   
 15   9  23  1   
 16  10  13  1   
 17  10  24  1   
 18  10  25  1   
 19  11  26  1   
 20  11  27  1   
 21  11  28  1   
 22  12  14  1   
 23  12  29  1   
 24  12  30  1   
 25  13  14  1   
 26  13  31  1   
 27  13  32  1   
 28  14  15  1   
 29  14  33  1   
 30  15  16  1   
 31  15  34  1   
 32  15  35  1   
 33  16  17  1   
 34  16  18  1   
 35  16  36  1   
 36  17  19  1   
 37  17  37  1   
 38  17  38  1   
 39  18  20  1   
 40  18  39  1   
 41  18  40  1   
 42  19  20  1   
 43  19  41  1   
 44  19  42  1   
 45  20  43  1   
 46  20  44  1   
@<TRIPOS>SUBSTRUCTURE
  1 ****   9 GROUP 4 **** **** 0

# MOE 2024.06 (io_trps.svl 2023.06)
