@<TRIPOS>MOLECULE
NONAME
43 45 1 0 0 
SMALL
USER_CHARGES


@<TRIPOS>ATOM
  1 F        0.4310    -0.5740    -1.4150 F     1 <1>  -0.3400 
  2 C        1.1050    -1.3430    -0.5690 C.3   1 <1>   0.8800 
  3 F        2.3720    -1.2800    -0.9530 F     1 <1>  -0.3400 
  4 O        0.6690    -2.6730    -0.7230 O.3   1 <1>  -0.3630 
  5 C       -0.4320    -3.1110    -0.0660 C.ar  1 <1>   0.0830 
  6 C       -0.5290    -4.4750     0.1470 C.ar  1 <1>  -0.1500 
  7 C       -1.4420    -2.2700     0.3940 C.ar  1 <1>  -0.1500 
  8 C       -1.6130    -5.0360     0.8180 C.ar  1 <1>   0.0860 
  9 C       -2.5210    -2.8050     1.0730 C.ar  1 <1>  -0.1500 
 10 C       -1.6950    -6.4690     1.0250 C.2   1 <1>   0.5440 
 11 C       -2.6010    -4.1700     1.2860 C.ar  1 <1>  -0.1500 
 12 O       -0.7720    -7.0540     1.5560 O.2   1 <1>  -0.5700 
 13 N       -2.7900    -7.1980     0.6200 N.am  1 <1>  -0.6600 
 14 C       -3.7930    -6.7360    -0.3770 C.3   1 <1>   0.1400 
 15 C       -2.8590    -8.6750     0.7660 C.3   1 <1>   0.1400 
 16 C       -4.7390    -7.9240    -0.5500 C.3   1 <1>   0.2000 
 17 C       -3.8400    -9.1420    -0.3160 C.3   1 <1>  -0.0800 
 18 O       -5.7000    -7.8580     0.4490 O.3   1 <1>  -0.6800 
 19 C       -4.5840   -10.4440     0.0340 C.3   1 <1>   0.0200 
 20 C       -3.6660   -11.6520     0.1180 C.2   1 <1>  -0.0400 
 21 O       -4.1620   -12.7880     0.5300 O.3   1 <1>  -0.0190 
 22 C       -2.3650   -11.8510    -0.1520 C.2   1 <1>  -0.1500 
 23 N       -3.2670   -13.7320     0.5540 N.2   1 <1>  -0.4100 
 24 C       -2.1730   -13.1960     0.1480 C.2   1 <1>   0.1080 
 25 C       -0.8600   -13.9350     0.0190 C.3   1 <1>  -0.0590 
 26 H        1.0060    -0.9760     0.4370 H     1 <1>   0.0800 
 27 H        0.2550    -5.1200    -0.2100 H     1 <1>   0.1500 
 28 H       -1.4160    -1.2090     0.2280 H     1 <1>   0.1500 
 29 H       -3.3020    -2.1580     1.4370 H     1 <1>   0.1500 
 30 H       -3.4380    -4.5770     1.8260 H     1 <1>   0.1500 
 31 H       -4.3200    -5.8580    -0.0470 H     1 <1>   0.0800 
 32 H       -3.2910    -6.5280    -1.3070 H     1 <1>   0.0800 
 33 H       -1.8870    -9.1200     0.6380 H     1 <1>   0.0800 
 34 H       -3.2270    -8.9110     1.7500 H     1 <1>   0.0800 
 35 H       -5.2380    -7.9330    -1.5040 H     1 <1>   0.0800 
 36 H       -3.2770    -9.3040    -1.2190 H     1 <1>   0.0800 
 37 H       -5.2530    -7.7120     1.3070 H     1 <1>   0.4000 
 38 H       -5.3330   -10.6390    -0.7140 H     1 <1>   0.0800 
 39 H       -5.0900   -10.3370     0.9770 H     1 <1>   0.0800 
 40 H       -1.6140   -11.1740    -0.5140 H     1 <1>   0.1500 
 41 H       -0.5290   -13.9140    -1.0030 H     1 <1>   0.0800 
 42 H       -0.9840   -14.9590     0.3230 H     1 <1>   0.0800 
 43 H       -0.1190   -13.4730     0.6440 H     1 <1>   0.0800 
@<TRIPOS>BOND
  1   1   2  1   
  2   2   3  1   
  3   2   4  1   
  4   2  26  1   
  5   4   5  1   
  6   5   6  ar  
  7   5   7  ar  
  8   6   8  ar  
  9   6  27  1   
 10   7   9  ar  
 11   7  28  1   
 12   8  10  1   
 13   8  11  ar  
 14   9  11  ar  
 15   9  29  1   
 16  10  12  2   
 17  10  13  am  
 18  11  30  1   
 19  13  14  1   
 20  13  15  1   
 21  14  16  1   
 22  14  31  1   
 23  14  32  1   
 24  15  17  1   
 25  15  33  1   
 26  15  34  1   
 27  16  17  1   
 28  16  18  1   
 29  16  35  1   
 30  17  19  1   
 31  17  36  1   
 32  18  37  1   
 33  19  20  1   
 34  19  38  1   
 35  19  39  1   
 36  20  21  1   
 37  20  22  2   
 38  21  23  1   
 39  22  24  1   
 40  22  40  1   
 41  23  24  2   
 42  24  25  1   
 43  25  41  1   
 44  25  42  1   
 45  25  43  1   
@<TRIPOS>SUBSTRUCTURE
  1 ****  13 GROUP 4 **** **** 0

# MOE 2024.06 (io_trps.svl 2023.06)
