@<TRIPOS>MOLECULE
NONAME
54 56 1 0 0 
SMALL
USER_CHARGES


@<TRIPOS>ATOM
  1 F       -0.4920     0.2490    -0.1510 F     1 <1>  -0.1900 
  2 C       -1.7590     0.5540    -0.0310 C.ar  1 <1>   0.1900 
  3 C       -2.1840     1.8450     0.3000 C.ar  1 <1>   0.0830 
  4 C       -2.6610    -0.4690    -0.2460 C.ar  1 <1>  -0.1500 
  5 O       -1.3970     2.9340     0.5350 O.3   1 <1>  -0.3630 
  6 C       -3.5480     2.0640     0.4050 C.ar  1 <1>  -0.1500 
  7 C       -4.0150    -0.2160    -0.1310 C.ar  1 <1>  -0.1500 
  8 C        0.0090     2.9030     0.4340 C.3   1 <1>   0.0400 
  9 C       -4.4950     1.0560     0.1950 C.ar  1 <1>   0.0530 
 10 C       -5.9070     1.3380     0.3220 C.2   1 <1>   0.0870 
 11 O       -6.3060     2.3890     0.9920 O.3   1 <1>  -0.0190 
 12 C       -7.0320     0.7140    -0.1210 C.2   1 <1>  -0.0860 
 13 N       -7.6050     2.5180     1.0230 N.2   1 <1>  -0.4100 
 14 C       -8.0710     1.5290     0.3440 C.2   1 <1>   0.3720 
 15 C       -7.1850    -0.4800    -0.8890 C.2   1 <1>   0.7160 
 16 N       -9.4440     1.3160     0.1160 N.pl3 1 <1>  -0.8210 
 17 O       -6.7280    -0.5220    -2.0150 O.2   1 <1>  -0.5700 
 18 N       -7.8020    -1.6070    -0.3880 N.am  1 <1>  -0.6600 
 19 C      -10.3740     2.2040     0.8740 C.3   1 <1>   0.1290 
 20 C       -9.8310     1.1690    -1.3190 C.3   1 <1>   0.1290 
 21 C       -8.1120    -2.7910    -1.2650 C.3   1 <1>   0.2010 
 22 C       -8.3300    -1.7300     1.0010 C.3   1 <1>   0.1400 
 23 C       -9.4810    -3.4380    -1.0120 C.2   1 <1>   0.5690 
 24 C       -9.8490    -1.9600     0.9890 C.3   1 <1>   0.1400 
 25 O       -9.8400    -4.2980    -1.7830 O.2   1 <1>  -0.5700 
 26 N      -10.2540    -3.0570     0.0600 N.am  1 <1>  -0.6600 
 27 C      -11.6020    -3.6380     0.2910 C.3   1 <1>   0.1400 
 28 C      -11.5110    -4.7620     1.3260 C.3   1 <1>  -0.1600 
 29 C      -12.8850    -5.3860     1.5940 C.3   1 <1>  -0.2400 
 30 H       -2.3040    -1.4510    -0.5000 H     1 <1>   0.1500 
 31 H       -3.8790     3.0560     0.6560 H     1 <1>   0.1500 
 32 H       -4.7010    -1.0250    -0.2980 H     1 <1>   0.1500 
 33 H        0.3810     3.8890     0.6470 H     1 <1>   0.0800 
 34 H        0.2830     2.6190    -0.5670 H     1 <1>   0.0800 
 35 H        0.3980     2.2050     1.1540 H     1 <1>   0.0800 
 36 H      -10.1080     2.2100     1.9170 H     1 <1>   0.0800 
 37 H      -11.3850     1.8460     0.7800 H     1 <1>   0.0800 
 38 H      -10.3140     3.2100     0.4950 H     1 <1>   0.0800 
 39 H       -9.9310     0.1240    -1.5610 H     1 <1>   0.0800 
 40 H       -9.0800     1.6030    -1.9590 H     1 <1>   0.0800 
 41 H      -10.7700     1.6570    -1.5170 H     1 <1>   0.0800 
 42 H       -7.3580    -3.5410    -1.1110 H     1 <1>   0.0800 
 43 H       -8.0780    -2.5030    -2.3000 H     1 <1>   0.0800 
 44 H       -8.1110    -0.8520     1.5820 H     1 <1>   0.0800 
 45 H       -7.8530    -2.5650     1.4840 H     1 <1>   0.0800 
 46 H      -10.3470    -1.0540     0.6950 H     1 <1>   0.0800 
 47 H      -10.1680    -2.1980     1.9890 H     1 <1>   0.0800 
 48 H      -11.9930    -4.0310    -0.6330 H     1 <1>   0.0800 
 49 H      -12.2730    -2.8690     0.6320 H     1 <1>   0.0800 
 50 H      -11.1130    -4.3790     2.2480 H     1 <1>   0.0800 
 51 H      -10.8460    -5.5240     0.9550 H     1 <1>   0.0800 
 52 H      -13.5680    -4.6480     1.9770 H     1 <1>   0.0800 
 53 H      -12.7940    -6.1770     2.3170 H     1 <1>   0.0800 
 54 H      -13.2920    -5.7990     0.6870 H     1 <1>   0.0800 
@<TRIPOS>BOND
  1   1   2  1   
  2   2   3  ar  
  3   2   4  ar  
  4   3   5  1   
  5   3   6  ar  
  6   4   7  ar  
  7   4  30  1   
  8   5   8  1   
  9   6   9  ar  
 10   6  31  1   
 11   7   9  ar  
 12   7  32  1   
 13   8  33  1   
 14   8  34  1   
 15   8  35  1   
 16   9  10  1   
 17  10  11  1   
 18  10  12  2   
 19  11  13  1   
 20  12  14  1   
 21  12  15  1   
 22  13  14  2   
 23  14  16  1   
 24  15  17  2   
 25  15  18  am  
 26  16  19  1   
 27  16  20  1   
 28  18  21  1   
 29  18  22  1   
 30  19  36  1   
 31  19  37  1   
 32  19  38  1   
 33  20  39  1   
 34  20  40  1   
 35  20  41  1   
 36  21  23  1   
 37  21  42  1   
 38  21  43  1   
 39  22  24  1   
 40  22  44  1   
 41  22  45  1   
 42  23  25  2   
 43  23  26  am  
 44  24  26  1   
 45  24  46  1   
 46  24  47  1   
 47  26  27  1   
 48  27  28  1   
 49  27  48  1   
 50  27  49  1   
 51  28  29  1   
 52  28  50  1   
 53  28  51  1   
 54  29  52  1   
 55  29  53  1   
 56  29  54  1   
@<TRIPOS>SUBSTRUCTURE
  1 ****  15 GROUP 4 **** **** 0

# MOE 2024.06 (io_trps.svl 2023.06)
