@<TRIPOS>MOLECULE
NONAME
53 56 1 0 0 
SMALL
USER_CHARGES


@<TRIPOS>ATOM
  1 O       -1.1020     1.0030    -2.1710 O.2   1 <1>  -0.5700 
  2 C       -1.3910     1.5570    -1.1260 C.2   1 <1>   0.7160 
  3 N       -2.4770     1.1070    -0.3980 N.am  1 <1>  -0.6600 
  4 C       -0.5930     2.6660    -0.6690 C.2   1 <1>  -0.0860 
  5 C       -3.2830    -0.0690    -0.8510 C.3   1 <1>   0.1400 
  6 C       -2.8370     1.6710     0.9350 C.3   1 <1>   0.1400 
  7 C        0.6390     2.5430    -0.0220 C.2   1 <1>   0.2030 
  8 C       -0.7980     4.0140    -0.7170 C.2   1 <1>  -0.3320 
  9 C       -4.7840     0.2370    -0.9450 C.3   1 <1>   0.1400 
 10 C       -4.1050     2.5200     0.8140 C.3   1 <1>  -0.1600 
 11 N        1.1440     3.6870     0.3160 N.2   1 <1>  -0.7070 
 12 C        1.3330     1.2180     0.2540 C.3   1 <1>  -0.0140 
 13 N        0.2580     4.5950    -0.1220 N.pl3 1 <1>   0.3000 
 14 C       -1.9570     4.7840    -1.3270 C.3   1 <1>  -0.0600 
 15 N       -5.4090     0.3760     0.4070 N.am  1 <1>  -0.6600 
 16 C       -5.4050     1.7320     1.0300 C.3   1 <1>   0.1400 
 17 C        0.7020     0.1970     1.1540 C.3   1 <1>  -0.2000 
 18 C        1.9220     0.9370     1.6030 C.3   1 <1>  -0.2000 
 19 C       -6.1720    -0.6340     0.9620 C.2   1 <1>   0.7160 
 20 O       -6.9060    -0.3710     1.8980 O.2   1 <1>  -0.5700 
 21 C       -6.1390    -1.9810     0.4450 C.2   1 <1>  -0.0860 
 22 C       -7.2370    -2.7020    -0.0370 C.2   1 <1>   0.1080 
 23 C       -5.1070    -2.8590     0.2900 C.2   1 <1>  -0.3020 
 24 N       -6.9190    -3.8810    -0.4620 N.2   1 <1>  -0.7070 
 25 C       -8.6600    -2.1890    -0.0740 C.3   1 <1>  -0.0590 
 26 N       -5.6000    -3.9810    -0.2520 N.pl3 1 <1>   0.3140 
 27 C       -4.8700    -5.2070    -0.5880 C.3   1 <1>   0.0160 
 28 H       -3.1200    -0.8860    -0.1740 H     1 <1>   0.0800 
 29 H       -2.9530    -0.3890    -1.8230 H     1 <1>   0.0800 
 30 H       -2.0370     2.2860     1.3090 H     1 <1>   0.0800 
 31 H       -2.9830     0.8720     1.6430 H     1 <1>   0.0800 
 32 H       -5.2630    -0.5620    -1.4830 H     1 <1>   0.0800 
 33 H       -4.9350     1.1350    -1.5180 H     1 <1>   0.0800 
 34 H       -4.1290     3.0170    -0.1380 H     1 <1>   0.0800 
 35 H       -4.0710     3.2890     1.5650 H     1 <1>   0.0800 
 36 H        1.8760     0.8640    -0.6050 H     1 <1>   0.1000 
 37 H        0.4140     5.6040    -0.0040 H     1 <1>   0.2700 
 38 H       -2.6340     4.1090    -1.8210 H     1 <1>   0.0800 
 39 H       -1.5920     5.4870    -2.0550 H     1 <1>   0.0800 
 40 H       -2.4950     5.3160    -0.5630 H     1 <1>   0.0800 
 41 H       -6.2370     2.2960     0.6450 H     1 <1>   0.0800 
 42 H       -5.5530     1.6240     2.0920 H     1 <1>   0.0800 
 43 H        0.7870    -0.8400     0.8820 H     1 <1>   0.1000 
 44 H       -0.2340     0.4250     1.6320 H     1 <1>   0.1000 
 45 H        1.8330     1.7030     2.3540 H     1 <1>   0.1000 
 46 H        2.8660     0.4240     1.6460 H     1 <1>   0.1000 
 47 H       -4.0740    -2.7380     0.5490 H     1 <1>   0.1500 
 48 H       -8.7020    -1.2560    -0.6030 H     1 <1>   0.0800 
 49 H       -9.0170    -2.0430     0.9290 H     1 <1>   0.0800 
 50 H       -9.2950    -2.9020    -0.5680 H     1 <1>   0.0800 
 51 H       -3.8360    -5.0990    -0.3220 H     1 <1>   0.0800 
 52 H       -4.9610    -5.3870    -1.6430 H     1 <1>   0.0800 
 53 H       -5.3030    -6.0270    -0.0460 H     1 <1>   0.0800 
@<TRIPOS>BOND
  1   1   2  2   
  2   2   3  am  
  3   2   4  1   
  4   3   5  1   
  5   3   6  1   
  6   4   7  1   
  7   4   8  2   
  8   5   9  1   
  9   5  28  1   
 10   5  29  1   
 11   6  10  1   
 12   6  30  1   
 13   6  31  1   
 14   7  11  2   
 15   7  12  1   
 16   8  13  1   
 17   8  14  1   
 18   9  15  1   
 19   9  32  1   
 20   9  33  1   
 21  10  16  1   
 22  10  34  1   
 23  10  35  1   
 24  11  13  1   
 25  12  17  1   
 26  12  18  1   
 27  12  36  1   
 28  13  37  1   
 29  14  38  1   
 30  14  39  1   
 31  14  40  1   
 32  15  16  1   
 33  15  19  am  
 34  16  41  1   
 35  16  42  1   
 36  17  18  1   
 37  17  43  1   
 38  17  44  1   
 39  18  45  1   
 40  18  46  1   
 41  19  20  2   
 42  19  21  1   
 43  21  22  1   
 44  21  23  2   
 45  22  24  2   
 46  22  25  1   
 47  23  26  1   
 48  23  47  1   
 49  24  26  1   
 50  25  48  1   
 51  25  49  1   
 52  25  50  1   
 53  26  27  1   
 54  27  51  1   
 55  27  52  1   
 56  27  53  1   
@<TRIPOS>SUBSTRUCTURE
  1 ****   5 GROUP 4 **** **** 0

# MOE 2024.06 (io_trps.svl 2023.06)
