@<TRIPOS>MOLECULE
NONAME
53 55 1 0 0 
SMALL
USER_CHARGES


@<TRIPOS>ATOM
  1 O       -0.8360     0.4980     0.6390 O.2   1 <1>  -0.5700 
  2 C       -1.5050     1.4840     0.4550 C.2   1 <1>   0.5690 
  3 N       -2.8210     1.5380     0.0980 N.am  1 <1>  -0.4770 
  4 C       -0.9250     2.8600     0.6190 C.3   1 <1>  -0.0990 
  5 C       -3.7190     0.4720    -0.1250 C.ar  1 <1>   0.1170 
  6 C       -3.2650     2.9430    -0.0200 C.3   1 <1>   0.1400 
  7 C       -2.1720     3.7560     0.6900 C.3   1 <1>  -0.0190 
  8 C       -4.7230     0.5730    -1.0840 C.ar  1 <1>  -0.1500 
  9 C       -3.6360    -0.7040     0.6130 C.ar  1 <1>  -0.1500 
 10 C       -1.9790     5.1520     0.1130 C.2   1 <1>   0.5690 
 11 C       -5.6160    -0.4630    -1.2900 C.ar  1 <1>  -0.1500 
 12 C       -4.5240    -1.7450     0.4100 C.ar  1 <1>  -0.1500 
 13 O       -2.8220     5.5940    -0.6300 O.2   1 <1>  -0.5700 
 14 N       -0.8660     5.8490     0.4780 N.am  1 <1>  -0.4930 
 15 C       -5.5270    -1.6290    -0.5480 C.ar  1 <1>   0.0830 
 16 C       -0.4560     7.1460     0.0790 C.2   1 <1>   0.0630 
 17 O       -6.4470    -2.5920    -0.8230 O.3   1 <1>  -0.3630 
 18 C        0.6700     7.7840     0.4700 C.2   1 <1>  -0.3320 
 19 C       -1.0920     8.0420    -0.7800 C.2   1 <1>   0.1390 
 20 C       -6.4900    -3.8270    -0.1430 C.3   1 <1>   0.2000 
 21 N        0.6640     8.9940    -0.1510 N.pl3 1 <1>   0.3140 
 22 C        1.7740     7.3170     1.4090 C.3   1 <1>  -0.0600 
 23 N       -0.4270     9.1480    -0.9210 N.2   1 <1>  -0.7070 
 24 C       -7.2450    -4.8040    -1.0400 C.3   1 <1>  -0.2400 
 25 C       -7.2150    -3.6340     1.1910 C.3   1 <1>  -0.2400 
 26 C        1.6740    10.0710    -0.0520 C.3   1 <1>   0.0960 
 27 C        2.7890     9.8850    -1.0890 C.3   1 <1>  -0.2400 
 28 H       -0.3270     3.0790    -0.2470 H     1 <1>   0.0800 
 29 H       -0.3290     2.9180     1.5110 H     1 <1>   0.0800 
 30 H       -4.2260     3.0860     0.4450 H     1 <1>   0.0800 
 31 H       -3.3250     3.2010    -1.0640 H     1 <1>   0.0800 
 32 H       -2.4670     3.8610     1.7180 H     1 <1>   0.0800 
 33 H       -4.8110     1.4610    -1.6820 H     1 <1>   0.1500 
 34 H       -2.8660    -0.8090     1.3570 H     1 <1>   0.1500 
 35 H       -6.3880    -0.3770    -2.0320 H     1 <1>   0.1500 
 36 H       -4.4160    -2.6300     1.0050 H     1 <1>   0.1500 
 37 H       -0.2240     5.3970     1.1230 H     1 <1>   0.3700 
 38 H       -2.0280     7.8480    -1.2750 H     1 <1>   0.1500 
 39 H       -5.4850    -4.1850    -0.0020 H     1 <1>   0.0800 
 40 H        1.5760     6.3260     1.7730 H     1 <1>   0.0800 
 41 H        1.8450     7.9790     2.2540 H     1 <1>   0.0800 
 42 H        2.7190     7.3050     0.8950 H     1 <1>   0.0800 
 43 H       -8.2430    -4.4490    -1.2250 H     1 <1>   0.0800 
 44 H       -7.3030    -5.7680    -0.5690 H     1 <1>   0.0800 
 45 H       -6.7280    -4.9130    -1.9770 H     1 <1>   0.0800 
 46 H       -8.2120    -3.2670     1.0220 H     1 <1>   0.0800 
 47 H       -6.6860    -2.9370     1.8140 H     1 <1>   0.0800 
 48 H       -7.2790    -4.5710     1.7120 H     1 <1>   0.0800 
 49 H        2.0800    10.0770     0.9410 H     1 <1>   0.0800 
 50 H        1.1750    11.0080    -0.2200 H     1 <1>   0.0800 
 51 H        3.3040     8.9550    -0.9300 H     1 <1>   0.0800 
 52 H        3.4980    10.6890    -1.0110 H     1 <1>   0.0800 
 53 H        2.3700     9.8930    -2.0810 H     1 <1>   0.0800 
@<TRIPOS>BOND
  1   1   2  2   
  2   2   3  am  
  3   2   4  1   
  4   3   5  1   
  5   3   6  1   
  6   4   7  1   
  7   4  28  1   
  8   4  29  1   
  9   5   8  ar  
 10   5   9  ar  
 11   6   7  1   
 12   6  30  1   
 13   6  31  1   
 14   7  10  1   
 15   7  32  1   
 16   8  11  ar  
 17   8  33  1   
 18   9  12  ar  
 19   9  34  1   
 20  10  13  2   
 21  10  14  am  
 22  11  15  ar  
 23  11  35  1   
 24  12  15  ar  
 25  12  36  1   
 26  14  16  1   
 27  14  37  1   
 28  15  17  1   
 29  16  18  2   
 30  16  19  1   
 31  17  20  1   
 32  18  21  1   
 33  18  22  1   
 34  19  23  2   
 35  19  38  1   
 36  20  24  1   
 37  20  25  1   
 38  20  39  1   
 39  21  23  1   
 40  21  26  1   
 41  22  40  1   
 42  22  41  1   
 43  22  42  1   
 44  24  43  1   
 45  24  44  1   
 46  24  45  1   
 47  25  46  1   
 48  25  47  1   
 49  25  48  1   
 50  26  27  1   
 51  26  49  1   
 52  26  50  1   
 53  27  51  1   
 54  27  52  1   
 55  27  53  1   
@<TRIPOS>SUBSTRUCTURE
  1 ****   6 GROUP 4 **** **** 0

# MOE 2024.06 (io_trps.svl 2023.06)
