@<TRIPOS>MOLECULE
NONAME
41 44 1 0 0 
SMALL
USER_CHARGES


@<TRIPOS>ATOM
  1 CL      -1.5590    -1.5680    -1.0500 Cl    1 <1>  -0.1770 
  2 C       -2.2080     0.0540    -1.0330 C.ar  1 <1>   0.1770 
  3 C       -3.1920     0.4040    -0.1100 C.ar  1 <1>   0.0860 
  4 C       -1.7210     0.9550    -1.9620 C.ar  1 <1>  -0.1500 
  5 C       -3.6990    -0.5400     0.8580 C.2   1 <1>   0.5440 
  6 C       -3.6690     1.7140    -0.1510 C.ar  1 <1>  -0.1500 
  7 C       -2.2160     2.2480    -1.9850 C.ar  1 <1>  -0.1500 
  8 O       -3.3110    -0.4640     2.0080 O.2   1 <1>  -0.5700 
  9 N       -4.6300    -1.5030     0.5240 N.am  1 <1>  -0.6600 
 10 C       -3.1910     2.6250    -1.0760 C.ar  1 <1>  -0.1500 
 11 C       -5.0910    -2.4860     1.5530 C.3   1 <1>   0.1400 
 12 C       -5.1730    -1.6630    -0.8610 C.3   1 <1>   0.1400 
 13 C       -6.4780    -3.0310     1.2090 C.3   1 <1>  -0.1600 
 14 C       -5.4460    -3.1390    -1.1320 C.3   1 <1>  -0.1600 
 15 C       -6.5350    -3.6740    -0.1900 C.3   1 <1>   0.4610 
 16 O       -7.7590    -3.2890    -0.7870 O.3   1 <1>  -0.5600 
 17 C       -6.4600    -5.2030    -0.1080 C.2   1 <1>  -0.1810 
 18 C       -8.9320    -3.9530    -0.3780 C.3   1 <1>   0.1200 
 19 C       -7.5300    -5.9590    -0.3820 C.2   1 <1>  -0.1400 
 20 C       -5.3090    -5.9780     0.2610 C.2   1 <1>  -0.1500 
 21 C       -8.8890    -5.4390    -0.7690 C.3   1 <1>   0.0200 
 22 S       -7.1830    -7.6680    -0.2280 S.3   1 <1>  -0.0800 
 23 C       -5.5280    -7.3080     0.2440 C.2   1 <1>  -0.1100 
 24 H       -0.9620     0.6460    -2.6580 H     1 <1>   0.1500 
 25 H       -4.4210     2.0130     0.5600 H     1 <1>   0.1500 
 26 H       -1.8430     2.9580    -2.7040 H     1 <1>   0.1500 
 27 H       -3.5750     3.6310    -1.0890 H     1 <1>   0.1500 
 28 H       -5.1270    -2.0110     2.5190 H     1 <1>   0.0800 
 29 H       -4.3790    -3.2910     1.6060 H     1 <1>   0.0800 
 30 H       -4.4730    -1.2980    -1.5900 H     1 <1>   0.0800 
 31 H       -6.0870    -1.0990    -0.9530 H     1 <1>   0.0800 
 32 H       -7.1700    -2.2100     1.2630 H     1 <1>   0.0800 
 33 H       -6.7630    -3.7530     1.9520 H     1 <1>   0.0800 
 34 H       -4.5270    -3.6760    -0.9950 H     1 <1>   0.0800 
 35 H       -5.7530    -3.2850    -2.1510 H     1 <1>   0.0800 
 36 H       -9.7670    -3.4670    -0.8510 H     1 <1>   0.0800 
 37 H       -9.0280    -3.8480     0.6880 H     1 <1>   0.0800 
 38 H       -4.3760    -5.5100     0.5190 H     1 <1>   0.1500 
 39 H       -9.0370    -5.5510    -1.8280 H     1 <1>   0.0800 
 40 H       -9.6600    -5.9760    -0.2490 H     1 <1>   0.0800 
 41 H       -4.8870    -8.1420     0.4620 H     1 <1>   0.1500 
@<TRIPOS>BOND
  1   1   2  1   
  2   2   3  ar  
  3   2   4  ar  
  4   3   5  1   
  5   3   6  ar  
  6   4   7  ar  
  7   4  24  1   
  8   5   8  2   
  9   5   9  am  
 10   6  10  ar  
 11   6  25  1   
 12   7  10  ar  
 13   7  26  1   
 14   9  11  1   
 15   9  12  1   
 16  10  27  1   
 17  11  13  1   
 18  11  28  1   
 19  11  29  1   
 20  12  14  1   
 21  12  30  1   
 22  12  31  1   
 23  13  15  1   
 24  13  32  1   
 25  13  33  1   
 26  14  15  1   
 27  14  34  1   
 28  14  35  1   
 29  15  16  1   
 30  15  17  1   
 31  16  18  1   
 32  17  19  2   
 33  17  20  1   
 34  18  21  1   
 35  18  36  1   
 36  18  37  1   
 37  19  21  1   
 38  19  22  1   
 39  20  23  2   
 40  20  38  1   
 41  21  39  1   
 42  21  40  1   
 43  22  23  1   
 44  23  41  1   
@<TRIPOS>SUBSTRUCTURE
  1 ****  12 GROUP 4 **** **** 0

# MOE 2024.06 (io_trps.svl 2023.06)
