@<TRIPOS>MOLECULE
NONAME
52 54 1 0 0 
SMALL
USER_CHARGES


@<TRIPOS>ATOM
  1 S       -0.5190    -0.2500     0.4420 S.3   1 <1>  -0.3320 
  2 C       -0.2270     1.3770    -0.2720 C.ar  1 <1>   0.1020 
  3 C       -0.8160    -1.4000    -0.9870 C.3   1 <1>   0.1310 
  4 C       -0.2580     2.4570     0.5890 C.ar  1 <1>  -0.1500 
  5 C        0.0210     1.5500    -1.6250 C.ar  1 <1>  -0.1500 
  6 C       -1.3480    -2.7450    -0.5070 C.2   1 <1>   0.5690 
  7 C       -0.0470     3.7360     0.1000 C.ar  1 <1>   0.0830 
  8 C        0.2310     2.8280    -2.1150 C.ar  1 <1>  -0.1500 
  9 O       -0.6800    -3.7240    -0.7500 O.2   1 <1>  -0.5700 
 10 N       -2.5610    -2.8620     0.1290 N.am  1 <1>  -0.6600 
 11 O       -0.0930     4.7500     1.0000 O.3   1 <1>  -0.3630 
 12 C        0.1970     3.9180    -1.2600 C.ar  1 <1>  -0.1500 
 13 C       -3.0180    -4.1640     0.6960 C.3   1 <1>   0.1400 
 14 C       -3.5870    -1.7840     0.2430 C.3   1 <1>   0.1400 
 15 C        0.1370     6.0870     0.6140 C.3   1 <1>   0.0400 
 16 C       -4.2580    -4.6370    -0.0920 C.3   1 <1>   0.4230 
 17 C       -4.8610    -2.2350    -0.4930 C.3   1 <1>  -0.1600 
 18 N       -4.7640    -6.0000     0.2870 N.4   1 <1>  -0.9590 
 19 C       -5.4010    -3.6000     0.0280 C.3   1 <1>  -0.1060 
 20 C       -5.9350    -6.4670    -0.5130 C.3   1 <1>   0.3430 
 21 C       -3.7280    -7.0520     0.4680 C.3   1 <1>   0.2630 
 22 C       -5.8020    -3.4980     1.5130 C.2   1 <1>   0.9060 
 23 C       -6.6370    -4.0310    -0.8150 C.3   1 <1>  -0.1600 
 24 C       -6.4530    -5.4010    -1.4880 C.3   1 <1>  -0.1600 
 25 O       -5.8080    -4.5330     2.1970 O.co2 1 <1>  -0.9000 
 26 O       -6.1060    -2.4070     1.9920 O.co2 1 <1>  -0.9000 
 27 H       -1.5200    -0.9300    -1.6450 H     1 <1>   0.0800 
 28 H        0.1270    -1.5320    -1.4840 H     1 <1>   0.0800 
 29 H       -0.4470     2.3100     1.6360 H     1 <1>   0.1500 
 30 H        0.0610     0.7170    -2.2990 H     1 <1>   0.1500 
 31 H        0.4250     2.9760    -3.1640 H     1 <1>   0.1500 
 32 H        0.3640     4.8970    -1.6690 H     1 <1>   0.1500 
 33 H       -2.2280    -4.8880     0.6180 H     1 <1>   0.0800 
 34 H       -3.2520    -4.0320     1.7380 H     1 <1>   0.0800 
 35 H       -3.8010    -1.6040     1.2850 H     1 <1>   0.0800 
 36 H       -3.2390    -0.8590    -0.1790 H     1 <1>   0.0800 
 37 H        0.0610     6.7050     1.4910 H     1 <1>   0.0800 
 38 H       -0.6100     6.3770    -0.1030 H     1 <1>   0.0800 
 39 H        1.1250     6.1650     0.1970 H     1 <1>   0.0800 
 40 H       -3.9580    -4.6780    -1.1250 H     1 <1>   0.0800 
 41 H       -5.6140    -1.4770    -0.3580 H     1 <1>   0.0800 
 42 H       -4.6470    -2.2940    -1.5450 H     1 <1>   0.0800 
 43 H       -5.1760    -5.7750     1.2340 H     1 <1>   0.4500 
 44 H       -5.6710    -7.3510    -1.0690 H     1 <1>   0.0800 
 45 H       -6.7300    -6.7280     0.1680 H     1 <1>   0.0800 
 46 H       -3.2120    -7.2300    -0.4610 H     1 <1>   0.0800 
 47 H       -4.1870    -7.9690     0.7980 H     1 <1>   0.0800 
 48 H       -3.0130    -6.7460     1.2130 H     1 <1>   0.0800 
 49 H       -7.5010    -4.0770    -0.1710 H     1 <1>   0.0800 
 50 H       -6.8620    -3.2960    -1.5700 H     1 <1>   0.0800 
 51 H       -5.7680    -5.3140    -2.3130 H     1 <1>   0.0800 
 52 H       -7.3950    -5.7270    -1.8940 H     1 <1>   0.0800 
@<TRIPOS>BOND
  1   1   2  1   
  2   1   3  1   
  3   2   4  ar  
  4   2   5  ar  
  5   3   6  1   
  6   3  27  1   
  7   3  28  1   
  8   4   7  ar  
  9   4  29  1   
 10   5   8  ar  
 11   5  30  1   
 12   6   9  2   
 13   6  10  am  
 14   7  11  1   
 15   7  12  ar  
 16   8  12  ar  
 17   8  31  1   
 18  10  13  1   
 19  10  14  1   
 20  11  15  1   
 21  12  32  1   
 22  13  16  1   
 23  13  33  1   
 24  13  34  1   
 25  14  17  1   
 26  14  35  1   
 27  14  36  1   
 28  15  37  1   
 29  15  38  1   
 30  15  39  1   
 31  16  18  1   
 32  16  19  1   
 33  16  40  1   
 34  17  19  1   
 35  17  41  1   
 36  17  42  1   
 37  18  20  1   
 38  18  21  1   
 39  18  43  1   
 40  19  22  1   
 41  19  23  1   
 42  20  24  1   
 43  20  44  1   
 44  20  45  1   
 45  21  46  1   
 46  21  47  1   
 47  21  48  1   
 48  22  25  ar  
 49  22  26  ar  
 50  23  24  1   
 51  23  49  1   
 52  23  50  1   
 53  24  51  1   
 54  24  52  1   
@<TRIPOS>SUBSTRUCTURE
  1 ****  14 GROUP 4 **** **** 0

# MOE 2024.06 (io_trps.svl 2023.06)
