@<TRIPOS>MOLECULE
NONAME
34 34 1 0 0 
SMALL
USER_CHARGES


@<TRIPOS>ATOM
  1 S        0.1750    -0.0510    -0.3890 S.3   1 <1>  -0.0800 
  2 C       -1.1900     0.8120     0.3320 C.2   1 <1>   0.2930 
  3 C       -0.0580    -1.3760     0.7010 C.2   1 <1>   0.1240 
  4 N       -1.7380     0.1360     1.2980 N.2   1 <1>  -0.5650 
  5 C       -1.5210     2.1080    -0.2140 C.2   1 <1>   0.8050 
  6 N        0.7970    -2.4540     0.5940 N.pl3 1 <1>  -0.8530 
  7 C       -1.1080    -1.0620     1.4950 C.2   1 <1>   0.0770 
  8 O       -0.9180     2.6370    -1.1340 O.2   1 <1>  -0.5700 
  9 O       -2.5560     2.7760     0.3200 O.3   1 <1>  -0.4300 
 10 C        0.4990    -3.8110     1.1600 C.3   1 <1>   0.2700 
 11 C       -2.9530     4.0500    -0.1480 C.3   1 <1>   0.0400 
 12 C        0.9140    -4.9780     0.2570 C.2   1 <1>   0.6590 
 13 O        1.6470    -4.8200    -0.6880 O.2   1 <1>  -0.5700 
 14 O        0.4100    -6.1590     0.6030 O.3   1 <1>  -0.4300 
 15 C        0.6140    -7.4040    -0.0300 C.3   1 <1>   0.2800 
 16 C       -0.1990    -8.4120     0.7830 C.3   1 <1>  -0.2400 
 17 C        0.0790    -7.3550    -1.4660 C.3   1 <1>  -0.2400 
 18 C        2.0980    -7.7820     0.0240 C.3   1 <1>  -0.2400 
 19 H        1.4350    -2.4930    -0.2170 H     1 <1>   0.4000 
 20 H       -1.4770    -1.7020     2.2760 H     1 <1>   0.1500 
 21 H       -0.5560    -3.8930     1.3490 H     1 <1>   0.0800 
 22 H        1.0150    -3.9150     2.0970 H     1 <1>   0.0800 
 23 H       -3.7980     4.3770     0.4320 H     1 <1>   0.0800 
 24 H       -3.2250     3.9720    -1.1870 H     1 <1>   0.0800 
 25 H       -2.1340     4.7380    -0.0290 H     1 <1>   0.0800 
 26 H       -1.2410    -8.1460     0.7730 H     1 <1>   0.0800 
 27 H        0.1480    -8.4390     1.8000 H     1 <1>   0.0800 
 28 H       -0.0970    -9.3970     0.3640 H     1 <1>   0.0800 
 29 H       -0.9430    -7.0250    -1.4750 H     1 <1>   0.0800 
 30 H        0.1230    -8.3350    -1.9060 H     1 <1>   0.0800 
 31 H        0.6700    -6.6990    -2.0780 H     1 <1>   0.0800 
 32 H        2.4590    -7.7440     1.0360 H     1 <1>   0.0800 
 33 H        2.6890    -7.1260    -0.5880 H     1 <1>   0.0800 
 34 H        2.2350    -8.7810    -0.3470 H     1 <1>   0.0800 
@<TRIPOS>BOND
  1   1   2  1   
  2   1   3  1   
  3   2   4  2   
  4   2   5  1   
  5   3   6  1   
  6   3   7  2   
  7   4   7  1   
  8   5   8  2   
  9   5   9  1   
 10   6  10  1   
 11   6  19  1   
 12   7  20  1   
 13   9  11  1   
 14  10  12  1   
 15  10  21  1   
 16  10  22  1   
 17  11  23  1   
 18  11  24  1   
 19  11  25  1   
 20  12  13  2   
 21  12  14  1   
 22  14  15  1   
 23  15  16  1   
 24  15  17  1   
 25  15  18  1   
 26  16  26  1   
 27  16  27  1   
 28  16  28  1   
 29  17  29  1   
 30  17  30  1   
 31  17  31  1   
 32  18  32  1   
 33  18  33  1   
 34  18  34  1   
@<TRIPOS>SUBSTRUCTURE
  1 ****   6 GROUP 4 **** **** 0

# MOE 2024.06 (io_trps.svl 2023.06)
