@<TRIPOS>MOLECULE
NONAME
42 44 1 0 0 
SMALL
USER_CHARGES


@<TRIPOS>ATOM
  1 O        2.0210     0.1220     1.7590 O.3   1 <1>  -0.6800 
  2 C        1.8210    -0.1830     0.4150 C.3   1 <1>   0.2000 
  3 C        2.6620    -1.3960     0.0220 C.3   1 <1>  -0.0800 
  4 C        2.4430     0.9320    -0.4300 C.3   1 <1>   0.3430 
  5 C        4.0630    -0.8250    -0.2230 C.3   1 <1>   0.3430 
  6 C        2.6670    -2.5690     1.0210 C.3   1 <1>   0.0210 
  7 N        3.9130     0.6440    -0.4630 N.4   1 <1>  -0.9590 
  8 C        3.5020    -3.7250     0.5030 C.2   1 <1>   0.1080 
  9 C        4.6160     1.4160     0.5880 C.3   1 <1>   0.5230 
 10 N        4.7630    -3.6160     0.2110 N.2   1 <1>  -0.7070 
 11 C        3.0220    -5.0130     0.2910 C.2   1 <1>  -0.1500 
 12 C        4.6250     2.8600     0.1550 C.2   1 <1>  -0.3320 
 13 N        5.1270    -4.8550    -0.1870 N.pl3 1 <1>   0.3000 
 14 C        4.0870    -5.7130    -0.1520 C.2   1 <1>  -0.3320 
 15 N        5.5140     3.4010    -0.7100 N.pl3 1 <1>   0.3140 
 16 C        3.7970     3.8570     0.5400 C.2   1 <1>  -0.1500 
 17 C        4.1780    -7.1760    -0.5440 C.3   1 <1>  -0.0600 
 18 N        5.2570     4.6990    -0.9110 N.2   1 <1>  -0.7070 
 19 C        6.6630     2.7670    -1.3770 C.3   1 <1>   0.0160 
 20 C        4.2380     4.9720    -0.1580 C.2   1 <1>   0.1390 
 21 H        1.4590    -0.4360     2.3390 H     1 <1>   0.4000 
 22 H        0.7650    -0.3010     0.2330 H     1 <1>   0.0800 
 23 H        2.2990    -1.7670    -0.9210 H     1 <1>   0.0800 
 24 H        2.2220     1.9030    -0.0200 H     1 <1>   0.0800 
 25 H        2.0460     0.8750    -1.4300 H     1 <1>   0.0800 
 26 H        4.5230    -1.3200    -1.0640 H     1 <1>   0.0800 
 27 H        4.6750    -1.0030     0.6480 H     1 <1>   0.0800 
 28 H        1.6610    -2.9100     1.1890 H     1 <1>   0.0800 
 29 H        3.0790    -2.2640     1.9670 H     1 <1>   0.0800 
 30 H        4.2960     0.9230    -1.3720 H     1 <1>   0.4500 
 31 H        4.0990     1.3140     1.5300 H     1 <1>   0.0800 
 32 H        5.6260     1.0600     0.7110 H     1 <1>   0.0800 
 33 H        2.0170    -5.3580     0.4550 H     1 <1>   0.1500 
 34 H        6.0870    -5.0900    -0.4690 H     1 <1>   0.2700 
 35 H        2.9700     3.8430     1.2300 H     1 <1>   0.1500 
 36 H        3.2190    -7.6510    -0.4280 H     1 <1>   0.0800 
 37 H        4.8880    -7.6860     0.0820 H     1 <1>   0.0800 
 38 H        4.4830    -7.2710    -1.5710 H     1 <1>   0.0800 
 39 H        7.1890     2.1420    -0.6820 H     1 <1>   0.0800 
 40 H        7.3270     3.5370    -1.7290 H     1 <1>   0.0800 
 41 H        6.3180     2.1920    -2.2150 H     1 <1>   0.0800 
 42 H        3.7970     5.9540    -0.0910 H     1 <1>   0.1500 
@<TRIPOS>BOND
  1   1   2  1   
  2   1  21  1   
  3   2   3  1   
  4   2   4  1   
  5   2  22  1   
  6   3   5  1   
  7   3   6  1   
  8   3  23  1   
  9   4   7  1   
 10   4  24  1   
 11   4  25  1   
 12   5   7  1   
 13   5  26  1   
 14   5  27  1   
 15   6   8  1   
 16   6  28  1   
 17   6  29  1   
 18   7   9  1   
 19   7  30  1   
 20   8  10  2   
 21   8  11  1   
 22   9  12  1   
 23   9  31  1   
 24   9  32  1   
 25  10  13  1   
 26  11  14  2   
 27  11  33  1   
 28  12  15  1   
 29  12  16  2   
 30  13  14  1   
 31  13  34  1   
 32  14  17  1   
 33  15  18  1   
 34  15  19  1   
 35  16  20  1   
 36  16  35  1   
 37  17  36  1   
 38  17  37  1   
 39  17  38  1   
 40  18  20  2   
 41  19  39  1   
 42  19  40  1   
 43  19  41  1   
 44  20  42  1   
@<TRIPOS>SUBSTRUCTURE
  1 ****   5 GROUP 4 **** **** 0

# MOE 2024.06 (io_trps.svl 2023.06)
