@<TRIPOS>MOLECULE
NONAME
56 58 1 0 0 
SMALL
USER_CHARGES


@<TRIPOS>ATOM
  1 O        0.5590    -1.4300     0.0950 O.3   1 <1>  -0.5600 
  2 C       -0.3560    -2.5110     0.1250 C.3   1 <1>   0.2800 
  3 C        0.1940    -0.3180    -0.6650 C.3   1 <1>   0.1200 
  4 C       -1.8490    -2.0370    -0.0350 C.3   1 <1>   0.2000 
  5 C       -0.1430    -3.1900     1.4990 C.3   1 <1>  -0.1600 
  6 C        0.1000    -3.5110    -0.9610 C.3   1 <1>  -0.1600 
  7 C       -1.0200     0.3780    -0.0320 C.3   1 <1>  -0.1600 
  8 O       -2.2450    -2.0760    -1.3820 O.3   1 <1>  -0.6800 
  9 C       -2.0630    -0.6070     0.5340 C.3   1 <1>   0.2800 
 10 C        1.1250    -4.0440     1.6060 C.3   1 <1>   0.3430 
 11 C        1.5560    -3.9670    -0.8070 C.3   1 <1>   0.3430 
 12 O       -1.8950    -0.6620     1.9040 O.3   1 <1>  -0.6800 
 13 C       -3.4920    -0.0840     0.3390 C.3   1 <1>  -0.2400 
 14 N        2.0810    -3.6400     0.5510 N.4   1 <1>  -0.9590 
 15 C        3.4650    -4.1130     0.8080 C.3   1 <1>   0.3430 
 16 C        4.4620    -3.3380    -0.0560 C.3   1 <1>  -0.1600 
 17 C        5.9030    -3.7360     0.2930 C.3   1 <1>  -0.1600 
 18 C        6.9270    -2.9670    -0.5510 C.3   1 <1>  -0.0170 
 19 C        8.3350    -3.3970    -0.1780 C.ar  1 <1>  -0.1440 
 20 C        8.9400    -4.4570    -0.8350 C.ar  1 <1>  -0.1500 
 21 C        9.0270    -2.7360     0.8260 C.ar  1 <1>  -0.1500 
 22 C       10.2210    -4.8530    -0.4920 C.ar  1 <1>  -0.1500 
 23 C       10.3080    -3.1310     1.1700 C.ar  1 <1>  -0.1500 
 24 C       10.9060    -4.1910     0.5110 C.ar  1 <1>  -0.1500 
 25 H        1.0330     0.3540    -0.7030 H     1 <1>   0.0800 
 26 H       -0.0300    -0.6460    -1.6670 H     1 <1>   0.0800 
 27 H       -2.5020    -2.7200     0.4780 H     1 <1>   0.0800 
 28 H       -0.1180    -2.4400     2.2680 H     1 <1>   0.0800 
 29 H       -0.9780    -3.8290     1.7220 H     1 <1>   0.0800 
 30 H       -0.5390    -4.3750    -0.9300 H     1 <1>   0.0800 
 31 H       -0.0150    -3.0830    -1.9410 H     1 <1>   0.0800 
 32 H       -1.4690     0.9720    -0.8070 H     1 <1>   0.0800 
 33 H       -0.6860     1.0610     0.7290 H     1 <1>   0.0800 
 34 H       -3.1880    -1.8290    -1.4630 H     1 <1>   0.4000 
 35 H        0.8760    -5.0850     1.4860 H     1 <1>   0.0800 
 36 H        1.5620    -3.9080     2.5830 H     1 <1>   0.0800 
 37 H        2.1550    -3.4600    -1.5460 H     1 <1>   0.0800 
 38 H        1.6240    -5.0270    -0.9890 H     1 <1>   0.0800 
 39 H       -2.0350     0.2250     2.2860 H     1 <1>   0.4000 
 40 H       -3.7130     0.0370    -0.7060 H     1 <1>   0.0800 
 41 H       -3.6120     0.8760     0.8100 H     1 <1>   0.0800 
 42 H       -4.2040    -0.7730     0.7580 H     1 <1>   0.0800 
 43 H        2.0580    -2.6000     0.5810 H     1 <1>   0.4500 
 44 H        3.7110    -3.9510     1.8460 H     1 <1>   0.0800 
 45 H        3.5410    -5.1690     0.6050 H     1 <1>   0.0800 
 46 H        4.2900    -3.5470    -1.0970 H     1 <1>   0.0800 
 47 H        4.3390    -2.2820     0.1140 H     1 <1>   0.0800 
 48 H        6.0960    -3.5360     1.3340 H     1 <1>   0.0800 
 49 H        6.0420    -4.7910     0.1280 H     1 <1>   0.0800 
 50 H        6.8210    -1.9080    -0.3880 H     1 <1>   0.0800 
 51 H        6.7620    -3.1540    -1.5970 H     1 <1>   0.0800 
 52 H        8.4190    -4.9800    -1.6170 H     1 <1>   0.1500 
 53 H        8.5730    -1.9110     1.3460 H     1 <1>   0.1500 
 54 H       10.6860    -5.6760    -1.0060 H     1 <1>   0.1500 
 55 H       10.8400    -2.6150     1.9500 H     1 <1>   0.1500 
 56 H       11.9030    -4.4980     0.7770 H     1 <1>   0.1500 
@<TRIPOS>BOND
  1   1   2  1   
  2   1   3  1   
  3   2   4  1   
  4   2   5  1   
  5   2   6  1   
  6   3   7  1   
  7   3  25  1   
  8   3  26  1   
  9   4   8  1   
 10   4   9  1   
 11   4  27  1   
 12   5  10  1   
 13   5  28  1   
 14   5  29  1   
 15   6  11  1   
 16   6  30  1   
 17   6  31  1   
 18   7   9  1   
 19   7  32  1   
 20   7  33  1   
 21   8  34  1   
 22   9  12  1   
 23   9  13  1   
 24  10  14  1   
 25  10  35  1   
 26  10  36  1   
 27  11  14  1   
 28  11  37  1   
 29  11  38  1   
 30  12  39  1   
 31  13  40  1   
 32  13  41  1   
 33  13  42  1   
 34  14  15  1   
 35  14  43  1   
 36  15  16  1   
 37  15  44  1   
 38  15  45  1   
 39  16  17  1   
 40  16  46  1   
 41  16  47  1   
 42  17  18  1   
 43  17  48  1   
 44  17  49  1   
 45  18  19  1   
 46  18  50  1   
 47  18  51  1   
 48  19  20  ar  
 49  19  21  ar  
 50  20  22  ar  
 51  20  52  1   
 52  21  23  ar  
 53  21  53  1   
 54  22  24  ar  
 55  22  54  1   
 56  23  24  ar  
 57  23  55  1   
 58  24  56  1   
@<TRIPOS>SUBSTRUCTURE
  1 ****  14 GROUP 4 **** **** 0

# MOE 2024.06 (io_trps.svl 2023.06)
