@<TRIPOS>MOLECULE
NONAME
49 52 1 0 0 
SMALL
USER_CHARGES


@<TRIPOS>ATOM
  1 O        0.0840     0.2760    -0.2500 O.3   1 <1>  -0.0190 
  2 N       -0.3020    -0.8850     0.1720 N.2   1 <1>  -0.4100 
  3 C       -1.0270     0.9470    -0.4050 C.2   1 <1>   0.2980 
  4 C       -1.5860    -0.8720     0.2510 C.2   1 <1>   0.4620 
  5 N       -2.0880     0.3120    -0.1170 N.2   1 <1>  -0.5650 
  6 C       -0.9220     2.3860    -0.8890 C.3   1 <1>   0.1000 
  7 C       -2.4230    -1.9800     0.6830 C.ar  1 <1>   0.0540 
  8 C       -0.3610     3.2570     0.2410 C.3   1 <1>   0.2090 
  9 C       -2.2650     2.9550    -1.3900 C.3   1 <1>  -0.1600 
 10 C       -1.8630    -3.1950     1.0850 C.ar  1 <1>  -0.1500 
 11 C       -3.8160    -1.8820     0.7150 C.ar  1 <1>  -0.1500 
 12 N       -0.2450     4.6850    -0.1950 N.pl3 1 <1>  -0.8380 
 13 C       -2.1120     4.4290    -1.7990 C.3   1 <1>  -0.1600 
 14 C       -2.6500    -4.2560     1.4970 C.ar  1 <1>  -0.1500 
 15 C       -4.6090    -2.9370     1.1260 C.ar  1 <1>  -0.1500 
 16 C        0.9620     5.2380    -0.4670 C.ar  1 <1>   0.4100 
 17 C       -1.5250     5.2840    -0.6700 C.3   1 <1>   0.2090 
 18 C       -4.0270    -4.1280     1.5190 C.ar  1 <1>  -0.1500 
 19 N        1.7670     4.5120    -1.2200 N.ar  1 <1>  -0.6200 
 20 C        1.3350     6.5170     0.0280 C.ar  1 <1>  -0.1430 
 21 C        2.9230     5.0330    -1.5560 C.ar  1 <1>   0.7710 
 22 C        2.5420     7.0090    -0.3570 C.ar  1 <1>   0.2110 
 23 C        0.4050     7.2790     0.9830 C.3   1 <1>  -0.0170 
 24 N        3.3240     6.2510    -1.1620 N.ar  1 <1>  -0.1790 
 25 N        3.7080     4.2850    -2.3270 N.pl3 1 <1>  -0.9000 
 26 C        1.0920     8.3660     1.8200 C.3   1 <1>  -0.2400 
 27 H       -0.2200     2.4020    -1.7030 H     1 <1>   0.0800 
 28 H        0.6050     2.8860     0.5400 H     1 <1>   0.0800 
 29 H       -1.0140     3.2030     1.0960 H     1 <1>   0.0800 
 30 H       -3.0020     2.8790    -0.6080 H     1 <1>   0.0800 
 31 H       -2.6120     2.3770    -2.2290 H     1 <1>   0.0800 
 32 H       -0.7940    -3.3120     1.0740 H     1 <1>   0.1500 
 33 H       -4.2860    -0.9620     0.4120 H     1 <1>   0.1500 
 34 H       -3.0720     4.8250    -2.0800 H     1 <1>   0.0800 
 35 H       -1.4670     4.5010    -2.6570 H     1 <1>   0.0800 
 36 H       -2.1920    -5.1810     1.8020 H     1 <1>   0.1500 
 37 H       -5.6800    -2.8330     1.1400 H     1 <1>   0.1500 
 38 H       -1.3570     6.2810    -1.0390 H     1 <1>   0.0800 
 39 H       -2.2190     5.3360     0.1520 H     1 <1>   0.0800 
 40 H       -4.6420    -4.9520     1.8400 H     1 <1>   0.1500 
 41 H        2.9160     7.9710    -0.0470 H     1 <1>   0.1500 
 42 H       -0.0400     6.5750     1.6670 H     1 <1>   0.0800 
 43 H       -0.3940     7.7300     0.4210 H     1 <1>   0.0800 
 44 H        4.2360     6.5630    -1.4810 H     1 <1>   0.4570 
 45 H        4.6360     4.4920    -2.6980 H     1 <1>   0.4000 
 46 H        3.3530     3.3620    -2.5990 H     1 <1>   0.4000 
 47 H        1.9160     7.9550     2.3770 H     1 <1>   0.0800 
 48 H        0.3860     8.7720     2.5240 H     1 <1>   0.0800 
 49 H        1.4390     9.1750     1.2020 H     1 <1>   0.0800 
@<TRIPOS>BOND
  1   1   2  1   
  2   1   3  1   
  3   2   4  2   
  4   3   5  2   
  5   3   6  1   
  6   4   5  1   
  7   4   7  1   
  8   6   8  1   
  9   6   9  1   
 10   6  27  1   
 11   7  10  ar  
 12   7  11  ar  
 13   8  12  1   
 14   8  28  1   
 15   8  29  1   
 16   9  13  1   
 17   9  30  1   
 18   9  31  1   
 19  10  14  ar  
 20  10  32  1   
 21  11  15  ar  
 22  11  33  1   
 23  12  16  1   
 24  12  17  1   
 25  13  17  1   
 26  13  34  1   
 27  13  35  1   
 28  14  18  ar  
 29  14  36  1   
 30  15  18  ar  
 31  15  37  1   
 32  16  19  ar  
 33  16  20  ar  
 34  17  38  1   
 35  17  39  1   
 36  18  40  1   
 37  19  21  ar  
 38  20  22  ar  
 39  20  23  1   
 40  21  24  ar  
 41  21  25  1   
 42  22  24  ar  
 43  22  41  1   
 44  23  26  1   
 45  23  42  1   
 46  23  43  1   
 47  24  44  1   
 48  25  45  1   
 49  25  46  1   
 50  26  47  1   
 51  26  48  1   
 52  26  49  1   
@<TRIPOS>SUBSTRUCTURE
  1 ****   6 GROUP 4 **** **** 0

# MOE 2024.06 (io_trps.svl 2023.06)
