@<TRIPOS>MOLECULE
NONAME
47 50 1 0 0 
SMALL
USER_CHARGES


@<TRIPOS>ATOM
  1 O       -0.1370     0.1670     0.3880 O.2   1 <1>  -0.5700 
  2 C       -1.1840     0.7820     0.3960 C.2   1 <1>   0.5440 
  3 N       -2.3640     0.0850     0.2740 N.am  1 <1>  -0.6600 
  4 C       -1.1690     2.2230     0.5140 C.ar  1 <1>   0.0860 
  5 C       -3.6620     0.6790    -0.1400 C.3   1 <1>   0.1400 
  6 C       -2.3970    -1.3920     0.1270 C.3   1 <1>   0.1400 
  7 C       -1.9410     2.8720     1.4710 C.ar  1 <1>   0.1600 
  8 C       -0.3950     3.0200    -0.3140 C.ar  1 <1>  -0.1500 
  9 C       -4.4660    -0.4910    -0.7060 C.3   1 <1>   0.2000 
 10 C       -3.8740    -1.7440    -0.0650 C.3   1 <1>  -0.0800 
 11 N       -2.0290     4.1800     1.6390 N.ar  1 <1>  -0.6200 
 12 C       -0.4560     4.3890    -0.1590 C.ar  1 <1>  -0.1430 
 13 O       -5.8120    -0.3880    -0.3900 O.3   1 <1>  -0.6800 
 14 C       -4.1200    -3.0090    -0.9050 C.3   1 <1>  -0.0170 
 15 C       -1.2890     4.9180     0.8250 C.ar  1 <1>   0.1670 
 16 C        0.3830     5.2700    -1.0780 C.3   1 <1>  -0.0170 
 17 C       -3.5910    -4.2580    -0.2180 C.ar  1 <1>   0.1670 
 18 C       -1.3900     6.4210     1.0490 C.3   1 <1>  -0.0170 
 19 C        0.5470     6.6940    -0.5370 C.3   1 <1>  -0.1600 
 20 N       -2.2970    -4.5030    -0.3510 N.ar  1 <1>  -0.6200 
 21 C       -4.4570    -5.0740     0.5080 C.ar  1 <1>   0.1600 
 22 C       -0.8080     7.2560    -0.1000 C.3   1 <1>  -0.1600 
 23 C       -1.9310    -5.6050     0.2840 C.ar  1 <1>   0.1600 
 24 N       -4.0930    -6.1750     1.1450 N.ar  1 <1>  -0.6200 
 25 C       -2.8000    -6.4120     1.0080 C.ar  1 <1>   0.1600 
 26 H       -4.1520     1.0980     0.7210 H     1 <1>   0.0800 
 27 H       -3.5120     1.4370    -0.8900 H     1 <1>   0.0800 
 28 H       -1.8170    -1.6720    -0.7380 H     1 <1>   0.0800 
 29 H       -1.9820    -1.8730     0.9960 H     1 <1>   0.0800 
 30 H       -2.5230     2.2620     2.1390 H     1 <1>   0.1500 
 31 H        0.2340     2.5620    -1.0580 H     1 <1>   0.1500 
 32 H       -4.3680    -0.5150    -1.7780 H     1 <1>   0.0800 
 33 H       -4.2960    -1.8780     0.9150 H     1 <1>   0.0800 
 34 H       -5.9360    -0.3560     0.5780 H     1 <1>   0.4000 
 35 H       -3.6450    -2.9110    -1.8660 H     1 <1>   0.0800 
 36 H       -5.1760    -3.1170    -1.0780 H     1 <1>   0.0800 
 37 H        1.3560     4.8300    -1.2150 H     1 <1>   0.0800 
 38 H       -0.0990     5.3110    -2.0390 H     1 <1>   0.0800 
 39 H       -2.4220     6.6880     1.1940 H     1 <1>   0.0800 
 40 H       -0.8630     6.6510     1.9580 H     1 <1>   0.0800 
 41 H        1.2190     6.6820     0.3040 H     1 <1>   0.0800 
 42 H        0.9770     7.3210    -1.2990 H     1 <1>   0.0800 
 43 H       -5.4970    -4.8060     0.5650 H     1 <1>   0.1500 
 44 H       -1.4890     7.2360    -0.9340 H     1 <1>   0.0800 
 45 H       -0.7000     8.2780     0.2180 H     1 <1>   0.0800 
 46 H       -0.8940    -5.8810     0.2290 H     1 <1>   0.1500 
 47 H       -2.4070    -7.2890     1.4910 H     1 <1>   0.1500 
@<TRIPOS>BOND
  1   1   2  2   
  2   2   3  am  
  3   2   4  1   
  4   3   5  1   
  5   3   6  1   
  6   4   7  ar  
  7   4   8  ar  
  8   5   9  1   
  9   5  26  1   
 10   5  27  1   
 11   6  10  1   
 12   6  28  1   
 13   6  29  1   
 14   7  11  ar  
 15   7  30  1   
 16   8  12  ar  
 17   8  31  1   
 18   9  10  1   
 19   9  13  1   
 20   9  32  1   
 21  10  14  1   
 22  10  33  1   
 23  11  15  ar  
 24  12  15  ar  
 25  12  16  1   
 26  13  34  1   
 27  14  17  1   
 28  14  35  1   
 29  14  36  1   
 30  15  18  1   
 31  16  19  1   
 32  16  37  1   
 33  16  38  1   
 34  17  20  ar  
 35  17  21  ar  
 36  18  22  1   
 37  18  39  1   
 38  18  40  1   
 39  19  22  1   
 40  19  41  1   
 41  19  42  1   
 42  20  23  ar  
 43  21  24  ar  
 44  21  43  1   
 45  22  44  1   
 46  22  45  1   
 47  23  25  ar  
 48  23  46  1   
 49  24  25  ar  
 50  25  47  1   
@<TRIPOS>SUBSTRUCTURE
  1 ****   3 GROUP 4 **** **** 0

# MOE 2024.06 (io_trps.svl 2023.06)
