@<TRIPOS>MOLECULE
NONAME
46 47 1 0 0 
SMALL
USER_CHARGES


@<TRIPOS>ATOM
  1 O        0.1710     1.0920     0.0810 O.co2 1 <1>  -0.9000 
  2 C       -0.1740     2.2140    -0.3460 C.2   1 <1>   1.0330 
  3 O       -1.1040     2.2620    -1.1750 O.co2 1 <1>  -0.9000 
  4 C        0.5180     3.4040     0.1540 C.2   1 <1>  -0.0060 
  5 N        0.3370     4.7240    -0.1980 N.2   1 <1>  -0.5650 
  6 C        1.4920     3.3810     1.0860 C.2   1 <1>  -0.0100 
  7 C        1.1910     5.3580     0.5180 C.2   1 <1>   0.2980 
  8 O        1.9040     4.5940     1.3140 O.3   1 <1>  -0.2800 
  9 C        1.4120     6.8700     0.5450 C.3   1 <1>   0.2900 
 10 N        2.5870     7.3600    -0.2260 N.3   1 <1>  -0.8100 
 11 C        3.8480     6.7110     0.1890 C.3   1 <1>   0.1100 
 12 C        2.7090     8.8250    -0.1240 C.3   1 <1>   0.1100 
 13 C        5.0480     7.2490    -0.6080 C.3   1 <1>   0.1100 
 14 C        3.9120     9.3440    -0.9310 C.3   1 <1>   0.1100 
 15 N        5.1740     8.7140    -0.4820 N.3   1 <1>  -0.8100 
 16 C        6.3270     9.2110    -1.2920 C.3   1 <1>   0.1710 
 17 C        6.7230    10.6610    -1.0020 C.2   1 <1>   0.5690 
 18 O        7.2750    11.3020    -1.8650 O.2   1 <1>  -0.5700 
 19 N        6.4270    11.1530     0.2300 N.am  1 <1>  -0.7300 
 20 C        6.6520    12.4810     0.7990 C.3   1 <1>   0.3000 
 21 C        8.1510    12.7780     0.8260 C.3   1 <1>  -0.2400 
 22 C        5.8920    13.5220    -0.0220 C.3   1 <1>  -0.2400 
 23 C        6.1050    12.4440     2.2240 C.3   1 <1>  -0.2400 
 24 H        1.9190     2.5430     1.6080 H     1 <1>   0.1500 
 25 H        1.5030     7.1750     1.5720 H     1 <1>   0.0800 
 26 H        0.5270     7.3280     0.1410 H     1 <1>   0.0800 
 27 H        3.7820     5.6520     0.0130 H     1 <1>   0.0800 
 28 H        4.0180     6.8700     1.2400 H     1 <1>   0.0800 
 29 H        2.8280     9.1140     0.9060 H     1 <1>   0.0800 
 30 H        1.8120     9.2830    -0.5050 H     1 <1>   0.0800 
 31 H        4.9240     6.9760    -1.6420 H     1 <1>   0.0800 
 32 H        5.9450     6.7790    -0.2410 H     1 <1>   0.0800 
 33 H        3.9740    10.4120    -0.8120 H     1 <1>   0.0800 
 34 H        3.7440     9.1330    -1.9740 H     1 <1>   0.0800 
 35 H        6.1050     9.1170    -2.3400 H     1 <1>   0.0800 
 36 H        7.1900     8.6050    -1.0830 H     1 <1>   0.0800 
 37 H        5.9050    10.5060     0.8270 H     1 <1>   0.3700 
 38 H        8.5440    12.8300    -0.1730 H     1 <1>   0.0800 
 39 H        8.6760    12.0140     1.3680 H     1 <1>   0.0800 
 40 H        8.3330    13.7240     1.3040 H     1 <1>   0.0800 
 41 H        6.2830    13.5720    -1.0220 H     1 <1>   0.0800 
 42 H        5.9980    14.4940     0.4250 H     1 <1>   0.0800 
 43 H        4.8470    13.2770    -0.0660 H     1 <1>   0.0800 
 44 H        6.6220    11.7030     2.8070 H     1 <1>   0.0800 
 45 H        5.0530    12.2210     2.2190 H     1 <1>   0.0800 
 46 H        6.2440    13.3990     2.6960 H     1 <1>   0.0800 
@<TRIPOS>BOND
  1   1   2  ar  
  2   2   3  ar  
  3   2   4  1   
  4   4   5  1   
  5   4   6  2   
  6   5   7  2   
  7   6   8  1   
  8   6  24  1   
  9   7   8  1   
 10   7   9  1   
 11   9  10  1   
 12   9  25  1   
 13   9  26  1   
 14  10  11  1   
 15  10  12  1   
 16  11  13  1   
 17  11  27  1   
 18  11  28  1   
 19  12  14  1   
 20  12  29  1   
 21  12  30  1   
 22  13  15  1   
 23  13  31  1   
 24  13  32  1   
 25  14  15  1   
 26  14  33  1   
 27  14  34  1   
 28  15  16  1   
 29  16  17  1   
 30  16  35  1   
 31  16  36  1   
 32  17  18  2   
 33  17  19  am  
 34  19  20  1   
 35  19  37  1   
 36  20  21  1   
 37  20  22  1   
 38  20  23  1   
 39  21  38  1   
 40  21  39  1   
 41  21  40  1   
 42  22  41  1   
 43  22  42  1   
 44  22  43  1   
 45  23  44  1   
 46  23  45  1   
 47  23  46  1   
@<TRIPOS>SUBSTRUCTURE
  1 ****  11 GROUP 4 **** **** 0

# MOE 2024.06 (io_trps.svl 2023.06)
