@<TRIPOS>MOLECULE
NONAME
53 56 1 0 0 
SMALL
USER_CHARGES


@<TRIPOS>ATOM
  1 O       -0.2700     0.2640    -0.3770 O.2   1 <1>  -0.5700 
  2 C       -1.3070     0.8540    -0.1390 C.2   1 <1>   0.5440 
  3 N       -2.4660     0.1180    -0.0180 N.am  1 <1>  -0.6600 
  4 C       -1.3060     2.2960    -0.0080 C.ar  1 <1>   0.0860 
  5 C       -3.8340     0.6720    -0.1760 C.3   1 <1>   0.1400 
  6 C       -2.4810    -1.3590    -0.1630 C.3   1 <1>   0.1400 
  7 C       -0.6860     3.1020    -0.9630 C.ar  1 <1>  -0.1500 
  8 C       -1.9160     2.9400     1.0710 C.ar  1 <1>  -0.1500 
  9 C       -4.7030    -0.5270    -0.5560 C.3   1 <1>   0.2000 
 10 C       -3.9540    -1.7560    -0.0460 C.3   1 <1>  -0.0800 
 11 C       -0.6960     4.4780    -0.8600 C.ar  1 <1>  -0.1500 
 12 C       -1.9260     4.3170     1.1760 C.ar  1 <1>  -0.1500 
 13 O       -5.9570    -0.4610     0.0340 O.3   1 <1>  -0.6800 
 14 C       -4.3260    -3.0370    -0.8110 C.3   1 <1>  -0.0170 
 15 C       -1.3190     5.1130     0.2090 C.ar  1 <1>   0.1000 
 16 C       -3.6150    -4.2560    -0.2460 C.ar  1 <1>   0.1670 
 17 N       -1.3200     6.4970     0.2980 N.pl3 1 <1>  -0.8380 
 18 N       -2.3840    -4.4760    -0.6780 N.ar  1 <1>  -0.6200 
 19 C       -4.2620    -5.0720     0.6810 C.ar  1 <1>   0.1600 
 20 C       -0.0360     7.2410     0.3640 C.3   1 <1>   0.2090 
 21 C       -2.5140     7.2490     0.7570 C.3   1 <1>   0.2090 
 22 C       -1.8470    -5.5510    -0.1260 C.ar  1 <1>   0.1600 
 23 N       -3.7270    -6.1470     1.2360 N.ar  1 <1>  -0.6200 
 24 C       -0.1540     8.5250    -0.4620 C.3   1 <1>  -0.1600 
 25 C       -2.6450     8.5380    -0.0620 C.3   1 <1>  -0.1600 
 26 C       -2.4970    -6.3590     0.8000 C.ar  1 <1>   0.1600 
 27 C       -1.3570     9.3750    -0.0230 C.3   1 <1>  -0.1600 
 28 H       -4.1550     1.0950     0.7590 H     1 <1>   0.0800 
 29 H       -3.8530     1.4190    -0.9500 H     1 <1>   0.0800 
 30 H       -2.0850    -1.6210    -1.1300 H     1 <1>   0.0800 
 31 H       -1.8790    -1.8250     0.6000 H     1 <1>   0.0800 
 32 H       -0.1930     2.6290    -1.7950 H     1 <1>   0.1500 
 33 H       -2.3780     2.3450     1.8370 H     1 <1>   0.1500 
 34 H       -4.8300    -0.5610    -1.6250 H     1 <1>   0.0800 
 35 H       -4.1610    -1.8910     1.0010 H     1 <1>   0.0800 
 36 H       -0.2250     5.0820    -1.6130 H     1 <1>   0.1500 
 37 H       -2.3950     4.7890     2.0180 H     1 <1>   0.1500 
 38 H       -5.8740    -0.4170     1.0060 H     1 <1>   0.4000 
 39 H       -4.0720    -2.9330    -1.8510 H     1 <1>   0.0800 
 40 H       -5.3900    -3.1860    -0.7530 H     1 <1>   0.0800 
 41 H       -5.2650    -4.8240     0.9790 H     1 <1>   0.1500 
 42 H        0.1760     7.4830     1.3920 H     1 <1>   0.0800 
 43 H        0.7670     6.6310    -0.0110 H     1 <1>   0.0800 
 44 H       -3.3970     6.6460     0.6290 H     1 <1>   0.0800 
 45 H       -2.4050     7.4850     1.8020 H     1 <1>   0.0800 
 46 H       -0.8440    -5.8050    -0.4200 H     1 <1>   0.1500 
 47 H        0.7510     9.0970    -0.3600 H     1 <1>   0.0800 
 48 H       -0.2600     8.2560    -1.4980 H     1 <1>   0.0800 
 49 H       -2.8710     8.2710    -1.0790 H     1 <1>   0.0800 
 50 H       -3.4670     9.1180     0.3170 H     1 <1>   0.0800 
 51 H       -1.9760    -7.2130     1.1940 H     1 <1>   0.1500 
 52 H       -1.4570    10.2270    -0.6720 H     1 <1>   0.0800 
 53 H       -1.1940     9.7340     0.9790 H     1 <1>   0.0800 
@<TRIPOS>BOND
  1   1   2  2   
  2   2   3  am  
  3   2   4  1   
  4   3   5  1   
  5   3   6  1   
  6   4   7  ar  
  7   4   8  ar  
  8   5   9  1   
  9   5  28  1   
 10   5  29  1   
 11   6  10  1   
 12   6  30  1   
 13   6  31  1   
 14   7  11  ar  
 15   7  32  1   
 16   8  12  ar  
 17   8  33  1   
 18   9  10  1   
 19   9  13  1   
 20   9  34  1   
 21  10  14  1   
 22  10  35  1   
 23  11  15  ar  
 24  11  36  1   
 25  12  15  ar  
 26  12  37  1   
 27  13  38  1   
 28  14  16  1   
 29  14  39  1   
 30  14  40  1   
 31  15  17  1   
 32  16  18  ar  
 33  16  19  ar  
 34  17  20  1   
 35  17  21  1   
 36  18  22  ar  
 37  19  23  ar  
 38  19  41  1   
 39  20  24  1   
 40  20  42  1   
 41  20  43  1   
 42  21  25  1   
 43  21  44  1   
 44  21  45  1   
 45  22  26  ar  
 46  22  46  1   
 47  23  26  ar  
 48  24  27  1   
 49  24  47  1   
 50  24  48  1   
 51  25  27  1   
 52  25  49  1   
 53  25  50  1   
 54  26  51  1   
 55  27  52  1   
 56  27  53  1   
@<TRIPOS>SUBSTRUCTURE
  1 ****   3 GROUP 4 **** **** 0

# MOE 2024.06 (io_trps.svl 2023.06)
