@<TRIPOS>MOLECULE
NONAME
57 59 1 0 0 
SMALL
USER_CHARGES


@<TRIPOS>ATOM
  1 O        0.9860    -0.0420     0.8480 O.3   1 <1>  -0.6800 
  2 C        1.6200    -0.4820    -0.3100 C.3   1 <1>   0.2000 
  3 C        2.4640    -1.7020     0.0490 C.3   1 <1>  -0.0800 
  4 C        2.6710     0.5640    -0.6720 C.3   1 <1>   0.3430 
  5 C        3.7940    -1.1120     0.5480 C.3   1 <1>   0.3430 
  6 C        2.6820    -2.6210    -1.1680 C.3   1 <1>   0.0210 
  7 N        3.7190     0.3770     0.3750 N.4   1 <1>  -0.9590 
  8 C        3.5850    -3.7910    -0.8300 C.2   1 <1>   0.1080 
  9 C        5.0280     1.0510     0.1400 C.3   1 <1>   0.4230 
 10 N        4.8570    -3.6620    -0.6010 N.2   1 <1>  -0.7070 
 11 C        3.1620    -5.1120    -0.7350 C.2   1 <1>  -0.1500 
 12 C        5.9770     0.7840     1.3110 C.3   1 <1>  -0.1600 
 13 C        4.8280     2.5640     0.0130 C.3   1 <1>  -0.1600 
 14 N        5.2860    -4.9230    -0.3680 N.pl3 1 <1>   0.3000 
 15 C        4.2750    -5.8130    -0.4370 C.2   1 <1>  -0.3320 
 16 C        7.3390     1.4630     1.1180 C.3   1 <1>   0.5030 
 17 C        6.1520     3.3060    -0.2200 C.3   1 <1>   0.5030 
 18 C        4.4390    -7.3060    -0.2180 C.3   1 <1>  -0.0600 
 19 N        7.1840     2.8730     0.7330 N.4   1 <1>  -0.9060 
 20 C        8.0990     1.4810     2.4430 C.3   1 <1>  -0.2400 
 21 C        8.1960     0.7310     0.0830 C.3   1 <1>  -0.2400 
 22 C        6.6590     3.1250    -1.6520 C.3   1 <1>  -0.2400 
 23 C        5.9570     4.8000     0.0340 C.3   1 <1>  -0.2400 
 24 H        0.2030    -0.5970     1.0580 H     1 <1>   0.4000 
 25 H        0.8850    -0.6440    -1.0820 H     1 <1>   0.0800 
 26 H        2.0010    -2.2850     0.8280 H     1 <1>   0.0800 
 27 H        2.2460     1.5550    -0.6550 H     1 <1>   0.0800 
 28 H        3.0730     0.3530    -1.6490 H     1 <1>   0.0800 
 29 H        4.6110    -1.5000    -0.0360 H     1 <1>   0.0800 
 30 H        3.9560    -1.3710     1.5820 H     1 <1>   0.0800 
 31 H        3.1290    -2.0800    -1.9840 H     1 <1>   0.0800 
 32 H        1.7350    -3.0040    -1.5080 H     1 <1>   0.0800 
 33 H        3.2680     0.7260     1.2370 H     1 <1>   0.4500 
 34 H        5.4620     0.6660    -0.7690 H     1 <1>   0.0800 
 35 H        2.1610    -5.4790    -0.8780 H     1 <1>   0.1500 
 36 H        6.1490    -0.2720     1.4210 H     1 <1>   0.0800 
 37 H        5.5270     1.1370     2.2220 H     1 <1>   0.0800 
 38 H        4.3620     2.9370     0.9090 H     1 <1>   0.0800 
 39 H        4.1730     2.7870    -0.8100 H     1 <1>   0.0800 
 40 H        6.2690    -5.1530    -0.1720 H     1 <1>   0.2700 
 41 H        3.4910    -7.8030    -0.3300 H     1 <1>   0.0800 
 42 H        4.8100    -7.5010     0.7730 H     1 <1>   0.0800 
 43 H        5.1260    -7.7160    -0.9370 H     1 <1>   0.0800 
 44 H        8.0890     3.2020     0.3810 H     1 <1>   0.4500 
 45 H        7.0340     3.4040     1.5960 H     1 <1>   0.4500 
 46 H        8.2540     0.4740     2.7940 H     1 <1>   0.0800 
 47 H        7.5530     2.0070     3.2070 H     1 <1>   0.0800 
 48 H        9.0690     1.9340     2.3310 H     1 <1>   0.0800 
 49 H        8.4810    -0.2340     0.4670 H     1 <1>   0.0800 
 50 H        9.1040     1.2710    -0.1250 H     1 <1>   0.0800 
 51 H        7.6760     0.5490    -0.8360 H     1 <1>   0.0800 
 52 H        5.9980     3.6280    -2.3380 H     1 <1>   0.0800 
 53 H        6.6890     2.0980    -1.9570 H     1 <1>   0.0800 
 54 H        7.6360     3.5600    -1.7780 H     1 <1>   0.0800 
 55 H        5.2090     5.1940    -0.6330 H     1 <1>   0.0800 
 56 H        6.8660     5.3480    -0.1430 H     1 <1>   0.0800 
 57 H        5.6240     4.9910     1.0390 H     1 <1>   0.0800 
@<TRIPOS>BOND
  1   1   2  1   
  2   1  24  1   
  3   2   3  1   
  4   2   4  1   
  5   2  25  1   
  6   3   5  1   
  7   3   6  1   
  8   3  26  1   
  9   4   7  1   
 10   4  27  1   
 11   4  28  1   
 12   5   7  1   
 13   5  29  1   
 14   5  30  1   
 15   6   8  1   
 16   6  31  1   
 17   6  32  1   
 18   7   9  1   
 19   7  33  1   
 20   8  10  2   
 21   8  11  1   
 22   9  12  1   
 23   9  13  1   
 24   9  34  1   
 25  10  14  1   
 26  11  15  2   
 27  11  35  1   
 28  12  16  1   
 29  12  36  1   
 30  12  37  1   
 31  13  17  1   
 32  13  38  1   
 33  13  39  1   
 34  14  15  1   
 35  14  40  1   
 36  15  18  1   
 37  16  19  1   
 38  16  20  1   
 39  16  21  1   
 40  17  19  1   
 41  17  22  1   
 42  17  23  1   
 43  18  41  1   
 44  18  42  1   
 45  18  43  1   
 46  19  44  1   
 47  19  45  1   
 48  20  46  1   
 49  20  47  1   
 50  20  48  1   
 51  21  49  1   
 52  21  50  1   
 53  21  51  1   
 54  22  52  1   
 55  22  53  1   
 56  22  54  1   
 57  23  55  1   
 58  23  56  1   
 59  23  57  1   
@<TRIPOS>SUBSTRUCTURE
  1 ****   5 GROUP 4 **** **** 0

# MOE 2024.06 (io_trps.svl 2023.06)
