@<TRIPOS>MOLECULE
NONAME
41 42 1 0 0 
SMALL
USER_CHARGES


@<TRIPOS>ATOM
  1 O        2.7590    -0.9020     2.0940 O.2   1 <1>  -0.5700 
  2 C        3.0950    -1.2620     0.9870 C.2   1 <1>   0.5690 
  3 N        4.1570    -0.6640     0.3500 N.am  1 <1>  -0.6600 
  4 C        2.2910    -2.3820     0.3270 C.3   1 <1>   0.2370 
  5 C        4.9260     0.4360     1.0150 C.3   1 <1>   0.3200 
  6 C        4.5900    -0.9640    -1.0460 C.3   1 <1>   0.1400 
  7 N        1.1850    -1.7500    -0.4260 N.pl3 1 <1>   0.3140 
  8 C        1.7760    -3.4490     1.3240 C.3   1 <1>  -0.1600 
  9 C        4.7660     1.7610     0.2780 C.2   1 <1>   0.0060 
 10 C        5.6750    -2.0370    -1.0210 C.3   1 <1>  -0.2400 
 11 N        1.1410    -1.7760    -1.7750 N.2   1 <1>  -0.7070 
 12 C        0.1280    -1.0760     0.0760 C.2   1 <1>  -0.3020 
 13 C        1.0500    -4.6160     0.6370 C.3   1 <1>  -0.2400 
 14 N        5.7620     2.3910    -0.2640 N.2   1 <1>  -0.5650 
 15 N        3.5750     2.3930     0.1210 N.pl3 1 <1>   0.0480 
 16 C        0.0600    -1.1290    -2.0890 C.2   1 <1>   0.1390 
 17 C       -0.6180    -0.6640    -0.9690 C.2   1 <1>  -0.1500 
 18 C        5.1970     3.4860    -0.8030 C.2   1 <1>   0.0770 
 19 C        3.8660     3.5030    -0.5790 C.2   1 <1>  -0.3020 
 20 C        2.2330     1.9840     0.5760 C.3   1 <1>   0.0160 
 21 H        2.9170    -2.8840    -0.3820 H     1 <1>   0.0800 
 22 H        5.9690     0.1730     1.0300 H     1 <1>   0.0800 
 23 H        4.6140     0.5670     2.0360 H     1 <1>   0.0800 
 24 H        4.9770    -0.0740    -1.5150 H     1 <1>   0.0800 
 25 H        3.7560    -1.2930    -1.6410 H     1 <1>   0.0800 
 26 H        1.1210    -2.9900     2.0440 H     1 <1>   0.0800 
 27 H        2.6200    -3.8400     1.8660 H     1 <1>   0.0800 
 28 H        6.5390    -1.6830    -0.4870 H     1 <1>   0.0800 
 29 H        5.9730    -2.2670    -2.0280 H     1 <1>   0.0800 
 30 H        5.3130    -2.9370    -0.5590 H     1 <1>   0.0800 
 31 H       -0.0270    -0.9330     1.1310 H     1 <1>   0.1500 
 32 H        0.1670    -4.2700     0.1270 H     1 <1>   0.0800 
 33 H        0.7520    -5.3470     1.3680 H     1 <1>   0.0800 
 34 H        1.6950    -5.0940    -0.0810 H     1 <1>   0.0800 
 35 H       -0.2650    -0.9750    -3.1050 H     1 <1>   0.1500 
 36 H       -1.5360    -0.1030    -0.9700 H     1 <1>   0.1500 
 37 H        5.7870     4.2150    -1.3320 H     1 <1>   0.1500 
 38 H        3.1310     4.2280    -0.8740 H     1 <1>   0.1500 
 39 H        2.2890     1.6250     1.5870 H     1 <1>   0.0800 
 40 H        1.8660     1.2040    -0.0650 H     1 <1>   0.0800 
 41 H        1.5660     2.8250     0.5340 H     1 <1>   0.0800 
@<TRIPOS>BOND
  1   1   2  2   
  2   2   3  am  
  3   2   4  1   
  4   3   5  1   
  5   3   6  1   
  6   4   7  1   
  7   4   8  1   
  8   4  21  1   
  9   5   9  1   
 10   5  22  1   
 11   5  23  1   
 12   6  10  1   
 13   6  24  1   
 14   6  25  1   
 15   7  11  1   
 16   7  12  1   
 17   8  13  1   
 18   8  26  1   
 19   8  27  1   
 20   9  14  2   
 21   9  15  1   
 22  10  28  1   
 23  10  29  1   
 24  10  30  1   
 25  11  16  2   
 26  12  17  2   
 27  12  31  1   
 28  13  32  1   
 29  13  33  1   
 30  13  34  1   
 31  14  18  1   
 32  15  19  1   
 33  15  20  1   
 34  16  17  1   
 35  16  35  1   
 36  17  36  1   
 37  18  19  2   
 38  18  37  1   
 39  19  38  1   
 40  20  39  1   
 41  20  40  1   
 42  20  41  1   
@<TRIPOS>SUBSTRUCTURE
  1 ****   3 GROUP 4 **** **** 0

# MOE 2024.06 (io_trps.svl 2023.06)
