@<TRIPOS>MOLECULE
NONAME
51 52 1 0 0 
SMALL
USER_CHARGES


@<TRIPOS>ATOM
  1 F        2.4010     0.2240    -2.5860 F     1 <1>  -0.1900 
  2 C        2.9410     0.9240    -1.6080 C.ar  1 <1>   0.1900 
  3 C        3.0810     0.4060    -0.3210 C.ar  1 <1>   0.4100 
  4 C        3.3860     2.1900    -1.8720 C.ar  1 <1>   0.1600 
  5 N        3.6480     1.1450     0.6160 N.ar  1 <1>  -0.6200 
  6 N        2.6560    -0.8650     0.0590 N.pl3 1 <1>  -0.8380 
  7 N        3.9470     2.9360    -0.9390 N.ar  1 <1>  -0.6200 
  8 C        4.0430     2.3510     0.2540 C.ar  1 <1>   0.7200 
  9 C        1.3240    -1.3890    -0.3500 C.3   1 <1>   0.1290 
 10 C        3.2940    -1.5760     1.2020 C.3   1 <1>   0.1290 
 11 N        4.6140     3.0570     1.2600 N.pl3 1 <1>  -0.8690 
 12 C        4.5920     4.5260     1.3220 C.3   1 <1>   0.2090 
 13 C        5.9040     5.0360     0.7230 C.3   1 <1>  -0.1600 
 14 C        5.8230     6.5160     0.3320 C.3   1 <1>   0.4230 
 15 N        6.9390     6.9530    -0.5940 N.4   1 <1>  -0.9590 
 16 C        5.6930     7.4660     1.5330 C.3   1 <1>  -0.1600 
 17 C        8.2190     6.1780    -0.5260 C.3   1 <1>   0.4230 
 18 C        7.1620     8.4430    -0.6170 C.3   1 <1>   0.3430 
 19 C        5.3470     8.8970     1.0830 C.3   1 <1>  -0.1600 
 20 C        9.0770     6.5390     0.6890 C.3   1 <1>  -0.2400 
 21 C        9.0000     6.3980    -1.8180 C.3   1 <1>  -0.2400 
 22 C        5.8680     9.2030    -0.3310 C.3   1 <1>  -0.1600 
 23 H        3.2800     2.5940    -2.8630 H     1 <1>   0.1500 
 24 H        0.7400    -0.6160    -0.8170 H     1 <1>   0.0800 
 25 H        0.7870    -1.7460     0.5120 H     1 <1>   0.0800 
 26 H        1.4540    -2.1990    -1.0460 H     1 <1>   0.0800 
 27 H        4.3230    -1.2770     1.2980 H     1 <1>   0.0800 
 28 H        3.2610    -2.6390     1.0380 H     1 <1>   0.0800 
 29 H        2.7750    -1.3380     2.1140 H     1 <1>   0.0800 
 30 H        4.4840     2.5650     2.1460 H     1 <1>   0.4000 
 31 H        4.4880     4.8410     2.3470 H     1 <1>   0.0800 
 32 H        3.7470     4.8950     0.7630 H     1 <1>   0.0800 
 33 H        6.0900     4.4620    -0.1670 H     1 <1>   0.0800 
 34 H        6.6930     4.8640     1.4320 H     1 <1>   0.0800 
 35 H        4.9040     6.6230    -0.2230 H     1 <1>   0.0800 
 36 H        6.5710     6.7220    -1.5230 H     1 <1>   0.4500 
 37 H        6.6100     7.4700     2.0940 H     1 <1>   0.0800 
 38 H        4.9190     7.1280     2.2000 H     1 <1>   0.0800 
 39 H        7.9940     5.1250    -0.4730 H     1 <1>   0.0800 
 40 H        7.5570     8.7400    -1.5750 H     1 <1>   0.0800 
 41 H        7.8780     8.7170     0.1390 H     1 <1>   0.0800 
 42 H        5.7700     9.5930     1.7880 H     1 <1>   0.0800 
 43 H        4.2790     9.0390     1.0960 H     1 <1>   0.0800 
 44 H        9.4380     7.5490     0.6470 H     1 <1>   0.0800 
 45 H        9.9370     5.8930     0.7130 H     1 <1>   0.0800 
 46 H        8.5410     6.3840     1.6060 H     1 <1>   0.0800 
 47 H        9.3490     7.4110    -1.9090 H     1 <1>   0.0800 
 48 H        8.4020     6.1420    -2.6740 H     1 <1>   0.0800 
 49 H        9.8640     5.7570    -1.8240 H     1 <1>   0.0800 
 50 H        5.1310     8.9410    -1.0700 H     1 <1>   0.0800 
 51 H        6.0470    10.2610    -0.4210 H     1 <1>   0.0800 
@<TRIPOS>BOND
  1   1   2  1   
  2   2   3  ar  
  3   2   4  ar  
  4   3   5  ar  
  5   3   6  1   
  6   4   7  ar  
  7   4  23  1   
  8   5   8  ar  
  9   6   9  1   
 10   6  10  1   
 11   7   8  ar  
 12   8  11  1   
 13   9  24  1   
 14   9  25  1   
 15   9  26  1   
 16  10  27  1   
 17  10  28  1   
 18  10  29  1   
 19  11  12  1   
 20  11  30  1   
 21  12  13  1   
 22  12  31  1   
 23  12  32  1   
 24  13  14  1   
 25  13  33  1   
 26  13  34  1   
 27  14  15  1   
 28  14  16  1   
 29  14  35  1   
 30  15  17  1   
 31  15  18  1   
 32  15  36  1   
 33  16  19  1   
 34  16  37  1   
 35  16  38  1   
 36  17  20  1   
 37  17  21  1   
 38  17  39  1   
 39  18  22  1   
 40  18  40  1   
 41  18  41  1   
 42  19  22  1   
 43  19  42  1   
 44  19  43  1   
 45  20  44  1   
 46  20  45  1   
 47  20  46  1   
 48  21  47  1   
 49  21  48  1   
 50  21  49  1   
 51  22  50  1   
 52  22  51  1   
@<TRIPOS>SUBSTRUCTURE
  1 ****  12 GROUP 4 **** **** 0

# MOE 2024.06 (io_trps.svl 2023.06)
