@<TRIPOS>MOLECULE
Untitled Document
54 55 1 0 0 
SMALL
USER_CHARGES


@<TRIPOS>ATOM
  1 S        0.8860    -0.0890    -0.6390 S.o2  1 <1>   1.4470 
  2 O        1.5460    -0.6240    -1.8100 O.2   1 <1>  -0.6500 
  3 O        1.0710     1.3150    -0.3310 O.2   1 <1>  -0.6500 
  4 N        1.4640    -0.9370     0.7230 N.am  1 <1>  -0.8490 
  5 C       -0.8760    -0.5160    -0.6890 C.ar  1 <1>  -0.0090 
  6 C        2.9030    -1.2080     0.8110 C.3   1 <1>   0.2760 
  7 C        0.9200    -0.4140     1.9850 C.3   1 <1>   0.1160 
  8 C       -1.8590     0.4620    -0.5830 C.ar  1 <1>  -0.1500 
  9 C       -1.2840    -1.8370    -0.8230 C.ar  1 <1>  -0.1500 
 10 C        3.7670     0.0040     0.4150 C.3   1 <1>  -0.1600 
 11 C        3.2280    -2.4710     0.0100 C.3   1 <1>  -0.2400 
 12 C       -3.2060     0.1400    -0.6070 C.ar  1 <1>  -0.1430 
 13 C       -2.6260    -2.1730    -0.8470 C.ar  1 <1>  -0.1500 
 14 C        5.2550    -0.2440     0.6480 C.3   1 <1>   0.3430 
 15 C       -3.5860    -1.1840    -0.7380 C.ar  1 <1>  -0.1500 
 16 C       -4.2550     1.2310    -0.4890 C.3   1 <1>  -0.0970 
 17 N        6.0410     0.9670     0.2800 N.4   1 <1>  -0.9590 
 18 C        6.0850     1.1880    -1.2010 C.3   1 <1>   0.3430 
 19 C        7.4150     0.9010     0.8570 C.3   1 <1>   0.3430 
 20 C        6.7980     2.5050    -1.5060 C.3   1 <1>  -0.1600 
 21 C        8.1520     2.2150     0.5940 C.3   1 <1>  -0.1600 
 22 C        8.2110     2.5400    -0.9060 C.3   1 <1>  -0.0800 
 23 C        8.8640     3.9060    -1.1380 C.3   1 <1>  -0.2400 
 24 H        3.1270    -1.4490     1.8390 H     1 <1>   0.0800 
 25 H        1.1770    -1.0660     2.8030 H     1 <1>   0.0800 
 26 H       -0.1540    -0.3600     1.9330 H     1 <1>   0.0800 
 27 H        1.3040     0.5720     2.1840 H     1 <1>   0.0800 
 28 H       -1.5620     1.4920    -0.4810 H     1 <1>   0.1500 
 29 H       -0.5410    -2.6120    -0.9100 H     1 <1>   0.1500 
 30 H        3.6200     0.2150    -0.6250 H     1 <1>   0.0800 
 31 H        3.4580     0.8540     0.9970 H     1 <1>   0.0800 
 32 H        3.2020    -2.2910    -1.0480 H     1 <1>   0.0800 
 33 H        2.5170    -3.2430     0.2460 H     1 <1>   0.0800 
 34 H        4.2040    -2.8400     0.2630 H     1 <1>   0.0800 
 35 H       -2.9240    -3.2020    -0.9510 H     1 <1>   0.1500 
 36 H        5.5850    -1.0870     0.0610 H     1 <1>   0.0800 
 37 H        5.4110    -0.4750     1.6900 H     1 <1>   0.0800 
 38 H       -4.6290    -1.4510    -0.7560 H     1 <1>   0.1500 
 39 H       -5.1580     0.9430    -0.9970 H     1 <1>   0.0800 
 40 H       -3.8980     2.1460    -0.9270 H     1 <1>   0.0800 
 41 H       -4.4820     1.4080     0.5470 H     1 <1>   0.0800 
 42 H        5.5770     1.7900     0.6880 H     1 <1>   0.4500 
 43 H        6.6090     0.3750    -1.6770 H     1 <1>   0.0800 
 44 H        5.0860     1.2290    -1.6050 H     1 <1>   0.0800 
 45 H        7.3630     0.7290     1.9200 H     1 <1>   0.0800 
 46 H        7.9620     0.0880     0.4070 H     1 <1>   0.0800 
 47 H        6.8610     2.6250    -2.5740 H     1 <1>   0.0800 
 48 H        6.2100     3.3230    -1.1270 H     1 <1>   0.0800 
 49 H        7.6630     3.0100     1.1290 H     1 <1>   0.0800 
 50 H        9.1530     2.1350     0.9800 H     1 <1>   0.0800 
 51 H        8.8130     1.7920    -1.3980 H     1 <1>   0.0800 
 52 H        8.3000     4.6910    -0.6640 H     1 <1>   0.0800 
 53 H        8.9230     4.1190    -2.1920 H     1 <1>   0.0800 
 54 H        9.8640     3.9170    -0.7400 H     1 <1>   0.0800 
@<TRIPOS>BOND
  1   1   2  2   
  2   1   3  2   
  3   1   4  am  
  4   1   5  1   
  5   4   6  1   
  6   4   7  1   
  7   5   8  ar  
  8   5   9  ar  
  9   6  10  1   
 10   6  11  1   
 11   6  24  1   
 12   7  25  1   
 13   7  26  1   
 14   7  27  1   
 15   8  12  ar  
 16   8  28  1   
 17   9  13  ar  
 18   9  29  1   
 19  10  14  1   
 20  10  30  1   
 21  10  31  1   
 22  11  32  1   
 23  11  33  1   
 24  11  34  1   
 25  12  15  ar  
 26  12  16  1   
 27  13  15  ar  
 28  13  35  1   
 29  14  17  1   
 30  14  36  1   
 31  14  37  1   
 32  15  38  1   
 33  16  39  1   
 34  16  40  1   
 35  16  41  1   
 36  17  18  1   
 37  17  19  1   
 38  17  42  1   
 39  18  20  1   
 40  18  43  1   
 41  18  44  1   
 42  19  21  1   
 43  19  45  1   
 44  19  46  1   
 45  20  22  1   
 46  20  47  1   
 47  20  48  1   
 48  21  22  1   
 49  21  49  1   
 50  21  50  1   
 51  22  23  1   
 52  22  51  1   
 53  23  52  1   
 54  23  53  1   
 55  23  54  1   
@<TRIPOS>SUBSTRUCTURE
  1 ****  10 GROUP 4 **** **** 0

# MOE 2024.06 (io_trps.svl 2023.06)
