@<TRIPOS>MOLECULE
NONAME
46 47 1 0 0 
SMALL
USER_CHARGES


@<TRIPOS>ATOM
  1 F       -0.0620     3.4790    -2.5830 F     1 <1>  -0.3400 
  2 C       -0.5540     3.2030    -1.3800 C.3   1 <1>   1.1640 
  3 F       -1.8740     3.3080    -1.4890 F     1 <1>  -0.3400 
  4 F       -0.2980     1.9200    -1.1600 F     1 <1>  -0.3400 
  5 C        0.0350     4.1030    -0.2820 C.ar  1 <1>  -0.1440 
  6 C        1.3670     4.5060    -0.3410 C.ar  1 <1>  -0.1500 
  7 C       -0.7400     4.5260     0.7930 C.ar  1 <1>  -0.1500 
  8 C        1.9140     5.3170     0.6410 C.ar  1 <1>  -0.1440 
  9 C       -0.2000     5.3340     1.7770 C.ar  1 <1>  -0.1500 
 10 C        1.1220     5.7290     1.7010 C.ar  1 <1>  -0.1500 
 11 C        3.3670     5.7640     0.5720 C.3   1 <1>   0.2840 
 12 N        3.4300     7.2010     0.1790 N.am  1 <1>  -0.6600 
 13 C        3.7010     8.1580     1.1330 C.2   1 <1>   0.5690 
 14 C        3.0550     7.4420    -1.2460 C.3   1 <1>   0.0600 
 15 O        3.9920     7.8390     2.2630 O.2   1 <1>  -0.5700 
 16 C        3.6390     9.6680     0.8630 C.3   1 <1>  -0.0190 
 17 C        2.2340    10.1640     0.4530 C.3   1 <1>  -0.1600 
 18 C        4.7680    10.1760    -0.0690 C.3   1 <1>  -0.1600 
 19 C        2.1540    11.7030     0.3820 C.3   1 <1>   0.2000 
 20 C        4.3920    11.4550    -0.8400 C.3   1 <1>  -0.1600 
 21 O        1.1920    12.0410    -0.5880 O.3   1 <1>  -0.5600 
 22 C        3.5090    12.3680     0.0140 C.3   1 <1>   0.2000 
 23 C       -0.1320    11.9780    -0.1570 C.3   1 <1>   0.0400 
 24 O        3.2700    13.5210    -0.7040 O.3   1 <1>  -0.6800 
 25 H        1.9860     4.1850    -1.1620 H     1 <1>   0.1500 
 26 H       -1.7730     4.2300     0.8740 H     1 <1>   0.1500 
 27 H       -0.8080     5.6560     2.6050 H     1 <1>   0.1500 
 28 H        1.5410     6.3610     2.4670 H     1 <1>   0.1500 
 29 H        3.9080     5.1740    -0.1470 H     1 <1>   0.0800 
 30 H        3.8330     5.6050     1.5290 H     1 <1>   0.0800 
 31 H        3.5610     6.7350    -1.8800 H     1 <1>   0.0800 
 32 H        3.3240     8.4280    -1.5690 H     1 <1>   0.0800 
 33 H        1.9930     7.3160    -1.3640 H     1 <1>   0.0800 
 34 H        3.8250    10.1310     1.8170 H     1 <1>   0.0800 
 35 H        1.5150     9.8050     1.1660 H     1 <1>   0.0800 
 36 H        1.9750     9.7660    -0.5090 H     1 <1>   0.0800 
 37 H        5.6330    10.3760     0.5400 H     1 <1>   0.0800 
 38 H        5.0620     9.4190    -0.7730 H     1 <1>   0.0800 
 39 H        1.8440    12.1010     1.3330 H     1 <1>   0.0800 
 40 H        3.8510    11.1880    -1.7320 H     1 <1>   0.0800 
 41 H        5.2880    11.9770    -1.1290 H     1 <1>   0.0800 
 42 H        4.0440    12.6420     0.9080 H     1 <1>   0.0800 
 43 H       -0.7650    12.2710    -0.9760 H     1 <1>   0.0800 
 44 H       -0.2710    12.6570     0.6670 H     1 <1>   0.0800 
 45 H       -0.3690    10.9710     0.1380 H     1 <1>   0.0800 
 46 H        2.4010    13.3800    -1.1460 H     1 <1>   0.4000 
@<TRIPOS>BOND
  1   1   2  1   
  2   2   3  1   
  3   2   4  1   
  4   2   5  1   
  5   5   6  ar  
  6   5   7  ar  
  7   6   8  ar  
  8   6  25  1   
  9   7   9  ar  
 10   7  26  1   
 11   8  10  ar  
 12   8  11  1   
 13   9  10  ar  
 14   9  27  1   
 15  10  28  1   
 16  11  12  1   
 17  11  29  1   
 18  11  30  1   
 19  12  13  am  
 20  12  14  1   
 21  13  15  2   
 22  13  16  1   
 23  14  31  1   
 24  14  32  1   
 25  14  33  1   
 26  16  17  1   
 27  16  18  1   
 28  16  34  1   
 29  17  19  1   
 30  17  35  1   
 31  17  36  1   
 32  18  20  1   
 33  18  37  1   
 34  18  38  1   
 35  19  21  1   
 36  19  22  1   
 37  19  39  1   
 38  20  22  1   
 39  20  40  1   
 40  20  41  1   
 41  21  23  1   
 42  22  24  1   
 43  22  42  1   
 44  23  43  1   
 45  23  44  1   
 46  23  45  1   
 47  24  46  1   
@<TRIPOS>SUBSTRUCTURE
  1 ****  12 GROUP 4 **** **** 0

# MOE 2024.06 (io_trps.svl 2023.06)
