@<TRIPOS>MOLECULE
NONAME
49 52 1 0 0 
SMALL
USER_CHARGES


@<TRIPOS>ATOM
  1 O       -1.0230    -0.7600     0.9700 O.2   1 <1>  -0.5700 
  2 C       -1.9190    -0.1080     0.5300 C.2   1 <1>   0.4480 
  3 C       -2.4810    -0.3530    -0.8590 C.3   1 <1>  -0.0990 
  4 C       -2.5570     1.0120     1.3310 C.3   1 <1>  -0.0990 
  5 C       -4.0050    -0.1160    -0.9010 C.3   1 <1>  -0.0800 
  6 C       -3.2920     1.9980     0.4110 C.3   1 <1>  -0.1600 
  7 C       -4.4060     1.3400    -0.4600 C.3   1 <1>   0.0000 
  8 C       -4.7140    -1.2140    -0.0890 C.3   1 <1>  -0.1600 
  9 C       -5.7760     1.3420     0.3170 C.3   1 <1>  -0.0800 
 10 C       -4.5010     2.1860    -1.7520 C.3   1 <1>  -0.2400 
 11 C       -6.2380    -1.1290    -0.2220 C.3   1 <1>  -0.1600 
 12 C       -6.7790     0.3150    -0.2920 C.3   1 <1>  -0.0800 
 13 C       -6.4070     2.7580     0.5170 C.3   1 <1>  -0.1600 
 14 C       -8.1310     0.4070     0.4400 C.3   1 <1>  -0.0800 
 15 C       -7.8160     2.7500     1.1490 C.3   1 <1>  -0.1600 
 16 C       -8.7590     1.8050     0.3860 C.3   1 <1>   0.0610 
 17 C       -9.2740    -0.5490     0.0780 C.3   1 <1>  -0.1600 
 18 C      -10.1100     1.5270     1.0330 C.2   1 <1>   0.4480 
 19 C       -9.0280     2.3350    -1.0470 C.3   1 <1>  -0.2400 
 20 C      -10.4930     0.0790     0.7830 C.3   1 <1>  -0.0990 
 21 O      -10.7670     2.3060     1.6570 O.2   1 <1>  -0.5700 
 22 H       -1.9900     0.3100    -1.5460 H     1 <1>   0.0800 
 23 H       -2.2490    -1.3600    -1.1580 H     1 <1>   0.0800 
 24 H       -3.2400     0.5880     2.0440 H     1 <1>   0.0800 
 25 H       -1.7870     1.5260     1.8770 H     1 <1>   0.0800 
 26 H       -4.3160    -0.2650    -1.9220 H     1 <1>   0.0800 
 27 H       -2.5470     2.4370    -0.2310 H     1 <1>   0.0800 
 28 H       -3.6830     2.8040     1.0030 H     1 <1>   0.0800 
 29 H       -4.3930    -2.1870    -0.4200 H     1 <1>   0.0800 
 30 H       -4.4530    -1.1320     0.9510 H     1 <1>   0.0800 
 31 H       -5.5700     0.9870     1.3120 H     1 <1>   0.0800 
 32 H       -3.6190     2.0590    -2.3540 H     1 <1>   0.0800 
 33 H       -4.5830     3.2350    -1.5300 H     1 <1>   0.0800 
 34 H       -5.3490     1.8950    -2.3450 H     1 <1>   0.0800 
 35 H       -6.6610    -1.6540     0.6170 H     1 <1>   0.0800 
 36 H       -6.5470    -1.6510    -1.1110 H     1 <1>   0.0800 
 37 H       -6.9270     0.5520    -1.3290 H     1 <1>   0.0800 
 38 H       -5.7750     3.3570     1.1450 H     1 <1>   0.0800 
 39 H       -6.4820     3.2720    -0.4220 H     1 <1>   0.0800 
 40 H       -7.9150     0.2020     1.4770 H     1 <1>   0.0800 
 41 H       -8.2240     3.7460     1.1500 H     1 <1>   0.0800 
 42 H       -7.7440     2.4350     2.1760 H     1 <1>   0.0800 
 43 H       -9.4230    -0.5660    -0.9870 H     1 <1>   0.0800 
 44 H       -9.0930    -1.5510     0.4250 H     1 <1>   0.0800 
 45 H       -8.1330     2.4260    -1.6290 H     1 <1>   0.0800 
 46 H       -9.4870     3.3070    -0.9870 H     1 <1>   0.0800 
 47 H       -9.7030     1.6900    -1.5800 H     1 <1>   0.0800 
 48 H      -10.6770    -0.3970     1.7280 H     1 <1>   0.0800 
 49 H      -11.3760     0.0220     0.1730 H     1 <1>   0.0800 
@<TRIPOS>BOND
  1   1   2  2   
  2   2   3  1   
  3   2   4  1   
  4   3   5  1   
  5   3  22  1   
  6   3  23  1   
  7   4   6  1   
  8   4  24  1   
  9   4  25  1   
 10   5   7  1   
 11   5   8  1   
 12   5  26  1   
 13   6   7  1   
 14   6  27  1   
 15   6  28  1   
 16   7   9  1   
 17   7  10  1   
 18   8  11  1   
 19   8  29  1   
 20   8  30  1   
 21   9  12  1   
 22   9  13  1   
 23   9  31  1   
 24  10  32  1   
 25  10  33  1   
 26  10  34  1   
 27  11  12  1   
 28  11  35  1   
 29  11  36  1   
 30  12  14  1   
 31  12  37  1   
 32  13  15  1   
 33  13  38  1   
 34  13  39  1   
 35  14  16  1   
 36  14  17  1   
 37  14  40  1   
 38  15  16  1   
 39  15  41  1   
 40  15  42  1   
 41  16  18  1   
 42  16  19  1   
 43  17  20  1   
 44  17  43  1   
 45  17  44  1   
 46  18  20  1   
 47  18  21  2   
 48  19  45  1   
 49  19  46  1   
 50  19  47  1   
 51  20  48  1   
 52  20  49  1   
@<TRIPOS>SUBSTRUCTURE
  1 ****   9 GROUP 4 **** **** 0

# MOE 2024.06 (io_trps.svl 2023.06)
