@<TRIPOS>MOLECULE
NONAME
36 37 1 0 0 
SMALL
USER_CHARGES


@<TRIPOS>ATOM
  1 CL       0.2240     0.2940     0.3520 Cl    1 <1>  -0.1770 
  2 C        1.7300     1.1860     0.4500 C.ar  1 <1>   0.1770 
  3 C        2.9380     0.6370     0.0370 C.ar  1 <1>   0.1660 
  4 C        1.6900     2.4630     0.9650 C.ar  1 <1>  -0.1500 
  5 N        4.0950     1.2800     0.1080 N.ar  1 <1>  -0.6200 
  6 C        3.0220    -0.7690    -0.5310 C.3   1 <1>  -0.0960 
  7 C        2.8910     3.1290     1.0360 C.ar  1 <1>  -0.1500 
  8 C        4.0660     2.5170     0.5980 C.ar  1 <1>   0.4100 
  9 N        5.2670     3.2060     0.6720 N.pl3 1 <1>  -0.8380 
 10 C        5.3460     4.6160     0.2090 C.3   1 <1>   0.2090 
 11 C        6.5590     2.5210     0.4200 C.3   1 <1>   0.2090 
 12 C        6.6800     4.7340    -0.5210 C.3   1 <1>  -0.0190 
 13 C        7.5430     3.6450     0.1250 C.3   1 <1>  -0.1600 
 14 C        7.2380     6.1480    -0.4630 C.2   1 <1>   0.5690 
 15 O        6.4700     7.0800    -0.4680 O.2   1 <1>  -0.5700 
 16 N        8.5850     6.3310    -0.4300 N.am  1 <1>  -0.7300 
 17 C        9.2640     7.6380    -0.3580 C.3   1 <1>   0.1400 
 18 C       10.3140     7.5790     0.7440 C.3   1 <1>  -0.2400 
 19 H        0.7660     2.9030     1.2940 H     1 <1>   0.1500 
 20 H        2.0890    -1.0800    -0.9620 H     1 <1>   0.0800 
 21 H        3.2950    -1.4540     0.2500 H     1 <1>   0.0800 
 22 H        3.7730    -0.8050    -1.2990 H     1 <1>   0.0800 
 23 H        2.9380     4.1230     1.4370 H     1 <1>   0.1500 
 24 H        5.3290     5.2650     1.0690 H     1 <1>   0.0800 
 25 H        4.5280     4.8670    -0.4440 H     1 <1>   0.0800 
 26 H        6.4720     1.8750    -0.4380 H     1 <1>   0.0800 
 27 H        6.8540     1.9410     1.2780 H     1 <1>   0.0800 
 28 H        6.5120     4.4850    -1.5530 H     1 <1>   0.0800 
 29 H        8.3400     3.3120    -0.5150 H     1 <1>   0.0800 
 30 H        7.9510     3.9940     1.0580 H     1 <1>   0.0800 
 31 H        9.2000     5.5180    -0.4440 H     1 <1>   0.3700 
 32 H        8.5480     8.4150    -0.1440 H     1 <1>   0.0800 
 33 H        9.7270     7.8520    -1.3070 H     1 <1>   0.0800 
 34 H        9.8480     7.3650     1.6890 H     1 <1>   0.0800 
 35 H       10.8100     8.5300     0.8180 H     1 <1>   0.0800 
 36 H       11.0510     6.8270     0.5250 H     1 <1>   0.0800 
@<TRIPOS>BOND
  1   1   2  1   
  2   2   3  ar  
  3   2   4  ar  
  4   3   5  ar  
  5   3   6  1   
  6   4   7  ar  
  7   4  19  1   
  8   5   8  ar  
  9   6  20  1   
 10   6  21  1   
 11   6  22  1   
 12   7   8  ar  
 13   7  23  1   
 14   8   9  1   
 15   9  10  1   
 16   9  11  1   
 17  10  12  1   
 18  10  24  1   
 19  10  25  1   
 20  11  13  1   
 21  11  26  1   
 22  11  27  1   
 23  12  13  1   
 24  12  14  1   
 25  12  28  1   
 26  13  29  1   
 27  13  30  1   
 28  14  15  2   
 29  14  16  am  
 30  16  17  1   
 31  16  31  1   
 32  17  18  1   
 33  17  32  1   
 34  17  33  1   
 35  18  34  1   
 36  18  35  1   
 37  18  36  1   
@<TRIPOS>SUBSTRUCTURE
  1 ****   9 GROUP 4 **** **** 0

# MOE 2024.06 (io_trps.svl 2023.06)
