@<TRIPOS>MOLECULE
NONAME
48 50 1 0 0 
SMALL
USER_CHARGES


@<TRIPOS>ATOM
  1 S        1.3790     0.9040    -0.0300 S.o2  1 <1>   1.2040 
  2 O        2.8040     0.7450     0.1990 O.2   1 <1>  -0.6500 
  3 O        1.0060     2.0540    -0.8160 O.2   1 <1>  -0.6500 
  4 C        0.6250    -0.6090    -0.6740 C.ar  1 <1>  -0.0090 
  5 C        0.6570     1.1020     1.5910 C.3   1 <1>  -0.0550 
  6 C        1.2010    -1.8560    -0.4330 C.ar  1 <1>  -0.1500 
  7 C       -0.5620    -0.5570    -1.4010 C.ar  1 <1>  -0.1500 
  8 C        1.5510     1.9420     2.5090 C.3   1 <1>   0.2090 
  9 C        0.6120    -3.0210    -0.8990 C.ar  1 <1>  -0.1500 
 10 C       -1.1660    -1.7110    -1.8750 C.ar  1 <1>  -0.1500 
 11 N        1.6530     3.3560     2.0610 N.pl3 1 <1>  -0.8690 
 12 C       -0.5660    -2.9260    -1.6130 C.ar  1 <1>   0.1900 
 13 C        2.5510     4.0230     1.3160 C.ar  1 <1>   0.7710 
 14 F       -1.1280    -4.0170    -2.0530 F     1 <1>  -0.1900 
 15 N        2.4450     5.3350     1.3540 N.ar  1 <1>  -0.6200 
 16 N        3.4890     3.3860     0.5870 N.ar  1 <1>  -0.1790 
 17 C        3.3060     6.0490     0.6510 C.ar  1 <1>   0.4100 
 18 C        4.3650     4.0780    -0.1750 C.ar  1 <1>   0.2110 
 19 N        3.2140     7.4030     0.7270 N.pl3 1 <1>  -0.8380 
 20 C        4.2850     5.4300    -0.1520 C.ar  1 <1>  -0.1500 
 21 C        4.3750     8.3440     0.5960 C.3   1 <1>   0.2090 
 22 C        1.9300     8.1060     1.0320 C.3   1 <1>   0.2090 
 23 C        4.1040     9.3770    -0.5100 C.3   1 <1>   0.2000 
 24 C        1.6330     9.1330    -0.0690 C.3   1 <1>  -0.1600 
 25 O        5.1340    10.3000    -0.5510 O.3   1 <1>  -0.6800 
 26 C        2.7890    10.1280    -0.2730 C.3   1 <1>  -0.1600 
 27 H        0.5460     0.1350     2.0450 H     1 <1>   0.0800 
 28 H       -0.3190     1.5430     1.5210 H     1 <1>   0.0800 
 29 H        2.1240    -1.9260     0.1190 H     1 <1>   0.1500 
 30 H       -1.0230     0.3960    -1.6080 H     1 <1>   0.1500 
 31 H        2.5340     1.5050     2.5790 H     1 <1>   0.0800 
 32 H        1.1330     1.9330     3.5030 H     1 <1>   0.0800 
 33 H        1.0520    -3.9860    -0.7190 H     1 <1>   0.1500 
 34 H       -2.0820    -1.6750    -2.4390 H     1 <1>   0.1500 
 35 H        0.9780     3.9900     2.5090 H     1 <1>   0.4000 
 36 H        3.4490     2.3620     0.5520 H     1 <1>   0.4570 
 37 H        5.0810     3.5390    -0.7750 H     1 <1>   0.1500 
 38 H        4.9400     6.0350    -0.7480 H     1 <1>   0.1500 
 39 H        5.2850     7.8150     0.3820 H     1 <1>   0.0800 
 40 H        4.5020     8.8560     1.5340 H     1 <1>   0.0800 
 41 H        2.0130     8.5980     1.9860 H     1 <1>   0.0800 
 42 H        1.1120     7.4080     1.0870 H     1 <1>   0.0800 
 43 H        4.0820     8.8760    -1.4630 H     1 <1>   0.0800 
 44 H        0.7360     9.6710     0.1840 H     1 <1>   0.0800 
 45 H        1.4450     8.6050    -0.9880 H     1 <1>   0.0800 
 46 H        5.0550    10.9340     0.1880 H     1 <1>   0.4000 
 47 H        2.5760    10.7580    -1.1180 H     1 <1>   0.0800 
 48 H        2.8740    10.7420     0.6070 H     1 <1>   0.0800 
@<TRIPOS>BOND
  1   1   2  2   
  2   1   3  2   
  3   1   4  1   
  4   1   5  1   
  5   4   6  ar  
  6   4   7  ar  
  7   5   8  1   
  8   5  27  1   
  9   5  28  1   
 10   6   9  ar  
 11   6  29  1   
 12   7  10  ar  
 13   7  30  1   
 14   8  11  1   
 15   8  31  1   
 16   8  32  1   
 17   9  12  ar  
 18   9  33  1   
 19  10  12  ar  
 20  10  34  1   
 21  11  13  1   
 22  11  35  1   
 23  12  14  1   
 24  13  15  ar  
 25  13  16  ar  
 26  15  17  ar  
 27  16  18  ar  
 28  16  36  1   
 29  17  19  1   
 30  17  20  ar  
 31  18  20  ar  
 32  18  37  1   
 33  19  21  1   
 34  19  22  1   
 35  20  38  1   
 36  21  23  1   
 37  21  39  1   
 38  21  40  1   
 39  22  24  1   
 40  22  41  1   
 41  22  42  1   
 42  23  25  1   
 43  23  26  1   
 44  23  43  1   
 45  24  26  1   
 46  24  44  1   
 47  24  45  1   
 48  25  46  1   
 49  26  47  1   
 50  26  48  1   
@<TRIPOS>SUBSTRUCTURE
  1 ****  13 GROUP 4 **** **** 0

# MOE 2024.06 (io_trps.svl 2023.06)
