@<TRIPOS>MOLECULE
NONAME
54 57 1 0 0 
SMALL
USER_CHARGES


@<TRIPOS>ATOM
  1 N       -3.3340    -0.4870     1.1210 N.ar  1 <1>  -0.6200 
  2 C       -3.0960     0.6620     0.5240 C.ar  1 <1>   0.4100 
  3 C       -2.3610    -0.9700     1.8610 C.ar  1 <1>   0.4760 
  4 N       -4.0990     1.1540    -0.2830 N.pl3 1 <1>  -0.8380 
  5 C       -1.8870     1.3290     0.6890 C.ar  1 <1>  -0.1440 
  6 N       -1.1730    -0.4420     2.0840 N.ar  1 <1>  -0.6200 
  7 C       -2.6300    -2.2900     2.5410 C.3   1 <1>  -0.0970 
  8 C       -4.0220     0.8760    -1.7370 C.3   1 <1>   0.2090 
  9 C       -5.4660     1.3110     0.2830 C.3   1 <1>   0.2090 
 10 C       -0.9550     0.7140     1.4890 C.ar  1 <1>   0.1600 
 11 C       -1.6510     2.6780     0.0030 C.3   1 <1>  -0.0160 
 12 C       -4.9050    -0.3200    -2.0990 C.3   1 <1>  -0.1600 
 13 C       -6.3510     0.1230    -0.1020 C.3   1 <1>  -0.1600 
 14 C       -0.4220     3.4540     0.4940 C.3   1 <1>  -0.2400 
 15 C       -6.3460    -0.1220    -1.6150 C.3   1 <1>   0.1000 
 16 C       -7.1930    -1.3310    -1.9870 C.2   1 <1>  -0.3320 
 17 N       -7.5880    -1.5980    -3.2490 N.pl3 1 <1>   0.3000 
 18 C       -7.6930    -2.3250    -1.2190 C.2   1 <1>  -0.1500 
 19 N       -8.3230    -2.7230    -3.3200 N.2   1 <1>  -0.7070 
 20 C       -8.3810    -3.1570    -2.0980 C.2   1 <1>   0.1080 
 21 C       -9.1270    -4.4280    -1.7210 C.3   1 <1>   0.1640 
 22 C       -8.8030    -4.9120    -0.3110 C.ar  1 <1>  -0.1430 
 23 C       -7.6140    -5.5820    -0.0640 C.ar  1 <1>  -0.1500 
 24 C       -9.6830    -4.6830     0.7360 C.ar  1 <1>  -0.1500 
 25 C       -7.3100    -6.0230     1.2120 C.ar  1 <1>  -0.1500 
 26 C       -9.3810    -5.1240     2.0130 C.ar  1 <1>  -0.1500 
 27 C       -8.1950    -5.7940     2.2520 C.ar  1 <1>  -0.1500 
 28 H       -3.6120    -2.6490     2.2950 H     1 <1>   0.0800 
 29 H       -2.5580    -2.1650     3.6040 H     1 <1>   0.0800 
 30 H       -1.9030    -3.0110     2.2190 H     1 <1>   0.0800 
 31 H       -3.0030     0.6630    -2.0110 H     1 <1>   0.0800 
 32 H       -4.3420     1.7500    -2.2770 H     1 <1>   0.0800 
 33 H       -5.8940     2.2250    -0.0890 H     1 <1>   0.0800 
 34 H       -5.4050     1.3810     1.3560 H     1 <1>   0.0800 
 35 H        0.0060     1.1630     1.6610 H     1 <1>   0.1500 
 36 H       -2.5200     3.2940     0.1590 H     1 <1>   0.0800 
 37 H       -1.5600     2.5140    -1.0560 H     1 <1>   0.0800 
 38 H       -4.4930    -1.2030    -1.6420 H     1 <1>   0.0800 
 39 H       -4.8870    -0.4610    -3.1630 H     1 <1>   0.0800 
 40 H       -7.3560     0.3050     0.2340 H     1 <1>   0.0800 
 41 H       -5.9860    -0.7500     0.4090 H     1 <1>   0.0800 
 42 H       -0.4810     3.6150     1.5560 H     1 <1>   0.0800 
 43 H       -0.3790     4.4120     0.0070 H     1 <1>   0.0800 
 44 H        0.4820     2.9190     0.2640 H     1 <1>   0.0800 
 45 H       -6.7610     0.7480    -2.0960 H     1 <1>   0.0800 
 46 H       -7.3720    -1.0370    -4.0810 H     1 <1>   0.2700 
 47 H       -7.5980    -2.4760    -0.1580 H     1 <1>   0.1500 
 48 H       -8.8710    -5.1960    -2.4280 H     1 <1>   0.0800 
 49 H      -10.1810    -4.2430    -1.8150 H     1 <1>   0.0800 
 50 H       -6.9180    -5.7580    -0.8670 H     1 <1>   0.1500 
 51 H      -10.6070    -4.1600     0.5620 H     1 <1>   0.1500 
 52 H       -6.3860    -6.5410     1.3960 H     1 <1>   0.1500 
 53 H      -10.0690    -4.9440     2.8200 H     1 <1>   0.1500 
 54 H       -7.9590    -6.1370     3.2440 H     1 <1>   0.1500 
@<TRIPOS>BOND
  1   1   2  ar  
  2   1   3  ar  
  3   2   4  1   
  4   2   5  ar  
  5   3   6  ar  
  6   3   7  1   
  7   4   8  1   
  8   4   9  1   
  9   5  10  ar  
 10   5  11  1   
 11   6  10  ar  
 12   7  28  1   
 13   7  29  1   
 14   7  30  1   
 15   8  12  1   
 16   8  31  1   
 17   8  32  1   
 18   9  13  1   
 19   9  33  1   
 20   9  34  1   
 21  10  35  1   
 22  11  14  1   
 23  11  36  1   
 24  11  37  1   
 25  12  15  1   
 26  12  38  1   
 27  12  39  1   
 28  13  15  1   
 29  13  40  1   
 30  13  41  1   
 31  14  42  1   
 32  14  43  1   
 33  14  44  1   
 34  15  16  1   
 35  15  45  1   
 36  16  17  1   
 37  16  18  2   
 38  17  19  1   
 39  17  46  1   
 40  18  20  1   
 41  18  47  1   
 42  19  20  2   
 43  20  21  1   
 44  21  22  1   
 45  21  48  1   
 46  21  49  1   
 47  22  23  ar  
 48  22  24  ar  
 49  23  25  ar  
 50  23  50  1   
 51  24  26  ar  
 52  24  51  1   
 53  25  27  ar  
 54  25  52  1   
 55  26  27  ar  
 56  26  53  1   
 57  27  54  1   
@<TRIPOS>SUBSTRUCTURE
  1 ****  13 GROUP 4 **** **** 0

# MOE 2024.06 (io_trps.svl 2023.06)
