@<TRIPOS>MOLECULE
NONAME
43 46 1 0 0 
SMALL
USER_CHARGES


@<TRIPOS>ATOM
  1 S        0.2300     0.0680     1.3820 S.3   1 <1>  -0.0800 
  2 C        0.9730     1.6160     0.9720 C.ar  1 <1>   0.0400 
  3 C        1.0420    -0.7710     0.0390 C.2   1 <1>  -0.0450 
  4 C        1.8000     1.4630    -0.1280 C.ar  1 <1>   0.0000 
  5 C        0.7870     2.8220     1.6220 C.ar  1 <1>  -0.1500 
  6 C        0.8330    -2.1860    -0.1640 C.2   1 <1>   0.7150 
  7 C        1.8230     0.1190    -0.6200 C.2   1 <1>  -0.1500 
  8 C        2.4770     2.5870    -0.5960 C.ar  1 <1>  -0.1500 
  9 C        1.4670     3.9280     1.1410 C.ar  1 <1>  -0.1500 
 10 O        1.7500    -2.8470    -0.6180 O.2   1 <1>  -0.5700 
 11 N       -0.3510    -2.8360     0.1270 N.am  1 <1>  -0.6600 
 12 C        2.3080     3.8070     0.0370 C.ar  1 <1>  -0.1500 
 13 C       -1.6990    -2.2020    -0.0300 C.3   1 <1>   0.2200 
 14 C       -0.2930    -4.2400     0.6350 C.3   1 <1>   0.0600 
 15 C       -2.8390    -3.2040    -0.2350 C.3   1 <1>  -0.1600 
 16 C       -1.8000    -1.3230    -1.2810 C.3   1 <1>  -0.1600 
 17 C       -3.9710    -2.3990    -0.8830 C.3   1 <1>  -0.0800 
 18 C       -3.3010    -1.1990    -1.5690 C.3   1 <1>  -0.0800 
 19 C       -4.9700    -1.8190     0.1280 C.3   1 <1>  -0.1600 
 20 C       -3.9370     0.0600    -0.9620 C.3   1 <1>  -0.1600 
 21 C       -5.2600    -0.4190    -0.3860 C.3   1 <1>   0.2000 
 22 O       -5.6530     0.3970     0.6510 O.3   1 <1>  -0.6800 
 23 H        0.1350     2.8900     2.4730 H     1 <1>   0.1500 
 24 H        2.4390    -0.1370    -1.4640 H     1 <1>   0.1500 
 25 H        3.1280     2.4980    -1.4470 H     1 <1>   0.1500 
 26 H        1.3480     4.8840     1.6210 H     1 <1>   0.1500 
 27 H        2.8310     4.6750    -0.3250 H     1 <1>   0.1500 
 28 H       -1.9210    -1.6120     0.8430 H     1 <1>   0.0800 
 29 H       -0.9490    -4.3570     1.4800 H     1 <1>   0.0800 
 30 H        0.7080    -4.4840     0.9480 H     1 <1>   0.0800 
 31 H       -0.5800    -4.9240    -0.1450 H     1 <1>   0.0800 
 32 H       -2.5310    -3.9610    -0.9350 H     1 <1>   0.0800 
 33 H       -3.1480    -3.6660     0.6860 H     1 <1>   0.0800 
 34 H       -1.3440    -0.3590    -1.1530 H     1 <1>   0.0800 
 35 H       -1.3310    -1.8310    -2.1060 H     1 <1>   0.0800 
 36 H       -4.4960    -2.9970    -1.6090 H     1 <1>   0.0800 
 37 H       -3.4860    -1.2250    -2.6310 H     1 <1>   0.0800 
 38 H       -4.5210    -1.7620     1.1040 H     1 <1>   0.0800 
 39 H       -5.8670    -2.4100     0.1770 H     1 <1>   0.0800 
 40 H       -4.0900     0.8200    -1.7070 H     1 <1>   0.0800 
 41 H       -3.3160     0.4480    -0.1740 H     1 <1>   0.0800 
 42 H       -6.0320    -0.4320    -1.1380 H     1 <1>   0.0800 
 43 H       -4.9520     0.4380     1.3260 H     1 <1>   0.4000 
@<TRIPOS>BOND
  1   1   2  1   
  2   1   3  1   
  3   2   4  ar  
  4   2   5  ar  
  5   3   6  1   
  6   3   7  2   
  7   4   7  1   
  8   4   8  ar  
  9   5   9  ar  
 10   5  23  1   
 11   6  10  2   
 12   6  11  am  
 13   7  24  1   
 14   8  12  ar  
 15   8  25  1   
 16   9  12  ar  
 17   9  26  1   
 18  11  13  1   
 19  11  14  1   
 20  12  27  1   
 21  13  15  1   
 22  13  16  1   
 23  13  28  1   
 24  14  29  1   
 25  14  30  1   
 26  14  31  1   
 27  15  17  1   
 28  15  32  1   
 29  15  33  1   
 30  16  18  1   
 31  16  34  1   
 32  16  35  1   
 33  17  18  1   
 34  17  19  1   
 35  17  36  1   
 36  18  20  1   
 37  18  37  1   
 38  19  21  1   
 39  19  38  1   
 40  19  39  1   
 41  20  21  1   
 42  20  40  1   
 43  20  41  1   
 44  21  22  1   
 45  21  42  1   
 46  22  43  1   
@<TRIPOS>SUBSTRUCTURE
  1 ****  16 GROUP 4 **** **** 0

# MOE 2024.06 (io_trps.svl 2023.06)
