@<TRIPOS>MOLECULE
NONAME
51 54 1 0 0 
SMALL
USER_CHARGES


@<TRIPOS>ATOM
  1 O       -0.6090     0.9810     1.6710 O.2   1 <1>  -0.5700 
  2 C       -1.6330     1.2670     1.0970 C.2   1 <1>   0.5690 
  3 N       -2.7950     0.5660     1.3040 N.am  1 <1>  -0.6600 
  4 C       -1.6120     2.4370     0.1240 C.3   1 <1>  -0.0990 
  5 C       -2.8550    -0.5670     2.2700 C.3   1 <1>   0.1400 
  6 C       -4.0960     0.8180     0.6200 C.3   1 <1>   0.1400 
  7 C       -0.2490     3.1340     0.0190 C.3   1 <1>   0.0210 
  8 C       -3.2620    -1.8430     1.5300 C.3   1 <1>  -0.1600 
  9 C       -4.5050    -0.4390    -0.1500 C.3   1 <1>  -0.1600 
 10 C       -0.3240     4.2810    -0.9710 C.2   1 <1>  -0.1810 
 11 C       -4.5850    -1.6700     0.7700 C.3   1 <1>   0.4240 
 12 C       -0.9530     5.5070    -0.7760 C.2   1 <1>   0.1390 
 13 C        0.1850     4.3530    -2.2180 C.2   1 <1>  -0.3020 
 14 O       -5.5500    -1.4070     1.7610 O.3   1 <1>  -0.5600 
 15 C       -4.9180    -2.9480    -0.0320 C.ar  1 <1>  -0.1430 
 16 N       -0.8540     6.2820    -1.8120 N.2   1 <1>  -0.7070 
 17 N       -0.1440     5.5660    -2.7050 N.pl3 1 <1>   0.3000 
 18 C       -6.8850    -1.6570     1.4480 C.3   1 <1>   0.1200 
 19 C       -6.0950    -3.6540     0.1940 C.ar  1 <1>  -0.1430 
 20 C       -4.0420    -3.4170    -1.0060 C.ar  1 <1>  -0.1500 
 21 C       -7.0700    -3.1570     1.2420 C.3   1 <1>  -0.0170 
 22 C       -6.3830    -4.8020    -0.5280 C.ar  1 <1>  -0.1500 
 23 C       -4.3290    -4.5600    -1.7290 C.ar  1 <1>  -0.1500 
 24 C       -5.4980    -5.2620    -1.4970 C.ar  1 <1>   0.0820 
 25 O       -5.7040    -6.3730    -2.2470 O.3   1 <1>  -0.3620 
 26 C       -6.8530    -7.1710    -2.0740 C.3   1 <1>   0.0400 
 27 H       -2.3430     3.1550     0.4420 H     1 <1>   0.0800 
 28 H       -1.8870     2.0750    -0.8490 H     1 <1>   0.0800 
 29 H       -3.5760    -0.3390     3.0370 H     1 <1>   0.0800 
 30 H       -1.9010    -0.7160     2.7470 H     1 <1>   0.0800 
 31 H       -4.0330     1.6490    -0.0580 H     1 <1>   0.0800 
 32 H       -4.8410     1.0510     1.3620 H     1 <1>   0.0800 
 33 H        0.4950     2.4280    -0.3070 H     1 <1>   0.0800 
 34 H        0.0490     3.5100     0.9820 H     1 <1>   0.0800 
 35 H       -3.3610    -2.6540     2.2280 H     1 <1>   0.0800 
 36 H       -2.4710    -2.0980     0.8500 H     1 <1>   0.0800 
 37 H       -3.7770    -0.6130    -0.9200 H     1 <1>   0.0800 
 38 H       -5.4470    -0.2830    -0.6390 H     1 <1>   0.0800 
 39 H       -1.4670     5.7930     0.1270 H     1 <1>   0.1500 
 40 H        0.7510     3.6290    -2.7750 H     1 <1>   0.1500 
 41 H        0.0970     5.9340    -3.6330 H     1 <1>   0.2700 
 42 H       -7.1510    -1.1090     0.5610 H     1 <1>   0.0800 
 43 H       -7.4870    -1.3130     2.2700 H     1 <1>   0.0800 
 44 H       -3.1240    -2.8960    -1.2130 H     1 <1>   0.1500 
 45 H       -8.0810    -3.3490     0.9320 H     1 <1>   0.0800 
 46 H       -6.8960    -3.6700     2.1710 H     1 <1>   0.0800 
 47 H       -7.2970    -5.3260    -0.3270 H     1 <1>   0.1500 
 48 H       -3.6470    -4.9160    -2.4790 H     1 <1>   0.1500 
 49 H       -6.7950    -7.9930    -2.7640 H     1 <1>   0.0800 
 50 H       -7.7250    -6.5780    -2.2850 H     1 <1>   0.0800 
 51 H       -6.8720    -7.5420    -1.0650 H     1 <1>   0.0800 
@<TRIPOS>BOND
  1   1   2  2   
  2   2   3  am  
  3   2   4  1   
  4   3   5  1   
  5   3   6  1   
  6   4   7  1   
  7   4  27  1   
  8   4  28  1   
  9   5   8  1   
 10   5  29  1   
 11   5  30  1   
 12   6   9  1   
 13   6  31  1   
 14   6  32  1   
 15   7  10  1   
 16   7  33  1   
 17   7  34  1   
 18   8  11  1   
 19   8  35  1   
 20   8  36  1   
 21   9  11  1   
 22   9  37  1   
 23   9  38  1   
 24  10  12  1   
 25  10  13  2   
 26  11  14  1   
 27  11  15  1   
 28  12  16  2   
 29  12  39  1   
 30  13  17  1   
 31  13  40  1   
 32  14  18  1   
 33  15  19  ar  
 34  15  20  ar  
 35  16  17  1   
 36  17  41  1   
 37  18  21  1   
 38  18  42  1   
 39  18  43  1   
 40  19  21  1   
 41  19  22  ar  
 42  20  23  ar  
 43  20  44  1   
 44  21  45  1   
 45  21  46  1   
 46  22  24  ar  
 47  22  47  1   
 48  23  24  ar  
 49  23  48  1   
 50  24  25  1   
 51  25  26  1   
 52  26  49  1   
 53  26  50  1   
 54  26  51  1   
@<TRIPOS>SUBSTRUCTURE
  1 ****   9 GROUP 4 **** **** 0

# MOE 2024.06 (io_trps.svl 2023.06)
