@<TRIPOS>MOLECULE
NONAME
44 46 1 0 0 
SMALL
USER_CHARGES


@<TRIPOS>ATOM
  1 CL       0.2810     0.6810    -1.3560 Cl    1 <1>  -0.1770 
  2 C        0.3680     2.2710    -0.6420 C.ar  1 <1>   0.1770 
  3 C       -0.7290     3.1090    -0.7180 C.ar  1 <1>  -0.1500 
  4 C        1.5320     2.6690    -0.0130 C.ar  1 <1>  -0.1500 
  5 C       -0.6570     4.3710    -0.1520 C.ar  1 <1>  -0.1500 
  6 C        1.5980     3.9320     0.5510 C.ar  1 <1>  -0.1500 
  7 C        0.5050     4.7860     0.4840 C.ar  1 <1>  -0.1430 
  8 C        0.5870     6.1740     1.0990 C.3   1 <1>  -0.0160 
  9 C        1.1350     7.1770     0.0750 C.3   1 <1>  -0.0990 
 10 C        1.3190     8.5820     0.6310 C.2   1 <1>   0.5690 
 11 O        0.7740     8.8550     1.6760 O.2   1 <1>  -0.5700 
 12 N        2.0880     9.5040    -0.0410 N.am  1 <1>  -0.6600 
 13 C        2.5680    10.7240     0.6870 C.3   1 <1>   0.1400 
 14 C        2.6490     9.2920    -1.4140 C.3   1 <1>   0.1400 
 15 C        4.0910    10.7560     0.9570 C.3   1 <1>   0.2200 
 16 C        4.1850     9.1640    -1.4810 C.3   1 <1>  -0.0190 
 17 N        4.8310    11.2330    -0.2470 N.am  1 <1>  -0.6600 
 18 C        4.7080     9.4490     1.5210 C.3   1 <1>   0.1200 
 19 C        4.8470    10.5210    -1.4100 C.2   1 <1>   0.5690 
 20 C        4.8680     8.1780    -0.5140 C.3   1 <1>   0.1200 
 21 C        5.4990    12.5610    -0.1250 C.3   1 <1>   0.0600 
 22 O        4.4200     8.2760     0.8040 O.3   1 <1>  -0.5600 
 23 O        5.3840    10.9350    -2.4110 O.2   1 <1>  -0.5700 
 24 H       -1.6230     2.7760    -1.2130 H     1 <1>   0.1500 
 25 H        2.3700     1.9980     0.0340 H     1 <1>   0.1500 
 26 H       -1.5080     5.0270    -0.2060 H     1 <1>   0.1500 
 27 H        2.5010     4.2490     1.0440 H     1 <1>   0.1500 
 28 H       -0.3890     6.4860     1.4300 H     1 <1>   0.0800 
 29 H        1.2300     6.1530     1.9620 H     1 <1>   0.0800 
 30 H        0.4690     7.2250    -0.7660 H     1 <1>   0.0800 
 31 H        2.0890     6.8160    -0.2610 H     1 <1>   0.0800 
 32 H        2.2870    11.6000     0.1300 H     1 <1>   0.0800 
 33 H        2.0730    10.7920     1.6390 H     1 <1>   0.0800 
 34 H        2.2170     8.4140    -1.8560 H     1 <1>   0.0800 
 35 H        2.3470    10.1210    -2.0310 H     1 <1>   0.0800 
 36 H        4.2360    11.5000     1.7200 H     1 <1>   0.0800 
 37 H        4.4030     8.7970    -2.4670 H     1 <1>   0.0800 
 38 H        4.3170     9.2920     2.5110 H     1 <1>   0.0800 
 39 H        5.7760     9.5460     1.5970 H     1 <1>   0.0800 
 40 H        5.9360     8.3140    -0.5220 H     1 <1>   0.0800 
 41 H        4.6570     7.1720    -0.8310 H     1 <1>   0.0800 
 42 H        6.2140    12.5370     0.6790 H     1 <1>   0.0800 
 43 H        4.7650    13.3220     0.0740 H     1 <1>   0.0800 
 44 H        6.0170    12.8150    -1.0340 H     1 <1>   0.0800 
@<TRIPOS>BOND
  1   1   2  1   
  2   2   3  ar  
  3   2   4  ar  
  4   3   5  ar  
  5   3  24  1   
  6   4   6  ar  
  7   4  25  1   
  8   5   7  ar  
  9   5  26  1   
 10   6   7  ar  
 11   6  27  1   
 12   7   8  1   
 13   8   9  1   
 14   8  28  1   
 15   8  29  1   
 16   9  10  1   
 17   9  30  1   
 18   9  31  1   
 19  10  11  2   
 20  10  12  am  
 21  12  13  1   
 22  12  14  1   
 23  13  15  1   
 24  13  32  1   
 25  13  33  1   
 26  14  16  1   
 27  14  34  1   
 28  14  35  1   
 29  15  17  1   
 30  15  18  1   
 31  15  36  1   
 32  16  19  1   
 33  16  20  1   
 34  16  37  1   
 35  17  19  am  
 36  17  21  1   
 37  18  22  1   
 38  18  38  1   
 39  18  39  1   
 40  19  23  2   
 41  20  22  1   
 42  20  40  1   
 43  20  41  1   
 44  21  42  1   
 45  21  43  1   
 46  21  44  1   
@<TRIPOS>SUBSTRUCTURE
  1 ****   9 GROUP 4 **** **** 0

# MOE 2024.06 (io_trps.svl 2023.06)
