@<TRIPOS>MOLECULE
NONAME
62 65 1 0 0 
SMALL
USER_CHARGES


@<TRIPOS>ATOM
  1 O        0.8840     0.2530    -1.1160 O.3   1 <1>  -0.6800 
  2 C        1.7200     0.0910    -2.2180 C.3   1 <1>   0.2000 
  3 C        2.3170    -1.3200    -2.2050 C.3   1 <1>  -0.0800 
  4 C        2.9530     0.9580    -1.9680 C.3   1 <1>   0.3430 
  5 C        3.5200    -1.2200    -1.2540 C.3   1 <1>   0.3430 
  6 C        1.3540    -2.4840    -1.8830 C.3   1 <1>  -0.0160 
  7 N        3.6590     0.2230    -0.8730 N.4   1 <1>  -0.9590 
  8 C        2.1470    -3.7730    -1.6910 C.ar  1 <1>  -0.1430 
  9 C        5.0340     0.6740    -0.5110 C.3   1 <1>   0.4230 
 10 C        2.5790    -4.2390    -0.4230 C.ar  1 <1>   0.0000 
 11 C        2.4920    -4.5110    -2.7860 C.ar  1 <1>  -0.1500 
 12 C        5.5570    -0.1490     0.6690 C.3   1 <1>  -0.1600 
 13 C        5.0160     2.1500    -0.1040 C.3   1 <1>  -0.1600 
 14 C        3.3940    -5.3980    -0.3960 C.ar  1 <1>   0.3100 
 15 C        2.2610    -3.6310     0.8170 C.ar  1 <1>  -0.1500 
 16 C        3.2790    -5.6600    -2.6440 C.ar  1 <1>   0.1600 
 17 C        6.9660     0.2810     1.1010 C.3   1 <1>   0.5030 
 18 C        6.4060     2.6580     0.3040 C.3   1 <1>   0.5030 
 19 N        3.7350    -6.0880    -1.5120 N.ar  1 <1>  -0.6200 
 20 C        3.8850    -5.8600     0.8350 C.ar  1 <1>  -0.1500 
 21 C        2.7510    -4.1120     2.0010 C.ar  1 <1>  -0.1500 
 22 N        7.0580     1.7400     1.2490 N.4   1 <1>  -0.9060 
 23 C        7.2800    -0.2960     2.4790 C.3   1 <1>  -0.2400 
 24 C        8.0330    -0.2120     0.1200 C.3   1 <1>  -0.2400 
 25 C        7.3090     2.8770    -0.9120 C.3   1 <1>  -0.2400 
 26 C        6.2730     3.9860     1.0460 C.3   1 <1>  -0.2400 
 27 C        3.5790    -5.2360     2.0130 C.ar  1 <1>  -0.1500 
 28 H       -0.0330    -0.0330    -1.3200 H     1 <1>   0.4000 
 29 H        1.1890     0.3480    -3.1200 H     1 <1>   0.0800 
 30 H        2.7230    -1.5100    -3.1830 H     1 <1>   0.0800 
 31 H        2.6660     1.9550    -1.6750 H     1 <1>   0.0800 
 32 H        3.5640     0.9950    -2.8550 H     1 <1>   0.0800 
 33 H        4.4050    -1.5750    -1.7580 H     1 <1>   0.0800 
 34 H        3.3630    -1.8170    -0.3720 H     1 <1>   0.0800 
 35 H        0.6700    -2.6090    -2.7050 H     1 <1>   0.0800 
 36 H        0.7500    -2.2830    -1.0190 H     1 <1>   0.0800 
 37 H        3.0190     0.3450    -0.0690 H     1 <1>   0.4500 
 38 H        5.6850     0.5410    -1.3610 H     1 <1>   0.0800 
 39 H        2.1820    -4.2380    -3.7780 H     1 <1>   0.1500 
 40 H        5.5940    -1.1930     0.4140 H     1 <1>   0.0800 
 41 H        4.8830    -0.0440     1.5020 H     1 <1>   0.0800 
 42 H        4.3330     2.2830     0.7180 H     1 <1>   0.0800 
 43 H        4.6660     2.7580    -0.9180 H     1 <1>   0.0800 
 44 H        1.6110    -2.7790     0.8490 H     1 <1>   0.1500 
 45 H        3.5260    -6.2180    -3.5320 H     1 <1>   0.1500 
 46 H        4.5110    -6.7340     0.8210 H     1 <1>   0.1500 
 47 H        2.4980    -3.6450     2.9390 H     1 <1>   0.1500 
 48 H        8.0530     1.9870     1.2860 H     1 <1>   0.4500 
 49 H        6.7020     1.9690     2.1810 H     1 <1>   0.4500 
 50 H        7.2320    -1.3710     2.4500 H     1 <1>   0.0800 
 51 H        6.5740     0.0380     3.2200 H     1 <1>   0.0800 
 52 H        8.2730    -0.0280     2.7970 H     1 <1>   0.0800 
 53 H        8.1010    -1.2860     0.1670 H     1 <1>   0.0800 
 54 H        9.0030     0.1790     0.3720 H     1 <1>   0.0800 
 55 H        7.8080     0.0330    -0.8990 H     1 <1>   0.0800 
 56 H        6.9340     3.6980    -1.5000 H     1 <1>   0.0800 
 57 H        7.3440     2.0280    -1.5640 H     1 <1>   0.0800 
 58 H        8.3110     3.1340    -0.6130 H     1 <1>   0.0800 
 59 H        5.8020     4.7190     0.4130 H     1 <1>   0.0800 
 60 H        7.2370     4.3760     1.3250 H     1 <1>   0.0800 
 61 H        5.6670     3.8880     1.9300 H     1 <1>   0.0800 
 62 H        3.9580    -5.6070     2.9500 H     1 <1>   0.1500 
@<TRIPOS>BOND
  1   1   2  1   
  2   1  28  1   
  3   2   3  1   
  4   2   4  1   
  5   2  29  1   
  6   3   5  1   
  7   3   6  1   
  8   3  30  1   
  9   4   7  1   
 10   4  31  1   
 11   4  32  1   
 12   5   7  1   
 13   5  33  1   
 14   5  34  1   
 15   6   8  1   
 16   6  35  1   
 17   6  36  1   
 18   7   9  1   
 19   7  37  1   
 20   8  10  ar  
 21   8  11  ar  
 22   9  12  1   
 23   9  13  1   
 24   9  38  1   
 25  10  14  ar  
 26  10  15  ar  
 27  11  16  ar  
 28  11  39  1   
 29  12  17  1   
 30  12  40  1   
 31  12  41  1   
 32  13  18  1   
 33  13  42  1   
 34  13  43  1   
 35  14  19  ar  
 36  14  20  ar  
 37  15  21  ar  
 38  15  44  1   
 39  16  19  ar  
 40  16  45  1   
 41  17  22  1   
 42  17  23  1   
 43  17  24  1   
 44  18  22  1   
 45  18  25  1   
 46  18  26  1   
 47  20  27  ar  
 48  20  46  1   
 49  21  27  ar  
 50  21  47  1   
 51  22  48  1   
 52  22  49  1   
 53  23  50  1   
 54  23  51  1   
 55  23  52  1   
 56  24  53  1   
 57  24  54  1   
 58  24  55  1   
 59  25  56  1   
 60  25  57  1   
 61  25  58  1   
 62  26  59  1   
 63  26  60  1   
 64  26  61  1   
 65  27  62  1   
@<TRIPOS>SUBSTRUCTURE
  1 ****   5 GROUP 4 **** **** 0

# MOE 2024.06 (io_trps.svl 2023.06)
