@<TRIPOS>MOLECULE
NONAME
50 53 1 0 0 
SMALL
USER_CHARGES


@<TRIPOS>ATOM
  1 O       -1.2980    -0.0220    -0.2090 O.2   1 <1>  -0.5700 
  2 C       -2.0690     0.8950    -0.4080 C.2   1 <1>   0.5690 
  3 N       -3.2790     0.6120    -1.0130 N.am  1 <1>  -0.6600 
  4 C       -1.5630     2.3040     0.0300 C.3   1 <1>   0.0610 
  5 C       -3.4020    -0.6460    -1.8010 C.3   1 <1>   0.3200 
  6 C       -4.6110     1.2160    -0.6920 C.3   1 <1>   0.1400 
  7 C       -1.2090     2.2930     1.5420 C.3   1 <1>  -0.1600 
  8 C       -0.2580     2.6050    -0.7590 C.3   1 <1>  -0.1600 
  9 C       -2.5260     3.4980    -0.2130 C.3   1 <1>  -0.1600 
 10 C       -3.8880    -1.7520    -0.8900 C.2   1 <1>  -0.3320 
 11 C       -4.9700     1.0260     0.7870 C.3   1 <1>   0.1200 
 12 C       -0.5790     3.6280     1.9850 C.3   1 <1>  -0.0800 
 13 C        0.3830     3.9350    -0.3260 C.3   1 <1>  -0.0800 
 14 C       -1.9000     4.8380     0.2140 C.3   1 <1>  -0.0800 
 15 N       -3.1630    -2.1630     0.1640 N.pl3 1 <1>   0.0330 
 16 C       -5.0120    -2.5010    -0.8920 C.2   1 <1>   0.0770 
 17 O       -6.0790     1.8050     1.0920 O.3   1 <1>  -0.6800 
 18 C        0.7090     3.8710     1.1770 C.3   1 <1>  -0.1600 
 19 C       -1.5670     4.7760     1.7160 C.3   1 <1>  -0.1600 
 20 C       -0.6100     5.0790    -0.5860 C.3   1 <1>  -0.1600 
 21 C       -3.8950    -3.1380     0.7430 C.2   1 <1>   0.0060 
 22 N       -5.0130    -3.3700     0.1360 N.2   1 <1>  -0.5650 
 23 C       -3.4380    -3.8730     1.9830 C.3   1 <1>  -0.0600 
 24 H       -2.4470    -0.9150    -2.2210 H     1 <1>   0.0800 
 25 H       -4.0900    -0.5040    -2.6170 H     1 <1>   0.0800 
 26 H       -5.3760     0.7310    -1.2740 H     1 <1>   0.0800 
 27 H       -4.6260     2.2510    -0.9690 H     1 <1>   0.0800 
 28 H       -0.5140     1.4970     1.7460 H     1 <1>   0.0800 
 29 H       -2.0930     2.1030     2.1230 H     1 <1>   0.0800 
 30 H       -0.4730     2.6350    -1.8130 H     1 <1>   0.0800 
 31 H        0.4550     1.8130    -0.6020 H     1 <1>   0.0800 
 32 H       -3.4190     3.3710     0.3680 H     1 <1>   0.0800 
 33 H       -2.7920     3.5460    -1.2550 H     1 <1>   0.0800 
 34 H       -4.1660     1.3230     1.4350 H     1 <1>   0.0800 
 35 H       -5.2250    -0.0030     0.9780 H     1 <1>   0.0800 
 36 H       -0.3450     3.5880     3.0350 H     1 <1>   0.0800 
 37 H        1.2870     4.1040    -0.8870 H     1 <1>   0.0800 
 38 H       -2.5940     5.6410     0.0310 H     1 <1>   0.0800 
 39 H       -2.2530    -1.7720     0.4450 H     1 <1>   0.2700 
 40 H       -5.8360    -2.4630    -1.5850 H     1 <1>   0.1500 
 41 H       -5.8470     2.7530     1.1300 H     1 <1>   0.4000 
 42 H        1.4120     3.0780     1.3640 H     1 <1>   0.0800 
 43 H        1.1670     4.7930     1.4900 H     1 <1>   0.0800 
 44 H       -1.1330     5.7100     2.0310 H     1 <1>   0.0800 
 45 H       -2.4660     4.6260     2.2870 H     1 <1>   0.0800 
 46 H       -0.8360     5.1370    -1.6370 H     1 <1>   0.0800 
 47 H       -0.1700     6.0170    -0.2950 H     1 <1>   0.0800 
 48 H       -2.5140    -4.3840     1.7880 H     1 <1>   0.0800 
 49 H       -4.1800    -4.5970     2.2690 H     1 <1>   0.0800 
 50 H       -3.3010    -3.1800     2.7920 H     1 <1>   0.0800 
@<TRIPOS>BOND
  1   1   2  2   
  2   2   3  am  
  3   2   4  1   
  4   3   5  1   
  5   3   6  1   
  6   4   7  1   
  7   4   8  1   
  8   4   9  1   
  9   5  10  1   
 10   5  24  1   
 11   5  25  1   
 12   6  11  1   
 13   6  26  1   
 14   6  27  1   
 15   7  12  1   
 16   7  28  1   
 17   7  29  1   
 18   8  13  1   
 19   8  30  1   
 20   8  31  1   
 21   9  14  1   
 22   9  32  1   
 23   9  33  1   
 24  10  15  1   
 25  10  16  2   
 26  11  17  1   
 27  11  34  1   
 28  11  35  1   
 29  12  18  1   
 30  12  19  1   
 31  12  36  1   
 32  13  18  1   
 33  13  20  1   
 34  13  37  1   
 35  14  19  1   
 36  14  20  1   
 37  14  38  1   
 38  15  21  1   
 39  15  39  1   
 40  16  22  1   
 41  16  40  1   
 42  17  41  1   
 43  18  42  1   
 44  18  43  1   
 45  19  44  1   
 46  19  45  1   
 47  20  46  1   
 48  20  47  1   
 49  21  22  2   
 50  21  23  1   
 51  23  48  1   
 52  23  49  1   
 53  23  50  1   
@<TRIPOS>SUBSTRUCTURE
  1 ****   2 GROUP 4 **** **** 0

# MOE 2024.06 (io_trps.svl 2023.06)
