@<TRIPOS>MOLECULE
NONAME
50 53 1 0 0 
SMALL
USER_CHARGES


@<TRIPOS>ATOM
  1 F        0.7620     1.4820    -0.8800 F     1 <1>  -0.1900 
  2 C       -0.0880     2.3670    -0.4250 C.ar  1 <1>   0.1900 
  3 C       -0.1250     3.6110    -1.0050 C.ar  1 <1>  -0.1500 
  4 C       -0.9160     1.9940     0.6360 C.ar  1 <1>  -0.1500 
  5 C       -1.0350     4.5470    -0.4990 C.ar  1 <1>   0.0000 
  6 C       -1.8180     2.9070     1.1310 C.ar  1 <1>  -0.1500 
  7 C       -1.8710     4.1820     0.5540 C.ar  1 <1>  -0.1520 
  8 C       -1.3510     5.8910    -0.8110 C.2   1 <1>  -0.1810 
  9 N       -2.6740     5.2510     0.8540 N.pl3 1 <1>   0.0330 
 10 C       -2.3510     6.2820     0.0170 C.2   1 <1>  -0.3320 
 11 C       -0.6500     6.7070    -1.8920 C.3   1 <1>   0.0820 
 12 C       -3.0810     7.6130     0.1000 C.3   1 <1>  -0.0600 
 13 C       -0.0740     8.0280    -1.3870 C.2   1 <1>   0.5690 
 14 O       -0.2700     9.0150    -2.0590 O.2   1 <1>  -0.5700 
 15 N        0.6780     8.1260    -0.2390 N.am  1 <1>  -0.6600 
 16 C        0.7860     9.4390     0.4780 C.3   1 <1>   0.1400 
 17 C        1.3700     6.9830     0.4260 C.3   1 <1>   0.1400 
 18 C        2.2220    10.0220     0.5900 C.3   1 <1>   0.4230 
 19 C        2.9010     7.1810     0.4280 C.3   1 <1>  -0.0800 
 20 N        3.1920     9.5930    -0.4960 N.4   1 <1>  -0.9590 
 21 C        2.8170     9.8080     1.9980 C.3   1 <1>   0.1200 
 22 C        3.4760     7.5340     1.8090 C.3   1 <1>   0.1200 
 23 C        3.3820     8.1120    -0.7000 C.3   1 <1>   0.3430 
 24 C        2.7900    10.2130    -1.7990 C.3   1 <1>   0.2630 
 25 O        2.6990     8.4940     2.4440 O.3   1 <1>  -0.5600 
 26 H        0.5210     3.8540    -1.8250 H     1 <1>   0.1500 
 27 H       -0.8360     1.0020     1.0440 H     1 <1>   0.1500 
 28 H       -2.4760     2.6540     1.9440 H     1 <1>   0.1500 
 29 H       -3.4000     5.2600     1.5770 H     1 <1>   0.2700 
 30 H       -1.3640     6.9170    -2.6670 H     1 <1>   0.0800 
 31 H        0.1440     6.1390    -2.3340 H     1 <1>   0.0800 
 32 H       -2.7650     8.2740    -0.6860 H     1 <1>   0.0800 
 33 H       -2.8830     8.0850     1.0450 H     1 <1>   0.0800 
 34 H       -4.1410     7.4590     0.0020 H     1 <1>   0.0800 
 35 H        0.1720    10.1700    -0.0170 H     1 <1>   0.0800 
 36 H        0.3700     9.3250     1.4640 H     1 <1>   0.0800 
 37 H        0.9920     6.8640     1.4280 H     1 <1>   0.0800 
 38 H        1.1550     6.0720    -0.1000 H     1 <1>   0.0800 
 39 H        2.1100    11.0900     0.5030 H     1 <1>   0.0800 
 40 H        3.3160     6.2160     0.1960 H     1 <1>   0.0800 
 41 H        4.1080     9.9790    -0.2350 H     1 <1>   0.4500 
 42 H        2.2670    10.4110     2.7000 H     1 <1>   0.0800 
 43 H        3.8490    10.1070     2.0450 H     1 <1>   0.0800 
 44 H        4.4970     7.8740     1.7550 H     1 <1>   0.0800 
 45 H        3.4480     6.6590     2.4370 H     1 <1>   0.0800 
 46 H        2.8570     7.8170    -1.5950 H     1 <1>   0.0800 
 47 H        4.4280     7.9220    -0.8750 H     1 <1>   0.0800 
 48 H        1.8350     9.8280    -2.1180 H     1 <1>   0.0800 
 49 H        3.5180     9.9940    -2.5620 H     1 <1>   0.0800 
 50 H        2.7080    11.2830    -1.7000 H     1 <1>   0.0800 
@<TRIPOS>BOND
  1   1   2  1   
  2   2   3  ar  
  3   2   4  ar  
  4   3   5  ar  
  5   3  26  1   
  6   4   6  ar  
  7   4  27  1   
  8   5   7  ar  
  9   5   8  1   
 10   6   7  ar  
 11   6  28  1   
 12   7   9  1   
 13   8  10  2   
 14   8  11  1   
 15   9  10  1   
 16   9  29  1   
 17  10  12  1   
 18  11  13  1   
 19  11  30  1   
 20  11  31  1   
 21  12  32  1   
 22  12  33  1   
 23  12  34  1   
 24  13  14  2   
 25  13  15  am  
 26  15  16  1   
 27  15  17  1   
 28  16  18  1   
 29  16  35  1   
 30  16  36  1   
 31  17  19  1   
 32  17  37  1   
 33  17  38  1   
 34  18  20  1   
 35  18  21  1   
 36  18  39  1   
 37  19  22  1   
 38  19  23  1   
 39  19  40  1   
 40  20  23  1   
 41  20  24  1   
 42  20  41  1   
 43  21  25  1   
 44  21  42  1   
 45  21  43  1   
 46  22  25  1   
 47  22  44  1   
 48  22  45  1   
 49  23  46  1   
 50  23  47  1   
 51  24  48  1   
 52  24  49  1   
 53  24  50  1   
@<TRIPOS>SUBSTRUCTURE
  1 ****  17 GROUP 4 **** **** 0

# MOE 2024.06 (io_trps.svl 2023.06)
