@<TRIPOS>MOLECULE
NONAME
47 48 1 0 0 
SMALL
USER_CHARGES


@<TRIPOS>ATOM
  1 S       -0.4500    -0.0220     0.2190 S.o2  1 <1>   1.3330 
  2 O       -0.4520    -0.5810     1.5520 O.2   1 <1>  -0.6500 
  3 O       -1.1500     1.2170    -0.0340 O.2   1 <1>  -0.6500 
  4 N       -1.0610    -1.2030    -0.8370 N.am  1 <1>  -0.8490 
  5 C        1.2370     0.1790    -0.3570 C.3   1 <1>  -0.0550 
  6 C       -2.5040    -1.0620    -1.0540 C.3   1 <1>   0.1160 
  7 C       -0.7500    -2.5740    -0.4190 C.3   1 <1>   0.1160 
  8 C        2.0190     1.2770     0.3920 C.3   1 <1>  -0.0800 
  9 C        3.3480     1.5600    -0.2860 C.3   1 <1>   0.2200 
 10 C        2.4680     0.8180     1.7820 C.3   1 <1>   0.1200 
 11 N        3.8030     2.9190     0.0860 N.am  1 <1>  -0.7300 
 12 C        4.2590     0.5190     0.3540 C.3   1 <1>   0.1200 
 13 O        3.7470     0.2740     1.6310 O.3   1 <1>  -0.5600 
 14 C        4.0500     3.9380    -0.7890 C.2   1 <1>   0.5440 
 15 O        3.9110     3.7210    -1.9770 O.2   1 <1>  -0.5700 
 16 C        4.4850     5.2380    -0.3070 C.ar  1 <1>   0.0860 
 17 C        5.2720     6.0710    -1.1010 C.ar  1 <1>  -0.1500 
 18 C        4.1400     5.7100     0.9590 C.ar  1 <1>  -0.1500 
 19 C        5.7130     7.3100    -0.6630 C.ar  1 <1>  -0.1440 
 20 C        4.5730     6.9420     1.4100 C.ar  1 <1>  -0.1500 
 21 C        5.3620     7.7500     0.6080 C.ar  1 <1>  -0.1440 
 22 C        6.5710     8.1590    -1.5900 C.3   1 <1>  -0.0970 
 23 C        5.8210     9.1010     1.1380 C.3   1 <1>  -0.0970 
 24 H        1.7570    -0.7550    -0.2730 H     1 <1>   0.0800 
 25 H        1.1980     0.4400    -1.3970 H     1 <1>   0.0800 
 26 H       -2.8540    -1.8160    -1.7380 H     1 <1>   0.0800 
 27 H       -2.7210    -0.0970    -1.4790 H     1 <1>   0.0800 
 28 H       -3.0330    -1.1560    -0.1200 H     1 <1>   0.0800 
 29 H       -1.0780    -3.2730    -1.1700 H     1 <1>   0.0800 
 30 H       -1.2410    -2.8040     0.5130 H     1 <1>   0.0800 
 31 H        0.3120    -2.6920    -0.2860 H     1 <1>   0.0800 
 32 H        1.4120     2.1660     0.4430 H     1 <1>   0.0800 
 33 H        3.3080     1.4550    -1.3580 H     1 <1>   0.0800 
 34 H        1.8260     0.0770     2.2260 H     1 <1>   0.0800 
 35 H        2.5520     1.6580     2.4500 H     1 <1>   0.0800 
 36 H        4.0600     3.0260     1.0680 H     1 <1>   0.3700 
 37 H        5.2790     0.8530     0.4300 H     1 <1>   0.0800 
 38 H        4.2210    -0.4060    -0.1940 H     1 <1>   0.0800 
 39 H        5.5380     5.7270    -2.0860 H     1 <1>   0.1500 
 40 H        3.5170     5.1110     1.5990 H     1 <1>   0.1500 
 41 H        4.2880     7.2720     2.3930 H     1 <1>   0.1500 
 42 H        6.7340     7.6620    -2.5290 H     1 <1>   0.0800 
 43 H        7.5280     8.3470    -1.1380 H     1 <1>   0.0800 
 44 H        6.0840     9.0970    -1.7870 H     1 <1>   0.0800 
 45 H        5.4610     9.2680     2.1370 H     1 <1>   0.0800 
 46 H        5.4460     9.8890     0.5100 H     1 <1>   0.0800 
 47 H        6.8940     9.1460     1.1550 H     1 <1>   0.0800 
@<TRIPOS>BOND
  1   1   2  2   
  2   1   3  2   
  3   1   4  am  
  4   1   5  1   
  5   4   6  1   
  6   4   7  1   
  7   5   8  1   
  8   5  24  1   
  9   5  25  1   
 10   6  26  1   
 11   6  27  1   
 12   6  28  1   
 13   7  29  1   
 14   7  30  1   
 15   7  31  1   
 16   8   9  1   
 17   8  10  1   
 18   8  32  1   
 19   9  11  1   
 20   9  12  1   
 21   9  33  1   
 22  10  13  1   
 23  10  34  1   
 24  10  35  1   
 25  11  14  am  
 26  11  36  1   
 27  12  13  1   
 28  12  37  1   
 29  12  38  1   
 30  14  15  2   
 31  14  16  1   
 32  16  17  ar  
 33  16  18  ar  
 34  17  19  ar  
 35  17  39  1   
 36  18  20  ar  
 37  18  40  1   
 38  19  21  ar  
 39  19  22  1   
 40  20  21  ar  
 41  20  41  1   
 42  21  23  1   
 43  22  42  1   
 44  22  43  1   
 45  22  44  1   
 46  23  45  1   
 47  23  46  1   
 48  23  47  1   
@<TRIPOS>SUBSTRUCTURE
  1 ****  11 GROUP 4 **** **** 0

# MOE 2024.06 (io_trps.svl 2023.06)
