@<TRIPOS>MOLECULE
NONAME
50 52 1 0 0 
SMALL
USER_CHARGES


@<TRIPOS>ATOM
  1 F       -0.0290    -2.9800     0.6090 F     1 <1>  -0.3400 
  2 C       -1.2130    -2.7860     1.1760 C.3   1 <1>   1.1640 
  3 F       -1.2440    -3.5640     2.2520 F     1 <1>  -0.3400 
  4 F       -1.2110    -1.5360     1.6250 F     1 <1>  -0.3400 
  5 C       -2.3680    -3.0570     0.2000 C.ar  1 <1>  -0.1440 
  6 C       -3.0530    -4.2680     0.2140 C.ar  1 <1>  -0.1500 
  7 C       -2.7460    -2.0910    -0.7290 C.ar  1 <1>  -0.1500 
  8 C       -4.0950    -4.5030    -0.6680 C.ar  1 <1>   0.0830 
  9 C       -3.7810    -2.3260    -1.6190 C.ar  1 <1>  -0.1500 
 10 O       -4.7260    -5.7010    -0.6060 O.3   1 <1>  -0.1650 
 11 C       -4.4550    -3.5320    -1.5930 C.ar  1 <1>  -0.1500 
 12 C       -6.0700    -5.8090    -0.7490 C.ar  1 <1>   0.0830 
 13 C       -6.5620    -6.9410    -1.3770 C.ar  1 <1>  -0.1500 
 14 C       -6.9480    -4.8450    -0.2700 C.ar  1 <1>  -0.1500 
 15 C       -7.9290    -7.1180    -1.5340 C.ar  1 <1>  -0.1430 
 16 C       -8.3110    -5.0110    -0.4370 C.ar  1 <1>  -0.1500 
 17 C       -8.8010    -6.1420    -1.0690 C.ar  1 <1>  -0.1500 
 18 C       -8.4600    -8.3740    -2.1960 C.3   1 <1>   0.4860 
 19 N       -8.9550    -9.2880    -1.1350 N.4   1 <1>  -0.9590 
 20 C       -7.8390    -9.6880    -0.1910 C.3   1 <1>   0.3430 
 21 C       -9.6600   -10.4670    -1.7070 C.3   1 <1>   0.3430 
 22 C       -8.0500   -11.0590     0.4970 C.3   1 <1>   0.2000 
 23 C      -10.3490   -11.2540    -0.5850 C.3   1 <1>  -0.1600 
 24 O       -7.5560   -12.0480    -0.3470 O.3   1 <1>  -0.6800 
 25 C       -9.5500   -11.3000     0.7450 C.3   1 <1>  -0.0800 
 26 C       -9.8200   -12.5850     1.5410 C.3   1 <1>   0.1200 
 27 O      -11.1770   -12.6480     1.8030 O.3   1 <1>  -0.6800 
 28 H       -2.7890    -5.0450     0.9110 H     1 <1>   0.1500 
 29 H       -2.2320    -1.1440    -0.7670 H     1 <1>   0.1500 
 30 H       -4.0580    -1.5690    -2.3330 H     1 <1>   0.1500 
 31 H       -5.2520    -3.7160    -2.2920 H     1 <1>   0.1500 
 32 H       -5.8570    -7.6700    -1.7380 H     1 <1>   0.1500 
 33 H       -6.5720    -3.9700     0.2320 H     1 <1>   0.1500 
 34 H       -8.9890    -4.2570    -0.0740 H     1 <1>   0.1500 
 35 H       -9.8660    -6.2440    -1.1900 H     1 <1>   0.1500 
 36 H       -7.6780    -8.8520    -2.7640 H     1 <1>   0.0800 
 37 H       -9.2610    -8.1130    -2.8680 H     1 <1>   0.0800 
 38 H       -9.6410    -8.7600    -0.5830 H     1 <1>   0.4500 
 39 H       -6.9010    -9.7280    -0.7200 H     1 <1>   0.0800 
 40 H       -7.7480    -8.9300     0.5690 H     1 <1>   0.0800 
 41 H      -10.3930   -10.1610    -2.4370 H     1 <1>   0.0800 
 42 H       -8.9400   -11.1070    -2.1940 H     1 <1>   0.0800 
 43 H       -7.4840   -11.0960     1.4140 H     1 <1>   0.0800 
 44 H      -11.3250   -10.8420    -0.3970 H     1 <1>   0.0800 
 45 H      -10.5040   -12.2550    -0.9480 H     1 <1>   0.0800 
 46 H       -7.5070   -12.9150     0.1080 H     1 <1>   0.4000 
 47 H       -9.8880   -10.4840     1.3630 H     1 <1>   0.0800 
 48 H       -9.2980   -12.5750     2.4840 H     1 <1>   0.0800 
 49 H       -9.5440   -13.4620     0.9810 H     1 <1>   0.0800 
 50 H      -11.4020   -13.4460     2.3240 H     1 <1>   0.4000 
@<TRIPOS>BOND
  1   1   2  1   
  2   2   3  1   
  3   2   4  1   
  4   2   5  1   
  5   5   6  ar  
  6   5   7  ar  
  7   6   8  ar  
  8   6  28  1   
  9   7   9  ar  
 10   7  29  1   
 11   8  10  1   
 12   8  11  ar  
 13   9  11  ar  
 14   9  30  1   
 15  10  12  1   
 16  11  31  1   
 17  12  13  ar  
 18  12  14  ar  
 19  13  15  ar  
 20  13  32  1   
 21  14  16  ar  
 22  14  33  1   
 23  15  17  ar  
 24  15  18  1   
 25  16  17  ar  
 26  16  34  1   
 27  17  35  1   
 28  18  19  1   
 29  18  36  1   
 30  18  37  1   
 31  19  20  1   
 32  19  21  1   
 33  19  38  1   
 34  20  22  1   
 35  20  39  1   
 36  20  40  1   
 37  21  23  1   
 38  21  41  1   
 39  21  42  1   
 40  22  24  1   
 41  22  25  1   
 42  22  43  1   
 43  23  25  1   
 44  23  44  1   
 45  23  45  1   
 46  24  46  1   
 47  25  26  1   
 48  25  47  1   
 49  26  27  1   
 50  26  48  1   
 51  26  49  1   
 52  27  50  1   
@<TRIPOS>SUBSTRUCTURE
  1 ****  12 GROUP 4 **** **** 0

# MOE 2024.06 (io_trps.svl 2023.06)
