@<TRIPOS>MOLECULE
NONAME
49 52 1 0 0 
SMALL
USER_CHARGES


@<TRIPOS>ATOM
  1 O       -1.0160    -0.2020    -0.6220 O.3   1 <1>  -0.0190 
  2 N       -2.0050    -1.0040    -0.8270 N.2   1 <1>  -0.4100 
  3 C       -1.4540     1.0150    -0.4330 C.2   1 <1>   0.4250 
  4 C       -3.0250    -0.2300    -0.7670 C.2   1 <1>   0.5990 
  5 N       -2.7370     1.0450    -0.5030 N.2   1 <1>  -0.5650 
  6 C       -0.5420     2.1080    -0.1770 C.ar  1 <1>   0.0530 
  7 N       -4.3540    -0.6300    -0.9150 N.pl3 1 <1>  -0.8210 
  8 C        0.8410     1.9190    -0.1190 C.ar  1 <1>  -0.1500 
  9 C       -1.0180     3.4050     0.0250 C.ar  1 <1>  -0.1500 
 10 C       -4.6230    -2.0570    -1.2380 C.3   1 <1>   0.2090 
 11 C       -5.2850    -0.0670     0.1090 C.3   1 <1>   0.2090 
 12 C        1.7040     2.9710     0.1320 C.ar  1 <1>  -0.1500 
 13 C       -0.1610     4.4600     0.2770 C.ar  1 <1>  -0.1500 
 14 C       -5.1980    -2.6980     0.0440 C.3   1 <1>   0.4230 
 15 C       -6.5920    -0.9130     0.2200 C.3   1 <1>  -0.1600 
 16 C        1.2040     4.2440     0.3310 C.ar  1 <1>  -0.1500 
 17 N       -4.4450    -3.9220     0.4990 N.4   1 <1>  -0.9590 
 18 C       -6.7840    -2.5240     0.0340 C.3   1 <1>   0.0000 
 19 C       -4.7390    -5.0660    -0.3440 C.3   1 <1>   0.3430 
 20 C       -2.9710    -3.6850     0.6520 C.3   1 <1>   0.2630 
 21 C       -7.0840    -4.1010    -0.2150 C.3   1 <1>  -0.1600 
 22 C       -8.3760    -2.2760     0.0910 C.3   1 <1>   0.1200 
 23 C       -6.1740    -5.3290    -0.0050 C.3   1 <1>  -0.1600 
 24 O       -8.7880    -2.4390     1.4130 O.3   1 <1>  -0.6800 
 25 H        1.2550     0.9380    -0.2720 H     1 <1>   0.1500 
 26 H       -2.0780     3.5890    -0.0160 H     1 <1>   0.1500 
 27 H       -5.3510    -2.0970    -2.0300 H     1 <1>   0.0800 
 28 H       -3.7410    -2.5570    -1.5920 H     1 <1>   0.0800 
 29 H       -4.7880    -0.0370     1.0660 H     1 <1>   0.0800 
 30 H       -5.5250     0.9510    -0.1560 H     1 <1>   0.0800 
 31 H        2.7660     2.8010     0.1720 H     1 <1>   0.1500 
 32 H       -0.5540     5.4510     0.4290 H     1 <1>   0.1500 
 33 H       -4.8880    -2.0480     0.8400 H     1 <1>   0.0800 
 34 H       -7.0380    -0.5940     1.1490 H     1 <1>   0.0800 
 35 H       -7.1260    -0.4210    -0.5790 H     1 <1>   0.0800 
 36 H        1.8740     5.0640     0.5270 H     1 <1>   0.1500 
 37 H       -4.8270    -4.1420     1.4300 H     1 <1>   0.4500 
 38 H       -4.6150    -4.8280    -1.3890 H     1 <1>   0.0800 
 39 H       -4.1260    -5.9140    -0.0830 H     1 <1>   0.0800 
 40 H       -2.5080    -3.5220    -0.3080 H     1 <1>   0.0800 
 41 H       -2.5000    -4.5350     1.1180 H     1 <1>   0.0800 
 42 H       -2.7930    -2.8150     1.2640 H     1 <1>   0.0800 
 43 H       -7.9420    -4.4550     0.3400 H     1 <1>   0.0800 
 44 H       -7.3610    -4.1650    -1.2560 H     1 <1>   0.0800 
 45 H       -8.9710    -2.9390    -0.5210 H     1 <1>   0.0800 
 46 H       -8.7650    -1.3180    -0.2100 H     1 <1>   0.0800 
 47 H       -6.5300    -6.1460    -0.6090 H     1 <1>   0.0800 
 48 H       -6.2360    -5.6570     1.0200 H     1 <1>   0.0800 
 49 H       -9.7520    -2.2940     1.5040 H     1 <1>   0.4000 
@<TRIPOS>BOND
  1   1   2  1   
  2   1   3  1   
  3   2   4  2   
  4   3   5  2   
  5   3   6  1   
  6   4   5  1   
  7   4   7  1   
  8   6   8  ar  
  9   6   9  ar  
 10   7  10  1   
 11   7  11  1   
 12   8  12  ar  
 13   8  25  1   
 14   9  13  ar  
 15   9  26  1   
 16  10  14  1   
 17  10  27  1   
 18  10  28  1   
 19  11  15  1   
 20  11  29  1   
 21  11  30  1   
 22  12  16  ar  
 23  12  31  1   
 24  13  16  ar  
 25  13  32  1   
 26  14  17  1   
 27  14  18  1   
 28  14  33  1   
 29  15  18  1   
 30  15  34  1   
 31  15  35  1   
 32  16  36  1   
 33  17  19  1   
 34  17  20  1   
 35  17  37  1   
 36  18  21  1   
 37  18  22  1   
 38  19  23  1   
 39  19  38  1   
 40  19  39  1   
 41  20  40  1   
 42  20  41  1   
 43  20  42  1   
 44  21  23  1   
 45  21  43  1   
 46  21  44  1   
 47  22  24  1   
 48  22  45  1   
 49  22  46  1   
 50  23  47  1   
 51  23  48  1   
 52  24  49  1   
@<TRIPOS>SUBSTRUCTURE
  1 ****   4 GROUP 4 **** **** 0

# MOE 2024.06 (io_trps.svl 2023.06)
