@<TRIPOS>MOLECULE
NONAME
65 70 1 0 0 
SMALL
USER_CHARGES


@<TRIPOS>ATOM
  1 O       -0.8360     0.6810    -0.0830 O.3   1 <1>  -0.5600 
  2 C       -1.9810     1.2750    -0.6120 C.3   1 <1>   0.1200 
  3 C       -0.2760     1.3460     1.0120 C.3   1 <1>   0.1200 
  4 C       -1.6670     2.7070    -1.0850 C.3   1 <1>   0.2090 
  5 C        0.1290     2.7790     0.6200 C.3   1 <1>   0.2090 
  6 N       -1.0380     3.5240     0.0160 N.pl3 1 <1>  -0.8380 
  7 C       -1.3200     4.8160     0.2700 C.ar  1 <1>   0.4610 
  8 N       -0.2970     5.6790     0.2970 N.ar  1 <1>  -0.1790 
  9 C       -2.6330     5.3350     0.4910 C.ar  1 <1>  -0.1430 
 10 C       -0.4250     7.0490     0.4240 C.ar  1 <1>   0.3610 
 11 C       -2.8150     6.6820     0.6290 C.ar  1 <1>  -0.1500 
 12 C       -3.7920     4.3590     0.6810 C.3   1 <1>   0.4860 
 13 C       -1.7160     7.5810     0.5750 C.ar  1 <1>   0.0000 
 14 C        0.6820     7.9030     0.3900 C.ar  1 <1>  -0.1500 
 15 N       -4.9520     4.7220    -0.1880 N.4   1 <1>  -0.9590 
 16 C       -1.8600     8.9710     0.6850 C.ar  1 <1>  -0.1500 
 17 C        0.5150     9.2630     0.5000 C.ar  1 <1>  -0.1500 
 18 C       -6.0220     5.4380     0.6010 C.3   1 <1>   0.3430 
 19 C       -5.5450     3.5150    -0.8430 C.3   1 <1>   0.3430 
 20 C       -0.7630     9.7970     0.6470 C.ar  1 <1>  -0.1500 
 21 C       -7.1800     5.9210    -0.2910 C.3   1 <1>   0.1430 
 22 C       -6.6570     3.9360    -1.8070 C.3   1 <1>  -0.1600 
 23 C       -8.2430     6.5170     0.5990 C.ar  1 <1>   0.1670 
 24 C       -7.7590     4.7410    -1.0960 C.3   1 <1>  -0.1600 
 25 C       -6.8010     7.1190    -1.2040 C.3   1 <1>  -0.1600 
 26 N       -8.6790     5.9620     1.7050 N.ar  1 <1>  -0.6200 
 27 C       -8.6870     7.7140     0.1290 C.ar  1 <1>  -0.1430 
 28 C       -7.9870     8.1050    -1.1480 C.3   1 <1>  -0.0170 
 29 C       -9.6210     6.6650     2.3250 C.ar  1 <1>   0.4770 
 30 C       -9.6580     8.3590     0.8540 C.ar  1 <1>   0.1600 
 31 N      -10.1330     7.8340     1.9650 N.ar  1 <1>  -0.6200 
 32 C      -10.1730     6.0690     3.5980 C.3   1 <1>  -0.0970 
 33 H       -2.7480     1.2650     0.1410 H     1 <1>   0.0800 
 34 H       -2.3030     0.6700    -1.4420 H     1 <1>   0.0800 
 35 H        0.5880     0.7860     1.3250 H     1 <1>   0.0800 
 36 H       -0.9910     1.3510     1.8170 H     1 <1>   0.0800 
 37 H       -2.5560     3.1790    -1.4610 H     1 <1>   0.0800 
 38 H       -0.9740     2.6370    -1.9080 H     1 <1>   0.0800 
 39 H        0.9350     2.7180    -0.0940 H     1 <1>   0.0800 
 40 H        0.4900     3.2860     1.4990 H     1 <1>   0.0800 
 41 H        0.6300     5.3020     0.1180 H     1 <1>   0.4570 
 42 H       -3.7770     7.1260     0.8170 H     1 <1>   0.1500 
 43 H       -4.0940     4.3600     1.7170 H     1 <1>   0.0800 
 44 H       -3.4630     3.3610     0.4530 H     1 <1>   0.0800 
 45 H        1.6760     7.5060     0.2760 H     1 <1>   0.1500 
 46 H       -4.6240     5.3530    -0.9290 H     1 <1>   0.4500 
 47 H       -2.8410     9.4010     0.8050 H     1 <1>   0.1500 
 48 H        1.3620     9.9300     0.4730 H     1 <1>   0.1500 
 49 H       -5.6120     6.2860     1.1220 H     1 <1>   0.0800 
 50 H       -6.4310     4.7700     1.3430 H     1 <1>   0.0800 
 51 H       -5.9560     2.8550    -0.0940 H     1 <1>   0.0800 
 52 H       -4.7890     2.9760    -1.3910 H     1 <1>   0.0800 
 53 H       -0.8780    10.8660     0.7330 H     1 <1>   0.1500 
 54 H       -7.0970     3.0520    -2.2370 H     1 <1>   0.0800 
 55 H       -6.2380     4.5050    -2.6180 H     1 <1>   0.0800 
 56 H       -8.4810     5.0970    -1.8120 H     1 <1>   0.0800 
 57 H       -8.2850     4.0850    -0.4210 H     1 <1>   0.0800 
 58 H       -6.5930     6.8290    -2.2190 H     1 <1>   0.0800 
 59 H       -5.9380     7.6230    -0.8070 H     1 <1>   0.0800 
 60 H       -8.6510     7.9560    -1.9830 H     1 <1>   0.0800 
 61 H       -7.6560     9.1290    -1.1260 H     1 <1>   0.0800 
 62 H      -10.0500     9.3090     0.5290 H     1 <1>   0.1500 
 63 H      -10.0590     5.0010     3.5920 H     1 <1>   0.0800 
 64 H      -11.2180     6.3050     3.6880 H     1 <1>   0.0800 
 65 H       -9.6480     6.4790     4.4390 H     1 <1>   0.0800 
@<TRIPOS>BOND
  1   1   2  1   
  2   1   3  1   
  3   2   4  1   
  4   2  33  1   
  5   2  34  1   
  6   3   5  1   
  7   3  35  1   
  8   3  36  1   
  9   4   6  1   
 10   4  37  1   
 11   4  38  1   
 12   5   6  1   
 13   5  39  1   
 14   5  40  1   
 15   6   7  1   
 16   7   8  ar  
 17   7   9  ar  
 18   8  10  ar  
 19   8  41  1   
 20   9  11  ar  
 21   9  12  1   
 22  10  13  ar  
 23  10  14  ar  
 24  11  13  ar  
 25  11  42  1   
 26  12  15  1   
 27  12  43  1   
 28  12  44  1   
 29  13  16  ar  
 30  14  17  ar  
 31  14  45  1   
 32  15  18  1   
 33  15  19  1   
 34  15  46  1   
 35  16  20  ar  
 36  16  47  1   
 37  17  20  ar  
 38  17  48  1   
 39  18  21  1   
 40  18  49  1   
 41  18  50  1   
 42  19  22  1   
 43  19  51  1   
 44  19  52  1   
 45  20  53  1   
 46  21  23  1   
 47  21  24  1   
 48  21  25  1   
 49  22  24  1   
 50  22  54  1   
 51  22  55  1   
 52  23  26  ar  
 53  23  27  ar  
 54  24  56  1   
 55  24  57  1   
 56  25  28  1   
 57  25  58  1   
 58  25  59  1   
 59  26  29  ar  
 60  27  28  1   
 61  27  30  ar  
 62  28  60  1   
 63  28  61  1   
 64  29  31  ar  
 65  29  32  1   
 66  30  31  ar  
 67  30  62  1   
 68  32  63  1   
 69  32  64  1   
 70  32  65  1   
@<TRIPOS>SUBSTRUCTURE
  1 ****  15 GROUP 4 **** **** 0

# MOE 2024.06 (io_trps.svl 2023.06)
