@<TRIPOS>MOLECULE
NONAME
50 53 1 0 0 
SMALL
USER_CHARGES


@<TRIPOS>ATOM
  1 S        0.0530     0.1470    -1.7670 S.3   1 <1>  -0.0800 
  2 C       -1.0920     1.0880    -0.8220 C.2   1 <1>  -0.1400 
  3 C       -1.1920    -1.0330    -2.1590 C.2   1 <1>  -0.1100 
  4 C       -2.3040     0.5170    -0.8420 C.2   1 <1>  -0.1810 
  5 C       -0.7000     2.3680    -0.0920 C.3   1 <1>   0.4600 
  6 C       -2.3690    -0.6960    -1.5970 C.2   1 <1>  -0.1500 
  7 C       -3.4450     1.1690    -0.0950 C.3   1 <1>   0.0210 
  8 O       -1.8020     2.8040     0.6800 O.3   1 <1>  -0.5600 
  9 C       -0.3380     3.4830    -1.0880 C.3   1 <1>  -0.1600 
 10 C        0.4290     2.0980     0.9200 C.3   1 <1>  -0.1600 
 11 C       -3.1010     2.6510     0.1520 C.3   1 <1>   0.1200 
 12 C        0.4540     4.5930    -0.4010 C.3   1 <1>   0.1400 
 13 C        1.7920     2.5920     0.4330 C.3   1 <1>   0.1400 
 14 N        1.7410     4.0560     0.1380 N.am  1 <1>  -0.6600 
 15 C        2.8500     4.8360     0.3560 C.2   1 <1>   0.5690 
 16 O        3.9090     4.3510     0.6840 O.2   1 <1>  -0.5700 
 17 C        2.7770     6.3430     0.1660 C.3   1 <1>  -0.0990 
 18 C        3.8520     7.1100     0.9470 C.3   1 <1>   0.0210 
 19 C        3.7210     8.6000     0.6930 C.2   1 <1>   0.1080 
 20 N        2.7250     9.2880     1.1590 N.2   1 <1>  -0.7070 
 21 C        4.6040     9.3860    -0.0480 C.2   1 <1>  -0.1810 
 22 N        2.9510    10.5420     0.7320 N.pl3 1 <1>   0.3000 
 23 C        4.0790    10.6310    -0.0020 C.2   1 <1>  -0.3320 
 24 C        5.8680     8.9030    -0.7380 C.3   1 <1>  -0.0590 
 25 C        4.5610    11.9400    -0.6050 C.3   1 <1>  -0.0600 
 26 H       -0.9050    -1.8660    -2.7750 H     1 <1>   0.1500 
 27 H       -3.2870    -1.2510    -1.6830 H     1 <1>   0.1500 
 28 H       -3.5990     0.6680     0.8440 H     1 <1>   0.0800 
 29 H       -4.3500     1.1040    -0.6700 H     1 <1>   0.0800 
 30 H       -1.2220     3.8850    -1.5430 H     1 <1>   0.0800 
 31 H        0.2670     3.0820    -1.8810 H     1 <1>   0.0800 
 32 H        0.4890     1.0450     1.1270 H     1 <1>   0.0800 
 33 H        0.2160     2.5960     1.8490 H     1 <1>   0.0800 
 34 H       -3.7920     3.0780     0.8560 H     1 <1>   0.0800 
 35 H       -3.1640     3.2040    -0.7680 H     1 <1>   0.0800 
 36 H       -0.1250     5.0030     0.4100 H     1 <1>   0.0800 
 37 H        0.6510     5.3750    -1.1130 H     1 <1>   0.0800 
 38 H        2.0820     2.0640    -0.4590 H     1 <1>   0.0800 
 39 H        2.5320     2.3950     1.1910 H     1 <1>   0.0800 
 40 H        1.8200     6.7010     0.4950 H     1 <1>   0.0800 
 41 H        2.8800     6.5600    -0.8800 H     1 <1>   0.0800 
 42 H        4.8300     6.7710     0.6600 H     1 <1>   0.0800 
 43 H        3.7330     6.9260     2.0000 H     1 <1>   0.0800 
 44 H        2.3160    11.3150     0.9600 H     1 <1>   0.2700 
 45 H        5.6290     8.1110    -1.4230 H     1 <1>   0.0800 
 46 H        6.5640     8.5350    -0.0060 H     1 <1>   0.0800 
 47 H        6.3370     9.6980    -1.2860 H     1 <1>   0.0800 
 48 H        5.4820    11.8010    -1.1400 H     1 <1>   0.0800 
 49 H        4.7280    12.6650     0.1720 H     1 <1>   0.0800 
 50 H        3.8260    12.3230    -1.2900 H     1 <1>   0.0800 
@<TRIPOS>BOND
  1   1   2  1   
  2   1   3  1   
  3   2   4  2   
  4   2   5  1   
  5   3   6  2   
  6   3  26  1   
  7   4   6  1   
  8   4   7  1   
  9   5   8  1   
 10   5   9  1   
 11   5  10  1   
 12   6  27  1   
 13   7  11  1   
 14   7  28  1   
 15   7  29  1   
 16   8  11  1   
 17   9  12  1   
 18   9  30  1   
 19   9  31  1   
 20  10  13  1   
 21  10  32  1   
 22  10  33  1   
 23  11  34  1   
 24  11  35  1   
 25  12  14  1   
 26  12  36  1   
 27  12  37  1   
 28  13  14  1   
 29  13  38  1   
 30  13  39  1   
 31  14  15  am  
 32  15  16  2   
 33  15  17  1   
 34  17  18  1   
 35  17  40  1   
 36  17  41  1   
 37  18  19  1   
 38  18  42  1   
 39  18  43  1   
 40  19  20  2   
 41  19  21  1   
 42  20  22  1   
 43  21  23  2   
 44  21  24  1   
 45  22  23  1   
 46  22  44  1   
 47  23  25  1   
 48  24  45  1   
 49  24  46  1   
 50  24  47  1   
 51  25  48  1   
 52  25  49  1   
 53  25  50  1   
@<TRIPOS>SUBSTRUCTURE
  1 ****  12 GROUP 4 **** **** 0

# MOE 2024.06 (io_trps.svl 2023.06)
