@<TRIPOS>MOLECULE
NONAME
26 27 1 0 0 
SMALL
USER_CHARGES


@<TRIPOS>ATOM
  1 O        5.0420    -2.3270    -0.1900 O.3   1 <1>  -0.6800 
  2 C        6.1890    -1.5670    -0.2730 C.3   1 <1>   0.2000 
  3 C        5.9550    -0.5600    -1.4600 C.3   1 <1>  -0.1600 
  4 C        6.3740    -0.9200     1.1360 C.3   1 <1>  -0.1600 
  5 C        5.3780     0.8510    -1.1130 C.3   1 <1>   0.4230 
  6 C        5.4340     0.2550     1.0890 C.3   1 <1>   0.4230 
  7 N        6.0300     1.1930     0.1330 N.4   1 <1>  -0.9060 
  8 C        3.8380     1.0350    -0.8510 C.3   1 <1>  -0.1600 
  9 C        4.3310     1.0330     1.7640 C.3   1 <1>  -0.1600 
 10 C        3.4610     1.6050     0.5830 C.3   1 <1>  -0.1600 
 11 H        5.0410    -3.0440    -0.8590 H     1 <1>   0.4000 
 12 H        7.0020    -2.2430    -0.4860 H     1 <1>   0.0800 
 13 H        5.3560    -1.0160    -2.2300 H     1 <1>   0.0800 
 14 H        6.9170    -0.3870    -1.9080 H     1 <1>   0.0800 
 15 H        7.3880    -0.6070     1.3080 H     1 <1>   0.0800 
 16 H        6.0900    -1.6130     1.9100 H     1 <1>   0.0800 
 17 H        5.6770     1.5470    -1.8820 H     1 <1>   0.0800 
 18 H        4.6930    -0.3310     0.5820 H     1 <1>   0.0800 
 19 H        5.7800     2.1470     0.4070 H     1 <1>   0.4500 
 20 H        7.0470     1.0930     0.0860 H     1 <1>   0.4500 
 21 H        3.3570     0.0790    -0.9790 H     1 <1>   0.0800 
 22 H        3.4270     1.6770    -1.6110 H     1 <1>   0.0800 
 23 H        4.7150     1.8040     2.4090 H     1 <1>   0.0800 
 24 H        3.7410     0.3540     2.3560 H     1 <1>   0.0800 
 25 H        2.4180     1.4170     0.7790 H     1 <1>   0.0800 
 26 H        3.5790     2.6760     0.5640 H     1 <1>   0.0800 
@<TRIPOS>BOND
  1   1   2  1   
  2   1  11  1   
  3   2   3  1   
  4   2   4  1   
  5   2  12  1   
  6   3   5  1   
  7   3  13  1   
  8   3  14  1   
  9   4   6  1   
 10   4  15  1   
 11   4  16  1   
 12   5   7  1   
 13   5   8  1   
 14   5  17  1   
 15   6   7  1   
 16   6   9  1   
 17   6  18  1   
 18   7  19  1   
 19   7  20  1   
 20   8  10  1   
 21   8  21  1   
 22   8  22  1   
 23   9  10  1   
 24   9  23  1   
 25   9  24  1   
 26  10  25  1   
 27  10  26  1   
@<TRIPOS>SUBSTRUCTURE
  1 ****   6 GROUP 4 **** **** 0

# MOE 2024.06 (io_trps.svl 2023.06)
