@<TRIPOS>MOLECULE
NONAME
43 44 1 0 0 
SMALL
USER_CHARGES


@<TRIPOS>ATOM
  1 O        2.9930    -0.1190     0.6810 O.2   1 <1>  -0.5700 
  2 C        2.2780    -0.5000    -0.2140 C.2   1 <1>   0.5690 
  3 N        1.8490     0.3430    -1.1870 N.am  1 <1>  -0.7300 
  4 C        1.8610    -1.9510    -0.2710 C.3   1 <1>  -0.0990 
  5 C        2.1730     1.7890    -1.2220 C.3   1 <1>   0.1400 
  6 C        1.4430    -2.4910     1.1060 C.3   1 <1>   0.1760 
  7 C        3.5460     2.0090    -1.8590 C.3   1 <1>   0.0200 
  8 N        1.1580    -3.9460     0.9800 N.pl3 1 <1>   0.3140 
  9 C        0.2460    -1.7280     1.7060 C.3   1 <1>  -0.2400 
 10 C        4.0630     3.3870    -1.4970 C.2   1 <1>   0.0060 
 11 N        2.1400    -4.8590     1.1100 N.2   1 <1>  -0.7070 
 12 C       -0.0170    -4.5440     0.6840 C.2   1 <1>  -0.3020 
 13 N        3.9810     4.4060    -2.2810 N.2   1 <1>  -0.3380 
 14 N        4.6450     3.7030    -0.3320 N.pl3 1 <1>   0.0480 
 15 C        1.5670    -6.0050     0.9080 C.2   1 <1>   0.1390 
 16 C        0.2120    -5.8730     0.6340 C.2   1 <1>  -0.1500 
 17 N        4.5190     5.4410    -1.6360 N.2   1 <1>  -0.3380 
 18 C        4.9040     5.0030    -0.4880 C.2   1 <1>   0.0360 
 19 C        4.9310     2.8490     0.8530 C.3   1 <1>   0.1760 
 20 C        4.1430     3.3480     2.0700 C.3   1 <1>  -0.2400 
 21 C        6.4350     2.8260     1.1440 C.3   1 <1>  -0.2400 
 22 H        1.2890    -0.0100    -1.9670 H     1 <1>   0.3700 
 23 H        2.7020    -2.5180    -0.6270 H     1 <1>   0.0800 
 24 H        1.0500    -2.0680    -0.9650 H     1 <1>   0.0800 
 25 H        2.1800     2.1640    -0.2130 H     1 <1>   0.0800 
 26 H        1.4200     2.3270    -1.7720 H     1 <1>   0.0800 
 27 H        2.2780    -2.3960     1.7790 H     1 <1>   0.0800 
 28 H        3.4620     1.9300    -2.9280 H     1 <1>   0.0800 
 29 H        4.2460     1.2670    -1.5200 H     1 <1>   0.0800 
 30 H       -0.5870    -1.7170     1.0280 H     1 <1>   0.0800 
 31 H        0.5250    -0.7110     1.9180 H     1 <1>   0.0800 
 32 H       -0.0530    -2.1870     2.6330 H     1 <1>   0.0800 
 33 H       -0.9350    -4.0090     0.5270 H     1 <1>   0.1500 
 34 H        2.0920    -6.9450     0.9480 H     1 <1>   0.1500 
 35 H       -0.4750    -6.6740     0.4310 H     1 <1>   0.1500 
 36 H        5.3790     5.6020     0.2670 H     1 <1>   0.1500 
 37 H        4.6150     1.8450     0.6360 H     1 <1>   0.0800 
 38 H        4.4490     4.3400     2.3490 H     1 <1>   0.0800 
 39 H        4.3120     2.6920     2.9060 H     1 <1>   0.0800 
 40 H        3.0890     3.3470     1.8550 H     1 <1>   0.0800 
 41 H        6.7930     3.8050     1.4080 H     1 <1>   0.0800 
 42 H        6.9730     2.4730     0.2820 H     1 <1>   0.0800 
 43 H        6.6380     2.1580     1.9620 H     1 <1>   0.0800 
@<TRIPOS>BOND
  1   1   2  2   
  2   2   3  am  
  3   2   4  1   
  4   3   5  1   
  5   3  22  1   
  6   4   6  1   
  7   4  23  1   
  8   4  24  1   
  9   5   7  1   
 10   5  25  1   
 11   5  26  1   
 12   6   8  1   
 13   6   9  1   
 14   6  27  1   
 15   7  10  1   
 16   7  28  1   
 17   7  29  1   
 18   8  11  1   
 19   8  12  1   
 20   9  30  1   
 21   9  31  1   
 22   9  32  1   
 23  10  13  2   
 24  10  14  1   
 25  11  15  2   
 26  12  16  2   
 27  12  33  1   
 28  13  17  1   
 29  14  18  1   
 30  14  19  1   
 31  15  16  1   
 32  15  34  1   
 33  16  35  1   
 34  17  18  2   
 35  18  36  1   
 36  19  20  1   
 37  19  21  1   
 38  19  37  1   
 39  20  38  1   
 40  20  39  1   
 41  20  40  1   
 42  21  41  1   
 43  21  42  1   
 44  21  43  1   
@<TRIPOS>SUBSTRUCTURE
  1 ****   1 GROUP 4 **** **** 0

# MOE 2024.06 (io_trps.svl 2023.06)
