@<TRIPOS>MOLECULE
NONAME
51 52 1 0 0 
SMALL
USER_CHARGES


@<TRIPOS>ATOM
  1 O       -2.3240    -1.1660     1.3330 O.3   1 <1>  -0.3630 
  2 C       -1.7780    -2.2810     0.7970 C.ar  1 <1>   0.0830 
  3 C       -1.6290     0.0490     1.1490 C.3   1 <1>   0.0400 
  4 C       -1.6880    -2.4970    -0.5800 C.ar  1 <1>   0.0830 
  5 C       -1.3510    -3.2610     1.6750 C.ar  1 <1>  -0.1500 
  6 O       -2.1140    -1.5730    -1.4640 O.3   1 <1>  -0.5330 
  7 C       -1.2060    -3.7030    -1.0610 C.ar  1 <1>  -0.1500 
  8 C       -0.8840    -4.4710     1.1940 C.ar  1 <1>  -0.1500 
  9 C       -0.8440    -4.7080    -0.1740 C.ar  1 <1>  -0.1430 
 10 C       -0.4860    -6.0890    -0.6760 C.3   1 <1>   0.4860 
 11 N       -1.7160    -6.9050    -0.4840 N.4   1 <1>  -0.9590 
 12 C       -1.4530    -8.3720    -0.4950 C.3   1 <1>   0.5240 
 13 C       -2.8930    -6.5240    -1.3520 C.3   1 <1>   0.3430 
 14 C       -2.5270    -9.0070     0.3830 C.2   1 <1>   0.0460 
 15 C       -4.1570    -6.0760    -0.5560 C.3   1 <1>   0.3430 
 16 N       -3.0530    -8.3140     1.4230 N.2   1 <1>  -0.5650 
 17 C       -3.0820   -10.2380     0.2930 C.2   1 <1>  -0.3320 
 18 N       -3.9440    -4.8990     0.3670 N.4   1 <1>  -0.9590 
 19 C       -3.8880    -9.1500     1.9550 C.2   1 <1>   0.0360 
 20 N       -3.9560   -10.3350     1.3130 N.pl3 1 <1>   0.0330 
 21 C       -2.8460   -11.3850    -0.6780 C.3   1 <1>  -0.0600 
 22 C       -4.3610    -5.2210     1.7700 C.3   1 <1>   0.2630 
 23 C       -4.6850    -3.6760    -0.0930 C.3   1 <1>   0.2630 
 24 H       -2.0820     0.7940     1.7790 H     1 <1>   0.0800 
 25 H       -1.7060     0.3530     0.1200 H     1 <1>   0.0800 
 26 H       -0.5990    -0.0880     1.4260 H     1 <1>   0.0800 
 27 H       -1.3910    -3.0670     2.7340 H     1 <1>   0.1500 
 28 H       -1.6920    -1.6200    -2.3430 H     1 <1>   0.4500 
 29 H       -1.1410    -3.8560    -2.1250 H     1 <1>   0.1500 
 30 H       -0.5630    -5.2200     1.9020 H     1 <1>   0.1500 
 31 H        0.3310    -6.4860    -0.0930 H     1 <1>   0.0800 
 32 H       -0.1970    -6.0610    -1.7150 H     1 <1>   0.0800 
 33 H       -2.0180    -6.7880     0.5000 H     1 <1>   0.4500 
 34 H       -0.4910    -8.5810    -0.0560 H     1 <1>   0.0800 
 35 H       -1.4810    -8.7750    -1.4930 H     1 <1>   0.0800 
 36 H       -3.1690    -7.3670    -1.9650 H     1 <1>   0.0800 
 37 H       -2.6120    -5.7280    -2.0210 H     1 <1>   0.0800 
 38 H       -4.5100    -6.9200     0.0150 H     1 <1>   0.0800 
 39 H       -4.9350    -5.8350    -1.2620 H     1 <1>   0.0800 
 40 H       -2.9430    -4.6250     0.3970 H     1 <1>   0.4500 
 41 H       -4.4840    -8.9530     2.8320 H     1 <1>   0.1500 
 42 H       -4.5360   -11.1450     1.5680 H     1 <1>   0.2700 
 43 H       -2.1050   -11.1290    -1.4140 H     1 <1>   0.0800 
 44 H       -3.7600   -11.6360    -1.1890 H     1 <1>   0.0800 
 45 H       -2.5040   -12.2560    -0.1460 H     1 <1>   0.0800 
 46 H       -5.4110    -5.4620     1.8050 H     1 <1>   0.0800 
 47 H       -4.1820    -4.3740     2.4140 H     1 <1>   0.0800 
 48 H       -3.8020    -6.0610     2.1490 H     1 <1>   0.0800 
 49 H       -5.7480    -3.8590    -0.1100 H     1 <1>   0.0800 
 50 H       -4.3650    -3.3860    -1.0800 H     1 <1>   0.0800 
 51 H       -4.4890    -2.8500     0.5740 H     1 <1>   0.0800 
@<TRIPOS>BOND
  1   1   2  1   
  2   1   3  1   
  3   2   4  ar  
  4   2   5  ar  
  5   3  24  1   
  6   3  25  1   
  7   3  26  1   
  8   4   6  1   
  9   4   7  ar  
 10   5   8  ar  
 11   5  27  1   
 12   6  28  1   
 13   7   9  ar  
 14   7  29  1   
 15   8   9  ar  
 16   8  30  1   
 17   9  10  1   
 18  10  11  1   
 19  10  31  1   
 20  10  32  1   
 21  11  12  1   
 22  11  13  1   
 23  11  33  1   
 24  12  14  1   
 25  12  34  1   
 26  12  35  1   
 27  13  15  1   
 28  13  36  1   
 29  13  37  1   
 30  14  16  1   
 31  14  17  2   
 32  15  18  1   
 33  15  38  1   
 34  15  39  1   
 35  16  19  2   
 36  17  20  1   
 37  17  21  1   
 38  18  22  1   
 39  18  23  1   
 40  18  40  1   
 41  19  20  1   
 42  19  41  1   
 43  20  42  1   
 44  21  43  1   
 45  21  44  1   
 46  21  45  1   
 47  22  46  1   
 48  22  47  1   
 49  22  48  1   
 50  23  49  1   
 51  23  50  1   
 52  23  51  1   
@<TRIPOS>SUBSTRUCTURE
  1 ****  11 GROUP 4 **** **** 0

# MOE 2024.06 (io_trps.svl 2023.06)
