@<TRIPOS>MOLECULE
NONAME
43 45 1 0 0 
SMALL
USER_CHARGES


@<TRIPOS>ATOM
  1 CL      -2.0750     0.7940    -0.5870 Cl    1 <1>  -0.1770 
  2 C       -1.1080     2.1750    -0.1300 C.ar  1 <1>   0.1770 
  3 C       -1.5790     3.0850     0.8120 C.ar  1 <1>   0.0860 
  4 C        0.1260     2.3250    -0.7320 C.ar  1 <1>  -0.1500 
  5 C       -2.8700     2.9400     1.4410 C.2   1 <1>   0.5440 
  6 C       -0.7480     4.1560     1.1390 C.ar  1 <1>  -0.1500 
  7 C        0.9270     3.4020    -0.3970 C.ar  1 <1>  -0.1500 
  8 O       -2.9160     2.6180     2.6120 O.2   1 <1>  -0.5700 
  9 N       -4.0400     3.1970     0.7590 N.am  1 <1>  -0.6600 
 10 C        0.4990     4.3340     0.5460 C.ar  1 <1>  -0.1430 
 11 C       -5.3700     2.8860     1.3760 C.3   1 <1>   0.1400 
 12 C       -4.0480     3.7490    -0.6290 C.3   1 <1>   0.1400 
 13 C        1.3920     5.5280     0.9290 C.3   1 <1>   1.1640 
 14 C       -6.3460     2.3020     0.3350 C.3   1 <1>   0.0000 
 15 C       -5.4190     4.3300    -0.9860 C.3   1 <1>  -0.1600 
 16 F        0.6960     6.5780     1.3470 F     1 <1>  -0.3400 
 17 F        2.2360     5.2230     1.9040 F     1 <1>  -0.3400 
 18 F        2.1320     5.9560    -0.0870 F     1 <1>  -0.3400 
 19 C       -7.6470     1.8430     1.0220 C.3   1 <1>   0.2000 
 20 C       -6.5620     3.3070    -0.8410 C.3   1 <1>  -0.1600 
 21 C       -5.8380     0.9570    -0.2230 C.3   1 <1>  -0.1600 
 22 O       -8.5360     2.8710     1.2740 O.3   1 <1>  -0.6800 
 23 C       -8.2700     0.8100     0.0890 C.3   1 <1>  -0.1600 
 24 C       -7.0860     0.1710    -0.6490 C.3   1 <1>  -0.1600 
 25 H        0.4560     1.6010    -1.4570 H     1 <1>   0.1500 
 26 H       -1.1030     4.8520     1.8830 H     1 <1>   0.1500 
 27 H        1.8900     3.5070    -0.8720 H     1 <1>   0.1500 
 28 H       -5.2450     2.1840     2.1820 H     1 <1>   0.0800 
 29 H       -5.7840     3.7880     1.7910 H     1 <1>   0.0800 
 30 H       -3.3030     4.5210    -0.7140 H     1 <1>   0.0800 
 31 H       -3.8020     2.9630    -1.3220 H     1 <1>   0.0800 
 32 H       -5.6050     5.1690    -0.3370 H     1 <1>   0.0800 
 33 H       -5.3990     4.7060    -1.9940 H     1 <1>   0.0800 
 34 H       -7.4150     1.3730     1.9640 H     1 <1>   0.0800 
 35 H       -6.6690     2.7680    -1.7660 H     1 <1>   0.0800 
 36 H       -7.4660     3.8710    -0.7140 H     1 <1>   0.0800 
 37 H       -5.1440     1.0740    -1.0360 H     1 <1>   0.0800 
 38 H       -5.3380     0.4110     0.5610 H     1 <1>   0.0800 
 39 H       -8.8130     3.2780     0.4340 H     1 <1>   0.4000 
 40 H       -8.8220     0.0760     0.6500 H     1 <1>   0.0800 
 41 H       -8.9210     1.2850    -0.6240 H     1 <1>   0.0800 
 42 H       -6.9810    -0.8690    -0.3920 H     1 <1>   0.0800 
 43 H       -7.2330     0.2520    -1.7130 H     1 <1>   0.0800 
@<TRIPOS>BOND
  1   1   2  1   
  2   2   3  ar  
  3   2   4  ar  
  4   3   5  1   
  5   3   6  ar  
  6   4   7  ar  
  7   4  25  1   
  8   5   8  2   
  9   5   9  am  
 10   6  10  ar  
 11   6  26  1   
 12   7  10  ar  
 13   7  27  1   
 14   9  11  1   
 15   9  12  1   
 16  10  13  1   
 17  11  14  1   
 18  11  28  1   
 19  11  29  1   
 20  12  15  1   
 21  12  30  1   
 22  12  31  1   
 23  13  16  1   
 24  13  17  1   
 25  13  18  1   
 26  14  19  1   
 27  14  20  1   
 28  14  21  1   
 29  15  20  1   
 30  15  32  1   
 31  15  33  1   
 32  19  22  1   
 33  19  23  1   
 34  19  34  1   
 35  20  35  1   
 36  20  36  1   
 37  21  24  1   
 38  21  37  1   
 39  21  38  1   
 40  22  39  1   
 41  23  24  1   
 42  23  40  1   
 43  23  41  1   
 44  24  42  1   
 45  24  43  1   
@<TRIPOS>SUBSTRUCTURE
  1 ****   5 GROUP 4 **** **** 0

# MOE 2024.06 (io_trps.svl 2023.06)
