@<TRIPOS>MOLECULE
NONAME
47 50 1 0 0 
SMALL
USER_CHARGES


@<TRIPOS>ATOM
  1 O       -0.4440    -0.0410     0.7750 O.2   1 <1>  -0.5700 
  2 C        0.6010    -0.4690     1.2030 C.2   1 <1>   0.5690 
  3 N        1.7150     0.3230     1.2930 N.am  1 <1>  -0.6600 
  4 C        0.6580    -1.9250     1.6560 C.3   1 <1>  -0.0990 
  5 C        1.7200     1.6880     0.6610 C.3   1 <1>   0.3210 
  6 C        2.9770    -0.0580     1.9930 C.3   1 <1>   0.0600 
  7 C       -0.4850    -2.7970     1.0980 C.3   1 <1>  -0.1600 
  8 C        2.8750     1.8930    -0.3210 C.2   1 <1>   0.3350 
  9 C       -0.3590    -4.2620     1.5400 C.3   1 <1>   0.0200 
 10 N        2.7840     1.7790    -1.5880 N.2   1 <1>  -0.4100 
 11 N        4.0950     2.2270     0.0900 N.2   1 <1>  -0.5650 
 12 C       -1.4680    -5.1170     0.9550 C.2   1 <1>   0.2980 
 13 O        3.9590     2.0330    -2.0810 O.3   1 <1>  -0.0190 
 14 C        4.6950     2.2940    -1.0310 C.2   1 <1>   0.3930 
 15 O       -2.6910    -4.9430     1.3820 O.3   1 <1>  -0.0190 
 16 N       -1.3210    -6.0120     0.0690 N.2   1 <1>  -0.5650 
 17 C        6.1610     2.6410    -1.2440 C.3   1 <1>  -0.0150 
 18 N       -3.3850    -5.8030     0.7060 N.2   1 <1>  -0.4100 
 19 C       -2.5810    -6.4340    -0.0730 C.2   1 <1>   0.4620 
 20 C        6.9120     3.5170    -0.2870 C.3   1 <1>  -0.2000 
 21 C        6.5610     4.0260    -1.6530 C.3   1 <1>  -0.2000 
 22 C       -2.9550    -7.4800    -1.0050 C.ar  1 <1>   0.0540 
 23 C       -2.0100    -8.0940    -1.8290 C.ar  1 <1>   0.1600 
 24 C       -4.2680    -7.9220    -1.1240 C.ar  1 <1>  -0.1500 
 25 N       -2.2510    -9.0540    -2.7090 N.ar  1 <1>  -0.6200 
 26 C       -4.5410    -8.9210    -2.0330 C.ar  1 <1>  -0.1500 
 27 C       -3.5110    -9.4470    -2.7910 C.ar  1 <1>   0.1600 
 28 H        0.6260    -1.9400     2.7300 H     1 <1>   0.0800 
 29 H        1.5930    -2.3440     1.3350 H     1 <1>   0.0800 
 30 H        1.7880     2.4310     1.4340 H     1 <1>   0.0800 
 31 H        0.8010     1.8590     0.1280 H     1 <1>   0.0800 
 32 H        2.7960    -0.8170     2.7330 H     1 <1>   0.0800 
 33 H        3.3940     0.8020     2.4900 H     1 <1>   0.0800 
 34 H        3.6920    -0.4230     1.2760 H     1 <1>   0.0800 
 35 H       -0.4720    -2.7500     0.0210 H     1 <1>   0.0800 
 36 H       -1.4300    -2.4020     1.4310 H     1 <1>   0.0800 
 37 H       -0.4000    -4.3290     2.6120 H     1 <1>   0.0800 
 38 H        0.5860    -4.6580     1.2140 H     1 <1>   0.0800 
 39 H        6.7000     1.8220    -1.6850 H     1 <1>   0.1000 
 40 H        7.9380     3.2790    -0.0670 H     1 <1>   0.1000 
 41 H        6.3880     3.9150     0.5660 H     1 <1>   0.1000 
 42 H        5.7980     4.7810    -1.7390 H     1 <1>   0.1000 
 43 H        7.3430     4.1440    -2.3820 H     1 <1>   0.1000 
 44 H       -0.9870    -7.7660    -1.7550 H     1 <1>   0.1500 
 45 H       -5.0500    -7.4940    -0.5200 H     1 <1>   0.1500 
 46 H       -5.5430    -9.2910    -2.1550 H     1 <1>   0.1500 
 47 H       -3.7330   -10.2270    -3.5000 H     1 <1>   0.1500 
@<TRIPOS>BOND
  1   1   2  2   
  2   2   3  am  
  3   2   4  1   
  4   3   5  1   
  5   3   6  1   
  6   4   7  1   
  7   4  28  1   
  8   4  29  1   
  9   5   8  1   
 10   5  30  1   
 11   5  31  1   
 12   6  32  1   
 13   6  33  1   
 14   6  34  1   
 15   7   9  1   
 16   7  35  1   
 17   7  36  1   
 18   8  10  2   
 19   8  11  1   
 20   9  12  1   
 21   9  37  1   
 22   9  38  1   
 23  10  13  1   
 24  11  14  2   
 25  12  15  1   
 26  12  16  2   
 27  13  14  1   
 28  14  17  1   
 29  15  18  1   
 30  16  19  1   
 31  17  20  1   
 32  17  21  1   
 33  17  39  1   
 34  18  19  2   
 35  19  22  1   
 36  20  21  1   
 37  20  40  1   
 38  20  41  1   
 39  21  42  1   
 40  21  43  1   
 41  22  23  ar  
 42  22  24  ar  
 43  23  25  ar  
 44  23  44  1   
 45  24  26  ar  
 46  24  45  1   
 47  25  27  ar  
 48  26  27  ar  
 49  26  46  1   
 50  27  47  1   
@<TRIPOS>SUBSTRUCTURE
  1 ****   7 GROUP 4 **** **** 0

# MOE 2024.06 (io_trps.svl 2023.06)
