@<TRIPOS>MOLECULE
NONAME
45 47 1 0 0 
SMALL
USER_CHARGES


@<TRIPOS>ATOM
  1 S        0.9090    -0.0740    -0.2110 S.o2  1 <1>   1.3330 
  2 O        1.1630    -0.1410    -1.6320 O.2   1 <1>  -0.6500 
  3 O        2.0160     0.0310     0.7120 O.2   1 <1>  -0.6500 
  4 N       -0.0200    -1.4260     0.2230 N.am  1 <1>  -0.8490 
  5 C       -0.1980     1.2960     0.1120 C.3   1 <1>  -0.0550 
  6 C        0.8090    -2.5470     0.6780 C.3   1 <1>   0.1160 
  7 C       -0.9260    -1.8770    -0.8390 C.3   1 <1>   0.1160 
  8 C        0.4070     2.6650    -0.2620 C.3   1 <1>  -0.0800 
  9 C       -0.5740     3.8340    -0.1600 C.3   1 <1>   0.2000 
 10 C        1.5950     3.0890     0.6120 C.3   1 <1>   0.1400 
 11 O       -1.2910     3.7250     1.0210 O.3   1 <1>  -0.6800 
 12 C        0.3310     5.0590    -0.0580 C.3   1 <1>   0.1400 
 13 N        1.5390     4.5770     0.6640 N.am  1 <1>  -0.6600 
 14 C        2.6770     5.3440     0.8260 C.2   1 <1>   0.7160 
 15 O        3.7470     4.7690     0.9510 O.2   1 <1>  -0.5700 
 16 C        2.6180     6.7700     0.8360 C.2   1 <1>  -0.0860 
 17 C        3.4620     7.6840     0.2570 C.2   1 <1>  -0.0680 
 18 C        1.6610     7.5880     1.4550 C.2   1 <1>   0.1390 
 19 N        2.9820     8.9050     0.5310 N.pl3 1 <1>   0.6010 
 20 N        4.6120     7.7940    -0.4970 N.pl3 1 <1>  -0.5530 
 21 N        1.8500     8.8610     1.2770 N.2   1 <1>  -0.7070 
 22 C        3.8320     9.8290    -0.0480 C.2   1 <1>  -0.1810 
 23 C        4.8230     9.1540    -0.6680 C.2   1 <1>  -0.0500 
 24 C        5.5090     6.6810    -0.8760 C.3   1 <1>   0.1290 
 25 H       -1.0970     1.1570    -0.4540 H     1 <1>   0.0800 
 26 H       -0.4660     1.2890     1.1510 H     1 <1>   0.0800 
 27 H        0.1890    -3.3800     0.9610 H     1 <1>   0.0800 
 28 H        1.3870    -2.2520     1.5380 H     1 <1>   0.0800 
 29 H        1.4840    -2.8550    -0.1030 H     1 <1>   0.0800 
 30 H       -1.5490    -2.6780    -0.4790 H     1 <1>   0.0800 
 31 H       -0.3650    -2.2260    -1.6910 H     1 <1>   0.0800 
 32 H       -1.5630    -1.0680    -1.1540 H     1 <1>   0.0800 
 33 H        0.7550     2.6180    -1.2800 H     1 <1>   0.0800 
 34 H       -1.2690     3.8870    -0.9810 H     1 <1>   0.0800 
 35 H        2.5270     2.7440     0.1920 H     1 <1>   0.0800 
 36 H        1.5000     2.7010     1.6120 H     1 <1>   0.0800 
 37 H       -0.6790     3.8380     1.7770 H     1 <1>   0.4000 
 38 H       -0.1640     5.8630     0.4580 H     1 <1>   0.0800 
 39 H        0.6180     5.3870    -1.0430 H     1 <1>   0.0800 
 40 H        0.8400     7.1990     2.0350 H     1 <1>   0.1500 
 41 H        3.6370    10.8780     0.0500 H     1 <1>   0.1500 
 42 H        5.6690     9.5340    -1.2170 H     1 <1>   0.1500 
 43 H        6.2790     7.0360    -1.5370 H     1 <1>   0.0800 
 44 H        4.9410     5.9130    -1.3700 H     1 <1>   0.0800 
 45 H        5.9580     6.2670     0.0090 H     1 <1>   0.0800 
@<TRIPOS>BOND
  1   1   2  2   
  2   1   3  2   
  3   1   4  am  
  4   1   5  1   
  5   4   6  1   
  6   4   7  1   
  7   5   8  1   
  8   5  25  1   
  9   5  26  1   
 10   6  27  1   
 11   6  28  1   
 12   6  29  1   
 13   7  30  1   
 14   7  31  1   
 15   7  32  1   
 16   8   9  1   
 17   8  10  1   
 18   8  33  1   
 19   9  11  1   
 20   9  12  1   
 21   9  34  1   
 22  10  13  1   
 23  10  35  1   
 24  10  36  1   
 25  11  37  1   
 26  12  13  1   
 27  12  38  1   
 28  12  39  1   
 29  13  14  am  
 30  14  15  2   
 31  14  16  1   
 32  16  17  2   
 33  16  18  1   
 34  17  19  1   
 35  17  20  1   
 36  18  21  2   
 37  18  40  1   
 38  19  21  1   
 39  19  22  1   
 40  20  23  1   
 41  20  24  1   
 42  22  23  2   
 43  22  41  1   
 44  23  42  1   
 45  24  43  1   
 46  24  44  1   
 47  24  45  1   
@<TRIPOS>SUBSTRUCTURE
  1 ****  13 GROUP 4 **** **** 0

# MOE 2024.06 (io_trps.svl 2023.06)
