@<TRIPOS>MOLECULE
NONAME
50 53 1 0 0 
SMALL
USER_CHARGES


@<TRIPOS>ATOM
  1 O        1.4810     0.7480    -2.3590 O.co2 1 <1>  -0.9020 
  2 C        1.9610    -0.3970    -2.3530 C.2   1 <1>   0.9770 
  3 O        1.3400    -1.3290    -2.8860 O.co2 1 <1>  -0.9020 
  4 C        3.2470    -0.6330    -1.7170 C.ar  1 <1>  -0.1860 
  5 C        3.9360     0.4150    -1.1140 C.ar  1 <1>  -0.1170 
  6 C        3.8350    -1.9120    -1.6920 C.ar  1 <1>  -0.1570 
  7 C        5.1580     0.1760    -0.5140 C.ar  1 <1>   0.3030 
  8 C        5.0550    -2.1490    -1.0920 C.ar  1 <1>  -0.1170 
  9 N        6.0380     1.0090     0.1390 N.pl3 1 <1>  -0.7040 
 10 C        5.7200    -1.0840    -0.4960 C.ar  1 <1>   0.3030 
 11 C        7.0990     0.3080     0.5230 C.cat 1 <1>   1.0690 
 12 N        6.9340    -0.9860     0.1800 N.pl3 1 <1>  -0.7670 
 13 N        8.1580     0.8690     1.1450 N.pl3 1 <1>  -0.5960 
 14 C        7.6890    -2.1900     0.6090 C.3   1 <1>   0.2670 
 15 C        9.5640     0.3940     0.9950 C.3   1 <1>   0.1600 
 16 C        8.0600     2.1540     1.8960 C.3   1 <1>   0.1600 
 17 C       10.3830     1.4550     0.2550 C.3   1 <1>  -0.1670 
 18 C        8.8330     3.2430     1.1520 C.3   1 <1>  -0.1670 
 19 C       10.3000     2.8330     0.9350 C.3   1 <1>   0.0920 
 20 C       11.0470     3.8860     0.1300 C.2   1 <1>   0.2920 
 21 O       10.6460     4.1600    -1.0860 O.3   1 <1>  -0.0270 
 22 N       12.0520     4.5470     0.5380 N.2   1 <1>  -0.5700 
 23 N       11.4700     5.0760    -1.4880 N.2   1 <1>  -0.4150 
 24 C       12.2870     5.2960    -0.5330 C.2   1 <1>   0.3290 
 25 C       13.4470     6.2960    -0.5500 C.3   1 <1>   0.0930 
 26 C       13.1680     7.5040    -1.4580 C.3   1 <1>  -0.2470 
 27 C       14.7500     5.6080    -0.9780 C.3   1 <1>  -0.2470 
 28 H        3.5120     1.4060    -1.1190 H     1 <1>   0.1430 
 29 H        3.2950    -2.7210    -2.1630 H     1 <1>   0.1430 
 30 H        5.4790    -3.1360    -1.0920 H     1 <1>   0.1430 
 31 H        5.9220     2.0130     0.2240 H     1 <1>   0.4450 
 32 H        7.0080    -2.9980     0.8170 H     1 <1>   0.0720 
 33 H        8.2470    -1.9870     1.5070 H     1 <1>   0.0720 
 34 H        8.3640    -2.4970    -0.1720 H     1 <1>   0.0720 
 35 H        9.6110    -0.5160     0.4260 H     1 <1>   0.0720 
 36 H        9.9880     0.2130     1.9690 H     1 <1>   0.0720 
 37 H        8.4840     2.0190     2.8780 H     1 <1>   0.0720 
 38 H        7.0340     2.4530     2.0260 H     1 <1>   0.0720 
 39 H       10.0310     1.5260    -0.7600 H     1 <1>   0.0720 
 40 H       11.4130     1.1450     0.2150 H     1 <1>   0.0720 
 41 H        8.8040     4.1550     1.7230 H     1 <1>   0.0720 
 42 H        8.3590     3.4370     0.2050 H     1 <1>   0.0720 
 43 H       10.7770     2.7630     1.8980 H     1 <1>   0.0720 
 44 H       13.5720     6.6610     0.4540 H     1 <1>   0.0720 
 45 H       13.0600     7.1890    -2.4810 H     1 <1>   0.0720 
 46 H       13.9740     8.2130    -1.3970 H     1 <1>   0.0720 
 47 H       12.2590     7.9900    -1.1520 H     1 <1>   0.0720 
 48 H       14.6560     5.2220    -1.9780 H     1 <1>   0.0720 
 49 H       14.9670     4.7900    -0.3140 H     1 <1>   0.0720 
 50 H       15.5710     6.3020    -0.9470 H     1 <1>   0.0720 
@<TRIPOS>BOND
  1   1   2  ar  
  2   2   3  ar  
  3   2   4  1   
  4   4   5  ar  
  5   4   6  ar  
  6   5   7  ar  
  7   5  28  1   
  8   6   8  ar  
  9   6  29  1   
 10   7   9  1   
 11   7  10  ar  
 12   8  10  ar  
 13   8  30  1   
 14   9  11  ar  
 15   9  31  1   
 16  10  12  1   
 17  11  12  ar  
 18  11  13  ar  
 19  12  14  1   
 20  13  15  1   
 21  13  16  1   
 22  14  32  1   
 23  14  33  1   
 24  14  34  1   
 25  15  17  1   
 26  15  35  1   
 27  15  36  1   
 28  16  18  1   
 29  16  37  1   
 30  16  38  1   
 31  17  19  1   
 32  17  39  1   
 33  17  40  1   
 34  18  19  1   
 35  18  41  1   
 36  18  42  1   
 37  19  20  1   
 38  19  43  1   
 39  20  21  1   
 40  20  22  2   
 41  21  23  1   
 42  22  24  1   
 43  23  24  2   
 44  24  25  1   
 45  25  26  1   
 46  25  27  1   
 47  25  44  1   
 48  26  45  1   
 49  26  46  1   
 50  26  47  1   
 51  27  48  1   
 52  27  49  1   
 53  27  50  1   
@<TRIPOS>SUBSTRUCTURE
  1 ****  13 GROUP 4 **** **** 0

# MOE 2024.06 (io_trps.svl 2023.06)
