@<TRIPOS>MOLECULE
NONAME
45 47 1 0 0 
SMALL
USER_CHARGES


@<TRIPOS>ATOM
  1 O       -1.1310    -1.4750     1.4120 O.co2 1 <1>  -0.9000 
  2 C       -0.6460    -1.4040     0.2710 C.2   1 <1>   1.0330 
  3 O       -1.1160    -0.5710    -0.5240 O.co2 1 <1>  -0.9000 
  4 C        0.4040    -2.2760    -0.1380 C.2   1 <1>  -0.2330 
  5 C        0.2740    -3.6050    -0.5560 C.2   1 <1>   0.3720 
  6 C        1.7420    -2.0490    -0.1850 C.2   1 <1>   0.0870 
  7 N        1.4290    -4.1160    -0.8090 N.2   1 <1>  -0.4100 
  8 N       -0.8950    -4.3680    -0.7060 N.pl3 1 <1>  -0.8210 
  9 O        2.2980    -3.1670    -0.5840 O.3   1 <1>  -0.0190 
 10 C        2.5690    -0.9010     0.1120 C.ar  1 <1>   0.0530 
 11 C       -1.0300    -5.4750     0.2860 C.3   1 <1>   0.2090 
 12 C       -2.1780    -3.6480    -0.9170 C.3   1 <1>   0.2090 
 13 C        3.9090    -1.0610     0.4670 C.ar  1 <1>  -0.1500 
 14 C        2.0800     0.4050     0.0530 C.ar  1 <1>  -0.1500 
 15 C       -2.0270    -6.5490    -0.2130 C.3   1 <1>   0.0610 
 16 C       -3.2180    -4.6310    -1.4610 C.3   1 <1>  -0.1600 
 17 C        4.7210     0.0220     0.7530 C.ar  1 <1>  -0.1500 
 18 C        2.8830     1.4930     0.3390 C.ar  1 <1>  -0.1500 
 19 C       -2.2430    -7.6080     0.8870 C.2   1 <1>   0.5690 
 20 C       -3.3780    -5.8590    -0.5450 C.3   1 <1>  -0.1600 
 21 C       -1.4510    -7.2410    -1.4740 C.3   1 <1>  -0.2400 
 22 C        4.2080     1.3050     0.6900 C.ar  1 <1>  -0.1500 
 23 O       -1.6330    -7.5510     1.9290 O.2   1 <1>  -0.5700 
 24 N       -3.1340    -8.6160     0.6560 N.am  1 <1>  -0.7300 
 25 C       -3.4570    -9.7150     1.5990 C.3   1 <1>   0.0600 
 26 H       -1.3710    -5.0600     1.2210 H     1 <1>   0.0800 
 27 H       -0.0690    -5.9270     0.4600 H     1 <1>   0.0800 
 28 H       -2.0340    -2.8410    -1.6160 H     1 <1>   0.0800 
 29 H       -2.5210    -3.2350     0.0180 H     1 <1>   0.0800 
 30 H        4.3190    -2.0540     0.5240 H     1 <1>   0.1500 
 31 H        1.0540     0.5760    -0.2240 H     1 <1>   0.1500 
 32 H       -2.9180    -4.9340    -2.4480 H     1 <1>   0.0800 
 33 H       -4.1600    -4.1200    -1.5500 H     1 <1>   0.0800 
 34 H        5.7500    -0.1330     1.0250 H     1 <1>   0.1500 
 35 H        2.4710     2.4850     0.2870 H     1 <1>   0.1500 
 36 H       -3.8260    -5.5300     0.3780 H     1 <1>   0.0800 
 37 H       -4.0550    -6.5570    -1.0040 H     1 <1>   0.0800 
 38 H       -0.5460    -7.7640    -1.2190 H     1 <1>   0.0800 
 39 H       -1.2070    -6.5190    -2.2330 H     1 <1>   0.0800 
 40 H       -2.1500    -7.9450    -1.8850 H     1 <1>   0.0800 
 41 H        4.8330     2.1520     0.9130 H     1 <1>   0.1500 
 42 H       -3.6160    -8.6370    -0.2440 H     1 <1>   0.3700 
 43 H       -2.8930    -9.6060     2.5100 H     1 <1>   0.0800 
 44 H       -3.2100   -10.6630     1.1520 H     1 <1>   0.0800 
 45 H       -4.5060    -9.6950     1.8370 H     1 <1>   0.0800 
@<TRIPOS>BOND
  1   1   2  ar  
  2   2   3  ar  
  3   2   4  1   
  4   4   5  1   
  5   4   6  2   
  6   5   7  2   
  7   5   8  1   
  8   6   9  1   
  9   6  10  1   
 10   7   9  1   
 11   8  11  1   
 12   8  12  1   
 13  10  13  ar  
 14  10  14  ar  
 15  11  15  1   
 16  11  26  1   
 17  11  27  1   
 18  12  16  1   
 19  12  28  1   
 20  12  29  1   
 21  13  17  ar  
 22  13  30  1   
 23  14  18  ar  
 24  14  31  1   
 25  15  19  1   
 26  15  20  1   
 27  15  21  1   
 28  16  20  1   
 29  16  32  1   
 30  16  33  1   
 31  17  22  ar  
 32  17  34  1   
 33  18  22  ar  
 34  18  35  1   
 35  19  23  2   
 36  19  24  am  
 37  20  36  1   
 38  20  37  1   
 39  21  38  1   
 40  21  39  1   
 41  21  40  1   
 42  22  41  1   
 43  24  25  1   
 44  24  42  1   
 45  25  43  1   
 46  25  44  1   
 47  25  45  1   
@<TRIPOS>SUBSTRUCTURE
  1 ****   5 GROUP 4 **** **** 0

# MOE 2024.06 (io_trps.svl 2023.06)
