@<TRIPOS>MOLECULE
NONAME
50 54 1 0 0 
SMALL
USER_CHARGES


@<TRIPOS>ATOM
  1 O        0.2810    -0.2830     0.5590 O.3   1 <1>  -0.5600 
  2 C        0.6180    -1.6420     0.4630 C.3   1 <1>   0.1200 
  3 C        1.0680     0.5870    -0.2080 C.3   1 <1>   0.1200 
  4 C        2.0930    -1.8710     0.8600 C.3   1 <1>   0.5180 
  5 C        2.5640     0.4470     0.1600 C.3   1 <1>   0.4230 
  6 N        3.0110    -0.9930     0.0750 N.4   1 <1>  -0.9590 
  7 C        2.5140    -3.3380     0.7100 C.3   1 <1>  -0.1950 
  8 C        3.4560     1.3740    -0.7070 C.3   1 <1>   0.1100 
  9 C        3.2530    -1.4100    -1.3490 C.3   1 <1>   0.3430 
 10 C        2.4460    -4.2630     1.8850 C.3   1 <1>  -0.2000 
 11 C        3.7780    -3.8590     1.3240 C.3   1 <1>  -0.2000 
 12 N        4.6640     0.6750    -1.2140 N.3   1 <1>  -0.8100 
 13 C        4.2850    -0.4880    -2.0470 C.3   1 <1>   0.1100 
 14 C        5.6040     1.5740    -1.9160 C.3   1 <1>   0.2530 
 15 C        6.0750     2.6950    -0.9960 C.ar  1 <1>  -0.1440 
 16 C        6.8700     2.4450     0.1480 C.ar  1 <1>   0.0000 
 17 C        5.7310     3.9900    -1.2550 C.ar  1 <1>  -0.1500 
 18 C        7.2330     3.5520     0.9510 C.ar  1 <1>   0.3100 
 19 C        7.3260     1.1640     0.5370 C.ar  1 <1>  -0.1500 
 20 C        6.1470     5.0140    -0.3960 C.ar  1 <1>   0.1600 
 21 N        6.8580     4.8250     0.6690 N.ar  1 <1>  -0.6200 
 22 C        8.0190     3.3330     2.0940 C.ar  1 <1>  -0.1500 
 23 C        8.0920     0.9840     1.6560 C.ar  1 <1>  -0.1500 
 24 C        8.4430     2.0810     2.4470 C.ar  1 <1>  -0.1500 
 25 H       -0.0290    -2.1850     1.1300 H     1 <1>   0.0800 
 26 H        0.4270    -1.9750    -0.5420 H     1 <1>   0.0800 
 27 H        0.8990     0.3740    -1.2490 H     1 <1>   0.0800 
 28 H        0.7310     1.5890    -0.0060 H     1 <1>   0.0800 
 29 H        2.1860    -1.6110     1.9020 H     1 <1>   0.0800 
 30 H        2.6650     0.7760     1.1810 H     1 <1>   0.0800 
 31 H        3.9420    -1.0040     0.5120 H     1 <1>   0.4500 
 32 H        2.1950    -3.7680    -0.2250 H     1 <1>   0.1000 
 33 H        3.7430     2.2130    -0.0950 H     1 <1>   0.0800 
 34 H        2.8930     1.7650    -1.5380 H     1 <1>   0.0800 
 35 H        3.6210    -2.4220    -1.3820 H     1 <1>   0.0800 
 36 H        2.3280    -1.3810    -1.8990 H     1 <1>   0.0800 
 37 H        2.1730    -3.8890     2.8580 H     1 <1>   0.1000 
 38 H        2.1190    -5.2790     1.7360 H     1 <1>   0.1000 
 39 H        4.3510    -4.6070     0.8010 H     1 <1>   0.1000 
 40 H        4.4000    -3.2210     1.9290 H     1 <1>   0.1000 
 41 H        3.8760    -0.1540    -2.9860 H     1 <1>   0.0800 
 42 H        5.1680    -1.0640    -2.2670 H     1 <1>   0.0800 
 43 H        6.4630     1.0150    -2.2470 H     1 <1>   0.0800 
 44 H        5.1280     1.9910    -2.7870 H     1 <1>   0.0800 
 45 H        5.1390     4.2600    -2.1100 H     1 <1>   0.1500 
 46 H        7.0670     0.3130    -0.0630 H     1 <1>   0.1500 
 47 H        5.8550     6.0230    -0.6340 H     1 <1>   0.1500 
 48 H        8.2800     4.1910     2.6860 H     1 <1>   0.1500 
 49 H        8.4370     0.0050     1.9410 H     1 <1>   0.1500 
 50 H        9.0480     1.9290     3.3260 H     1 <1>   0.1500 
@<TRIPOS>BOND
  1   1   2  1   
  2   1   3  1   
  3   2   4  1   
  4   2  25  1   
  5   2  26  1   
  6   3   5  1   
  7   3  27  1   
  8   3  28  1   
  9   4   6  1   
 10   4   7  1   
 11   4  29  1   
 12   5   6  1   
 13   5   8  1   
 14   5  30  1   
 15   6   9  1   
 16   6  31  1   
 17   7  10  1   
 18   7  11  1   
 19   7  32  1   
 20   8  12  1   
 21   8  33  1   
 22   8  34  1   
 23   9  13  1   
 24   9  35  1   
 25   9  36  1   
 26  10  11  1   
 27  10  37  1   
 28  10  38  1   
 29  11  39  1   
 30  11  40  1   
 31  12  13  1   
 32  12  14  1   
 33  13  41  1   
 34  13  42  1   
 35  14  15  1   
 36  14  43  1   
 37  14  44  1   
 38  15  16  ar  
 39  15  17  ar  
 40  16  18  ar  
 41  16  19  ar  
 42  17  20  ar  
 43  17  45  1   
 44  18  21  ar  
 45  18  22  ar  
 46  19  23  ar  
 47  19  46  1   
 48  20  21  ar  
 49  20  47  1   
 50  22  24  ar  
 51  22  48  1   
 52  23  24  ar  
 53  23  49  1   
 54  24  50  1   
@<TRIPOS>SUBSTRUCTURE
  1 ****  12 GROUP 4 **** **** 0

# MOE 2024.06 (io_trps.svl 2023.06)
