@<TRIPOS>MOLECULE
NONAME
55 58 1 0 0 
SMALL
USER_CHARGES


@<TRIPOS>ATOM
  1 O        0.5490    -1.8050     1.5740 O.2   1 <1>  -0.5700 
  2 C        0.9470    -2.1010     0.4640 C.2   1 <1>   0.5440 
  3 N        1.6010    -1.1500    -0.2830 N.am  1 <1>  -0.6600 
  4 C        0.7290    -3.4490    -0.0230 C.ar  1 <1>   0.0860 
  5 C        2.5150    -1.4300    -1.4140 C.3   1 <1>   0.1400 
  6 C        1.7890     0.2350     0.2100 C.3   1 <1>   0.1400 
  7 C        0.9350    -4.5540     0.7800 C.ar  1 <1>  -0.1500 
  8 C        0.2830    -3.7360    -1.3060 C.ar  1 <1>  -0.1500 
  9 C        3.5060    -0.2720    -1.4080 C.3   1 <1>  -0.1600 
 10 C        2.7310     0.8890    -0.7950 C.3   1 <1>  -0.1600 
 11 C        0.7220    -5.8380     0.3010 C.ar  1 <1>   0.4100 
 12 C        0.0930    -5.0450    -1.6980 C.ar  1 <1>   0.1600 
 13 N        0.3020    -6.1030    -0.9280 N.ar  1 <1>  -0.6200 
 14 N        0.9120    -6.9130     1.1380 N.pl3 1 <1>  -0.8690 
 15 C        1.7910    -8.0790     0.7860 C.3   1 <1>   0.2890 
 16 C        1.2670    -8.8100    -0.4720 C.3   1 <1>   0.3430 
 17 C        1.7210    -9.0650     1.9680 C.3   1 <1>  -0.1600 
 18 N       -0.2030    -8.9770    -0.2760 N.4   1 <1>  -0.9590 
 19 C        0.6240   -10.1500     1.8030 C.3   1 <1>  -0.1600 
 20 C       -0.5960    -9.7290     0.9610 C.3   1 <1>   0.3430 
 21 C       -0.9610    -9.3070    -1.5030 C.3   1 <1>   0.4860 
 22 C       -2.4380    -9.1250    -1.2270 C.ar  1 <1>  -0.1430 
 23 C       -3.2830   -10.2250    -1.2270 C.ar  1 <1>   0.1600 
 24 C       -2.9670    -7.8760    -0.9640 C.ar  1 <1>  -0.1500 
 25 N       -4.5780   -10.1780    -0.9740 N.ar  1 <1>  -0.6200 
 26 C       -4.3200    -7.8120    -0.7060 C.ar  1 <1>  -0.1500 
 27 C       -5.0690    -8.9760    -0.7220 C.ar  1 <1>   0.1600 
 28 H        1.9530    -1.4270    -2.3320 H     1 <1>   0.0800 
 29 H        3.0160    -2.3750    -1.2910 H     1 <1>   0.0800 
 30 H        2.2410     0.2030     1.1870 H     1 <1>   0.0800 
 31 H        0.8450     0.7490     0.2680 H     1 <1>   0.0800 
 32 H        1.2600    -4.4060     1.7930 H     1 <1>   0.1500 
 33 H        0.0770    -2.9310    -1.9890 H     1 <1>   0.1500 
 34 H        3.8690    -0.0490    -2.3960 H     1 <1>   0.0800 
 35 H        4.3400    -0.5270    -0.7770 H     1 <1>   0.0800 
 36 H        3.3740     1.6120    -0.3250 H     1 <1>   0.0800 
 37 H        2.1450     1.3810    -1.5520 H     1 <1>   0.0800 
 38 H       -0.2540    -5.2300    -2.7020 H     1 <1>   0.1500 
 39 H        1.0670    -6.6220     2.1090 H     1 <1>   0.4000 
 40 H        2.8030    -7.7400     0.6380 H     1 <1>   0.0800 
 41 H        1.7560    -9.7620    -0.5890 H     1 <1>   0.0800 
 42 H        1.4650    -8.2040    -1.3410 H     1 <1>   0.0800 
 43 H        1.5710    -8.5260     2.8880 H     1 <1>   0.0800 
 44 H        2.6700    -9.5650     2.0560 H     1 <1>   0.0800 
 45 H       -0.4480    -7.9860    -0.0590 H     1 <1>   0.4500 
 46 H        0.2870   -10.4690     2.7740 H     1 <1>   0.0800 
 47 H        1.0590   -11.0150     1.3340 H     1 <1>   0.0800 
 48 H       -1.1640   -10.6070     0.6970 H     1 <1>   0.0800 
 49 H       -1.2340    -9.0970     1.5580 H     1 <1>   0.0800 
 50 H       -0.7590   -10.3220    -1.8020 H     1 <1>   0.0800 
 51 H       -0.6660    -8.6460    -2.3020 H     1 <1>   0.0800 
 52 H       -2.8830   -11.2020    -1.4420 H     1 <1>   0.1500 
 53 H       -2.3660    -6.9810    -0.9560 H     1 <1>   0.1500 
 54 H       -4.7950    -6.8710    -0.4940 H     1 <1>   0.1500 
 55 H       -6.1260    -8.9150    -0.5180 H     1 <1>   0.1500 
@<TRIPOS>BOND
  1   1   2  2   
  2   2   3  am  
  3   2   4  1   
  4   3   5  1   
  5   3   6  1   
  6   4   7  ar  
  7   4   8  ar  
  8   5   9  1   
  9   5  28  1   
 10   5  29  1   
 11   6  10  1   
 12   6  30  1   
 13   6  31  1   
 14   7  11  ar  
 15   7  32  1   
 16   8  12  ar  
 17   8  33  1   
 18   9  10  1   
 19   9  34  1   
 20   9  35  1   
 21  10  36  1   
 22  10  37  1   
 23  11  13  ar  
 24  11  14  1   
 25  12  13  ar  
 26  12  38  1   
 27  14  15  1   
 28  14  39  1   
 29  15  16  1   
 30  15  17  1   
 31  15  40  1   
 32  16  18  1   
 33  16  41  1   
 34  16  42  1   
 35  17  19  1   
 36  17  43  1   
 37  17  44  1   
 38  18  20  1   
 39  18  21  1   
 40  18  45  1   
 41  19  20  1   
 42  19  46  1   
 43  19  47  1   
 44  20  48  1   
 45  20  49  1   
 46  21  22  1   
 47  21  50  1   
 48  21  51  1   
 49  22  23  ar  
 50  22  24  ar  
 51  23  25  ar  
 52  23  52  1   
 53  24  26  ar  
 54  24  53  1   
 55  25  27  ar  
 56  26  27  ar  
 57  26  54  1   
 58  27  55  1   
@<TRIPOS>SUBSTRUCTURE
  1 ****  13 GROUP 4 **** **** 0

# MOE 2024.06 (io_trps.svl 2023.06)
