@<TRIPOS>MOLECULE
NONAME
50 54 1 0 0 
SMALL
USER_CHARGES


@<TRIPOS>ATOM
  1 O       -0.8800    -1.2080     0.4070 O.co2 1 <1>  -0.9000 
  2 C       -0.1380    -1.6780    -0.4780 C.2   1 <1>   0.9790 
  3 O       -0.4900    -1.5790    -1.6680 O.co2 1 <1>  -0.9000 
  4 C        1.1270    -2.2630    -0.1340 C.ar  1 <1>  -0.1790 
  5 C        1.2490    -3.6350     0.1210 C.ar  1 <1>   0.4100 
  6 C        2.2660    -1.4790    -0.0490 C.ar  1 <1>  -0.1500 
  7 N        2.3980    -4.2300     0.4330 N.ar  1 <1>  -0.6200 
  8 N        0.1750    -4.4940     0.0650 N.pl3 1 <1>  -0.8380 
  9 C        3.4520    -2.0940     0.2770 C.ar  1 <1>  -0.1500 
 10 C        3.4630    -3.4590     0.5050 C.ar  1 <1>   0.1670 
 11 C       -0.3230    -4.8930    -1.2660 C.3   1 <1>   0.2090 
 12 C       -0.9220    -4.3270     1.0410 C.3   1 <1>   0.2090 
 13 C        4.7550    -4.1580     0.8630 C.3   1 <1>  -0.0970 
 14 C       -0.9120    -6.2950    -1.1250 C.3   1 <1>  -0.1600 
 15 C       -1.5300    -5.7060     1.2730 C.3   1 <1>  -0.1600 
 16 C       -2.0040    -6.3390    -0.0470 C.3   1 <1>   0.4600 
 17 O       -3.0940    -5.6060    -0.5640 O.3   1 <1>  -0.5600 
 18 C       -2.4550    -7.7780     0.1860 C.2   1 <1>  -0.3320 
 19 C       -4.3680    -5.8200    -0.0100 C.3   1 <1>   0.1200 
 20 N       -1.6470    -8.8250     0.5290 N.pl3 1 <1>   0.0330 
 21 C       -3.7280    -8.2080     0.0870 C.2   1 <1>  -0.1810 
 22 C       -4.8460    -7.2590    -0.2690 C.3   1 <1>   0.0210 
 23 C       -2.4340    -9.9470     0.6420 C.ar  1 <1>  -0.1520 
 24 C       -3.7520    -9.5910     0.3660 C.ar  1 <1>   0.0000 
 25 C       -2.1020   -11.2650     0.9660 C.ar  1 <1>  -0.1500 
 26 C       -4.7560   -10.5630     0.4110 C.ar  1 <1>  -0.1500 
 27 C       -3.1000   -12.2110     1.0080 C.ar  1 <1>  -0.1500 
 28 C       -4.4270   -11.8600     0.7300 C.ar  1 <1>  -0.1500 
 29 H        2.2030    -0.4210    -0.2380 H     1 <1>   0.1500 
 30 H        4.3530    -1.5150     0.3510 H     1 <1>   0.1500 
 31 H        0.4880    -4.8900    -1.9740 H     1 <1>   0.0800 
 32 H       -1.0730    -4.1940    -1.6000 H     1 <1>   0.0800 
 33 H       -1.6650    -3.6510     0.6480 H     1 <1>   0.0800 
 34 H       -0.5350    -3.9160     1.9580 H     1 <1>   0.0800 
 35 H        4.9670    -4.9120     0.1270 H     1 <1>   0.0800 
 36 H        4.6490    -4.6310     1.8220 H     1 <1>   0.0800 
 37 H        5.5750    -3.4650     0.9020 H     1 <1>   0.0800 
 38 H       -0.1130    -6.9600    -0.8630 H     1 <1>   0.0800 
 39 H       -1.3220    -6.6180    -2.0630 H     1 <1>   0.0800 
 40 H       -2.3360    -5.6420     1.9760 H     1 <1>   0.0800 
 41 H       -0.7700    -6.3260     1.7090 H     1 <1>   0.0800 
 42 H       -5.0410    -5.1150    -0.4630 H     1 <1>   0.0800 
 43 H       -4.3210    -5.6220     1.0450 H     1 <1>   0.0800 
 44 H       -0.6330    -8.7850     0.6730 H     1 <1>   0.2700 
 45 H       -5.1030    -7.3770    -1.3060 H     1 <1>   0.0800 
 46 H       -5.7140    -7.4660     0.3290 H     1 <1>   0.0800 
 47 H       -1.0800   -11.5250     1.1770 H     1 <1>   0.1500 
 48 H       -5.7690   -10.2790     0.1950 H     1 <1>   0.1500 
 49 H       -2.8690   -13.2330     1.2550 H     1 <1>   0.1500 
 50 H       -5.1880   -12.6200     0.7690 H     1 <1>   0.1500 
@<TRIPOS>BOND
  1   1   2  ar  
  2   2   3  ar  
  3   2   4  1   
  4   4   5  ar  
  5   4   6  ar  
  6   5   7  ar  
  7   5   8  1   
  8   6   9  ar  
  9   6  29  1   
 10   7  10  ar  
 11   8  11  1   
 12   8  12  1   
 13   9  10  ar  
 14   9  30  1   
 15  10  13  1   
 16  11  14  1   
 17  11  31  1   
 18  11  32  1   
 19  12  15  1   
 20  12  33  1   
 21  12  34  1   
 22  13  35  1   
 23  13  36  1   
 24  13  37  1   
 25  14  16  1   
 26  14  38  1   
 27  14  39  1   
 28  15  16  1   
 29  15  40  1   
 30  15  41  1   
 31  16  17  1   
 32  16  18  1   
 33  17  19  1   
 34  18  20  1   
 35  18  21  2   
 36  19  22  1   
 37  19  42  1   
 38  19  43  1   
 39  20  23  1   
 40  20  44  1   
 41  21  22  1   
 42  21  24  1   
 43  22  45  1   
 44  22  46  1   
 45  23  24  ar  
 46  23  25  ar  
 47  24  26  ar  
 48  25  27  ar  
 49  25  47  1   
 50  26  28  ar  
 51  26  48  1   
 52  27  28  ar  
 53  27  49  1   
 54  28  50  1   
@<TRIPOS>SUBSTRUCTURE
  1 ****  16 GROUP 4 **** **** 0

# MOE 2024.06 (io_trps.svl 2023.06)
