@<TRIPOS>MOLECULE
NONAME
23 23 1 0 0 
SMALL
USER_CHARGES


@<TRIPOS>ATOM
  1 F        0.3410     0.4780     0.3970 F     1 <1>  -0.3400 
  2 C        0.1980     1.6820    -0.1360 C.3   1 <1>   1.3000 
  3 F       -0.7940     1.6190    -1.0160 F     1 <1>  -0.3400 
  4 F        1.3190     1.9690    -0.7890 F     1 <1>  -0.3400 
  5 O       -0.0680     2.6290     0.8770 O.3   1 <1>  -0.3630 
  6 C       -0.2340     3.9130     0.4990 C.ar  1 <1>   0.0820 
  7 C        0.8570     4.7650     0.4500 C.ar  1 <1>  -0.1500 
  8 C       -1.4970     4.3810     0.1780 C.ar  1 <1>  -0.1500 
  9 C        0.6840     6.0830     0.0670 C.ar  1 <1>  -0.1500 
 10 C       -1.6650     5.7000    -0.2050 C.ar  1 <1>  -0.1500 
 11 C       -0.5780     6.5680    -0.2670 C.ar  1 <1>  -0.1430 
 12 C       -0.7760     8.0370    -0.6710 C.3   1 <1>   0.8230 
 13 F       -1.7270     8.1270    -1.5970 F     1 <1>  -0.3400 
 14 F        0.3120     8.4920    -1.2900 F     1 <1>  -0.3400 
 15 C       -1.1020     8.9790     0.5120 C.3   1 <1>   0.1200 
 16 O       -1.2420    10.3340     0.1650 O.3   1 <1>  -0.6800 
 17 H        1.8350     4.3990     0.7100 H     1 <1>   0.1500 
 18 H       -2.3430     3.7190     0.2260 H     1 <1>   0.1500 
 19 H        1.5460     6.7290     0.0300 H     1 <1>   0.1500 
 20 H       -2.6540     6.0460    -0.4570 H     1 <1>   0.1500 
 21 H       -0.3160     8.9050     1.2410 H     1 <1>   0.0800 
 22 H       -2.0160     8.6610     0.9800 H     1 <1>   0.0800 
 23 H       -0.5320    10.6080    -0.4540 H     1 <1>   0.4000 
@<TRIPOS>BOND
  1   1   2  1   
  2   2   3  1   
  3   2   4  1   
  4   2   5  1   
  5   5   6  1   
  6   6   7  ar  
  7   6   8  ar  
  8   7   9  ar  
  9   7  17  1   
 10   8  10  ar  
 11   8  18  1   
 12   9  11  ar  
 13   9  19  1   
 14  10  11  ar  
 15  10  20  1   
 16  11  12  1   
 17  12  13  1   
 18  12  14  1   
 19  12  15  1   
 20  15  16  1   
 21  15  21  1   
 22  15  22  1   
 23  16  23  1   
@<TRIPOS>SUBSTRUCTURE
  1 ****  11 GROUP 4 **** **** 0

# MOE 2024.06 (io_trps.svl 2023.06)
