@<TRIPOS>MOLECULE
NONAME
50 52 1 0 0 
SMALL
USER_CHARGES


@<TRIPOS>ATOM
  1 O        0.0060    -0.1910    -0.2910 O.3   1 <1>  -0.6800 
  2 C        0.9790    -0.1080    -1.2840 C.3   1 <1>   0.2000 
  3 C        1.7460    -1.4300    -1.3670 C.3   1 <1>  -0.0800 
  4 C        2.0570     0.8570    -0.7930 C.3   1 <1>   0.3430 
  5 C        2.7960    -1.3430    -0.2480 C.3   1 <1>   0.3430 
  6 C        0.9000    -2.7200    -1.3410 C.3   1 <1>  -0.0170 
  7 N        2.7940     0.0700     0.2370 N.4   1 <1>  -0.9590 
  8 C        1.8140    -3.9410    -1.2940 C.ar  1 <1>  -0.1440 
  9 C        4.1510     0.5790     0.5920 C.3   1 <1>   0.3430 
 10 C        2.1840    -4.5910    -0.0890 C.ar  1 <1>   0.0000 
 11 C        2.3270    -4.4320    -2.4590 C.ar  1 <1>  -0.1500 
 12 C        4.0820     1.9390     1.2880 C.3   1 <1>  -0.0220 
 13 C        3.1010    -5.6680    -0.1830 C.ar  1 <1>   0.3100 
 14 C        1.7080    -4.2450     1.1990 C.ar  1 <1>  -0.1500 
 15 C        3.2110    -5.5170    -2.4410 C.ar  1 <1>   0.1600 
 16 C        5.4880     2.3790     1.6580 C.2   1 <1>  -0.2880 
 17 N        3.6050    -6.1100    -1.3600 N.ar  1 <1>  -0.6200 
 18 C        3.5180    -6.3150     0.9910 C.ar  1 <1>  -0.1500 
 19 C        2.1320    -4.9000     2.3240 C.ar  1 <1>  -0.1500 
 20 C        6.2450     3.3160     1.0760 C.2   1 <1>  -0.2760 
 21 C        3.0520    -5.9450     2.2220 C.ar  1 <1>  -0.1500 
 22 C        7.6380     3.6390     1.5940 C.3   1 <1>  -0.1020 
 23 C        5.8770     4.1760    -0.1270 C.3   1 <1>  -0.1020 
 24 H       -0.8280    -0.5750    -0.6390 H     1 <1>   0.4000 
 25 H        0.5230     0.2030    -2.2090 H     1 <1>   0.0800 
 26 H        2.2940    -1.4270    -2.2930 H     1 <1>   0.0800 
 27 H        1.6210     1.7550    -0.3840 H     1 <1>   0.0800 
 28 H        2.7160     1.1100    -1.6060 H     1 <1>   0.0800 
 29 H        3.7630    -1.6230    -0.6330 H     1 <1>   0.0800 
 30 H        2.5420    -2.0040     0.5640 H     1 <1>   0.0800 
 31 H        0.3030    -2.7640    -2.2360 H     1 <1>   0.0800 
 32 H        0.2120    -2.7320    -0.5180 H     1 <1>   0.0800 
 33 H        2.1850     0.0830     1.0710 H     1 <1>   0.4500 
 34 H        4.6370    -0.1200     1.2540 H     1 <1>   0.0800 
 35 H        4.7560     0.6680    -0.2960 H     1 <1>   0.0800 
 36 H        2.0780    -4.0080    -3.4150 H     1 <1>   0.1500 
 37 H        3.6200     2.6630     0.6460 H     1 <1>   0.0800 
 38 H        3.4970     1.8670     2.1880 H     1 <1>   0.0800 
 39 H        0.9880    -3.4590     1.3160 H     1 <1>   0.1500 
 40 H        3.5930    -5.8760    -3.3820 H     1 <1>   0.1500 
 41 H        5.8590     1.8260     2.5070 H     1 <1>   0.1500 
 42 H        4.2210    -7.1220     0.8870 H     1 <1>   0.1500 
 43 H        1.7620    -4.6290     3.2990 H     1 <1>   0.1500 
 44 H        3.3800    -6.4530     3.1130 H     1 <1>   0.1500 
 45 H        8.3730     3.4610     0.8280 H     1 <1>   0.0800 
 46 H        7.8850     3.0310     2.4460 H     1 <1>   0.0800 
 47 H        7.6940     4.6710     1.8910 H     1 <1>   0.0800 
 48 H        6.6090     4.0510    -0.9050 H     1 <1>   0.0800 
 49 H        5.8620     5.2140     0.1580 H     1 <1>   0.0800 
 50 H        4.9170     3.9300    -0.5350 H     1 <1>   0.0800 
@<TRIPOS>BOND
  1   1   2  1   
  2   1  24  1   
  3   2   3  1   
  4   2   4  1   
  5   2  25  1   
  6   3   5  1   
  7   3   6  1   
  8   3  26  1   
  9   4   7  1   
 10   4  27  1   
 11   4  28  1   
 12   5   7  1   
 13   5  29  1   
 14   5  30  1   
 15   6   8  1   
 16   6  31  1   
 17   6  32  1   
 18   7   9  1   
 19   7  33  1   
 20   8  10  ar  
 21   8  11  ar  
 22   9  12  1   
 23   9  34  1   
 24   9  35  1   
 25  10  13  ar  
 26  10  14  ar  
 27  11  15  ar  
 28  11  36  1   
 29  12  16  1   
 30  12  37  1   
 31  12  38  1   
 32  13  17  ar  
 33  13  18  ar  
 34  14  19  ar  
 35  14  39  1   
 36  15  17  ar  
 37  15  40  1   
 38  16  20  2   
 39  16  41  1   
 40  18  21  ar  
 41  18  42  1   
 42  19  21  ar  
 43  19  43  1   
 44  20  22  1   
 45  20  23  1   
 46  21  44  1   
 47  22  45  1   
 48  22  46  1   
 49  22  47  1   
 50  23  48  1   
 51  23  49  1   
 52  23  50  1   
@<TRIPOS>SUBSTRUCTURE
  1 ****   5 GROUP 4 **** **** 0

# MOE 2024.06 (io_trps.svl 2023.06)
