@<TRIPOS>MOLECULE
NONAME
49 51 1 0 0 
SMALL
USER_CHARGES


@<TRIPOS>ATOM
  1 CL       1.4040     2.7080    -2.5650 Cl    1 <1>  -0.1770 
  2 C       -0.0780     2.7590    -1.6450 C.ar  1 <1>   0.1770 
  3 C       -0.8490     1.6180    -1.5490 C.ar  1 <1>  -0.1500 
  4 C       -0.4540     3.9380    -1.0360 C.ar  1 <1>  -0.1500 
  5 C       -2.0340     1.6690    -0.8220 C.ar  1 <1>   0.0830 
  6 C       -1.6320     4.0050    -0.2980 C.ar  1 <1>   0.0860 
  7 O       -2.8630     0.6080    -0.6660 O.3   1 <1>  -0.3630 
  8 C       -2.4130     2.8540    -0.2130 C.ar  1 <1>  -0.1500 
  9 C       -2.0230     5.2360     0.3570 C.2   1 <1>   0.5440 
 10 C       -2.5780    -0.6390    -1.2600 C.3   1 <1>   0.0400 
 11 O       -3.0090     5.8290    -0.0370 O.2   1 <1>  -0.5700 
 12 N       -1.2980     5.7560     1.4100 N.am  1 <1>  -0.6600 
 13 C       -0.3530     4.9230     2.2270 C.3   1 <1>   0.1400 
 14 C       -1.3540     7.2140     1.7060 C.3   1 <1>   0.1400 
 15 C        0.9510     5.6390     2.6150 C.3   1 <1>   0.1400 
 16 C       -0.3020     7.9560     0.8680 C.3   1 <1>  -0.1600 
 17 N        1.5440     6.3600     1.4540 N.am  1 <1>  -0.6600 
 18 C        1.1500     7.7900     1.3410 C.3   1 <1>   0.1400 
 19 C        2.2870     5.6780     0.5020 C.2   1 <1>   0.5440 
 20 O        2.5210     4.4980     0.7140 O.2   1 <1>  -0.5700 
 21 C        2.7990     6.3100    -0.7200 C.ar  1 <1>   0.3960 
 22 N        1.9120     6.8210    -1.5940 N.ar  1 <1>  -0.6200 
 23 C        4.1820     6.3720    -0.9580 C.ar  1 <1>  -0.1430 
 24 C        2.3900     7.3650    -2.6940 C.ar  1 <1>   0.1600 
 25 C        4.6570     6.9530    -2.1170 C.ar  1 <1>  -0.1500 
 26 C        5.1920     5.8050     0.0350 C.3   1 <1>  -0.0970 
 27 C        3.7330     7.4580    -3.0010 C.ar  1 <1>  -0.1500 
 28 H       -0.5110     0.7260    -2.0390 H     1 <1>   0.1500 
 29 H        0.1660     4.8100    -1.1300 H     1 <1>   0.1500 
 30 H       -3.3350     2.8890     0.3390 H     1 <1>   0.1500 
 31 H       -3.3710    -1.3190    -1.0050 H     1 <1>   0.0800 
 32 H       -1.6440    -1.0060    -0.8720 H     1 <1>   0.0800 
 33 H       -2.5320    -0.5160    -2.3270 H     1 <1>   0.0800 
 34 H       -0.0850     4.0300     1.6920 H     1 <1>   0.0800 
 35 H       -0.8580     4.6130     3.1250 H     1 <1>   0.0800 
 36 H       -1.2040     7.3890     2.7560 H     1 <1>   0.0800 
 37 H       -2.3310     7.5900     1.4530 H     1 <1>   0.0800 
 38 H        1.6520     4.9110     2.9850 H     1 <1>   0.0800 
 39 H        0.7600     6.3290     3.4170 H     1 <1>   0.0800 
 40 H       -0.5350     9.0040     0.8950 H     1 <1>   0.0800 
 41 H       -0.3850     7.6470    -0.1600 H     1 <1>   0.0800 
 42 H        1.2690     8.2600     2.3020 H     1 <1>   0.0800 
 43 H        1.8040     8.3000     0.6550 H     1 <1>   0.0800 
 44 H        1.6730     7.7610    -3.3930 H     1 <1>   0.1500 
 45 H        5.7110     7.0120    -2.3320 H     1 <1>   0.1500 
 46 H        4.9910     6.1710     1.0260 H     1 <1>   0.0800 
 47 H        6.1970     6.0830    -0.2290 H     1 <1>   0.0800 
 48 H        5.1300     4.7310     0.0450 H     1 <1>   0.0800 
 49 H        4.0470     7.9170    -3.9210 H     1 <1>   0.1500 
@<TRIPOS>BOND
  1   1   2  1   
  2   2   3  ar  
  3   2   4  ar  
  4   3   5  ar  
  5   3  28  1   
  6   4   6  ar  
  7   4  29  1   
  8   5   7  1   
  9   5   8  ar  
 10   6   8  ar  
 11   6   9  1   
 12   7  10  1   
 13   8  30  1   
 14   9  11  2   
 15   9  12  am  
 16  10  31  1   
 17  10  32  1   
 18  10  33  1   
 19  12  13  1   
 20  12  14  1   
 21  13  15  1   
 22  13  34  1   
 23  13  35  1   
 24  14  16  1   
 25  14  36  1   
 26  14  37  1   
 27  15  17  1   
 28  15  38  1   
 29  15  39  1   
 30  16  18  1   
 31  16  40  1   
 32  16  41  1   
 33  17  18  1   
 34  17  19  am  
 35  18  42  1   
 36  18  43  1   
 37  19  20  2   
 38  19  21  1   
 39  21  22  ar  
 40  21  23  ar  
 41  22  24  ar  
 42  23  25  ar  
 43  23  26  1   
 44  24  27  ar  
 45  24  44  1   
 46  25  27  ar  
 47  25  45  1   
 48  26  46  1   
 49  26  47  1   
 50  26  48  1   
 51  27  49  1   
@<TRIPOS>SUBSTRUCTURE
  1 ****   4 GROUP 4 **** **** 0

# MOE 2024.06 (io_trps.svl 2023.06)
