@<TRIPOS>MOLECULE
NONAME
57 60 1 0 0 
SMALL
USER_CHARGES


@<TRIPOS>ATOM
  1 O       -3.2130     0.8590     1.3910 O.2   1 <1>  -0.5700 
  2 C       -3.6010    -0.1580     0.8320 C.2   1 <1>   0.5410 
  3 C       -2.9430    -1.4200     1.0250 C.2   1 <1>   0.0910 
  4 C       -4.7180    -0.1560    -0.0400 C.2   1 <1>  -0.1360 
  5 O       -1.8750    -1.3510     1.8660 O.3   1 <1>  -0.5270 
  6 C       -3.3840    -2.5540     0.3970 C.2   1 <1>  -0.0620 
  7 C       -5.1110    -1.3020    -0.6350 C.2   1 <1>  -0.0620 
  8 O       -4.4590    -2.4420    -0.4120 O.3   1 <1>  -0.1530 
  9 C       -2.8510    -4.0230     0.4330 C.3   1 <1>   0.1380 
 10 C       -6.2820    -1.4380    -1.5870 C.3   1 <1>  -0.1020 
 11 C       -4.0090    -4.9510     0.9030 C.3   1 <1>  -0.1600 
 12 C       -2.4350    -4.3980    -1.0160 C.3   1 <1>  -0.1600 
 13 C       -1.6350    -4.1520     1.3970 C.3   1 <1>  -0.0990 
 14 C       -3.9270    -6.4040     0.4090 C.3   1 <1>   0.1200 
 15 C       -2.4510    -5.9010    -1.3160 C.3   1 <1>   0.1200 
 16 C       -0.9980    -5.5110     1.6170 C.2   1 <1>   0.5690 
 17 O       -3.6900    -6.4160    -0.9610 O.3   1 <1>  -0.5600 
 18 O       -1.4860    -6.2470     2.4350 O.2   1 <1>  -0.5700 
 19 N        0.1260    -5.9090     0.9780 N.am  1 <1>  -0.7300 
 20 C        1.0420    -5.2090     0.0250 C.3   1 <1>   0.2810 
 21 C        0.9570    -5.7820    -1.4060 C.2   1 <1>   0.5690 
 22 C        2.4690    -5.2790     0.6030 C.3   1 <1>  -0.1600 
 23 O        0.7160    -5.0480    -2.3310 O.2   1 <1>  -0.5700 
 24 N        1.1250    -7.1170    -1.6230 N.am  1 <1>  -0.5470 
 25 C        3.2700    -6.5460     0.2450 C.3   1 <1>  -0.0170 
 26 C        1.4630    -8.0810    -0.6690 C.ar  1 <1>   0.1170 
 27 C        2.4530    -7.8350     0.2850 C.ar  1 <1>  -0.1440 
 28 C        0.7720    -9.2850    -0.6430 C.ar  1 <1>  -0.1500 
 29 C        2.7120    -8.7840     1.2610 C.ar  1 <1>  -0.1500 
 30 C        1.0420   -10.2290     0.3300 C.ar  1 <1>  -0.1500 
 31 C        2.0090    -9.9760     1.2860 C.ar  1 <1>  -0.1500 
 32 H       -5.2110     0.7860    -0.1890 H     1 <1>   0.1500 
 33 H       -1.7850    -0.4240     2.1890 H     1 <1>   0.4500 
 34 H       -5.9370    -1.8000    -2.5390 H     1 <1>   0.0800 
 35 H       -6.7690    -0.4900    -1.7310 H     1 <1>   0.0800 
 36 H       -6.9950    -2.1380    -1.1900 H     1 <1>   0.0800 
 37 H       -4.9540    -4.5850     0.5480 H     1 <1>   0.0800 
 38 H       -4.0700    -4.9480     1.9760 H     1 <1>   0.0800 
 39 H       -1.4680    -3.9900    -1.2400 H     1 <1>   0.0800 
 40 H       -3.1130    -3.9610    -1.7250 H     1 <1>   0.0800 
 41 H       -1.9540    -3.8270     2.3700 H     1 <1>   0.0800 
 42 H       -0.8690    -3.4740     1.0840 H     1 <1>   0.0800 
 43 H       -4.8640    -6.9040     0.5810 H     1 <1>   0.0800 
 44 H       -3.1550    -6.9700     0.8950 H     1 <1>   0.0800 
 45 H       -1.6910    -6.4430    -0.7860 H     1 <1>   0.0800 
 46 H       -2.3170    -6.0680    -2.3710 H     1 <1>   0.0800 
 47 H        0.4250    -6.8670     1.1930 H     1 <1>   0.3700 
 48 H        0.7630    -4.1740    -0.0320 H     1 <1>   0.0800 
 49 H        2.4190    -5.1740     1.6730 H     1 <1>   0.0800 
 50 H        3.0210    -4.4330     0.2320 H     1 <1>   0.0800 
 51 H        0.9310    -7.4250    -2.5750 H     1 <1>   0.3700 
 52 H        4.1140    -6.6230     0.9080 H     1 <1>   0.0800 
 53 H        3.6730    -6.4380    -0.7480 H     1 <1>   0.0800 
 54 H        0.0110    -9.4790    -1.3770 H     1 <1>   0.1500 
 55 H        3.4670    -8.6060     2.0070 H     1 <1>   0.1500 
 56 H        0.4980   -11.1580     0.3490 H     1 <1>   0.1500 
 57 H        2.2170   -10.7080     2.0480 H     1 <1>   0.1500 
@<TRIPOS>BOND
  1   1   2  2   
  2   2   3  1   
  3   2   4  1   
  4   3   5  1   
  5   3   6  2   
  6   4   7  2   
  7   4  32  1   
  8   5  33  1   
  9   6   8  1   
 10   6   9  1   
 11   7   8  1   
 12   7  10  1   
 13   9  11  1   
 14   9  12  1   
 15   9  13  1   
 16  10  34  1   
 17  10  35  1   
 18  10  36  1   
 19  11  14  1   
 20  11  37  1   
 21  11  38  1   
 22  12  15  1   
 23  12  39  1   
 24  12  40  1   
 25  13  16  1   
 26  13  41  1   
 27  13  42  1   
 28  14  17  1   
 29  14  43  1   
 30  14  44  1   
 31  15  17  1   
 32  15  45  1   
 33  15  46  1   
 34  16  18  2   
 35  16  19  am  
 36  19  20  1   
 37  19  47  1   
 38  20  21  1   
 39  20  22  1   
 40  20  48  1   
 41  21  23  2   
 42  21  24  am  
 43  22  25  1   
 44  22  49  1   
 45  22  50  1   
 46  24  26  1   
 47  24  51  1   
 48  25  27  1   
 49  25  52  1   
 50  25  53  1   
 51  26  27  ar  
 52  26  28  ar  
 53  27  29  ar  
 54  28  30  ar  
 55  28  54  1   
 56  29  31  ar  
 57  29  55  1   
 58  30  31  ar  
 59  30  56  1   
 60  31  57  1   
@<TRIPOS>SUBSTRUCTURE
  1 ****  13 GROUP 4 **** **** 0

# MOE 2024.06 (io_trps.svl 2023.06)
