@<TRIPOS>MOLECULE
NONAME
44 46 1 0 0 
SMALL
USER_CHARGES


@<TRIPOS>ATOM
  1 O        1.9360     0.0950     1.4640 O.3   1 <1>  -0.6800 
  2 C        1.8910    -0.2360     0.1110 C.3   1 <1>   0.2000 
  3 C        2.7250    -1.4900    -0.1540 C.3   1 <1>  -0.0800 
  4 C        2.6540     0.8330    -0.6740 C.3   1 <1>   0.3430 
  5 C        4.1680    -0.9800    -0.2750 C.3   1 <1>   0.3430 
  6 C        2.5830    -2.6280     0.8750 C.3   1 <1>   0.0210 
  7 N        4.1050     0.4970    -0.5090 N.4   1 <1>  -0.9590 
  8 C        3.4120    -3.8340     0.4760 C.2   1 <1>   0.1080 
  9 C        4.7030     1.2240     0.6490 C.3   1 <1>   0.4860 
 10 N        4.6970    -3.7850     0.2990 N.2   1 <1>  -0.7070 
 11 C        2.8990    -5.1090     0.2630 C.2   1 <1>  -0.1500 
 12 C        4.6800     2.7160     0.3790 C.ar  1 <1>  -0.1440 
 13 N        5.0430    -5.0510    -0.0220 N.pl3 1 <1>   0.3000 
 14 C        3.9690    -5.8660    -0.0560 C.2   1 <1>  -0.3320 
 15 C        5.5730     3.3380    -0.4920 C.ar  1 <1>   0.1670 
 16 C        3.7270     3.4840     1.0230 C.ar  1 <1>  -0.1500 
 17 C        4.0340    -7.3450    -0.3900 C.3   1 <1>  -0.0600 
 18 N        5.5460     4.6290    -0.7680 N.ar  1 <1>  -0.6200 
 19 C        6.6800     2.5930    -1.2210 C.3   1 <1>  -0.0970 
 20 C        3.7080     4.8330     0.7460 C.ar  1 <1>  -0.1500 
 21 C        4.6260     5.3480    -0.1490 C.ar  1 <1>   0.1600 
 22 H        1.2900    -0.4350     1.9800 H     1 <1>   0.4000 
 23 H        0.8630    -0.3210    -0.1970 H     1 <1>   0.0800 
 24 H        2.4460    -1.8800    -1.1170 H     1 <1>   0.0800 
 25 H        2.4140     1.8240    -0.3260 H     1 <1>   0.0800 
 26 H        2.3880     0.7560    -1.7150 H     1 <1>   0.0800 
 27 H        4.6700    -1.4870    -1.0840 H     1 <1>   0.0800 
 28 H        4.7010    -1.1950     0.6370 H     1 <1>   0.0800 
 29 H        1.5520    -2.9220     0.9540 H     1 <1>   0.0800 
 30 H        2.9150    -2.3070     1.8470 H     1 <1>   0.0800 
 31 H        4.6210     0.7660    -1.3550 H     1 <1>   0.4500 
 32 H        4.1430     1.0110     1.5450 H     1 <1>   0.0800 
 33 H        5.7180     0.9010     0.8080 H     1 <1>   0.0800 
 34 H        1.8690    -5.4090     0.3450 H     1 <1>   0.1500 
 35 H        6.0150    -5.3320    -0.2070 H     1 <1>   0.2700 
 36 H        3.0200     3.0600     1.7180 H     1 <1>   0.1500 
 37 H        3.0490    -7.7770    -0.3480 H     1 <1>   0.0800 
 38 H        4.6620    -7.8590     0.3160 H     1 <1>   0.0800 
 39 H        4.4280    -7.4880    -1.3800 H     1 <1>   0.0800 
 40 H        6.8600     1.6110    -0.8300 H     1 <1>   0.0800 
 41 H        7.5950     3.1520    -1.1320 H     1 <1>   0.0800 
 42 H        6.4370     2.5230    -2.2650 H     1 <1>   0.0800 
 43 H        2.9920     5.4840     1.2170 H     1 <1>   0.1500 
 44 H        4.6060     6.4040    -0.3650 H     1 <1>   0.1500 
@<TRIPOS>BOND
  1   1   2  1   
  2   1  22  1   
  3   2   3  1   
  4   2   4  1   
  5   2  23  1   
  6   3   5  1   
  7   3   6  1   
  8   3  24  1   
  9   4   7  1   
 10   4  25  1   
 11   4  26  1   
 12   5   7  1   
 13   5  27  1   
 14   5  28  1   
 15   6   8  1   
 16   6  29  1   
 17   6  30  1   
 18   7   9  1   
 19   7  31  1   
 20   8  10  2   
 21   8  11  1   
 22   9  12  1   
 23   9  32  1   
 24   9  33  1   
 25  10  13  1   
 26  11  14  2   
 27  11  34  1   
 28  12  15  ar  
 29  12  16  ar  
 30  13  14  1   
 31  13  35  1   
 32  14  17  1   
 33  15  18  ar  
 34  15  19  1   
 35  16  20  ar  
 36  16  36  1   
 37  17  37  1   
 38  17  38  1   
 39  17  39  1   
 40  18  21  ar  
 41  19  40  1   
 42  19  41  1   
 43  19  42  1   
 44  20  21  ar  
 45  20  43  1   
 46  21  44  1   
@<TRIPOS>SUBSTRUCTURE
  1 ****   5 GROUP 4 **** **** 0

# MOE 2024.06 (io_trps.svl 2023.06)
