@<TRIPOS>MOLECULE
NONAME
51 54 1 0 0 
SMALL
USER_CHARGES


@<TRIPOS>ATOM
  1 O       -0.3250    -1.3560     1.2590 O.3   1 <1>  -0.5600 
  2 C        0.4380    -2.4100     0.7620 C.3   1 <1>   0.2000 
  3 C       -1.4650    -1.7280     1.9720 C.3   1 <1>   0.0400 
  4 C        1.7310    -1.8860     0.1220 C.3   1 <1>   0.0000 
  5 C       -0.2610    -3.1960    -0.3470 C.3   1 <1>  -0.1600 
  6 C        2.7230    -1.5050     1.2310 C.3   1 <1>   0.3430 
  7 C        1.4960    -0.6600    -0.8060 C.3   1 <1>  -0.1600 
  8 C        2.1740    -3.1100    -0.7000 C.3   1 <1>  -0.1600 
  9 C        0.8750    -3.7360    -1.2300 C.3   1 <1>  -0.1600 
 10 N        3.9940    -0.9840     0.6480 N.4   1 <1>  -0.9590 
 11 C        2.8150    -0.0420    -1.3010 C.3   1 <1>  -0.1600 
 12 C        3.7740     0.2560    -0.1490 C.3   1 <1>   0.3430 
 13 C        5.0640    -0.8390     1.6680 C.3   1 <1>   0.4810 
 14 C        6.4010    -0.6130     0.9910 C.2   1 <1>  -0.1240 
 15 C        6.8200    -1.6190     0.0650 C.2   1 <1>   0.6160 
 16 C        7.1830     0.4690     1.2370 C.2   1 <1>  -0.1780 
 17 O        6.1130    -2.5670    -0.2330 O.2   1 <1>  -0.5700 
 18 N        8.0300    -1.4770    -0.5370 N.am  1 <1>  -0.5470 
 19 C        8.4450     0.6200     0.5760 C.ar  1 <1>   0.0280 
 20 C        8.8600    -0.3820    -0.3190 C.ar  1 <1>   0.1170 
 21 C        9.2800     1.7190     0.7870 C.ar  1 <1>  -0.1500 
 22 C       10.0840    -0.2640    -0.9730 C.ar  1 <1>  -0.1500 
 23 C       10.4880     1.8240     0.1320 C.ar  1 <1>  -0.1500 
 24 C       10.8920     0.8300    -0.7510 C.ar  1 <1>  -0.1500 
 25 H        0.6750    -3.0750     1.5760 H     1 <1>   0.0800 
 26 H       -1.9260    -0.8340     2.3550 H     1 <1>   0.0800 
 27 H       -1.1870    -2.3700     2.7890 H     1 <1>   0.0800 
 28 H       -2.1540    -2.2290     1.3140 H     1 <1>   0.0800 
 29 H       -0.8520    -3.9990     0.0570 H     1 <1>   0.0800 
 30 H       -0.8880    -2.5400    -0.9260 H     1 <1>   0.0800 
 31 H        2.9230    -2.3740     1.8360 H     1 <1>   0.0800 
 32 H        2.2690    -0.7530     1.8560 H     1 <1>   0.0800 
 33 H        0.8870    -0.9320    -1.6510 H     1 <1>   0.0800 
 34 H        0.9590     0.1010    -0.2660 H     1 <1>   0.0800 
 35 H        2.8490    -2.8740    -1.5030 H     1 <1>   0.0800 
 36 H        2.6580    -3.8260    -0.0570 H     1 <1>   0.0800 
 37 H        0.9260    -4.8110    -1.1860 H     1 <1>   0.0800 
 38 H        0.7080    -3.4440    -2.2540 H     1 <1>   0.0800 
 39 H        4.3480    -1.7120    -0.0030 H     1 <1>   0.4500 
 40 H        2.5990     0.8770    -1.8190 H     1 <1>   0.0800 
 41 H        3.2970    -0.6940    -2.0080 H     1 <1>   0.0800 
 42 H        3.3520     1.0230     0.4800 H     1 <1>   0.0800 
 43 H        4.7100     0.6150    -0.5480 H     1 <1>   0.0800 
 44 H        4.8390    -0.0170     2.3280 H     1 <1>   0.0800 
 45 H        5.1250    -1.7410     2.2560 H     1 <1>   0.0800 
 46 H        6.9020     1.2450     1.9300 H     1 <1>   0.1500 
 47 H        8.3080    -2.2190    -1.1800 H     1 <1>   0.3700 
 48 H        8.9790     2.4930     1.4690 H     1 <1>   0.1500 
 49 H       10.3990    -1.0320    -1.6560 H     1 <1>   0.1500 
 50 H       11.1260     2.6750     0.3000 H     1 <1>   0.1500 
 51 H       11.8380     0.9200    -1.2570 H     1 <1>   0.1500 
@<TRIPOS>BOND
  1   1   2  1   
  2   1   3  1   
  3   2   4  1   
  4   2   5  1   
  5   2  25  1   
  6   3  26  1   
  7   3  27  1   
  8   3  28  1   
  9   4   6  1   
 10   4   7  1   
 11   4   8  1   
 12   5   9  1   
 13   5  29  1   
 14   5  30  1   
 15   6  10  1   
 16   6  31  1   
 17   6  32  1   
 18   7  11  1   
 19   7  33  1   
 20   7  34  1   
 21   8   9  1   
 22   8  35  1   
 23   8  36  1   
 24   9  37  1   
 25   9  38  1   
 26  10  12  1   
 27  10  13  1   
 28  10  39  1   
 29  11  12  1   
 30  11  40  1   
 31  11  41  1   
 32  12  42  1   
 33  12  43  1   
 34  13  14  1   
 35  13  44  1   
 36  13  45  1   
 37  14  15  1   
 38  14  16  2   
 39  15  17  2   
 40  15  18  am  
 41  16  19  1   
 42  16  46  1   
 43  18  20  1   
 44  18  47  1   
 45  19  20  ar  
 46  19  21  ar  
 47  20  22  ar  
 48  21  23  ar  
 49  21  48  1   
 50  22  24  ar  
 51  22  49  1   
 52  23  24  ar  
 53  23  50  1   
 54  24  51  1   
@<TRIPOS>SUBSTRUCTURE
  1 ****  10 GROUP 4 **** **** 0

# MOE 2024.06 (io_trps.svl 2023.06)
