@<TRIPOS>MOLECULE
NONAME
44 46 1 0 0 
SMALL
USER_CHARGES


@<TRIPOS>ATOM
  1 O        3.0200    -1.2210    -2.6140 O.2   1 <1>  -0.5700 
  2 C        2.4550    -1.2120    -1.5360 C.2   1 <1>   0.5440 
  3 N        2.4740    -0.0700    -0.7820 N.am  1 <1>  -0.4940 
  4 C        1.7720    -2.3960    -1.0430 C.ar  1 <1>   0.0860 
  5 C        3.0980     1.1670    -0.9570 C.2   1 <1>   0.2040 
  6 C        0.8190    -2.3800     0.0060 C.ar  1 <1>   0.1000 
  7 C        2.0720    -3.6350    -1.6220 C.ar  1 <1>  -0.1500 
  8 O        3.9460     1.4060    -1.9290 O.3   1 <1>  -0.0190 
  9 C        2.9930     2.2920    -0.2220 C.2   1 <1>  -0.1810 
 10 N        0.4060    -1.2100     0.6490 N.pl3 1 <1>  -0.8380 
 11 C        0.2350    -3.5790     0.4120 C.ar  1 <1>  -0.1500 
 12 C        1.4840    -4.8100    -1.2030 C.ar  1 <1>  -0.1500 
 13 N        4.4130     2.6290    -1.8790 N.2   1 <1>  -0.4100 
 14 C        3.8550     3.1800    -0.8610 C.2   1 <1>   0.1080 
 15 C        2.1440     2.5490     1.0120 C.3   1 <1>   0.0210 
 16 C       -0.7230    -0.4360     0.0340 C.3   1 <1>   0.2090 
 17 C        0.5100    -1.0860     2.1420 C.3   1 <1>   0.2090 
 18 C        0.5590    -4.7820    -0.1770 C.ar  1 <1>  -0.1500 
 19 C        4.1240     4.6100    -0.4430 C.3   1 <1>  -0.0590 
 20 C        2.9450     2.2630     2.2830 C.3   1 <1>  -0.2400 
 21 C       -2.0080    -0.5240     0.8750 C.3   1 <1>   0.1200 
 22 C       -0.8670    -1.0960     2.8330 C.3   1 <1>   0.1200 
 23 O       -1.7490    -0.2050     2.2130 O.3   1 <1>  -0.5600 
 24 H        1.8550    -0.1590     0.0310 H     1 <1>   0.3700 
 25 H        2.7900    -3.6730    -2.4240 H     1 <1>   0.1500 
 26 H       -0.4930    -3.5660     1.2000 H     1 <1>   0.1500 
 27 H        1.7420    -5.7430    -1.6730 H     1 <1>   0.1500 
 28 H        1.2760     1.9150     0.9880 H     1 <1>   0.0800 
 29 H        1.8030     3.5690     1.0130 H     1 <1>   0.0800 
 30 H       -0.9220    -0.8090    -0.9570 H     1 <1>   0.0800 
 31 H       -0.4380     0.5970    -0.0590 H     1 <1>   0.0800 
 32 H        1.0060    -0.1630     2.3830 H     1 <1>   0.0800 
 33 H        1.1110    -1.8890     2.5330 H     1 <1>   0.0800 
 34 H        0.0950    -5.6950     0.1540 H     1 <1>   0.1500 
 35 H        4.4940     4.6340     0.5640 H     1 <1>   0.0800 
 36 H        3.2190     5.1840    -0.5060 H     1 <1>   0.0800 
 37 H        4.8590     5.0490    -1.0930 H     1 <1>   0.0800 
 38 H        3.2830     1.2420     2.2860 H     1 <1>   0.0800 
 39 H        2.3340     2.4310     3.1520 H     1 <1>   0.0800 
 40 H        3.8050     2.9070     2.3350 H     1 <1>   0.0800 
 41 H       -2.4210    -1.5170     0.8280 H     1 <1>   0.0800 
 42 H       -2.7400     0.1710     0.5060 H     1 <1>   0.0800 
 43 H       -0.7660    -0.7960     3.8610 H     1 <1>   0.0800 
 44 H       -1.3000    -2.0810     2.8070 H     1 <1>   0.0800 
@<TRIPOS>BOND
  1   1   2  2   
  2   2   3  am  
  3   2   4  1   
  4   3   5  1   
  5   3  24  1   
  6   4   6  ar  
  7   4   7  ar  
  8   5   8  1   
  9   5   9  2   
 10   6  10  1   
 11   6  11  ar  
 12   7  12  ar  
 13   7  25  1   
 14   8  13  1   
 15   9  14  1   
 16   9  15  1   
 17  10  16  1   
 18  10  17  1   
 19  11  18  ar  
 20  11  26  1   
 21  12  18  ar  
 22  12  27  1   
 23  13  14  2   
 24  14  19  1   
 25  15  20  1   
 26  15  28  1   
 27  15  29  1   
 28  16  21  1   
 29  16  30  1   
 30  16  31  1   
 31  17  22  1   
 32  17  32  1   
 33  17  33  1   
 34  18  34  1   
 35  19  35  1   
 36  19  36  1   
 37  19  37  1   
 38  20  38  1   
 39  20  39  1   
 40  20  40  1   
 41  21  23  1   
 42  21  41  1   
 43  21  42  1   
 44  22  23  1   
 45  22  43  1   
 46  22  44  1   
@<TRIPOS>SUBSTRUCTURE
  1 ****   3 GROUP 4 **** **** 0

# MOE 2024.06 (io_trps.svl 2023.06)
