@<TRIPOS>MOLECULE
NONAME
49 51 1 0 0 
SMALL
USER_CHARGES


@<TRIPOS>ATOM
  1 O        0.0600     0.9740     1.1150 O.2   1 <1>  -0.5700 
  2 C        0.0820     2.1780     1.2290 C.2   1 <1>   0.5690 
  3 N       -1.0550     2.9010     1.4860 N.am  1 <1>  -0.6600 
  4 C        1.4160     2.8840     1.0680 C.3   1 <1>  -0.0990 
  5 C       -2.3880     2.2320     1.5910 C.3   1 <1>   0.1400 
  6 C       -1.1240     4.3830     1.6250 C.3   1 <1>   0.1400 
  7 C        2.5830     1.9070     0.8660 C.3   1 <1>   0.0960 
  8 C       -3.3710     2.7540     0.5150 C.3   1 <1>   0.0000 
  9 C       -2.0620     4.9540     0.5580 C.3   1 <1>  -0.1600 
 10 N        3.8390     2.6410     0.6290 N.pl3 1 <1>   0.3140 
 11 C       -4.7340     2.0570     0.7090 C.3   1 <1>   0.2000 
 12 C       -3.4510     4.2980     0.6100 C.3   1 <1>  -0.1600 
 13 C       -2.9450     2.2770    -0.8850 C.3   1 <1>  -0.1600 
 14 N        4.3470     3.5060     1.5280 N.2   1 <1>  -0.7070 
 15 C        4.6160     2.5690    -0.4710 C.2   1 <1>  -0.3020 
 16 O       -5.7320     2.7820     0.0480 O.3   1 <1>  -0.5600 
 17 C       -4.5860     0.6930     0.0220 C.3   1 <1>  -0.1600 
 18 C       -3.4710     0.8450    -1.0210 C.3   1 <1>  -0.1600 
 19 C        5.4330     3.9570     0.9790 C.2   1 <1>   0.1390 
 20 C        5.6550     3.4060    -0.2780 C.2   1 <1>  -0.1810 
 21 C       -7.0240     2.5840     0.5280 C.3   1 <1>   0.0400 
 22 C        6.8170     3.6990    -1.2050 C.3   1 <1>  -0.0590 
 23 H        1.3520     3.5380     0.2180 H     1 <1>   0.0800 
 24 H        1.6050     3.4650     1.9510 H     1 <1>   0.0800 
 25 H       -2.2780     1.1650     1.5020 H     1 <1>   0.0800 
 26 H       -2.7890     2.4320     2.5690 H     1 <1>   0.0800 
 27 H       -1.5030     4.6210     2.6040 H     1 <1>   0.0800 
 28 H       -0.1550     4.8370     1.5280 H     1 <1>   0.0800 
 29 H        2.3910     1.2690     0.0230 H     1 <1>   0.0800 
 30 H        2.7070     1.2950     1.7400 H     1 <1>   0.0800 
 31 H       -2.1630     6.0150     0.7060 H     1 <1>   0.0800 
 32 H       -1.6220     4.8030    -0.4120 H     1 <1>   0.0800 
 33 H       -4.9930     1.9730     1.7520 H     1 <1>   0.0800 
 34 H       -4.0560     4.6870    -0.1910 H     1 <1>   0.0800 
 35 H       -3.9320     4.5660     1.5350 H     1 <1>   0.0800 
 36 H       -3.4280     2.8880    -1.6280 H     1 <1>   0.0800 
 37 H       -1.8820     2.3270    -1.0400 H     1 <1>   0.0800 
 38 H        4.3890     1.9390    -1.3100 H     1 <1>   0.1500 
 39 H       -4.2860    -0.0390     0.7500 H     1 <1>   0.0800 
 40 H       -5.5050     0.3680    -0.4310 H     1 <1>   0.0800 
 41 H       -2.6800     0.1420    -0.8170 H     1 <1>   0.0800 
 42 H       -3.8430     0.6730    -2.0170 H     1 <1>   0.0800 
 43 H        6.0800     4.6760     1.4530 H     1 <1>   0.1500 
 44 H       -7.6960     3.1650    -0.0780 H     1 <1>   0.0800 
 45 H       -7.0770     2.9170     1.5490 H     1 <1>   0.0800 
 46 H       -7.2810     1.5420     0.4550 H     1 <1>   0.0800 
 47 H        6.8310     4.7440    -1.4560 H     1 <1>   0.0800 
 48 H        6.7240     3.1250    -2.1090 H     1 <1>   0.0800 
 49 H        7.7430     3.4420    -0.7230 H     1 <1>   0.0800 
@<TRIPOS>BOND
  1   1   2  2   
  2   2   3  am  
  3   2   4  1   
  4   3   5  1   
  5   3   6  1   
  6   4   7  1   
  7   4  23  1   
  8   4  24  1   
  9   5   8  1   
 10   5  25  1   
 11   5  26  1   
 12   6   9  1   
 13   6  27  1   
 14   6  28  1   
 15   7  10  1   
 16   7  29  1   
 17   7  30  1   
 18   8  11  1   
 19   8  12  1   
 20   8  13  1   
 21   9  12  1   
 22   9  31  1   
 23   9  32  1   
 24  10  14  1   
 25  10  15  1   
 26  11  16  1   
 27  11  17  1   
 28  11  33  1   
 29  12  34  1   
 30  12  35  1   
 31  13  18  1   
 32  13  36  1   
 33  13  37  1   
 34  14  19  2   
 35  15  20  2   
 36  15  38  1   
 37  16  21  1   
 38  17  18  1   
 39  17  39  1   
 40  17  40  1   
 41  18  41  1   
 42  18  42  1   
 43  19  20  1   
 44  19  43  1   
 45  20  22  1   
 46  21  44  1   
 47  21  45  1   
 48  21  46  1   
 49  22  47  1   
 50  22  48  1   
 51  22  49  1   
@<TRIPOS>SUBSTRUCTURE
  1 ****   2 GROUP 4 **** **** 0

# MOE 2024.06 (io_trps.svl 2023.06)
