@<TRIPOS>MOLECULE
NONAME
58 61 1 0 0 
SMALL
USER_CHARGES


@<TRIPOS>ATOM
  1 O        0.5970     2.2470     1.7040 O.2   1 <1>  -0.5700 
  2 C        0.9720     3.1640     0.9940 C.2   1 <1>   0.6900 
  3 N        2.1900     3.7810     1.2640 N.am  1 <1>  -0.4200 
  4 N        0.1910     3.5930    -0.0640 N.am  1 <1>  -0.4230 
  5 C        2.6140     4.8560     0.5080 C.2   1 <1>   0.7150 
  6 C        3.0170     3.2710     2.3980 C.3   1 <1>   0.0600 
  7 C        0.6390     4.6450    -0.8530 C.2   1 <1>   0.2900 
  8 C       -1.1100     2.9580    -0.4080 C.3   1 <1>   0.0600 
  9 O        3.6340     5.4750     0.7790 O.2   1 <1>  -0.5700 
 10 C        1.8110     5.2580    -0.5870 C.2   1 <1>  -0.2370 
 11 N        0.0250     5.1750    -1.9170 N.2   1 <1>  -0.5650 
 12 N        1.9480     6.2180    -1.5380 N.pl3 1 <1>   0.0480 
 13 C        0.8400     6.1070    -2.3020 C.2   1 <1>   0.0360 
 14 C        3.0730     7.1600    -1.6830 C.3   1 <1>   0.0960 
 15 C        3.0380     8.1660    -0.5220 C.3   1 <1>   0.3430 
 16 N        4.3650     8.8160    -0.2670 N.4   1 <1>  -0.9590 
 17 C        5.3230     7.8590     0.3860 C.3   1 <1>   0.4860 
 18 C        4.1870    10.0400     0.5810 C.3   1 <1>   0.3430 
 19 C        6.6870     8.5060     0.4870 C.ar  1 <1>  -0.1440 
 20 C        4.8250    11.2640    -0.0750 C.3   1 <1>  -0.0170 
 21 C        7.4910     8.6120    -0.6390 C.ar  1 <1>   0.1600 
 22 C        7.1530     9.0110     1.6880 C.ar  1 <1>  -0.1500 
 23 C        4.7170    12.4290     0.8870 C.ar  1 <1>  -0.1440 
 24 N        8.6720     9.1980    -0.6670 N.ar  1 <1>  -0.6200 
 25 C        8.3940     9.6100     1.6740 C.ar  1 <1>  -0.1500 
 26 C        5.7590    12.7100     1.7580 C.ar  1 <1>  -0.1500 
 27 C        3.5750    13.2150     0.9150 C.ar  1 <1>  -0.1500 
 28 C        9.1020     9.6810     0.4870 C.ar  1 <1>   0.1600 
 29 C        5.6580    13.7600     2.6520 C.ar  1 <1>  -0.1500 
 30 C        3.4730    14.2660     1.8100 C.ar  1 <1>  -0.1500 
 31 C        4.5140    14.5380     2.6800 C.ar  1 <1>  -0.1500 
 32 H        3.0550     2.1950     2.3640 H     1 <1>   0.0800 
 33 H        2.5700     3.5710     3.3300 H     1 <1>   0.0800 
 34 H        4.0230     3.6480     2.3490 H     1 <1>   0.0800 
 35 H       -1.3460     2.1610     0.2740 H     1 <1>   0.0800 
 36 H       -1.0610     2.5610    -1.4060 H     1 <1>   0.0800 
 37 H       -1.8910     3.6970    -0.3640 H     1 <1>   0.0800 
 38 H        0.6560     6.7370    -3.1560 H     1 <1>   0.1500 
 39 H        2.9870     7.6700    -2.6250 H     1 <1>   0.0800 
 40 H        3.9800     6.5850    -1.6730 H     1 <1>   0.0800 
 41 H        2.7220     7.6590     0.3760 H     1 <1>   0.0800 
 42 H        2.3020     8.9210    -0.7510 H     1 <1>   0.0800 
 43 H        4.7870     9.1230    -1.1530 H     1 <1>   0.4500 
 44 H        5.4050     6.9520    -0.1920 H     1 <1>   0.0800 
 45 H        4.9700     7.5900     1.3690 H     1 <1>   0.0800 
 46 H        4.6350     9.8910     1.5510 H     1 <1>   0.0800 
 47 H        3.1390    10.2420     0.7360 H     1 <1>   0.0800 
 48 H        4.3170    11.5080    -0.9900 H     1 <1>   0.0800 
 49 H        5.8640    11.0850    -0.2920 H     1 <1>   0.0800 
 50 H        7.1540     8.2000    -1.5750 H     1 <1>   0.1500 
 51 H        6.5890     8.9470     2.6040 H     1 <1>   0.1500 
 52 H        8.8170    10.0210     2.5750 H     1 <1>   0.1500 
 53 H        6.6600    12.1210     1.7460 H     1 <1>   0.1500 
 54 H        2.7560    13.0270     0.2430 H     1 <1>   0.1500 
 55 H       10.0700    10.1540     0.4870 H     1 <1>   0.1500 
 56 H        6.4680    13.9780     3.3260 H     1 <1>   0.1500 
 57 H        2.5870    14.8770     1.8300 H     1 <1>   0.1500 
 58 H        4.4350    15.3560     3.3760 H     1 <1>   0.1500 
@<TRIPOS>BOND
  1   1   2  2   
  2   2   3  am  
  3   2   4  am  
  4   3   5  am  
  5   3   6  1   
  6   4   7  1   
  7   4   8  1   
  8   5   9  2   
  9   5  10  1   
 10   6  32  1   
 11   6  33  1   
 12   6  34  1   
 13   7  10  2   
 14   7  11  1   
 15   8  35  1   
 16   8  36  1   
 17   8  37  1   
 18  10  12  1   
 19  11  13  2   
 20  12  13  1   
 21  12  14  1   
 22  13  38  1   
 23  14  15  1   
 24  14  39  1   
 25  14  40  1   
 26  15  16  1   
 27  15  41  1   
 28  15  42  1   
 29  16  17  1   
 30  16  18  1   
 31  16  43  1   
 32  17  19  1   
 33  17  44  1   
 34  17  45  1   
 35  18  20  1   
 36  18  46  1   
 37  18  47  1   
 38  19  21  ar  
 39  19  22  ar  
 40  20  23  1   
 41  20  48  1   
 42  20  49  1   
 43  21  24  ar  
 44  21  50  1   
 45  22  25  ar  
 46  22  51  1   
 47  23  26  ar  
 48  23  27  ar  
 49  24  28  ar  
 50  25  28  ar  
 51  25  52  1   
 52  26  29  ar  
 53  26  53  1   
 54  27  30  ar  
 55  27  54  1   
 56  28  55  1   
 57  29  31  ar  
 58  29  56  1   
 59  30  31  ar  
 60  30  57  1   
 61  31  58  1   
@<TRIPOS>SUBSTRUCTURE
  1 ****  15 GROUP 4 **** **** 0

# MOE 2024.06 (io_trps.svl 2023.06)
