@<TRIPOS>MOLECULE
NONAME
50 53 1 0 0 
SMALL
USER_CHARGES


@<TRIPOS>ATOM
  1 O        0.6120     2.1130    -1.5110 O.2   1 <1>  -0.5700 
  2 C        0.0960     3.1890    -1.3170 C.2   1 <1>   0.5690 
  3 N       -0.6270     3.4930    -0.1930 N.am  1 <1>  -0.5090 
  4 C        0.2650     4.2690    -2.3770 C.3   1 <1>   0.1810 
  5 C       -1.2340     4.8530    -0.0120 C.3   1 <1>   0.3640 
  6 C       -0.6120     2.6170     1.0060 C.3   1 <1>   0.0490 
  7 O        0.3920     5.5340    -1.7830 O.3   1 <1>  -0.5600 
  8 C       -2.7570     4.7640    -0.1170 C.ar  1 <1>  -0.1440 
  9 C       -0.7280     5.9380    -1.0090 C.3   1 <1>   0.2610 
 10 C       -1.0750     1.2000     0.8690 C.3   1 <1>  -0.2000 
 11 C       -1.8900     2.1750     1.6540 C.3   1 <1>  -0.2000 
 12 C       -3.3750     3.9510    -1.0600 C.ar  1 <1>   0.1600 
 13 C       -3.5550     5.5110     0.7280 C.ar  1 <1>  -0.1500 
 14 C       -0.4110     7.2330    -0.2490 C.2   1 <1>   0.5690 
 15 N       -4.6820     3.8390    -1.2280 N.ar  1 <1>  -0.6200 
 16 C       -4.9200     5.4010     0.5710 C.ar  1 <1>  -0.1500 
 17 O       -1.2270     7.6870     0.5180 O.2   1 <1>  -0.5700 
 18 N        0.7810     7.8500    -0.4450 N.am  1 <1>  -0.7300 
 19 C       -5.4240     4.5640    -0.4080 C.ar  1 <1>   0.1600 
 20 C        1.2260     9.0830     0.2190 C.3   1 <1>   0.3210 
 21 C        2.7360     9.0540     0.3060 C.2   1 <1>  -0.1810 
 22 C        3.4910     8.1990     1.0990 C.2   1 <1>   0.1390 
 23 C        3.6480     9.8160    -0.3360 C.2   1 <1>  -0.3020 
 24 N        4.7650     8.4050     0.9680 N.2   1 <1>  -0.7070 
 25 N        4.8650     9.4090     0.0790 N.pl3 1 <1>   0.3140 
 26 C        6.1720     9.9500    -0.3460 C.3   1 <1>   0.0960 
 27 C        6.4950    11.2600     0.3820 C.3   1 <1>  -0.2400 
 28 H       -0.5780     4.2750    -3.0450 H     1 <1>   0.0800 
 29 H        1.1600     4.0790    -2.9420 H     1 <1>   0.0800 
 30 H       -0.9900     5.1750     0.9860 H     1 <1>   0.0800 
 31 H        0.2450     2.8000     1.6330 H     1 <1>   0.1000 
 32 H       -1.5150     6.1700    -1.7040 H     1 <1>   0.0800 
 33 H       -1.4370     0.8680    -0.0890 H     1 <1>   0.1000 
 34 H       -0.5400     0.4310     1.3960 H     1 <1>   0.1000 
 35 H       -1.9170     2.0580     2.7230 H     1 <1>   0.1000 
 36 H       -2.8490     2.4410     1.2500 H     1 <1>   0.1000 
 37 H       -2.7680     3.3520    -1.7160 H     1 <1>   0.1500 
 38 H       -3.1400     6.1630     1.4800 H     1 <1>   0.1500 
 39 H       -5.5890     5.9600     1.2000 H     1 <1>   0.1500 
 40 H        1.4580     7.4230    -1.0850 H     1 <1>   0.3700 
 41 H       -6.4920     4.4880    -0.5230 H     1 <1>   0.1500 
 42 H        0.9070     9.9340    -0.3580 H     1 <1>   0.0800 
 43 H        0.7970     9.1520     1.2050 H     1 <1>   0.0800 
 44 H        3.0770     7.4470     1.7510 H     1 <1>   0.1500 
 45 H        3.5080    10.6080    -1.0480 H     1 <1>   0.1500 
 46 H        6.9250     9.2140    -0.1280 H     1 <1>   0.0800 
 47 H        6.1460    10.1080    -1.4080 H     1 <1>   0.0800 
 48 H        6.5200    11.0920     1.4450 H     1 <1>   0.0800 
 49 H        5.7550    12.0070     0.1580 H     1 <1>   0.0800 
 50 H        7.4570    11.6240     0.0710 H     1 <1>   0.0800 
@<TRIPOS>BOND
  1   1   2  2   
  2   2   3  am  
  3   2   4  1   
  4   3   5  1   
  5   3   6  1   
  6   4   7  1   
  7   4  28  1   
  8   4  29  1   
  9   5   8  1   
 10   5   9  1   
 11   5  30  1   
 12   6  10  1   
 13   6  11  1   
 14   6  31  1   
 15   7   9  1   
 16   8  12  ar  
 17   8  13  ar  
 18   9  14  1   
 19   9  32  1   
 20  10  11  1   
 21  10  33  1   
 22  10  34  1   
 23  11  35  1   
 24  11  36  1   
 25  12  15  ar  
 26  12  37  1   
 27  13  16  ar  
 28  13  38  1   
 29  14  17  2   
 30  14  18  am  
 31  15  19  ar  
 32  16  19  ar  
 33  16  39  1   
 34  18  20  1   
 35  18  40  1   
 36  19  41  1   
 37  20  21  1   
 38  20  42  1   
 39  20  43  1   
 40  21  22  1   
 41  21  23  2   
 42  22  24  2   
 43  22  44  1   
 44  23  25  1   
 45  23  45  1   
 46  24  25  1   
 47  25  26  1   
 48  26  27  1   
 49  26  46  1   
 50  26  47  1   
 51  27  48  1   
 52  27  49  1   
 53  27  50  1   
@<TRIPOS>SUBSTRUCTURE
  1 ****   9 GROUP 4 **** **** 0

# MOE 2024.06 (io_trps.svl 2023.06)
