@<TRIPOS>MOLECULE
NONAME
30 30 1 0 0 
SMALL
USER_CHARGES


@<TRIPOS>ATOM
  1 S       -5.4800    -3.7850     0.0700 S.o2  1 <1>   1.2040 
  2 O       -6.2680    -4.2360     1.1950 O.2   1 <1>  -0.6500 
  3 O       -5.7600    -4.2830    -1.2580 O.2   1 <1>  -0.6500 
  4 C       -5.4280    -1.9760     0.0490 C.ar  1 <1>  -0.0090 
  5 C       -3.7830    -4.1930     0.4290 C.3   1 <1>  -0.1350 
  6 C       -5.6260    -1.2390     1.2090 C.ar  1 <1>  -0.1500 
  7 C       -5.1620    -1.2780    -1.1220 C.ar  1 <1>  -0.1500 
  8 C       -5.5580     0.1430     1.2030 C.ar  1 <1>  -0.1500 
  9 C       -5.0920     0.1040    -1.1350 C.ar  1 <1>  -0.1500 
 10 C       -5.2860     0.8300     0.0290 C.ar  1 <1>  -0.1430 
 11 C       -5.2090     2.3560    -0.0010 C.3   1 <1>   0.3430 
 12 O       -4.4230     2.7560     1.0700 O.3   1 <1>  -0.6800 
 13 C       -6.6010     3.0350     0.0580 C.3   1 <1>   0.1900 
 14 N       -7.3320     2.8710    -1.2160 N.3   1 <1>  -0.9900 
 15 C       -6.4890     4.5250     0.4370 C.3   1 <1>   0.1800 
 16 F       -7.6770     5.1070     0.2800 F     1 <1>  -0.3400 
 17 H       -3.6650    -5.2580     0.4730 H     1 <1>   0.0800 
 18 H       -3.4900    -3.7780     1.3740 H     1 <1>   0.0800 
 19 H       -3.1360    -3.8090    -0.3350 H     1 <1>   0.0800 
 20 H       -5.8460    -1.7520     2.1310 H     1 <1>   0.1500 
 21 H       -5.0160    -1.8220    -2.0410 H     1 <1>   0.1500 
 22 H       -5.7250     0.6840     2.1200 H     1 <1>   0.1500 
 23 H       -4.8970     0.6130    -2.0640 H     1 <1>   0.1500 
 24 H       -4.7000     2.6800    -0.8930 H     1 <1>   0.0800 
 25 H       -3.6690     2.1390     1.1430 H     1 <1>   0.4000 
 26 H       -7.1630     2.5390     0.8300 H     1 <1>   0.0800 
 27 H       -6.9070     3.4700    -1.9310 H     1 <1>   0.3600 
 28 H       -8.2750     3.2540    -1.0680 H     1 <1>   0.3600 
 29 H       -5.8000     5.0500    -0.1980 H     1 <1>   0.0800 
 30 H       -6.2110     4.6550     1.4680 H     1 <1>   0.0800 
@<TRIPOS>BOND
  1   1   2  2   
  2   1   3  2   
  3   1   4  1   
  4   1   5  1   
  5   4   6  ar  
  6   4   7  ar  
  7   5  17  1   
  8   5  18  1   
  9   5  19  1   
 10   6   8  ar  
 11   6  20  1   
 12   7   9  ar  
 13   7  21  1   
 14   8  10  ar  
 15   8  22  1   
 16   9  10  ar  
 17   9  23  1   
 18  10  11  1   
 19  11  12  1   
 20  11  13  1   
 21  11  24  1   
 22  12  25  1   
 23  13  14  1   
 24  13  15  1   
 25  13  26  1   
 26  14  27  1   
 27  14  28  1   
 28  15  16  1   
 29  15  29  1   
 30  15  30  1   
@<TRIPOS>SUBSTRUCTURE
  1 ****  10 GROUP 4 **** **** 0

# MOE 2024.06 (io_trps.svl 2023.06)
