@<TRIPOS>MOLECULE
NONAME
48 50 1 0 0 
SMALL
USER_CHARGES


@<TRIPOS>ATOM
  1 O        0.5430     0.7330     1.4670 O.3   1 <1>  -0.0190 
  2 N        1.1860    -0.3460     1.1280 N.2   1 <1>  -0.4100 
  3 C        0.6430     1.6680     0.5600 C.2   1 <1>  -0.0400 
  4 C        1.7060    -0.1050    -0.0210 C.2   1 <1>   0.1080 
  5 C        1.3910     1.1830    -0.4450 C.2   1 <1>  -0.1500 
  6 C       -0.0500     2.9990     0.8000 C.3   1 <1>   0.0200 
  7 C        2.5420    -1.0970    -0.7990 C.3   1 <1>  -0.0590 
  8 C        0.5230     4.1300    -0.0740 C.3   1 <1>  -0.0800 
  9 C       -0.2000     5.4740     0.0480 C.3   1 <1>   0.2000 
 10 C        1.9880     4.4600     0.2350 C.3   1 <1>   0.2090 
 11 O       -0.4260     5.7580     1.3870 O.3   1 <1>  -0.6800 
 12 C        0.8260     6.4720    -0.4870 C.3   1 <1>   0.2090 
 13 N        2.1510     5.9080    -0.0810 N.pl3 1 <1>  -0.8380 
 14 C        3.2940     6.6220    -0.0350 C.ar  1 <1>   0.4100 
 15 N        3.2280     7.9090    -0.4000 N.ar  1 <1>  -0.6200 
 16 C        4.5150     6.0680     0.3720 C.ar  1 <1>  -0.1500 
 17 C        4.3140     8.6220    -0.3690 C.ar  1 <1>   0.5280 
 18 C        5.6360     6.8430     0.3920 C.ar  1 <1>   0.2180 
 19 N        5.5110     8.1310     0.0130 N.ar  1 <1>  -0.1790 
 20 C        4.2330    10.0840    -0.7860 C.3   1 <1>  -0.0170 
 21 C        6.9980     6.3230     0.8200 C.3   1 <1>  -0.0970 
 22 C        4.4290    11.0460     0.3990 C.3   1 <1>  -0.1600 
 23 C        4.3350    12.5070    -0.0520 C.3   1 <1>  -0.2400 
 24 H        1.6940     1.6330    -1.3710 H     1 <1>   0.1500 
 25 H       -1.1010     2.8810     0.6020 H     1 <1>   0.0800 
 26 H        0.0550     3.2530     1.8400 H     1 <1>   0.0800 
 27 H        3.4880    -0.6590    -1.0570 H     1 <1>   0.0800 
 28 H        2.0250    -1.3830    -1.6970 H     1 <1>   0.0800 
 29 H        2.7150    -1.9760    -0.2050 H     1 <1>   0.0800 
 30 H        0.4640     3.8290    -1.1050 H     1 <1>   0.0800 
 31 H       -1.1400     5.5080    -0.4760 H     1 <1>   0.0800 
 32 H        2.6530     3.8580    -0.3610 H     1 <1>   0.0800 
 33 H        2.1960     4.3000     1.2800 H     1 <1>   0.0800 
 34 H        0.4290     5.9830     1.8060 H     1 <1>   0.4000 
 35 H        0.6630     7.4590    -0.0860 H     1 <1>   0.0800 
 36 H        0.7770     6.5110    -1.5610 H     1 <1>   0.0800 
 37 H        4.5490     5.0360     0.6640 H     1 <1>   0.1500 
 38 H        6.3180     8.7550     0.0120 H     1 <1>   0.4570 
 39 H        4.9680    10.2800    -1.5470 H     1 <1>   0.0800 
 40 H        3.2660    10.2650    -1.2250 H     1 <1>   0.0800 
 41 H        6.9360     5.2840     1.0950 H     1 <1>   0.0800 
 42 H        7.3610     6.8720     1.6710 H     1 <1>   0.0800 
 43 H        7.7060     6.4140     0.0150 H     1 <1>   0.0800 
 44 H        3.6650    10.8610     1.1380 H     1 <1>   0.0800 
 45 H        5.3860    10.8890     0.8640 H     1 <1>   0.0800 
 46 H        3.3720    12.7090    -0.4890 H     1 <1>   0.0800 
 47 H        5.0970    12.7380    -0.7760 H     1 <1>   0.0800 
 48 H        4.4620    13.1620     0.7930 H     1 <1>   0.0800 
@<TRIPOS>BOND
  1   1   2  1   
  2   1   3  1   
  3   2   4  2   
  4   3   5  2   
  5   3   6  1   
  6   4   5  1   
  7   4   7  1   
  8   5  24  1   
  9   6   8  1   
 10   6  25  1   
 11   6  26  1   
 12   7  27  1   
 13   7  28  1   
 14   7  29  1   
 15   8   9  1   
 16   8  10  1   
 17   8  30  1   
 18   9  11  1   
 19   9  12  1   
 20   9  31  1   
 21  10  13  1   
 22  10  32  1   
 23  10  33  1   
 24  11  34  1   
 25  12  13  1   
 26  12  35  1   
 27  12  36  1   
 28  13  14  1   
 29  14  15  ar  
 30  14  16  ar  
 31  15  17  ar  
 32  16  18  ar  
 33  16  37  1   
 34  17  19  ar  
 35  17  20  1   
 36  18  19  ar  
 37  18  21  1   
 38  19  38  1   
 39  20  22  1   
 40  20  39  1   
 41  20  40  1   
 42  21  41  1   
 43  21  42  1   
 44  21  43  1   
 45  22  23  1   
 46  22  44  1   
 47  22  45  1   
 48  23  46  1   
 49  23  47  1   
 50  23  48  1   
@<TRIPOS>SUBSTRUCTURE
  1 ****  13 GROUP 4 **** **** 0

# MOE 2024.06 (io_trps.svl 2023.06)
