@<TRIPOS>MOLECULE
NONAME
39 40 1 0 0 
SMALL
USER_CHARGES


@<TRIPOS>ATOM
  1 F       -0.4710    -0.2240    -0.2890 F     1 <1>  -0.1900 
  2 C       -1.5830    -0.9260    -0.2670 C.ar  1 <1>   0.1900 
  3 C       -2.8100    -0.4110     0.1410 C.ar  1 <1>   0.3920 
  4 C       -1.5250    -2.2370    -0.6640 C.ar  1 <1>   0.1600 
  5 O       -3.0360     0.8550     0.5640 O.3   1 <1>  -0.3630 
  6 N       -3.8850    -1.1690     0.1410 N.ar  1 <1>  -0.6200 
  7 N       -2.5950    -3.0040    -0.6670 N.ar  1 <1>  -0.6200 
  8 C       -2.0630     1.8760     0.6000 C.3   1 <1>   0.0400 
  9 C       -3.7190    -2.4160    -0.2680 C.ar  1 <1>   0.7200 
 10 N       -4.8530    -3.1500    -0.2560 N.pl3 1 <1>  -0.8690 
 11 C       -4.8670    -4.6210    -0.1730 C.3   1 <1>   0.2090 
 12 C       -6.3170    -5.0990    -0.1820 C.3   1 <1>  -0.1600 
 13 C       -6.3950    -6.6320    -0.1070 C.3   1 <1>  -0.0170 
 14 C       -7.8060    -7.2260    -0.0620 C.ar  1 <1>  -0.1430 
 15 C       -7.9440    -8.6020     0.1230 C.ar  1 <1>   0.0830 
 16 C       -8.9510    -6.4490    -0.2010 C.ar  1 <1>  -0.1500 
 17 O       -6.8080    -9.3410     0.2500 O.3   1 <1>  -0.3630 
 18 C       -9.2140    -9.1750     0.1700 C.ar  1 <1>  -0.1500 
 19 C      -10.2090    -7.0250    -0.1540 C.ar  1 <1>  -0.1500 
 20 C       -6.8430   -10.7400     0.4210 C.3   1 <1>   0.0400 
 21 C      -10.3410    -8.3870     0.0320 C.ar  1 <1>  -0.1500 
 22 H       -0.5890    -2.6600    -0.9820 H     1 <1>   0.1500 
 23 H       -2.5390     2.7760     0.9470 H     1 <1>   0.0800 
 24 H       -1.6770     2.0290    -0.3920 H     1 <1>   0.0800 
 25 H       -1.2810     1.5920     1.2810 H     1 <1>   0.0800 
 26 H       -5.6090    -2.6640     0.2230 H     1 <1>   0.4000 
 27 H       -4.3740    -4.9330     0.7330 H     1 <1>   0.0800 
 28 H       -4.3350    -5.0320    -1.0150 H     1 <1>   0.0800 
 29 H       -6.7840    -4.7640    -1.0920 H     1 <1>   0.0800 
 30 H       -6.8320    -4.6780     0.6620 H     1 <1>   0.0800 
 31 H       -5.8700    -6.9560     0.7750 H     1 <1>   0.0800 
 32 H       -5.8840    -7.0500    -0.9570 H     1 <1>   0.0800 
 33 H       -8.8910    -5.3870    -0.3500 H     1 <1>   0.1500 
 34 H       -9.3460   -10.2290     0.3130 H     1 <1>   0.1500 
 35 H      -11.0850    -6.4100    -0.2630 H     1 <1>   0.1500 
 36 H       -5.8300   -11.0940     0.4880 H     1 <1>   0.0800 
 37 H       -7.3290   -11.1840    -0.4300 H     1 <1>   0.0800 
 38 H       -7.3700   -10.9670     1.3310 H     1 <1>   0.0800 
 39 H      -11.3190    -8.8330     0.0690 H     1 <1>   0.1500 
@<TRIPOS>BOND
  1   1   2  1   
  2   2   3  ar  
  3   2   4  ar  
  4   3   5  1   
  5   3   6  ar  
  6   4   7  ar  
  7   4  22  1   
  8   5   8  1   
  9   6   9  ar  
 10   7   9  ar  
 11   8  23  1   
 12   8  24  1   
 13   8  25  1   
 14   9  10  1   
 15  10  11  1   
 16  10  26  1   
 17  11  12  1   
 18  11  27  1   
 19  11  28  1   
 20  12  13  1   
 21  12  29  1   
 22  12  30  1   
 23  13  14  1   
 24  13  31  1   
 25  13  32  1   
 26  14  15  ar  
 27  14  16  ar  
 28  15  17  1   
 29  15  18  ar  
 30  16  19  ar  
 31  16  33  1   
 32  17  20  1   
 33  18  21  ar  
 34  18  34  1   
 35  19  21  ar  
 36  19  35  1   
 37  20  36  1   
 38  20  37  1   
 39  20  38  1   
 40  21  39  1   
@<TRIPOS>SUBSTRUCTURE
  1 ****  11 GROUP 4 **** **** 0

# MOE 2024.06 (io_trps.svl 2023.06)
