@<TRIPOS>MOLECULE
NONAME
49 51 1 0 0 
SMALL
USER_CHARGES


@<TRIPOS>ATOM
  1 F        2.3750     0.1450    -1.4330 F     1 <1>  -0.1900 
  2 C        2.4080    -0.4070    -0.2460 C.ar  1 <1>   0.1900 
  3 C        1.3610    -1.2580     0.0980 C.ar  1 <1>   0.0820 
  4 C        3.4910    -0.1190     0.5910 C.ar  1 <1>   0.0860 
  5 O        0.3630    -1.4300    -0.8240 O.3   1 <1>  -0.3630 
  6 C        1.4350    -1.8550     1.3600 C.ar  1 <1>   0.1900 
  7 C        4.5640     0.7870     0.2230 C.2   1 <1>   0.5440 
  8 C        3.5080    -0.7590     1.8340 C.ar  1 <1>  -0.1500 
  9 C       -0.6860    -2.3610    -0.6710 C.3   1 <1>   0.0400 
 10 F        0.5090    -2.6660     1.7970 F     1 <1>  -0.1900 
 11 C        2.4930    -1.6170     2.2190 C.ar  1 <1>  -0.1500 
 12 O        5.6960     0.6170     0.6400 O.2   1 <1>  -0.5700 
 13 N        4.3680     1.9270    -0.5160 N.am  1 <1>  -0.6600 
 14 C        5.3380     2.3300    -1.5850 C.3   1 <1>   0.1400 
 15 C        3.4390     2.9840    -0.0540 C.3   1 <1>   0.1400 
 16 C        6.6120     2.9980    -1.0250 C.3   1 <1>   0.3430 
 17 C        4.1050     3.8080     1.0570 C.3   1 <1>  -0.1600 
 18 N        6.4720     3.3600     0.4210 N.4   1 <1>  -0.9590 
 19 C        5.4620     4.4220     0.6910 C.3   1 <1>   0.3430 
 20 C        7.7920     3.6120     1.0670 C.3   1 <1>   0.5230 
 21 C        8.4970     4.8570     0.5450 C.2   1 <1>  -0.0400 
 22 O        9.6850     5.1050     1.0590 O.3   1 <1>  -0.2800 
 23 C        8.1790     5.8130    -0.3610 C.2   1 <1>  -0.1500 
 24 C       10.1520     6.2040     0.5070 C.2   1 <1>  -0.0400 
 25 C        9.2660     6.6950    -0.3840 C.2   1 <1>  -0.1500 
 26 C       11.5140     6.7100     0.9290 C.3   1 <1>  -0.0600 
 27 H        4.3320    -0.5840     2.5060 H     1 <1>   0.1500 
 28 H       -1.2810    -2.3420    -1.5670 H     1 <1>   0.0800 
 29 H       -1.2910    -2.0750     0.1710 H     1 <1>   0.0800 
 30 H       -0.2690    -3.3430    -0.5330 H     1 <1>   0.0800 
 31 H        2.5160    -2.1030     3.1790 H     1 <1>   0.1500 
 32 H        4.8550     2.9990    -2.2750 H     1 <1>   0.0800 
 33 H        5.6250     1.4560    -2.1450 H     1 <1>   0.0800 
 34 H        2.5350     2.5330     0.3210 H     1 <1>   0.0800 
 35 H        3.1660     3.6170    -0.8820 H     1 <1>   0.0800 
 36 H        6.8610     3.8640    -1.6140 H     1 <1>   0.0800 
 37 H        7.4220     2.2940    -1.1300 H     1 <1>   0.0800 
 38 H        4.2110     3.2030     1.9400 H     1 <1>   0.0800 
 39 H        3.4370     4.6110     1.3140 H     1 <1>   0.0800 
 40 H        6.1000     2.4760     0.8280 H     1 <1>   0.4500 
 41 H        5.7960     5.0320     1.5160 H     1 <1>   0.0800 
 42 H        5.3580     5.0610    -0.1700 H     1 <1>   0.0800 
 43 H        8.4370     2.7640     0.9070 H     1 <1>   0.0800 
 44 H        7.6580     3.7190     2.1310 H     1 <1>   0.0800 
 45 H        7.3030     5.9390    -0.9690 H     1 <1>   0.1500 
 46 H        9.3510     7.5760    -0.9960 H     1 <1>   0.1500 
 47 H       12.2600     5.9650     0.7190 H     1 <1>   0.0800 
 48 H       11.5150     6.9160     1.9840 H     1 <1>   0.0800 
 49 H       11.7590     7.6110     0.3970 H     1 <1>   0.0800 
@<TRIPOS>BOND
  1   1   2  1   
  2   2   3  ar  
  3   2   4  ar  
  4   3   5  1   
  5   3   6  ar  
  6   4   7  1   
  7   4   8  ar  
  8   5   9  1   
  9   6  10  1   
 10   6  11  ar  
 11   7  12  2   
 12   7  13  am  
 13   8  11  ar  
 14   8  27  1   
 15   9  28  1   
 16   9  29  1   
 17   9  30  1   
 18  11  31  1   
 19  13  14  1   
 20  13  15  1   
 21  14  16  1   
 22  14  32  1   
 23  14  33  1   
 24  15  17  1   
 25  15  34  1   
 26  15  35  1   
 27  16  18  1   
 28  16  36  1   
 29  16  37  1   
 30  17  19  1   
 31  17  38  1   
 32  17  39  1   
 33  18  19  1   
 34  18  20  1   
 35  18  40  1   
 36  19  41  1   
 37  19  42  1   
 38  20  21  1   
 39  20  43  1   
 40  20  44  1   
 41  21  22  1   
 42  21  23  2   
 43  22  24  1   
 44  23  25  1   
 45  23  45  1   
 46  24  25  2   
 47  24  26  1   
 48  25  46  1   
 49  26  47  1   
 50  26  48  1   
 51  26  49  1   
@<TRIPOS>SUBSTRUCTURE
  1 ****  13 GROUP 4 **** **** 0

# MOE 2024.06 (io_trps.svl 2023.06)
