@<TRIPOS>MOLECULE
NONAME
47 49 1 0 0 
SMALL
USER_CHARGES


@<TRIPOS>ATOM
  1 S        0.2660    -0.3480     0.0240 S.3   1 <1>  -0.4600 
  2 C       -1.3990    -0.8040     0.5810 C.3   1 <1>   0.2140 
  3 C        0.3780     1.4080     0.4520 C.3   1 <1>   0.0700 
  4 C       -1.6330    -2.2680     0.2520 C.ar  1 <1>  -0.1440 
  5 C        1.7640     1.9000     0.0320 C.3   1 <1>  -0.0990 
  6 C       -1.1610    -3.2580     1.1000 C.ar  1 <1>  -0.1500 
  7 C       -2.3230    -2.6280    -0.8960 C.ar  1 <1>  -0.1500 
  8 C        1.9820     3.3700     0.3430 C.2   1 <1>   0.5690 
  9 C       -1.3830    -4.5930     0.8090 C.ar  1 <1>  -0.1500 
 10 C       -2.5450    -3.9630    -1.1890 C.ar  1 <1>  -0.1500 
 11 O        1.0880     4.0110     0.8420 O.2   1 <1>  -0.5700 
 12 N        3.1850     3.9450     0.0510 N.am  1 <1>  -0.6600 
 13 C       -2.0770    -4.9460    -0.3350 C.ar  1 <1>  -0.1500 
 14 C        3.4940     5.3710     0.3440 C.3   1 <1>   0.1400 
 15 C        4.3620     3.2920    -0.5700 C.3   1 <1>   0.1400 
 16 C        4.6940     5.7080    -0.5500 C.3   1 <1>   0.4240 
 17 C        5.4420     4.3770    -0.6050 C.3   1 <1>  -0.1600 
 18 O        4.2100     5.9450    -1.8240 O.3   1 <1>  -0.6800 
 19 C        5.5760     6.8940    -0.1310 C.ar  1 <1>  -0.1440 
 20 C        5.2680     7.7130     0.9510 C.ar  1 <1>  -0.1500 
 21 C        6.7290     7.1680    -0.8580 C.ar  1 <1>  -0.1500 
 22 C        6.1000     8.7620     1.3040 C.ar  1 <1>  -0.1500 
 23 C        7.5620     8.2160    -0.5070 C.ar  1 <1>  -0.1500 
 24 C        7.2500     9.0140     0.5780 C.ar  1 <1>  -0.1500 
 25 H       -2.0970    -0.1660     0.0690 H     1 <1>   0.0800 
 26 H       -1.4460    -0.6270     1.6400 H     1 <1>   0.0800 
 27 H        0.2320     1.4990     1.5140 H     1 <1>   0.0800 
 28 H       -0.4030     1.9270    -0.0770 H     1 <1>   0.0800 
 29 H        1.8820     1.7510    -1.0250 H     1 <1>   0.0800 
 30 H        2.5080     1.3250     0.5500 H     1 <1>   0.0800 
 31 H       -0.6150    -2.9910     1.9870 H     1 <1>   0.1500 
 32 H       -2.6860    -1.8710    -1.5690 H     1 <1>   0.1500 
 33 H       -1.0130    -5.3560     1.4710 H     1 <1>   0.1500 
 34 H       -3.0810    -4.2360    -2.0810 H     1 <1>   0.1500 
 35 H       -2.2480    -5.9840    -0.5630 H     1 <1>   0.1500 
 36 H        3.7690     5.4450     1.3800 H     1 <1>   0.0800 
 37 H        2.6540     6.0150     0.1470 H     1 <1>   0.0800 
 38 H        4.1120     2.9800    -1.5700 H     1 <1>   0.0800 
 39 H        4.6830     2.4420     0.0080 H     1 <1>   0.0800 
 40 H        6.0750     4.2950    -1.4690 H     1 <1>   0.0800 
 41 H        6.0540     4.2830     0.2750 H     1 <1>   0.0800 
 42 H        3.4720     5.3260    -1.9810 H     1 <1>   0.4000 
 43 H        4.3810     7.5600     1.5360 H     1 <1>   0.1500 
 44 H        6.9790     6.5660    -1.7130 H     1 <1>   0.1500 
 45 H        5.8510     9.3860     2.1440 H     1 <1>   0.1500 
 46 H        8.4500     8.4120    -1.0810 H     1 <1>   0.1500 
 47 H        7.8960     9.8290     0.8520 H     1 <1>   0.1500 
@<TRIPOS>BOND
  1   1   2  1   
  2   1   3  1   
  3   2   4  1   
  4   2  25  1   
  5   2  26  1   
  6   3   5  1   
  7   3  27  1   
  8   3  28  1   
  9   4   6  ar  
 10   4   7  ar  
 11   5   8  1   
 12   5  29  1   
 13   5  30  1   
 14   6   9  ar  
 15   6  31  1   
 16   7  10  ar  
 17   7  32  1   
 18   8  11  2   
 19   8  12  am  
 20   9  13  ar  
 21   9  33  1   
 22  10  13  ar  
 23  10  34  1   
 24  12  14  1   
 25  12  15  1   
 26  13  35  1   
 27  14  16  1   
 28  14  36  1   
 29  14  37  1   
 30  15  17  1   
 31  15  38  1   
 32  15  39  1   
 33  16  17  1   
 34  16  18  1   
 35  16  19  1   
 36  17  40  1   
 37  17  41  1   
 38  18  42  1   
 39  19  20  ar  
 40  19  21  ar  
 41  20  22  ar  
 42  20  43  1   
 43  21  23  ar  
 44  21  44  1   
 45  22  24  ar  
 46  22  45  1   
 47  23  24  ar  
 48  23  46  1   
 49  24  47  1   
@<TRIPOS>SUBSTRUCTURE
  1 ****   8 GROUP 4 **** **** 0

# MOE 2024.06 (io_trps.svl 2023.06)
