@<TRIPOS>MOLECULE
NONAME
52 54 1 0 0 
SMALL
USER_CHARGES


@<TRIPOS>ATOM
  1 O        2.3310     0.2010    -1.9660 O.2   1 <1>  -0.5700 
  2 C        1.7090    -0.4980    -1.1980 C.2   1 <1>   0.5690 
  3 N        1.1890    -0.0720    -0.0170 N.am  1 <1>  -0.4930 
  4 C        1.4700    -1.9690    -1.5440 C.3   1 <1>   0.1710 
  5 C        1.1910     1.2050     0.5930 C.2   1 <1>   0.0630 
  6 N        0.3020    -2.5590    -0.8250 N.3   1 <1>  -0.8100 
  7 C        0.5640     1.5630     1.7880 C.2   1 <1>   0.1080 
  8 C        1.7800     2.3400     0.1700 C.2   1 <1>  -0.3020 
  9 C        0.2890    -4.0340    -0.8590 C.3   1 <1>   0.1100 
 10 C       -0.9850    -2.1100    -1.3610 C.3   1 <1>   0.1100 
 11 N        0.7450     2.8120     2.0850 N.2   1 <1>  -0.7070 
 12 C       -0.2410     0.6280     2.6630 C.3   1 <1>  -0.0590 
 13 N        1.5000     3.2940     1.0810 N.pl3 1 <1>   0.3140 
 14 C       -1.1610    -4.4670    -1.1040 C.3   1 <1>   0.0630 
 15 C       -1.9560    -3.1780    -0.8960 C.3   1 <1>  -0.1600 
 16 C        1.9370     4.6920     1.0380 C.3   1 <1>   0.0160 
 17 C       -1.5560    -5.7080    -0.2890 C.ar  1 <1>  -0.1430 
 18 C       -0.9640    -6.9350    -0.5940 C.ar  1 <1>   0.0830 
 19 C       -2.4850    -5.6560     0.7430 C.ar  1 <1>  -0.1500 
 20 O       -0.0590    -6.9680    -1.6150 O.3   1 <1>  -0.3620 
 21 C       -1.3030    -8.0740     0.1340 C.ar  1 <1>  -0.1500 
 22 C       -2.8240    -6.7860     1.4680 C.ar  1 <1>   0.0830 
 23 C        0.5570    -8.1700    -2.0220 C.3   1 <1>   0.0400 
 24 C       -2.2260    -8.0020     1.1600 C.ar  1 <1>  -0.1500 
 25 O       -3.7400    -6.6230     2.4580 O.3   1 <1>  -0.3620 
 26 C       -4.1570    -7.7110     3.2510 C.3   1 <1>   0.0400 
 27 H        0.6580    -0.8100     0.4560 H     1 <1>   0.3700 
 28 H        2.3600    -2.5060    -1.2700 H     1 <1>   0.0800 
 29 H        1.3390    -2.0640    -2.6070 H     1 <1>   0.0800 
 30 H        2.3690     2.5070    -0.7120 H     1 <1>   0.1500 
 31 H        0.6370    -4.4100     0.0880 H     1 <1>   0.0800 
 32 H        0.9200    -4.4200    -1.6420 H     1 <1>   0.0800 
 33 H       -0.9560    -2.0880    -2.4380 H     1 <1>   0.0800 
 34 H       -1.2500    -1.1350    -0.9860 H     1 <1>   0.0800 
 35 H       -1.0650     0.2240     2.1040 H     1 <1>   0.0800 
 36 H       -0.6260     1.1640     3.5120 H     1 <1>   0.0800 
 37 H        0.3830    -0.1730     3.0110 H     1 <1>   0.0800 
 38 H       -1.2440    -4.7250    -2.1460 H     1 <1>   0.0800 
 39 H       -2.8750    -3.1680    -1.4540 H     1 <1>   0.0800 
 40 H       -2.1570    -2.9960     0.1430 H     1 <1>   0.0800 
 41 H        1.7710     5.0840     0.0530 H     1 <1>   0.0800 
 42 H        2.9810     4.7390     1.2830 H     1 <1>   0.0800 
 43 H        1.3710     5.2580     1.7550 H     1 <1>   0.0800 
 44 H       -2.9770    -4.7450     1.0180 H     1 <1>   0.1500 
 45 H       -0.8610    -9.0270    -0.0810 H     1 <1>   0.1500 
 46 H        1.2080    -7.9480    -2.8480 H     1 <1>   0.0800 
 47 H       -0.2030    -8.8650    -2.3330 H     1 <1>   0.0800 
 48 H        1.1300    -8.5640    -1.2010 H     1 <1>   0.0800 
 49 H       -2.4660    -8.8960     1.7020 H     1 <1>   0.1500 
 50 H       -4.8800    -7.3500     3.9600 H     1 <1>   0.0800 
 51 H       -3.3050    -8.1110     3.7710 H     1 <1>   0.0800 
 52 H       -4.6070    -8.4530     2.6160 H     1 <1>   0.0800 
@<TRIPOS>BOND
  1   1   2  2   
  2   2   3  am  
  3   2   4  1   
  4   3   5  1   
  5   3  27  1   
  6   4   6  1   
  7   4  28  1   
  8   4  29  1   
  9   5   7  1   
 10   5   8  2   
 11   6   9  1   
 12   6  10  1   
 13   7  11  2   
 14   7  12  1   
 15   8  13  1   
 16   8  30  1   
 17   9  14  1   
 18   9  31  1   
 19   9  32  1   
 20  10  15  1   
 21  10  33  1   
 22  10  34  1   
 23  11  13  1   
 24  12  35  1   
 25  12  36  1   
 26  12  37  1   
 27  13  16  1   
 28  14  15  1   
 29  14  17  1   
 30  14  38  1   
 31  15  39  1   
 32  15  40  1   
 33  16  41  1   
 34  16  42  1   
 35  16  43  1   
 36  17  18  ar  
 37  17  19  ar  
 38  18  20  1   
 39  18  21  ar  
 40  19  22  ar  
 41  19  44  1   
 42  20  23  1   
 43  21  24  ar  
 44  21  45  1   
 45  22  24  ar  
 46  22  25  1   
 47  23  46  1   
 48  23  47  1   
 49  23  48  1   
 50  24  49  1   
 51  25  26  1   
 52  26  50  1   
 53  26  51  1   
 54  26  52  1   
@<TRIPOS>SUBSTRUCTURE
  1 ****   6 GROUP 4 **** **** 0

# MOE 2024.06 (io_trps.svl 2023.06)
