@<TRIPOS>MOLECULE
NONAME
53 55 1 0 0 
SMALL
USER_CHARGES


@<TRIPOS>ATOM
  1 O        2.5500     1.3170     1.8840 O.3   1 <1>  -0.6800 
  2 C        2.0920     0.9810     0.6220 C.3   1 <1>   0.2000 
  3 C        3.1180     0.0680    -0.1420 C.3   1 <1>   0.0000 
  4 C        1.8320     2.3160    -0.0910 C.3   1 <1>  -0.1600 
  5 C        3.9240     0.9240    -1.1480 C.3   1 <1>   0.3430 
  6 C        2.3170    -0.9740    -0.9570 C.3   1 <1>   0.1200 
  7 C        4.0850    -0.7360     0.7940 C.3   1 <1>  -0.0170 
  8 C        3.1260     3.1140    -0.3140 C.3   1 <1>   0.3430 
  9 N        4.3020     2.2120    -0.5050 N.4   1 <1>  -0.9590 
 10 O        1.5350    -0.3390    -1.9100 O.3   1 <1>  -0.6800 
 11 C        5.4330    -0.0610     1.0600 C.ar  1 <1>  -0.1440 
 12 C        5.4590     2.8660    -1.1470 C.3   1 <1>   0.4810 
 13 C        5.6080     0.7950     2.1380 C.ar  1 <1>  -0.1500 
 14 C        6.5070    -0.2980     0.2120 C.ar  1 <1>  -0.1500 
 15 C        5.8490     4.0480    -0.2940 C.2   1 <1>  -0.2880 
 16 C        6.8180     1.4350     2.3400 C.ar  1 <1>  -0.1500 
 17 C        7.7180     0.3400     0.4120 C.ar  1 <1>  -0.1500 
 18 C        5.7490     5.3360    -0.6700 C.2   1 <1>  -0.1780 
 19 C        7.8720     1.2140     1.4730 C.ar  1 <1>  -0.1500 
 20 C        6.0890     6.5180     0.0920 C.ar  1 <1>   0.0280 
 21 C        5.9180     7.7800    -0.4730 C.ar  1 <1>  -0.1500 
 22 C        6.5860     6.4580     1.3930 C.ar  1 <1>  -0.1500 
 23 C        6.2260     8.9330     0.2270 C.ar  1 <1>  -0.1500 
 24 C        6.8960     7.6070     2.0990 C.ar  1 <1>  -0.1500 
 25 C        6.7160     8.8480     1.5170 C.ar  1 <1>  -0.1500 
 26 H        1.8120     1.6370     2.4440 H     1 <1>   0.4000 
 27 H        1.1630     0.4520     0.7610 H     1 <1>   0.0800 
 28 H        1.3760     2.1270    -1.0460 H     1 <1>   0.0800 
 29 H        1.1310     2.9110     0.4670 H     1 <1>   0.0800 
 30 H        3.3240     1.1290    -2.0200 H     1 <1>   0.0800 
 31 H        4.7990     0.3840    -1.4640 H     1 <1>   0.0800 
 32 H        1.6680    -1.5460    -0.3140 H     1 <1>   0.0800 
 33 H        2.9750    -1.6510    -1.4770 H     1 <1>   0.0800 
 34 H        3.6030    -0.9640     1.7290 H     1 <1>   0.0800 
 35 H        4.3080    -1.6910     0.3510 H     1 <1>   0.0800 
 36 H        3.3080     3.7420     0.5440 H     1 <1>   0.0800 
 37 H        3.0030     3.7540    -1.1720 H     1 <1>   0.0800 
 38 H        4.6140     1.9400     0.4460 H     1 <1>   0.4500 
 39 H        0.9730    -0.9850    -2.3910 H     1 <1>   0.4000 
 40 H        6.2870     2.1780    -1.2130 H     1 <1>   0.0800 
 41 H        5.1950     3.1930    -2.1390 H     1 <1>   0.0800 
 42 H        4.8080     0.9650     2.8380 H     1 <1>   0.1500 
 43 H        6.4140    -0.9880    -0.6100 H     1 <1>   0.1500 
 44 H        6.2240     3.7440     0.6660 H     1 <1>   0.1500 
 45 H        6.9430     2.0960     3.1810 H     1 <1>   0.1500 
 46 H        8.5480     0.1500    -0.2480 H     1 <1>   0.1500 
 47 H        5.3740     5.5680    -1.6530 H     1 <1>   0.1500 
 48 H        8.8160     1.7080     1.6340 H     1 <1>   0.1500 
 49 H        5.5400     7.8700    -1.4760 H     1 <1>   0.1500 
 50 H        6.7380     5.5100     1.8710 H     1 <1>   0.1500 
 51 H        6.0850     9.8970    -0.2300 H     1 <1>   0.1500 
 52 H        7.2790     7.5380     3.1030 H     1 <1>   0.1500 
 53 H        6.9560     9.7430     2.0650 H     1 <1>   0.1500 
@<TRIPOS>BOND
  1   1   2  1   
  2   1  26  1   
  3   2   3  1   
  4   2   4  1   
  5   2  27  1   
  6   3   5  1   
  7   3   6  1   
  8   3   7  1   
  9   4   8  1   
 10   4  28  1   
 11   4  29  1   
 12   5   9  1   
 13   5  30  1   
 14   5  31  1   
 15   6  10  1   
 16   6  32  1   
 17   6  33  1   
 18   7  11  1   
 19   7  34  1   
 20   7  35  1   
 21   8   9  1   
 22   8  36  1   
 23   8  37  1   
 24   9  12  1   
 25   9  38  1   
 26  10  39  1   
 27  11  13  ar  
 28  11  14  ar  
 29  12  15  1   
 30  12  40  1   
 31  12  41  1   
 32  13  16  ar  
 33  13  42  1   
 34  14  17  ar  
 35  14  43  1   
 36  15  18  2   
 37  15  44  1   
 38  16  19  ar  
 39  16  45  1   
 40  17  19  ar  
 41  17  46  1   
 42  18  20  1   
 43  18  47  1   
 44  19  48  1   
 45  20  21  ar  
 46  20  22  ar  
 47  21  23  ar  
 48  21  49  1   
 49  22  24  ar  
 50  22  50  1   
 51  23  25  ar  
 52  23  51  1   
 53  24  25  ar  
 54  24  52  1   
 55  25  53  1   
@<TRIPOS>SUBSTRUCTURE
  1 ****   9 GROUP 4 **** **** 0

# MOE 2024.06 (io_trps.svl 2023.06)
