@<TRIPOS>MOLECULE
NONAME
46 49 1 0 0 
SMALL
USER_CHARGES


@<TRIPOS>ATOM
  1 O       -0.4470     0.2660    -0.1040 O.2   1 <1>  -0.5700 
  2 C       -1.4990     0.8290     0.0800 C.2   1 <1>   0.5690 
  3 N       -2.6550     0.1340     0.3100 N.am  1 <1>  -0.6600 
  4 C       -1.5100     2.3470     0.0480 C.3   1 <1>  -0.0990 
  5 C       -2.6570    -1.3600     0.4470 C.3   1 <1>   0.1400 
  6 C       -4.0310     0.7190     0.4120 C.3   1 <1>   0.1400 
  7 C       -0.0950     2.9410     0.0250 C.3   1 <1>   0.0960 
  8 C       -3.7330    -2.0090    -0.4440 C.3   1 <1>   0.3440 
  9 C       -5.0280    -0.0380    -0.4950 C.3   1 <1>   0.2950 
 10 N       -0.1630     4.4130     0.0230 N.pl3 1 <1>   0.0480 
 11 O       -4.9790    -1.4060    -0.2140 O.3   1 <1>  -0.5600 
 12 C       -3.8290    -3.5060    -0.1630 C.ar  1 <1>  -0.1440 
 13 C       -6.4960     0.3950    -0.3390 C.3   1 <1>  -0.1950 
 14 C       -0.2200     5.2440    -1.0180 C.2   1 <1>   0.0360 
 15 C       -0.2180     5.2450     1.0630 C.2   1 <1>   0.0360 
 16 C       -4.6680    -4.0050     0.8250 C.ar  1 <1>  -0.1500 
 17 C       -3.0540    -4.3920    -0.8980 C.ar  1 <1>  -0.1500 
 18 C       -6.9220     1.7910     0.0060 C.3   1 <1>  -0.2000 
 19 C       -7.1520     0.6680     0.9790 C.3   1 <1>  -0.2000 
 20 N       -0.3070     6.4730    -0.6460 N.2   1 <1>  -0.3380 
 21 N       -0.3060     6.4740     0.6890 N.2   1 <1>  -0.3380 
 22 C       -4.7300    -5.3650     1.0740 C.ar  1 <1>  -0.1500 
 23 C       -3.1150    -5.7530    -0.6500 C.ar  1 <1>  -0.1500 
 24 C       -3.9530    -6.2410     0.3370 C.ar  1 <1>  -0.1500 
 25 H       -2.0440     2.6620    -0.8290 H     1 <1>   0.0800 
 26 H       -2.0230     2.7010     0.9230 H     1 <1>   0.0800 
 27 H       -1.6970    -1.7690     0.1850 H     1 <1>   0.0800 
 28 H       -2.8510    -1.6210     1.4730 H     1 <1>   0.0800 
 29 H       -4.3590     0.6540     1.4340 H     1 <1>   0.0800 
 30 H       -4.0270     1.7540     0.1280 H     1 <1>   0.0800 
 31 H        0.4320     2.6140    -0.8560 H     1 <1>   0.0800 
 32 H        0.4580     2.6170     0.8890 H     1 <1>   0.0800 
 33 H       -3.4800    -1.8610    -1.4790 H     1 <1>   0.0800 
 34 H       -4.7420     0.1010    -1.5230 H     1 <1>   0.0800 
 35 H       -7.1050    -0.1110    -1.0690 H     1 <1>   0.1000 
 36 H       -0.1970     4.9140    -2.0410 H     1 <1>   0.1500 
 37 H       -0.1930     4.9170     2.0860 H     1 <1>   0.1500 
 38 H       -5.2800    -3.3340     1.4020 H     1 <1>   0.1500 
 39 H       -2.3960    -4.0300    -1.6680 H     1 <1>   0.1500 
 40 H       -6.2040     2.5460     0.2740 H     1 <1>   0.1000 
 41 H       -7.7740     2.2080    -0.5030 H     1 <1>   0.1000 
 42 H       -8.1540     0.3040     1.1300 H     1 <1>   0.1000 
 43 H       -6.5690     0.6280     1.8830 H     1 <1>   0.1000 
 44 H       -5.3850    -5.7410     1.8410 H     1 <1>   0.1500 
 45 H       -2.5100    -6.4320    -1.2240 H     1 <1>   0.1500 
 46 H       -4.0010    -7.2980     0.5300 H     1 <1>   0.1500 
@<TRIPOS>BOND
  1   1   2  2   
  2   2   3  am  
  3   2   4  1   
  4   3   5  1   
  5   3   6  1   
  6   4   7  1   
  7   4  25  1   
  8   4  26  1   
  9   5   8  1   
 10   5  27  1   
 11   5  28  1   
 12   6   9  1   
 13   6  29  1   
 14   6  30  1   
 15   7  10  1   
 16   7  31  1   
 17   7  32  1   
 18   8  11  1   
 19   8  12  1   
 20   8  33  1   
 21   9  11  1   
 22   9  13  1   
 23   9  34  1   
 24  10  14  1   
 25  10  15  1   
 26  12  16  ar  
 27  12  17  ar  
 28  13  18  1   
 29  13  19  1   
 30  13  35  1   
 31  14  20  2   
 32  14  36  1   
 33  15  21  2   
 34  15  37  1   
 35  16  22  ar  
 36  16  38  1   
 37  17  23  ar  
 38  17  39  1   
 39  18  19  1   
 40  18  40  1   
 41  18  41  1   
 42  19  42  1   
 43  19  43  1   
 44  20  21  1   
 45  22  24  ar  
 46  22  44  1   
 47  23  24  ar  
 48  23  45  1   
 49  24  46  1   
@<TRIPOS>SUBSTRUCTURE
  1 ****   3 GROUP 4 **** **** 0

# MOE 2024.06 (io_trps.svl 2023.06)
