@<TRIPOS>MOLECULE
NONAME
49 50 1 0 0 
SMALL
USER_CHARGES


@<TRIPOS>ATOM
  1 O       -0.1720    -0.2260     0.8780 O.2   1 <1>  -0.5700 
  2 C       -1.0680     0.3780     0.3410 C.2   1 <1>   0.5690 
  3 N       -2.1050    -0.2600    -0.2510 N.am  1 <1>  -0.7300 
  4 C       -1.0460     1.9040     0.3500 C.3   1 <1>  -0.0190 
  5 C       -2.3650    -1.7060    -0.1730 C.3   1 <1>   0.2840 
  6 C       -2.3270     2.4960     0.9730 C.3   1 <1>  -0.1600 
  7 C       -0.7880     2.4850    -1.0620 C.3   1 <1>  -0.1600 
  8 C       -3.8600    -1.8870     0.0760 C.ar  1 <1>  -0.1440 
  9 C       -2.2430     4.0290     1.1300 C.3   1 <1>   0.2000 
 10 C       -1.2630     3.9430    -1.2280 C.3   1 <1>  -0.1600 
 11 C       -4.3530    -1.9120     1.3800 C.ar  1 <1>  -0.1430 
 12 C       -4.7440    -2.0130    -0.9950 C.ar  1 <1>  -0.1430 
 13 O       -3.5340     4.5570     0.9510 O.3   1 <1>  -0.5600 
 14 C       -1.2780     4.6880     0.1090 C.3   1 <1>   0.2000 
 15 C       -5.7120    -2.0690     1.5980 C.ar  1 <1>  -0.1500 
 16 C       -3.4420    -1.7680     2.5930 C.3   1 <1>  -0.0970 
 17 C       -6.0990    -2.1690    -0.7520 C.ar  1 <1>  -0.1500 
 18 C       -4.2750    -1.9880    -2.4450 C.3   1 <1>  -0.0970 
 19 C       -4.3780     4.4500     2.0560 C.3   1 <1>   0.0400 
 20 O       -1.6870     5.9840    -0.1300 O.3   1 <1>  -0.6800 
 21 C       -6.5910    -2.1970     0.5390 C.ar  1 <1>  -0.1430 
 22 C       -8.0780    -2.3710     0.7890 C.3   1 <1>  -0.0970 
 23 H       -2.9010     0.2750    -0.6010 H     1 <1>   0.3700 
 24 H       -0.2220     2.1940     0.9790 H     1 <1>   0.0800 
 25 H       -2.0620    -2.1740    -1.0910 H     1 <1>   0.0800 
 26 H       -1.7820    -2.1480     0.6160 H     1 <1>   0.0800 
 27 H       -2.4920     2.0500     1.9380 H     1 <1>   0.0800 
 28 H       -3.1630     2.2510     0.3410 H     1 <1>   0.0800 
 29 H        0.2690     2.4290    -1.2590 H     1 <1>   0.0800 
 30 H       -1.2810     1.8840    -1.8070 H     1 <1>   0.0800 
 31 H       -1.8970     4.2830     2.1180 H     1 <1>   0.0800 
 32 H       -2.2640     3.9410    -1.6260 H     1 <1>   0.0800 
 33 H       -0.6230     4.4540    -1.9260 H     1 <1>   0.0800 
 34 H       -0.2780     4.7250     0.5070 H     1 <1>   0.0800 
 35 H       -6.0950    -2.0950     2.6030 H     1 <1>   0.1500 
 36 H       -4.0140    -1.6770     3.4990 H     1 <1>   0.0800 
 37 H       -2.8270    -0.8910     2.4990 H     1 <1>   0.0800 
 38 H       -2.8080    -2.6320     2.6810 H     1 <1>   0.0800 
 39 H       -6.7850    -2.2720    -1.5740 H     1 <1>   0.1500 
 40 H       -5.1110    -1.9620    -3.1200 H     1 <1>   0.0800 
 41 H       -3.6980    -2.8690    -2.6590 H     1 <1>   0.0800 
 42 H       -3.6730    -1.1170    -2.6300 H     1 <1>   0.0800 
 43 H       -5.3200     4.9050     1.8020 H     1 <1>   0.0800 
 44 H       -3.9400     4.9700     2.8900 H     1 <1>   0.0800 
 45 H       -4.5340     3.4120     2.2930 H     1 <1>   0.0800 
 46 H       -2.6650     5.9780    -0.0160 H     1 <1>   0.4000 
 47 H       -8.3570    -1.9320     1.7300 H     1 <1>   0.0800 
 48 H       -8.3220    -3.4180     0.8080 H     1 <1>   0.0800 
 49 H       -8.6470    -1.8950     0.0110 H     1 <1>   0.0800 
@<TRIPOS>BOND
  1   1   2  2   
  2   2   3  am  
  3   2   4  1   
  4   3   5  1   
  5   3  23  1   
  6   4   6  1   
  7   4   7  1   
  8   4  24  1   
  9   5   8  1   
 10   5  25  1   
 11   5  26  1   
 12   6   9  1   
 13   6  27  1   
 14   6  28  1   
 15   7  10  1   
 16   7  29  1   
 17   7  30  1   
 18   8  11  ar  
 19   8  12  ar  
 20   9  13  1   
 21   9  14  1   
 22   9  31  1   
 23  10  14  1   
 24  10  32  1   
 25  10  33  1   
 26  11  15  ar  
 27  11  16  1   
 28  12  17  ar  
 29  12  18  1   
 30  13  19  1   
 31  14  20  1   
 32  14  34  1   
 33  15  21  ar  
 34  15  35  1   
 35  16  36  1   
 36  16  37  1   
 37  16  38  1   
 38  17  21  ar  
 39  17  39  1   
 40  18  40  1   
 41  18  41  1   
 42  18  42  1   
 43  19  43  1   
 44  19  44  1   
 45  19  45  1   
 46  20  46  1   
 47  21  22  1   
 48  22  47  1   
 49  22  48  1   
 50  22  49  1   
@<TRIPOS>SUBSTRUCTURE
  1 ****   3 GROUP 4 **** **** 0

# MOE 2024.06 (io_trps.svl 2023.06)
