@<TRIPOS>MOLECULE
NONAME
45 47 1 0 0 
SMALL
USER_CHARGES


@<TRIPOS>ATOM
  1 CL      -1.1260    -0.7640    -0.3060 Cl    1 <1>  -0.1770 
  2 C       -2.7320    -0.0890    -0.2530 C.ar  1 <1>   0.1770 
  3 C       -3.1530     0.7460    -1.2700 C.ar  1 <1>  -0.1500 
  4 C       -3.5640    -0.3950     0.8060 C.ar  1 <1>  -0.1500 
  5 C       -4.4300     1.2760    -1.2250 C.ar  1 <1>  -0.1500 
  6 C       -4.8390     0.1410     0.8420 C.ar  1 <1>  -0.1500 
  7 C       -5.3020     0.9800    -0.1750 C.ar  1 <1>   0.0530 
  8 C       -6.6380     1.5180    -0.1520 C.2   1 <1>   0.0870 
  9 O       -6.8820     2.7170    -0.6180 O.3   1 <1>  -0.0190 
 10 C       -7.8200     1.0220     0.2990 C.2   1 <1>  -0.0860 
 11 N       -8.1340     3.0670    -0.4900 N.2   1 <1>  -0.4100 
 12 C       -8.7160     2.0660     0.0700 C.2   1 <1>   0.3720 
 13 C       -8.1660    -0.2410     0.8710 C.2   1 <1>   0.7160 
 14 N      -10.0660     2.0170     0.4050 N.pl3 1 <1>  -0.8520 
 15 O       -8.8930    -0.2880     1.8480 O.2   1 <1>  -0.5700 
 16 N       -7.6950    -1.4210     0.3460 N.am  1 <1>  -0.6600 
 17 C      -10.7380     3.3110     0.7000 C.3   1 <1>   0.2090 
 18 C       -7.9800    -2.7400     0.9710 C.3   1 <1>   0.1400 
 19 C       -7.2930    -1.6040    -1.0730 C.3   1 <1>   0.1400 
 20 C      -12.2420     3.0930     0.8640 C.3   1 <1>   0.1200 
 21 C       -7.3610    -3.7610     0.0180 C.3   1 <1>   0.2000 
 22 C       -7.4780    -3.0970    -1.3470 C.3   1 <1>  -0.1600 
 23 O      -12.8380     4.3000     1.2270 O.3   1 <1>  -0.5600 
 24 O       -6.0140    -3.8820     0.3120 O.3   1 <1>  -0.6800 
 25 C      -14.2180     4.2220     1.3780 C.3   1 <1>   0.0400 
 26 H       -2.4860     0.9760    -2.0820 H     1 <1>   0.1500 
 27 H       -3.2110    -1.0420     1.5900 H     1 <1>   0.1500 
 28 H       -4.7610     1.9280    -2.0160 H     1 <1>   0.1500 
 29 H       -5.4810    -0.0900     1.6740 H     1 <1>   0.1500 
 30 H      -10.2130     1.3350     1.1630 H     1 <1>   0.4000 
 31 H      -10.3310     3.7260     1.6070 H     1 <1>   0.0800 
 32 H      -10.5700     4.0010    -0.1090 H     1 <1>   0.0800 
 33 H       -7.5640    -2.8080     1.9610 H     1 <1>   0.0800 
 34 H       -9.0460    -2.8810     1.0200 H     1 <1>   0.0800 
 35 H       -7.8990    -1.0040    -1.7320 H     1 <1>   0.0800 
 36 H       -6.2570    -1.3380    -1.1920 H     1 <1>   0.0800 
 37 H      -12.4310     2.3730     1.6410 H     1 <1>   0.0800 
 38 H      -12.6670     2.7620    -0.0680 H     1 <1>   0.0800 
 39 H       -7.8170    -4.7360     0.0730 H     1 <1>   0.0800 
 40 H       -6.7670    -3.4800    -2.0570 H     1 <1>   0.0800 
 41 H       -8.4690    -3.2570    -1.7340 H     1 <1>   0.0800 
 42 H       -5.6200    -2.9890     0.3630 H     1 <1>   0.4000 
 43 H      -14.5800     5.1960     1.6570 H     1 <1>   0.0800 
 44 H      -14.4520     3.5120     2.1530 H     1 <1>   0.0800 
 45 H      -14.6620     3.9240     0.4430 H     1 <1>   0.0800 
@<TRIPOS>BOND
  1   1   2  1   
  2   2   3  ar  
  3   2   4  ar  
  4   3   5  ar  
  5   3  26  1   
  6   4   6  ar  
  7   4  27  1   
  8   5   7  ar  
  9   5  28  1   
 10   6   7  ar  
 11   6  29  1   
 12   7   8  1   
 13   8   9  1   
 14   8  10  2   
 15   9  11  1   
 16  10  12  1   
 17  10  13  1   
 18  11  12  2   
 19  12  14  1   
 20  13  15  2   
 21  13  16  am  
 22  14  17  1   
 23  14  30  1   
 24  16  18  1   
 25  16  19  1   
 26  17  20  1   
 27  17  31  1   
 28  17  32  1   
 29  18  21  1   
 30  18  33  1   
 31  18  34  1   
 32  19  22  1   
 33  19  35  1   
 34  19  36  1   
 35  20  23  1   
 36  20  37  1   
 37  20  38  1   
 38  21  22  1   
 39  21  24  1   
 40  21  39  1   
 41  22  40  1   
 42  22  41  1   
 43  23  25  1   
 44  24  42  1   
 45  25  43  1   
 46  25  44  1   
 47  25  45  1   
@<TRIPOS>SUBSTRUCTURE
  1 ****  10 GROUP 4 **** **** 0

# MOE 2024.06 (io_trps.svl 2023.06)
