@<TRIPOS>MOLECULE
NONAME
49 51 1 0 0 
SMALL
USER_CHARGES


@<TRIPOS>ATOM
  1 S       -0.2320    -0.4830    -1.3580 S.o2  1 <1>   1.5760 
  2 O        1.0690    -0.7980    -1.9060 O.2   1 <1>  -0.6500 
  3 O       -1.3710    -0.3000    -2.2300 O.2   1 <1>  -0.6500 
  4 N       -0.6380    -1.6340    -0.1900 N.am  1 <1>  -0.8490 
  5 N       -0.0640     0.8840    -0.3830 N.am  1 <1>  -0.8490 
  6 C       -1.9690    -1.3360     0.3790 C.3   1 <1>   0.1960 
  7 C       -0.5630    -2.9880    -0.7450 C.3   1 <1>   0.1960 
  8 C       -0.0220     2.0980    -1.1960 C.3   1 <1>   0.1960 
  9 C        1.1190     0.7860     0.4780 C.3   1 <1>   0.1960 
 10 C       -2.3820    -2.2530     1.5410 C.3   1 <1>   0.2090 
 11 C       -0.3820    -4.0190     0.3760 C.3   1 <1>  -0.1600 
 12 C       -0.0120     3.3380    -0.2950 C.3   1 <1>  -0.1600 
 13 C        1.1640     1.9710     1.4470 C.3   1 <1>  -0.1600 
 14 N       -2.7730    -3.6110     1.0550 N.pl3 1 <1>  -0.8380 
 15 C       -1.6930    -4.6210     0.8940 C.3   1 <1>   0.2090 
 16 C        1.1590     3.3060     0.6940 C.3   1 <1>  -0.1600 
 17 C       -4.0750    -3.8920     0.7040 C.ar  1 <1>   0.7200 
 18 N       -4.8450    -2.8520     0.3880 N.ar  1 <1>  -0.6200 
 19 N       -4.4380    -5.1780     0.7120 N.ar  1 <1>  -0.6200 
 20 C       -6.0850    -3.1300     0.0360 C.ar  1 <1>   0.3930 
 21 C       -5.6830    -5.4350     0.3680 C.ar  1 <1>   0.1600 
 22 O       -6.9130    -2.1220    -0.3180 O.3   1 <1>  -0.3620 
 23 C       -6.5450    -4.4320     0.0190 C.ar  1 <1>   0.1900 
 24 C       -6.4520    -0.7860    -0.3780 C.3   1 <1>   0.0400 
 25 F       -7.7800    -4.7210    -0.3250 F     1 <1>  -0.1900 
 26 H       -2.7230    -1.3840    -0.3890 H     1 <1>   0.0800 
 27 H       -1.9640    -0.3300     0.7600 H     1 <1>   0.0800 
 28 H        0.3010    -3.0610    -1.3840 H     1 <1>   0.0800 
 29 H       -1.4330    -3.2060    -1.3440 H     1 <1>   0.0800 
 30 H       -0.8910     2.1400    -1.8320 H     1 <1>   0.0800 
 31 H        0.8550     2.0880    -1.8240 H     1 <1>   0.0800 
 32 H        2.0130     0.7700    -0.1240 H     1 <1>   0.0800 
 33 H        1.0820    -0.1300     1.0450 H     1 <1>   0.0800 
 34 H       -3.2200    -1.8080     2.0490 H     1 <1>   0.0800 
 35 H       -1.5800    -2.3240     2.2550 H     1 <1>   0.0800 
 36 H        0.1780    -3.5870     1.1850 H     1 <1>   0.0800 
 37 H        0.2070    -4.8310    -0.0070 H     1 <1>   0.0800 
 38 H       -0.9420     3.3780     0.2450 H     1 <1>   0.0800 
 39 H        0.0520     4.2210    -0.9050 H     1 <1>   0.0800 
 40 H        2.0480     1.9010     2.0550 H     1 <1>   0.0800 
 41 H        0.3100     1.9160     2.0990 H     1 <1>   0.0800 
 42 H       -1.5220    -5.1080     1.8390 H     1 <1>   0.0800 
 43 H       -2.0120    -5.3730     0.1920 H     1 <1>   0.0800 
 44 H        1.0790     4.1230     1.3890 H     1 <1>   0.0800 
 45 H        2.0850     3.4140     0.1540 H     1 <1>   0.0800 
 46 H       -6.0190    -6.4570     0.3650 H     1 <1>   0.1500 
 47 H       -7.2660    -0.1610    -0.6980 H     1 <1>   0.0800 
 48 H       -5.6420    -0.7280    -1.0850 H     1 <1>   0.0800 
 49 H       -6.1190    -0.4870     0.6000 H     1 <1>   0.0800 
@<TRIPOS>BOND
  1   1   2  2   
  2   1   3  2   
  3   1   4  am  
  4   1   5  am  
  5   4   6  1   
  6   4   7  1   
  7   5   8  1   
  8   5   9  1   
  9   6  10  1   
 10   6  26  1   
 11   6  27  1   
 12   7  11  1   
 13   7  28  1   
 14   7  29  1   
 15   8  12  1   
 16   8  30  1   
 17   8  31  1   
 18   9  13  1   
 19   9  32  1   
 20   9  33  1   
 21  10  14  1   
 22  10  34  1   
 23  10  35  1   
 24  11  15  1   
 25  11  36  1   
 26  11  37  1   
 27  12  16  1   
 28  12  38  1   
 29  12  39  1   
 30  13  16  1   
 31  13  40  1   
 32  13  41  1   
 33  14  15  1   
 34  14  17  1   
 35  15  42  1   
 36  15  43  1   
 37  16  44  1   
 38  16  45  1   
 39  17  18  ar  
 40  17  19  ar  
 41  18  20  ar  
 42  19  21  ar  
 43  20  22  1   
 44  20  23  ar  
 45  21  23  ar  
 46  21  46  1   
 47  22  24  1   
 48  23  25  1   
 49  24  47  1   
 50  24  48  1   
 51  24  49  1   
@<TRIPOS>SUBSTRUCTURE
  1 ****   6 GROUP 4 **** **** 0

# MOE 2024.06 (io_trps.svl 2023.06)
