@<TRIPOS>MOLECULE
NONAME
40 42 1 0 0 
SMALL
USER_CHARGES


@<TRIPOS>ATOM
  1 F       -0.6410    -3.2970    -4.4520 F     1 <1>  -0.3400 
  2 C       -0.5340    -2.9750    -3.1720 C.3   1 <1>   1.1640 
  3 F        0.3560    -1.9930    -3.1020 F     1 <1>  -0.3400 
  4 F       -1.6970    -2.4580    -2.8080 F     1 <1>  -0.3400 
  5 C       -0.1430    -4.1870    -2.3020 C.ar  1 <1>  -0.1440 
  6 C        1.0130    -4.2280    -1.5480 C.ar  1 <1>  -0.1500 
  7 C       -0.9890    -5.3020    -2.2680 C.ar  1 <1>  -0.1500 
  8 C        1.3440    -5.3450    -0.7660 C.ar  1 <1>   0.3610 
  9 C       -0.6820    -6.4030    -1.5100 C.ar  1 <1>  -0.1500 
 10 N        2.5000    -5.3610    -0.0170 N.ar  1 <1>  -0.1790 
 11 C        0.4930    -6.4660    -0.7360 C.ar  1 <1>   0.0000 
 12 C        2.8510    -6.4110     0.7460 C.ar  1 <1>   0.2180 
 13 C        0.8550    -7.5960     0.0630 C.ar  1 <1>   0.1000 
 14 C        2.0440    -7.5190     0.7920 C.ar  1 <1>  -0.1500 
 15 C        4.1450    -6.3290     1.5390 C.3   1 <1>  -0.0970 
 16 N        0.0590    -8.6870     0.0960 N.pl3 1 <1>  -0.8690 
 17 C        0.1950    -9.9880     0.8110 C.3   1 <1>   0.2890 
 18 C       -0.0020   -11.1330    -0.2010 C.3   1 <1>   0.1400 
 19 C       -0.9820   -10.1200     1.7820 C.3   1 <1>  -0.0990 
 20 N       -1.4490   -11.4000    -0.1390 N.am  1 <1>  -0.6600 
 21 C       -2.0080   -10.8580     0.9680 C.2   1 <1>   0.5690 
 22 C       -2.1290   -12.2600    -1.1380 C.3   1 <1>   0.0600 
 23 O       -3.1670   -10.9390     1.2890 O.2   1 <1>  -0.5700 
 24 H        1.6830    -3.3840    -1.5540 H     1 <1>   0.1500 
 25 H       -1.9010    -5.2930    -2.8480 H     1 <1>   0.1500 
 26 H       -1.3630    -7.2360    -1.5130 H     1 <1>   0.1500 
 27 H        3.1010    -4.5350    -0.0530 H     1 <1>   0.4570 
 28 H        2.3330    -8.3480     1.4080 H     1 <1>   0.1500 
 29 H        4.1110    -5.5060     2.2310 H     1 <1>   0.0800 
 30 H        4.9840    -6.1980     0.8790 H     1 <1>   0.0800 
 31 H        4.3030    -7.2310     2.1040 H     1 <1>   0.0800 
 32 H       -0.8180    -8.6860    -0.4420 H     1 <1>   0.4000 
 33 H        1.1430   -10.0690     1.3100 H     1 <1>   0.0800 
 34 H        0.5330   -12.0130     0.1120 H     1 <1>   0.0800 
 35 H        0.3070   -10.8460    -1.1920 H     1 <1>   0.0800 
 36 H       -1.3530    -9.1700     2.1210 H     1 <1>   0.0800 
 37 H       -0.7150   -10.7300     2.6230 H     1 <1>   0.0800 
 38 H       -2.0340   -11.8260    -2.1180 H     1 <1>   0.0800 
 39 H       -3.1750   -12.3460    -0.8950 H     1 <1>   0.0800 
 40 H       -1.6890   -13.2410    -1.1360 H     1 <1>   0.0800 
@<TRIPOS>BOND
  1   1   2  1   
  2   2   3  1   
  3   2   4  1   
  4   2   5  1   
  5   5   6  ar  
  6   5   7  ar  
  7   6   8  ar  
  8   6  24  1   
  9   7   9  ar  
 10   7  25  1   
 11   8  10  ar  
 12   8  11  ar  
 13   9  11  ar  
 14   9  26  1   
 15  10  12  ar  
 16  10  27  1   
 17  11  13  ar  
 18  12  14  ar  
 19  12  15  1   
 20  13  14  ar  
 21  13  16  1   
 22  14  28  1   
 23  15  29  1   
 24  15  30  1   
 25  15  31  1   
 26  16  17  1   
 27  16  32  1   
 28  17  18  1   
 29  17  19  1   
 30  17  33  1   
 31  18  20  1   
 32  18  34  1   
 33  18  35  1   
 34  19  21  1   
 35  19  36  1   
 36  19  37  1   
 37  20  21  am  
 38  20  22  1   
 39  21  23  2   
 40  22  38  1   
 41  22  39  1   
 42  22  40  1   
@<TRIPOS>SUBSTRUCTURE
  1 ****  11 GROUP 4 **** **** 0

# MOE 2024.06 (io_trps.svl 2023.06)
