@<TRIPOS>MOLECULE
NONAME
43 44 1 0 0 
SMALL
USER_CHARGES


@<TRIPOS>ATOM
  1 O       -1.0470     0.1770     2.2180 O.2   1 <1>  -0.5700 
  2 C       -1.3520     0.5420     1.1060 C.2   1 <1>   0.5690 
  3 N       -1.7080    -0.3720     0.1400 N.am  1 <1>  -0.6600 
  4 C       -1.3460     2.0600     0.8760 C.3   1 <1>  -0.0190 
  5 C       -1.9340    -1.7940     0.5220 C.3   1 <1>   0.3210 
  6 C       -2.0640    -0.0810    -1.2800 C.3   1 <1>   0.0600 
  7 C       -2.7300     2.6260     0.4910 C.3   1 <1>  -0.1600 
  8 C       -0.2040     2.5410    -0.0520 C.3   1 <1>  -0.1600 
  9 C       -3.4270    -2.0570     0.5630 C.2   1 <1>  -0.1810 
 10 C       -2.7450     4.1680     0.4640 C.3   1 <1>   0.2000 
 11 C       -0.5320     3.8540    -0.7880 C.3   1 <1>  -0.1600 
 12 C       -4.3220    -1.4410     1.4290 C.2   1 <1>   0.1390 
 13 C       -4.1900    -2.8840    -0.1830 C.2   1 <1>  -0.3020 
 14 O       -3.7040     4.5770    -0.4810 O.3   1 <1>  -0.5600 
 15 C       -1.3670     4.7830     0.0960 C.3   1 <1>   0.2000 
 16 N       -5.5420    -1.8410     1.2390 N.2   1 <1>  -0.7070 
 17 N       -5.4600    -2.7380     0.2440 N.pl3 1 <1>   0.3140 
 18 C       -5.0280     4.5270    -0.0440 C.3   1 <1>   0.0400 
 19 O       -1.5660     5.9610    -0.5940 O.3   1 <1>  -0.6800 
 20 C       -6.6500    -3.4310    -0.2590 C.3   1 <1>   0.0160 
 21 H       -1.1330     2.4880     1.8410 H     1 <1>   0.0800 
 22 H       -1.4660    -2.4390    -0.2000 H     1 <1>   0.0800 
 23 H       -1.5060    -2.0140     1.4840 H     1 <1>   0.0800 
 24 H       -1.6140    -0.8150    -1.9260 H     1 <1>   0.0800 
 25 H       -1.7210     0.8870    -1.5890 H     1 <1>   0.0800 
 26 H       -3.1330    -0.1230    -1.3990 H     1 <1>   0.0800 
 27 H       -3.4610     2.2770     1.1990 H     1 <1>   0.0800 
 28 H       -3.0120     2.2680    -0.4800 H     1 <1>   0.0800 
 29 H        0.6740     2.6900     0.5540 H     1 <1>   0.0800 
 30 H        0.0520     1.7900    -0.7760 H     1 <1>   0.0800 
 31 H       -3.0260     4.5520     1.4310 H     1 <1>   0.0800 
 32 H       -1.0910     3.6310    -1.6810 H     1 <1>   0.0800 
 33 H        0.3830     4.3440    -1.0740 H     1 <1>   0.0800 
 34 H       -4.0390    -0.7130     2.1720 H     1 <1>   0.1500 
 35 H       -3.9100    -3.5530    -0.9760 H     1 <1>   0.1500 
 36 H       -0.8120     5.0140     0.9890 H     1 <1>   0.0800 
 37 H       -5.6560     4.8860    -0.8400 H     1 <1>   0.0800 
 38 H       -5.1420     5.1610     0.8190 H     1 <1>   0.0800 
 39 H       -5.2930     3.5120     0.1930 H     1 <1>   0.0800 
 40 H       -2.4490     5.8680    -1.0200 H     1 <1>   0.4000 
 41 H       -6.3740    -4.0930    -1.0580 H     1 <1>   0.0800 
 42 H       -7.3520    -2.7010    -0.6140 H     1 <1>   0.0800 
 43 H       -7.0900    -3.9910     0.5440 H     1 <1>   0.0800 
@<TRIPOS>BOND
  1   1   2  2   
  2   2   3  am  
  3   2   4  1   
  4   3   5  1   
  5   3   6  1   
  6   4   7  1   
  7   4   8  1   
  8   4  21  1   
  9   5   9  1   
 10   5  22  1   
 11   5  23  1   
 12   6  24  1   
 13   6  25  1   
 14   6  26  1   
 15   7  10  1   
 16   7  27  1   
 17   7  28  1   
 18   8  11  1   
 19   8  29  1   
 20   8  30  1   
 21   9  12  1   
 22   9  13  2   
 23  10  14  1   
 24  10  15  1   
 25  10  31  1   
 26  11  15  1   
 27  11  32  1   
 28  11  33  1   
 29  12  16  2   
 30  12  34  1   
 31  13  17  1   
 32  13  35  1   
 33  14  18  1   
 34  15  19  1   
 35  15  36  1   
 36  16  17  1   
 37  17  20  1   
 38  18  37  1   
 39  18  38  1   
 40  18  39  1   
 41  19  40  1   
 42  20  41  1   
 43  20  42  1   
 44  20  43  1   
@<TRIPOS>SUBSTRUCTURE
  1 ****   7 GROUP 4 **** **** 0

# MOE 2024.06 (io_trps.svl 2023.06)
