@<TRIPOS>MOLECULE
NONAME
51 54 1 0 0 
SMALL
USER_CHARGES


@<TRIPOS>ATOM
  1 O       -0.0470    -0.1850     0.5030 O.3   1 <1>  -0.5600 
  2 C        0.1760    -1.5680     0.4200 C.3   1 <1>   0.1200 
  3 C        0.9130     0.6080    -0.1400 C.3   1 <1>   0.1200 
  4 C        1.5440    -1.9380     1.0420 C.3   1 <1>   0.5660 
  5 C        2.3220     0.3400     0.4370 C.3   1 <1>   0.4230 
  6 N        2.6510    -1.1350     0.4350 N.4   1 <1>  -0.9590 
  7 C        1.9010    -3.4210     0.9690 C.ar  1 <1>  -0.1430 
  8 C        3.4030     1.1660    -0.3040 C.3   1 <1>   0.1100 
  9 C        3.1010    -1.6040    -0.9180 C.3   1 <1>   0.3430 
 10 C        2.7210    -3.9450     1.9600 C.ar  1 <1>  -0.1500 
 11 C        1.4550    -4.2630    -0.0460 C.ar  1 <1>  -0.1500 
 12 N        4.6370     0.3810    -0.5830 N.3   1 <1>  -0.8100 
 13 C        4.3170    -0.7930    -1.4300 C.3   1 <1>   0.1100 
 14 C        3.0960    -5.2760     1.9360 C.ar  1 <1>  -0.1500 
 15 C        1.8310    -5.5950    -0.0690 C.ar  1 <1>  -0.1500 
 16 C        5.6600     1.2330    -1.2420 C.3   1 <1>   0.2900 
 17 C        2.6530    -6.1010     0.9200 C.ar  1 <1>  -0.1500 
 18 C        6.0210     2.4450    -0.3950 C.2   1 <1>   0.0060 
 19 N        5.5490     3.6310    -0.6270 N.2   1 <1>  -0.5650 
 20 N        6.8550     2.3900     0.6730 N.pl3 1 <1>   0.0480 
 21 C        6.1070     4.3920     0.3300 C.2   1 <1>   0.0770 
 22 C        6.9030     3.6540     1.1320 C.2   1 <1>  -0.3020 
 23 C        7.5650     1.2260     1.2440 C.3   1 <1>   0.0960 
 24 C        8.9540     1.0810     0.6160 C.3   1 <1>  -0.2400 
 25 H       -0.6150    -2.0600     0.9590 H     1 <1>   0.0800 
 26 H        0.1180    -1.8560    -0.6140 H     1 <1>   0.0800 
 27 H        0.8770     0.4040    -1.1960 H     1 <1>   0.0800 
 28 H        0.6410     1.6380     0.0170 H     1 <1>   0.0800 
 29 H        1.4750    -1.6830     2.0860 H     1 <1>   0.0800 
 30 H        2.3090     0.6840     1.4580 H     1 <1>   0.0800 
 31 H        3.4860    -1.2240     1.0240 H     1 <1>   0.4500 
 32 H        3.6350     2.0170     0.3130 H     1 <1>   0.0800 
 33 H        3.0090     1.5510    -1.2300 H     1 <1>   0.0800 
 34 H        3.3750    -2.6460    -0.8790 H     1 <1>   0.0800 
 35 H        2.2930    -1.5070    -1.6240 H     1 <1>   0.0800 
 36 H        3.0790    -3.3280     2.7680 H     1 <1>   0.1500 
 37 H        0.8130    -3.9160    -0.8360 H     1 <1>   0.1500 
 38 H        4.1150    -0.4760    -2.4400 H     1 <1>   0.0800 
 39 H        5.1760    -1.4430    -1.4640 H     1 <1>   0.0800 
 40 H        3.7320    -5.6760     2.7090 H     1 <1>   0.1500 
 41 H        1.4830    -6.2440    -0.8550 H     1 <1>   0.1500 
 42 H        6.5500     0.6560    -1.4280 H     1 <1>   0.0800 
 43 H        5.2890     1.5820    -2.1910 H     1 <1>   0.0800 
 44 H        2.9440    -7.1380     0.9020 H     1 <1>   0.1500 
 45 H        5.9060     5.4490     0.3930 H     1 <1>   0.1500 
 46 H        7.4890     3.9560     1.9810 H     1 <1>   0.1500 
 47 H        7.6560     1.3680     2.3060 H     1 <1>   0.0800 
 48 H        6.9820     0.3400     1.0690 H     1 <1>   0.0800 
 49 H        9.5430     1.9610     0.8070 H     1 <1>   0.0800 
 50 H        8.8760     0.9310    -0.4460 H     1 <1>   0.0800 
 51 H        9.4620     0.2350     1.0440 H     1 <1>   0.0800 
@<TRIPOS>BOND
  1   1   2  1   
  2   1   3  1   
  3   2   4  1   
  4   2  25  1   
  5   2  26  1   
  6   3   5  1   
  7   3  27  1   
  8   3  28  1   
  9   4   6  1   
 10   4   7  1   
 11   4  29  1   
 12   5   6  1   
 13   5   8  1   
 14   5  30  1   
 15   6   9  1   
 16   6  31  1   
 17   7  10  ar  
 18   7  11  ar  
 19   8  12  1   
 20   8  32  1   
 21   8  33  1   
 22   9  13  1   
 23   9  34  1   
 24   9  35  1   
 25  10  14  ar  
 26  10  36  1   
 27  11  15  ar  
 28  11  37  1   
 29  12  13  1   
 30  12  16  1   
 31  13  38  1   
 32  13  39  1   
 33  14  17  ar  
 34  14  40  1   
 35  15  17  ar  
 36  15  41  1   
 37  16  18  1   
 38  16  42  1   
 39  16  43  1   
 40  17  44  1   
 41  18  19  2   
 42  18  20  1   
 43  19  21  1   
 44  20  22  1   
 45  20  23  1   
 46  21  22  2   
 47  21  45  1   
 48  22  46  1   
 49  23  24  1   
 50  23  47  1   
 51  23  48  1   
 52  24  49  1   
 53  24  50  1   
 54  24  51  1   
@<TRIPOS>SUBSTRUCTURE
  1 ****   6 GROUP 4 **** **** 0

# MOE 2024.06 (io_trps.svl 2023.06)
