@<TRIPOS>MOLECULE
NONAME
39 42 1 0 0 
SMALL
USER_CHARGES


@<TRIPOS>ATOM
  1 S       -0.7190     0.9140    -0.3610 S.3   1 <1>  -0.0800 
  2 C       -0.1060     2.5650    -0.2780 C.ar  1 <1>   0.2970 
  3 C        0.8630     0.2530     0.0590 C.2   1 <1>  -0.1100 
  4 N       -0.8540     3.6260    -0.4870 N.ar  1 <1>  -0.5670 
  5 C        1.2300     2.5660     0.0340 C.ar  1 <1>   0.0000 
  6 C        1.7590     1.2400     0.2340 C.2   1 <1>  -0.1500 
  7 C       -0.1820     4.7520    -0.3610 C.ar  1 <1>   0.4700 
  8 C        1.8160     3.8300     0.1110 C.ar  1 <1>   0.4100 
  9 N        1.1060     4.9300    -0.0780 N.ar  1 <1>  -0.6200 
 10 N        3.1560     4.0070     0.3700 N.pl3 1 <1>  -0.8380 
 11 C        3.6040     4.8850     1.5010 C.3   1 <1>   0.2090 
 12 C        4.1970     3.3920    -0.5010 C.3   1 <1>   0.2090 
 13 C        4.5340     6.0810     1.1320 C.3   1 <1>   0.4230 
 14 C        4.9930     4.4670    -1.2660 C.3   1 <1>  -0.0800 
 15 N        4.3140     6.7230    -0.2280 N.4   1 <1>  -0.9590 
 16 C        6.0260     5.7410     1.3430 C.3   1 <1>   0.1200 
 17 C        6.4250     4.6490    -0.7360 C.3   1 <1>   0.1200 
 18 C        4.2010     5.7770    -1.3920 C.3   1 <1>   0.3430 
 19 C        3.0890     7.5780    -0.1950 C.3   1 <1>   0.2630 
 20 O        6.4460     4.6050     0.6540 O.3   1 <1>  -0.5600 
 21 H        0.9410    -0.8180     0.1340 H     1 <1>   0.1500 
 22 H        2.7890     1.1020     0.5080 H     1 <1>   0.1500 
 23 H       -0.7580     5.6510    -0.5120 H     1 <1>   0.1500 
 24 H        2.7300     5.2860     1.9860 H     1 <1>   0.0800 
 25 H        4.0980     4.2700     2.2330 H     1 <1>   0.0800 
 26 H        4.8490     2.7720     0.0920 H     1 <1>   0.0800 
 27 H        3.7120     2.7510    -1.2180 H     1 <1>   0.0800 
 28 H        4.3290     6.8390     1.8690 H     1 <1>   0.0800 
 29 H        5.1000     4.0940    -2.2690 H     1 <1>   0.0800 
 30 H        5.1250     7.3260    -0.4070 H     1 <1>   0.4500 
 31 H        6.1920     5.5370     2.3870 H     1 <1>   0.0800 
 32 H        6.6580     6.5660     1.0670 H     1 <1>   0.0800 
 33 H        6.8800     5.5630    -1.0780 H     1 <1>   0.0800 
 34 H        7.0340     3.8260    -1.0730 H     1 <1>   0.0800 
 35 H        3.1630     5.5170    -1.5330 H     1 <1>   0.0800 
 36 H        4.5200     6.2900    -2.2840 H     1 <1>   0.0800 
 37 H        2.2220     6.9770     0.0230 H     1 <1>   0.0800 
 38 H        2.9400     8.0580    -1.1480 H     1 <1>   0.0800 
 39 H        3.1790     8.3380     0.5640 H     1 <1>   0.0800 
@<TRIPOS>BOND
  1   1   2  1   
  2   1   3  1   
  3   2   4  ar  
  4   2   5  ar  
  5   3   6  2   
  6   3  21  1   
  7   4   7  ar  
  8   5   6  1   
  9   5   8  ar  
 10   6  22  1   
 11   7   9  ar  
 12   7  23  1   
 13   8   9  ar  
 14   8  10  1   
 15  10  11  1   
 16  10  12  1   
 17  11  13  1   
 18  11  24  1   
 19  11  25  1   
 20  12  14  1   
 21  12  26  1   
 22  12  27  1   
 23  13  15  1   
 24  13  16  1   
 25  13  28  1   
 26  14  17  1   
 27  14  18  1   
 28  14  29  1   
 29  15  18  1   
 30  15  19  1   
 31  15  30  1   
 32  16  20  1   
 33  16  31  1   
 34  16  32  1   
 35  17  20  1   
 36  17  33  1   
 37  17  34  1   
 38  18  35  1   
 39  18  36  1   
 40  19  37  1   
 41  19  38  1   
 42  19  39  1   
@<TRIPOS>SUBSTRUCTURE
  1 ****  10 GROUP 4 **** **** 0

# MOE 2024.06 (io_trps.svl 2023.06)
