@<TRIPOS>MOLECULE
NONAME
44 46 1 0 0 
SMALL
USER_CHARGES


@<TRIPOS>ATOM
  1 CL       0.2150    -2.4180    -3.1330 Cl    1 <1>  -0.1770 
  2 C       -0.0710    -3.0660    -1.5340 C.ar  1 <1>   0.1770 
  3 C        0.9770    -3.4920    -0.7380 C.ar  1 <1>   0.1900 
  4 C       -1.3690    -3.1520    -1.0640 C.ar  1 <1>  -0.1500 
  5 F        2.2060    -3.4160    -1.1740 F     1 <1>  -0.1900 
  6 C        0.7520    -4.0050     0.5240 C.ar  1 <1>  -0.1500 
  7 C       -1.6320    -3.6680     0.2030 C.ar  1 <1>  -0.0090 
  8 C       -0.5550    -4.0880     0.9840 C.ar  1 <1>  -0.1500 
  9 S       -3.3380    -3.7760     0.8160 S.o2  1 <1>   1.4470 
 10 O       -3.3880    -4.6910     1.9370 O.2   1 <1>  -0.6500 
 11 O       -3.8510    -2.4330     0.9710 O.2   1 <1>  -0.6500 
 12 N       -4.1490    -4.4930    -0.4920 N.am  1 <1>  -0.8490 
 13 C       -5.5990    -4.3090    -0.4420 C.3   1 <1>   0.1960 
 14 C       -3.9570    -5.9410    -0.5780 C.3   1 <1>   0.1960 
 15 C       -6.1290    -5.4530     0.4250 C.3   1 <1>  -0.0800 
 16 C       -5.1690    -6.6090     0.0910 C.3   1 <1>  -0.0800 
 17 C       -7.6440    -5.7780     0.3040 C.3   1 <1>   0.2800 
 18 C       -5.8060    -7.6660    -0.8270 C.3   1 <1>  -0.1600 
 19 O       -8.0650    -5.5870    -0.9980 O.3   1 <1>  -0.6800 
 20 C       -7.8790    -7.2610     0.6500 C.3   1 <1>  -0.1600 
 21 C       -8.5370    -4.8960     1.2070 C.3   1 <1>  -0.1600 
 22 C       -7.0940    -8.2560    -0.2300 C.3   1 <1>  -0.1600 
 23 C       -8.4760    -3.3790     0.9600 C.3   1 <1>  -0.2400 
 24 H       -2.1810    -2.8170    -1.6860 H     1 <1>   0.1500 
 25 H        1.5790    -4.3300     1.1310 H     1 <1>   0.1500 
 26 H       -0.7430    -4.4850     1.9690 H     1 <1>   0.1500 
 27 H       -5.8700    -3.3390    -0.0660 H     1 <1>   0.0800 
 28 H       -5.9810    -4.3970    -1.4440 H     1 <1>   0.0800 
 29 H       -3.9190    -6.2120    -1.6190 H     1 <1>   0.0800 
 30 H       -3.0340    -6.2520    -0.1170 H     1 <1>   0.0800 
 31 H       -5.9470    -5.1880     1.4510 H     1 <1>   0.0800 
 32 H       -4.8540    -7.0850     1.0030 H     1 <1>   0.0800 
 33 H       -6.0510    -7.2020    -1.7680 H     1 <1>   0.0800 
 34 H       -5.1060    -8.4580    -1.0280 H     1 <1>   0.0800 
 35 H       -9.0000    -5.8460    -1.0740 H     1 <1>   0.4000 
 36 H       -7.5660    -7.4070     1.6690 H     1 <1>   0.0800 
 37 H       -8.9280    -7.4960     0.6120 H     1 <1>   0.0800 
 38 H       -9.5590    -5.2140     1.0960 H     1 <1>   0.0800 
 39 H       -8.2710    -5.0750     2.2340 H     1 <1>   0.0800 
 40 H       -6.8530    -9.1220     0.3610 H     1 <1>   0.0800 
 41 H       -7.7210    -8.5850    -1.0410 H     1 <1>   0.0800 
 42 H       -8.6150    -3.1520    -0.0830 H     1 <1>   0.0800 
 43 H       -7.5350    -2.9770     1.2870 H     1 <1>   0.0800 
 44 H       -9.2530    -2.8890     1.5190 H     1 <1>   0.0800 
@<TRIPOS>BOND
  1   1   2  1   
  2   2   3  ar  
  3   2   4  ar  
  4   3   5  1   
  5   3   6  ar  
  6   4   7  ar  
  7   4  24  1   
  8   6   8  ar  
  9   6  25  1   
 10   7   8  ar  
 11   7   9  1   
 12   8  26  1   
 13   9  10  2   
 14   9  11  2   
 15   9  12  am  
 16  12  13  1   
 17  12  14  1   
 18  13  15  1   
 19  13  27  1   
 20  13  28  1   
 21  14  16  1   
 22  14  29  1   
 23  14  30  1   
 24  15  16  1   
 25  15  17  1   
 26  15  31  1   
 27  16  18  1   
 28  16  32  1   
 29  17  19  1   
 30  17  20  1   
 31  17  21  1   
 32  18  22  1   
 33  18  33  1   
 34  18  34  1   
 35  19  35  1   
 36  20  22  1   
 37  20  36  1   
 38  20  37  1   
 39  21  23  1   
 40  21  38  1   
 41  21  39  1   
 42  22  40  1   
 43  22  41  1   
 44  23  42  1   
 45  23  43  1   
 46  23  44  1   
@<TRIPOS>SUBSTRUCTURE
  1 ****  12 GROUP 4 **** **** 0

# MOE 2024.06 (io_trps.svl 2023.06)
