@<TRIPOS>MOLECULE
NONAME
47 49 1 0 0 
SMALL
USER_CHARGES


@<TRIPOS>ATOM
  1 O        0.1090     0.2100    -0.2980 O.3   1 <1>  -0.5600 
  2 C        1.3630    -0.3810    -0.5000 C.3   1 <1>   0.3440 
  3 C        0.0560     1.5790    -0.6070 C.3   1 <1>   0.2000 
  4 C        1.2910    -1.8610    -0.1350 C.ar  1 <1>  -0.1440 
  5 C        2.4250     0.3390     0.3560 C.3   1 <1>   0.1100 
  6 C       -1.4140     2.0810    -0.4620 C.3   1 <1>   0.0000 
  7 C        1.0900     2.3400     0.2610 C.3   1 <1>   0.1100 
  8 C        0.5330    -2.2980     0.9420 C.ar  1 <1>  -0.1500 
  9 C        2.0050    -2.7910    -0.8780 C.ar  1 <1>  -0.1500 
 10 N        2.4580     1.7940     0.0890 N.3   1 <1>  -0.8100 
 11 C       -1.5260     3.5710    -0.8340 C.3   1 <1>  -0.2400 
 12 C       -2.3220     1.2920    -1.4230 C.3   1 <1>  -0.2400 
 13 C       -1.9520     1.8960     0.9700 C.3   1 <1>  -0.2400 
 14 C        0.4900    -3.6410     1.2740 C.ar  1 <1>  -0.1500 
 15 C        1.9630    -4.1350    -0.5480 C.ar  1 <1>  -0.1500 
 16 C        3.4040     2.4680     1.0030 C.3   1 <1>   0.2900 
 17 C        1.2070    -4.5610     0.5290 C.ar  1 <1>  -0.1500 
 18 C        3.6290     3.9120     0.5870 C.2   1 <1>   0.0060 
 19 N        3.7390     4.9150     1.3990 N.2   1 <1>  -0.5650 
 20 N        3.7290     4.2570    -0.7120 N.pl3 1 <1>   0.0330 
 21 C        3.9230     5.9710     0.5820 C.2   1 <1>   0.0770 
 22 C        3.9190     5.5880    -0.7130 C.2   1 <1>  -0.3020 
 23 H        1.6090    -0.2800    -1.5420 H     1 <1>   0.0800 
 24 H        0.3420     1.6870    -1.6390 H     1 <1>   0.0800 
 25 H        3.3890    -0.0880     0.1400 H     1 <1>   0.0800 
 26 H        2.2050     0.1570     1.3940 H     1 <1>   0.0800 
 27 H        0.8010     2.2750     1.2950 H     1 <1>   0.0800 
 28 H        1.0900     3.3780    -0.0170 H     1 <1>   0.0800 
 29 H       -0.0310    -1.5880     1.5230 H     1 <1>   0.1500 
 30 H        2.5960    -2.4750    -1.7190 H     1 <1>   0.1500 
 31 H       -2.5560     3.8830    -0.8290 H     1 <1>   0.0800 
 32 H       -1.1270     3.7460    -1.8170 H     1 <1>   0.0800 
 33 H       -0.9960     4.1900    -0.1330 H     1 <1>   0.0800 
 34 H       -3.3380     1.6410    -1.3650 H     1 <1>   0.0800 
 35 H       -2.3150     0.2450    -1.1750 H     1 <1>   0.0800 
 36 H       -1.9830     1.3990    -2.4380 H     1 <1>   0.0800 
 37 H       -2.9850     2.1890     1.0250 H     1 <1>   0.0800 
 38 H       -1.4000     2.4900     1.6740 H     1 <1>   0.0800 
 39 H       -1.8810     0.8630     1.2660 H     1 <1>   0.0800 
 40 H       -0.1020    -3.9690     2.1100 H     1 <1>   0.1500 
 41 H        2.5180    -4.8500    -1.1300 H     1 <1>   0.1500 
 42 H        3.0360     2.4380     2.0150 H     1 <1>   0.0800 
 43 H        4.3530     1.9610     0.9760 H     1 <1>   0.0800 
 44 H        1.1740    -5.6050     0.7860 H     1 <1>   0.1500 
 45 H        3.6410     3.6060    -1.4990 H     1 <1>   0.2700 
 46 H        4.0490     6.9650     0.9770 H     1 <1>   0.1500 
 47 H        4.0360     6.1730    -1.6070 H     1 <1>   0.1500 
@<TRIPOS>BOND
  1   1   2  1   
  2   1   3  1   
  3   2   4  1   
  4   2   5  1   
  5   2  23  1   
  6   3   6  1   
  7   3   7  1   
  8   3  24  1   
  9   4   8  ar  
 10   4   9  ar  
 11   5  10  1   
 12   5  25  1   
 13   5  26  1   
 14   6  11  1   
 15   6  12  1   
 16   6  13  1   
 17   7  10  1   
 18   7  27  1   
 19   7  28  1   
 20   8  14  ar  
 21   8  29  1   
 22   9  15  ar  
 23   9  30  1   
 24  10  16  1   
 25  11  31  1   
 26  11  32  1   
 27  11  33  1   
 28  12  34  1   
 29  12  35  1   
 30  12  36  1   
 31  13  37  1   
 32  13  38  1   
 33  13  39  1   
 34  14  17  ar  
 35  14  40  1   
 36  15  17  ar  
 37  15  41  1   
 38  16  18  1   
 39  16  42  1   
 40  16  43  1   
 41  17  44  1   
 42  18  19  2   
 43  18  20  1   
 44  19  21  1   
 45  20  22  1   
 46  20  45  1   
 47  21  22  2   
 48  21  46  1   
 49  22  47  1   
@<TRIPOS>SUBSTRUCTURE
  1 ****   5 GROUP 4 **** **** 0

# MOE 2024.06 (io_trps.svl 2023.06)
