@<TRIPOS>MOLECULE
NONAME
47 48 1 0 0 
SMALL
USER_CHARGES


@<TRIPOS>ATOM
  1 S        0.4130     0.6510    -1.5270 S.o2  1 <1>   1.3330 
  2 O        0.5860    -0.6370    -2.1620 O.2   1 <1>  -0.6500 
  3 O       -0.3690     1.6740    -2.1820 O.2   1 <1>  -0.6500 
  4 N       -0.2870     0.3860    -0.0010 N.am  1 <1>  -0.8490 
  5 C        2.0410     1.3020    -1.1430 C.3   1 <1>  -0.0550 
  6 C       -0.8500     1.6020     0.5980 C.3   1 <1>   0.1160 
  7 C       -1.3120    -0.6630    -0.0410 C.3   1 <1>   0.1160 
  8 C        3.0000     0.2710    -0.5080 C.3   1 <1>  -0.0800 
  9 C        4.4350     0.7460    -0.3380 C.3   1 <1>   0.2200 
 10 C        2.6260    -0.1880     0.9080 C.3   1 <1>   0.1200 
 11 N        4.4750     2.1300     0.1900 N.am  1 <1>  -0.7300 
 12 C        4.9100    -0.2000     0.7540 C.3   1 <1>   0.1200 
 13 O        3.8240    -0.3100     1.6210 O.3   1 <1>  -0.5600 
 14 C        4.7420     3.2500    -0.5370 C.2   1 <1>   0.7160 
 15 O        4.8640     3.1380    -1.7410 O.2   1 <1>  -0.5700 
 16 C        4.8530     4.5340     0.1070 C.2   1 <1>  -0.0860 
 17 C        4.7960     4.8040     1.4770 C.2   1 <1>   0.1390 
 18 C        5.0350     5.7700    -0.4360 C.2   1 <1>  -0.3020 
 19 N        4.9240     6.0620     1.7540 N.2   1 <1>  -0.7070 
 20 N        5.0760     6.6680     0.5610 N.pl3 1 <1>   0.3140 
 21 C        5.2670     8.1400     0.4520 C.3   1 <1>   0.1760 
 22 C        4.1240     8.7800    -0.3490 C.3   1 <1>  -0.2400 
 23 C        6.6290     8.4660    -0.1770 C.3   1 <1>  -0.2400 
 24 H        2.4860     1.6470    -2.0570 H     1 <1>   0.0800 
 25 H        1.9390     2.1520    -0.4990 H     1 <1>   0.0800 
 26 H       -1.2000     1.3950     1.5950 H     1 <1>   0.0800 
 27 H       -1.6740     1.9670     0.0070 H     1 <1>   0.0800 
 28 H       -0.1000     2.3710     0.6550 H     1 <1>   0.0800 
 29 H       -1.7290    -0.8160     0.9400 H     1 <1>   0.0800 
 30 H       -0.8770    -1.5930    -0.3680 H     1 <1>   0.0800 
 31 H       -2.0990    -0.3920    -0.7240 H     1 <1>   0.0800 
 32 H        3.0190    -0.6030    -1.1360 H     1 <1>   0.0800 
 33 H        5.0170     0.6600    -1.2410 H     1 <1>   0.0800 
 34 H        2.1230    -1.1410     0.8990 H     1 <1>   0.0800 
 35 H        2.0180     0.5380     1.4190 H     1 <1>   0.0800 
 36 H        4.3140     2.1920     1.1960 H     1 <1>   0.3700 
 37 H        5.7690     0.1680     1.2870 H     1 <1>   0.0800 
 38 H        5.1160    -1.1780     0.3530 H     1 <1>   0.0800 
 39 H        4.6620     4.0560     2.2390 H     1 <1>   0.1500 
 40 H        5.1360     6.0290    -1.4740 H     1 <1>   0.1500 
 41 H        5.2470     8.5370     1.4520 H     1 <1>   0.0800 
 42 H        4.1210     8.4230    -1.3640 H     1 <1>   0.0800 
 43 H        4.2400     9.8490    -0.3640 H     1 <1>   0.0800 
 44 H        3.1800     8.5500     0.1120 H     1 <1>   0.0800 
 45 H        6.6820     8.0980    -1.1860 H     1 <1>   0.0800 
 46 H        7.4160     8.0190     0.4050 H     1 <1>   0.0800 
 47 H        6.7820     9.5300    -0.1910 H     1 <1>   0.0800 
@<TRIPOS>BOND
  1   1   2  2   
  2   1   3  2   
  3   1   4  am  
  4   1   5  1   
  5   4   6  1   
  6   4   7  1   
  7   5   8  1   
  8   5  24  1   
  9   5  25  1   
 10   6  26  1   
 11   6  27  1   
 12   6  28  1   
 13   7  29  1   
 14   7  30  1   
 15   7  31  1   
 16   8   9  1   
 17   8  10  1   
 18   8  32  1   
 19   9  11  1   
 20   9  12  1   
 21   9  33  1   
 22  10  13  1   
 23  10  34  1   
 24  10  35  1   
 25  11  14  am  
 26  11  36  1   
 27  12  13  1   
 28  12  37  1   
 29  12  38  1   
 30  14  15  2   
 31  14  16  1   
 32  16  17  1   
 33  16  18  2   
 34  17  19  2   
 35  17  39  1   
 36  18  20  1   
 37  18  40  1   
 38  19  20  1   
 39  20  21  1   
 40  21  22  1   
 41  21  23  1   
 42  21  41  1   
 43  22  42  1   
 44  22  43  1   
 45  22  44  1   
 46  23  45  1   
 47  23  46  1   
 48  23  47  1   
@<TRIPOS>SUBSTRUCTURE
  1 ****  11 GROUP 4 **** **** 0

# MOE 2024.06 (io_trps.svl 2023.06)
