@<TRIPOS>MOLECULE
NONAME
53 57 1 0 0 
SMALL
USER_CHARGES


@<TRIPOS>ATOM
  1 O       -2.1060     1.3700     1.8760 O.2   1 <1>  -0.5700 
  2 C       -1.0590     1.5820     1.3210 C.2   1 <1>   0.5950 
  3 C       -0.7680     2.7280     0.5120 C.2   1 <1>  -0.0860 
  4 C        0.0690     0.5660     1.4760 C.3   1 <1>  -0.0990 
  5 C       -1.4840     3.9260     0.2570 C.2   1 <1>  -0.0860 
  6 C        0.3870     2.8580    -0.1820 C.2   1 <1>  -0.0400 
  7 C        0.9750     0.4680     0.2240 C.3   1 <1>  -0.1600 
  8 C       -0.6600     4.6510    -0.5490 C.2   1 <1>  -0.0400 
  9 C       -2.7870     4.2940     0.7550 C.2   1 <1>   0.7160 
 10 O        0.4480     4.0010    -0.8070 O.3   1 <1>  -0.2800 
 11 C        1.5050     1.8390    -0.2430 C.3   1 <1>   0.0200 
 12 C       -0.8400     6.0290    -1.1500 C.3   1 <1>  -0.0600 
 13 O       -2.8990     5.2930     1.4440 O.2   1 <1>  -0.5700 
 14 N       -3.9180     3.5880     0.4100 N.am  1 <1>  -0.6600 
 15 C       -5.2620     3.9290     0.9620 C.3   1 <1>   0.1400 
 16 C       -3.9280     2.5290    -0.6430 C.3   1 <1>   0.1400 
 17 C       -6.1610     4.5300    -0.1430 C.3   1 <1>   0.1430 
 18 C       -5.2880     2.4530    -1.3620 C.3   1 <1>  -0.1600 
 19 C       -7.6030     4.4260     0.3260 C.ar  1 <1>   0.1670 
 20 C       -5.9230     3.8460    -1.5170 C.3   1 <1>  -0.1600 
 21 C       -5.9680     6.0660    -0.2440 C.3   1 <1>  -0.1600 
 22 N       -8.3330     3.3310     0.3300 N.ar  1 <1>  -0.6200 
 23 C       -8.0740     5.6270     0.7670 C.ar  1 <1>  -0.1430 
 24 C       -7.0290     6.7100     0.6630 C.3   1 <1>  -0.0160 
 25 C       -9.5650     3.4950     0.7900 C.ar  1 <1>   0.4770 
 26 C       -9.3670     5.6820     1.2250 C.ar  1 <1>   0.1600 
 27 N      -10.1300     4.6080     1.2400 N.ar  1 <1>  -0.6200 
 28 C      -10.4300     2.2580     0.8100 C.3   1 <1>  -0.0970 
 29 H       -0.3580    -0.3980     1.6860 H     1 <1>   0.0800 
 30 H        0.6590     0.8570     2.3270 H     1 <1>   0.0800 
 31 H        0.3970     0.0400    -0.5770 H     1 <1>   0.0800 
 32 H        1.8020    -0.1930     0.4190 H     1 <1>   0.0800 
 33 H        2.3080     2.1690     0.3930 H     1 <1>   0.0800 
 34 H        1.8760     1.7660    -1.2500 H     1 <1>   0.0800 
 35 H       -1.7830     6.4510    -0.8540 H     1 <1>   0.0800 
 36 H       -0.8060     5.9660    -2.2220 H     1 <1>   0.0800 
 37 H       -0.0510     6.6760    -0.8130 H     1 <1>   0.0800 
 38 H       -5.1820     4.6090     1.7930 H     1 <1>   0.0800 
 39 H       -5.7100     3.0240     1.3360 H     1 <1>   0.0800 
 40 H       -3.7040     1.5760    -0.1930 H     1 <1>   0.0800 
 41 H       -3.1640     2.7470    -1.3690 H     1 <1>   0.0800 
 42 H       -5.9520     1.8200    -0.7980 H     1 <1>   0.0800 
 43 H       -5.1550     1.9970    -2.3260 H     1 <1>   0.0800 
 44 H       -5.2500     4.4440    -2.1060 H     1 <1>   0.0800 
 45 H       -6.8520     3.7710    -2.0560 H     1 <1>   0.0800 
 46 H       -6.1620     6.3860    -1.2530 H     1 <1>   0.0800 
 47 H       -4.9720     6.3720     0.0240 H     1 <1>   0.0800 
 48 H       -7.4260     7.6130     0.2320 H     1 <1>   0.0800 
 49 H       -6.6200     6.9150     1.6380 H     1 <1>   0.0800 
 50 H       -9.7810     6.6080     1.5830 H     1 <1>   0.1500 
 51 H      -10.1640     1.6100    -0.0040 H     1 <1>   0.0800 
 52 H      -11.4650     2.5290     0.7160 H     1 <1>   0.0800 
 53 H      -10.2830     1.7400     1.7380 H     1 <1>   0.0800 
@<TRIPOS>BOND
  1   1   2  2   
  2   2   3  1   
  3   2   4  1   
  4   3   5  1   
  5   3   6  2   
  6   4   7  1   
  7   4  29  1   
  8   4  30  1   
  9   5   8  2   
 10   5   9  1   
 11   6  10  1   
 12   6  11  1   
 13   7  11  1   
 14   7  31  1   
 15   7  32  1   
 16   8  10  1   
 17   8  12  1   
 18   9  13  2   
 19   9  14  am  
 20  11  33  1   
 21  11  34  1   
 22  12  35  1   
 23  12  36  1   
 24  12  37  1   
 25  14  15  1   
 26  14  16  1   
 27  15  17  1   
 28  15  38  1   
 29  15  39  1   
 30  16  18  1   
 31  16  40  1   
 32  16  41  1   
 33  17  19  1   
 34  17  20  1   
 35  17  21  1   
 36  18  20  1   
 37  18  42  1   
 38  18  43  1   
 39  19  22  ar  
 40  19  23  ar  
 41  20  44  1   
 42  20  45  1   
 43  21  24  1   
 44  21  46  1   
 45  21  47  1   
 46  22  25  ar  
 47  23  24  1   
 48  23  26  ar  
 49  24  48  1   
 50  24  49  1   
 51  25  27  ar  
 52  25  28  1   
 53  26  27  ar  
 54  26  50  1   
 55  28  51  1   
 56  28  52  1   
 57  28  53  1   
@<TRIPOS>SUBSTRUCTURE
  1 ****  14 GROUP 4 **** **** 0

# MOE 2024.06 (io_trps.svl 2023.06)
