@<TRIPOS>MOLECULE
NONAME
60 63 1 0 0 
SMALL
USER_CHARGES


@<TRIPOS>ATOM
  1 O        1.7090     1.9040    -1.1020 O.co2 1 <1>  -0.9000 
  2 C        2.3190     1.4650    -0.1240 C.2   1 <1>   0.9060 
  3 O        2.1370     1.9370     1.0000 O.co2 1 <1>  -0.9000 
  4 C        3.5540     0.5690    -0.3610 C.3   1 <1>  -0.1060 
  5 C        4.7650     1.3830     0.1310 C.3   1 <1>   0.4230 
  6 C        3.7720     0.2780    -1.8820 C.3   1 <1>  -0.1600 
  7 C        3.4680    -0.7810     0.4000 C.3   1 <1>  -0.1600 
  8 N        4.6820     1.5730     1.6230 N.4   1 <1>  -0.9590 
  9 C        4.8740     2.7130    -0.6750 C.3   1 <1>   0.3430 
 10 C        4.1530     1.4920    -2.7590 C.3   1 <1>   0.3430 
 11 C        3.5670    -0.6100     1.9260 C.3   1 <1>  -0.1600 
 12 C        4.7360     0.2820     2.3560 C.3   1 <1>   0.3430 
 13 C        5.5990     2.6000     2.2050 C.3   1 <1>   0.2630 
 14 N        4.0900     2.7510    -1.9770 N.4   1 <1>  -0.9590 
 15 C        4.2470     4.0020    -2.7730 C.3   1 <1>   0.4860 
 16 C        4.3430     5.1580    -1.7960 C.ar  1 <1>  -0.1430 
 17 C        5.5920     5.5430    -1.3400 C.ar  1 <1>  -0.1500 
 18 C        3.2080     5.7470    -1.2640 C.ar  1 <1>  -0.1500 
 19 C        5.7200     6.4300    -0.2850 C.ar  1 <1>  -0.1430 
 20 C        3.3270     6.6910    -0.2600 C.ar  1 <1>  -0.1500 
 21 C        4.5810     7.0290     0.2440 C.ar  1 <1>   0.0820 
 22 C        7.0960     6.7140     0.3220 C.3   1 <1>   0.2390 
 23 O        4.7520     7.9230     1.2520 O.3   1 <1>  -0.3630 
 24 N        8.0060     5.5300     0.3140 N.pl3 1 <1>   0.3140 
 25 C        3.6570     8.5820     1.8530 C.3   1 <1>   0.0400 
 26 N        7.6310     4.2390     0.5570 N.2   1 <1>  -0.7070 
 27 C        9.3310     5.6000     0.0730 C.2   1 <1>  -0.3020 
 28 C        8.7340     3.5550     0.4680 C.2   1 <1>   0.1390 
 29 C        9.8290     4.3500     0.1650 C.2   1 <1>  -0.1500 
 30 H        5.6530     0.8140    -0.0790 H     1 <1>   0.0800 
 31 H        2.8670    -0.1490    -2.2830 H     1 <1>   0.0800 
 32 H        4.5370    -0.4670    -2.0130 H     1 <1>   0.0800 
 33 H        2.5390    -1.2710     0.1580 H     1 <1>   0.0800 
 34 H        4.2670    -1.4290     0.0850 H     1 <1>   0.0800 
 35 H        3.6860     1.9050     1.7510 H     1 <1>   0.4500 
 36 H        5.9140     2.9110    -0.8730 H     1 <1>   0.0800 
 37 H        4.5050     3.5040    -0.0430 H     1 <1>   0.0800 
 38 H        3.4660     1.5500    -3.5890 H     1 <1>   0.0800 
 39 H        5.1480     1.3590    -3.1530 H     1 <1>   0.0800 
 40 H        3.6750    -1.5760     2.3870 H     1 <1>   0.0800 
 41 H        2.6510    -0.1870     2.3050 H     1 <1>   0.0800 
 42 H        5.6700    -0.2160     2.1510 H     1 <1>   0.0800 
 43 H        4.6700     0.4600     3.4170 H     1 <1>   0.0800 
 44 H        6.6280     2.3220     2.0510 H     1 <1>   0.0800 
 45 H        5.4210     2.6990     3.2630 H     1 <1>   0.0800 
 46 H        5.4330     3.5620     1.7470 H     1 <1>   0.0800 
 47 H        3.0780     2.7690    -1.6740 H     1 <1>   0.4500 
 48 H        5.1440     3.9560    -3.3670 H     1 <1>   0.0800 
 49 H        3.4000     4.1360    -3.4260 H     1 <1>   0.0800 
 50 H        6.4740     5.1050    -1.7780 H     1 <1>   0.1500 
 51 H        2.2250     5.4610    -1.6050 H     1 <1>   0.1500 
 52 H        2.4290     7.1350     0.1270 H     1 <1>   0.1500 
 53 H        6.9960     7.0260     1.3450 H     1 <1>   0.0800 
 54 H        7.5620     7.5120    -0.2250 H     1 <1>   0.0800 
 55 H        4.0380     9.2350     2.6180 H     1 <1>   0.0800 
 56 H        3.0050     7.8480     2.2930 H     1 <1>   0.0800 
 57 H        3.1420     9.1580     1.1060 H     1 <1>   0.0800 
 58 H        9.8460     6.5190    -0.1440 H     1 <1>   0.1500 
 59 H        8.7990     2.4900     0.6140 H     1 <1>   0.1500 
 60 H       10.8450     4.0180     0.0390 H     1 <1>   0.1500 
@<TRIPOS>BOND
  1   1   2  ar  
  2   2   3  ar  
  3   2   4  1   
  4   4   5  1   
  5   4   6  1   
  6   4   7  1   
  7   5   8  1   
  8   5   9  1   
  9   5  30  1   
 10   6  10  1   
 11   6  31  1   
 12   6  32  1   
 13   7  11  1   
 14   7  33  1   
 15   7  34  1   
 16   8  12  1   
 17   8  13  1   
 18   8  35  1   
 19   9  14  1   
 20   9  36  1   
 21   9  37  1   
 22  10  14  1   
 23  10  38  1   
 24  10  39  1   
 25  11  12  1   
 26  11  40  1   
 27  11  41  1   
 28  12  42  1   
 29  12  43  1   
 30  13  44  1   
 31  13  45  1   
 32  13  46  1   
 33  14  15  1   
 34  14  47  1   
 35  15  16  1   
 36  15  48  1   
 37  15  49  1   
 38  16  17  ar  
 39  16  18  ar  
 40  17  19  ar  
 41  17  50  1   
 42  18  20  ar  
 43  18  51  1   
 44  19  21  ar  
 45  19  22  1   
 46  20  21  ar  
 47  20  52  1   
 48  21  23  1   
 49  22  24  1   
 50  22  53  1   
 51  22  54  1   
 52  23  25  1   
 53  24  26  1   
 54  24  27  1   
 55  25  55  1   
 56  25  56  1   
 57  25  57  1   
 58  26  28  2   
 59  27  29  2   
 60  27  58  1   
 61  28  29  1   
 62  28  59  1   
 63  29  60  1   
@<TRIPOS>SUBSTRUCTURE
  1 ****   9 GROUP 4 **** **** 0

# MOE 2024.06 (io_trps.svl 2023.06)
