@<TRIPOS>MOLECULE
NONAME
57 60 1 0 0 
SMALL
USER_CHARGES


@<TRIPOS>ATOM
  1 O       -0.3530    -0.1470    -0.4070 O.2   1 <1>  -0.5700 
  2 C       -1.3090     0.5500    -0.1280 C.2   1 <1>   0.7160 
  3 N       -2.4710    -0.0400     0.2680 N.am  1 <1>  -0.7300 
  4 C       -1.2390     1.9810    -0.2130 C.2   1 <1>  -0.0860 
  5 C       -2.8720    -1.4500     0.3290 C.3   1 <1>   0.3000 
  6 C       -2.3190     2.8690    -0.0890 C.2   1 <1>   0.3720 
  7 C       -0.1860     2.8130    -0.4510 C.2   1 <1>   0.0870 
  8 C       -2.6990    -2.0950    -1.0600 C.3   1 <1>  -0.1600 
  9 C       -4.3610    -1.4500     0.7270 C.3   1 <1>  -0.1600 
 10 C       -2.0210    -2.1430     1.4010 C.3   1 <1>  -0.2400 
 11 N       -1.9460     4.0880    -0.2550 N.2   1 <1>  -0.4100 
 12 N       -3.6520     2.5130     0.1730 N.pl3 1 <1>  -0.8210 
 13 O       -0.6610     4.0330    -0.4730 O.3   1 <1>  -0.0190 
 14 C        1.2270     2.6140    -0.6590 C.ar  1 <1>   0.0530 
 15 C       -3.3600    -3.4790    -1.1750 C.3   1 <1>  -0.1600 
 16 C       -5.0260    -2.8320     0.6180 C.3   1 <1>  -0.1600 
 17 C       -4.2000     3.0830     1.4360 C.3   1 <1>   0.2090 
 18 C       -4.5890     2.8400    -0.9390 C.3   1 <1>   0.2090 
 19 C        1.9150     3.3640    -1.6130 C.ar  1 <1>  -0.1500 
 20 C        1.9670     1.6950     0.0860 C.ar  1 <1>  -0.1500 
 21 C       -4.8410    -3.4240    -0.7850 C.3   1 <1>  -0.1600 
 22 C       -5.6500     3.4280     1.1350 C.3   1 <1>  -0.1600 
 23 C       -5.6440     3.7640    -0.3470 C.3   1 <1>  -0.1600 
 24 C        3.2710     3.1990    -1.8200 C.ar  1 <1>  -0.1500 
 25 C        3.3240     1.5210    -0.1150 C.ar  1 <1>  -0.1500 
 26 C        3.9890     2.2770    -1.0760 C.ar  1 <1>   0.0830 
 27 O        5.3130     2.1710    -1.3390 O.3   1 <1>  -0.3620 
 28 C        6.1220     1.2290    -0.6710 C.3   1 <1>   0.0400 
 29 H       -3.2440     0.6270     0.3920 H     1 <1>   0.3700 
 30 H       -1.6530    -2.1920    -1.2900 H     1 <1>   0.0800 
 31 H       -3.1390    -1.4490    -1.7990 H     1 <1>   0.0800 
 32 H       -4.8930    -0.7780     0.0760 H     1 <1>   0.0800 
 33 H       -4.4660    -1.0870     1.7340 H     1 <1>   0.0800 
 34 H       -0.9850    -2.1440     1.1160 H     1 <1>   0.0800 
 35 H       -2.3230    -3.1640     1.5320 H     1 <1>   0.0800 
 36 H       -2.1230    -1.6370     2.3430 H     1 <1>   0.0800 
 37 H       -2.8460    -4.1800    -0.5390 H     1 <1>   0.0800 
 38 H       -3.2690    -3.8340    -2.1870 H     1 <1>   0.0800 
 39 H       -6.0770    -2.7410     0.8310 H     1 <1>   0.0800 
 40 H       -4.6060    -3.5020     1.3480 H     1 <1>   0.0800 
 41 H       -3.6600     3.9760     1.7080 H     1 <1>   0.0800 
 42 H       -4.1260     2.3680     2.2370 H     1 <1>   0.0800 
 43 H       -5.0470     1.9280    -1.2830 H     1 <1>   0.0800 
 44 H       -4.0820     3.3110    -1.7650 H     1 <1>   0.0800 
 45 H        1.3750     4.0850    -2.2020 H     1 <1>   0.1500 
 46 H        1.4700     1.1060     0.8350 H     1 <1>   0.1500 
 47 H       -5.2600    -4.4150    -0.8170 H     1 <1>   0.0800 
 48 H       -5.3740    -2.8190    -1.4990 H     1 <1>   0.0800 
 49 H       -6.0010     4.2440     1.7410 H     1 <1>   0.0800 
 50 H       -6.2630     2.5620     1.3160 H     1 <1>   0.0800 
 51 H       -6.6060     3.6240    -0.8080 H     1 <1>   0.0800 
 52 H       -5.3290     4.7840    -0.4900 H     1 <1>   0.0800 
 53 H        3.7860     3.7840    -2.5600 H     1 <1>   0.1500 
 54 H        3.8430     0.7960     0.4810 H     1 <1>   0.1500 
 55 H        7.1230     1.3170    -1.0540 H     1 <1>   0.0800 
 56 H        5.7400     0.2420    -0.8650 H     1 <1>   0.0800 
 57 H        6.1130     1.4460     0.3830 H     1 <1>   0.0800 
@<TRIPOS>BOND
  1   1   2  2   
  2   2   3  am  
  3   2   4  1   
  4   3   5  1   
  5   3  29  1   
  6   4   6  1   
  7   4   7  2   
  8   5   8  1   
  9   5   9  1   
 10   5  10  1   
 11   6  11  2   
 12   6  12  1   
 13   7  13  1   
 14   7  14  1   
 15   8  15  1   
 16   8  30  1   
 17   8  31  1   
 18   9  16  1   
 19   9  32  1   
 20   9  33  1   
 21  10  34  1   
 22  10  35  1   
 23  10  36  1   
 24  11  13  1   
 25  12  17  1   
 26  12  18  1   
 27  14  19  ar  
 28  14  20  ar  
 29  15  21  1   
 30  15  37  1   
 31  15  38  1   
 32  16  21  1   
 33  16  39  1   
 34  16  40  1   
 35  17  22  1   
 36  17  41  1   
 37  17  42  1   
 38  18  23  1   
 39  18  43  1   
 40  18  44  1   
 41  19  24  ar  
 42  19  45  1   
 43  20  25  ar  
 44  20  46  1   
 45  21  47  1   
 46  21  48  1   
 47  22  23  1   
 48  22  49  1   
 49  22  50  1   
 50  23  51  1   
 51  23  52  1   
 52  24  26  ar  
 53  24  53  1   
 54  25  26  ar  
 55  25  54  1   
 56  26  27  1   
 57  27  28  1   
 58  28  55  1   
 59  28  56  1   
 60  28  57  1   
@<TRIPOS>SUBSTRUCTURE
  1 ****   2 GROUP 4 **** **** 0

# MOE 2024.06 (io_trps.svl 2023.06)
