@<TRIPOS>MOLECULE
NONAME
52 55 1 0 0 
SMALL
USER_CHARGES


@<TRIPOS>ATOM
  1 O       -3.3370     2.0610    -1.3980 O.2   1 <1>  -0.5700 
  2 C       -2.8180     1.8410    -0.3330 C.2   1 <1>   0.5690 
  3 N       -2.4720     0.5900     0.0530 N.am  1 <1>  -0.7300 
  4 C       -2.5410     2.9980     0.6060 C.3   1 <1>  -0.0990 
  5 C       -2.6520    -0.6230    -0.7750 C.3   1 <1>   0.2200 
  6 C       -1.1190     3.5530     0.4190 C.3   1 <1>  -0.1600 
  7 C       -3.8370    -1.4160    -0.2490 C.3   1 <1>  -0.0800 
  8 C       -1.4990    -1.5870    -0.5230 C.3   1 <1>   0.1200 
  9 C       -0.8530     4.7610     1.3300 C.3   1 <1>   0.0200 
 10 C       -3.2060    -2.2490     0.8740 C.3   1 <1>   0.1200 
 11 C       -4.4590    -2.2950    -1.3510 C.3   1 <1>  -0.0170 
 12 O       -1.8240    -2.2670     0.6520 O.3   1 <1>  -0.5600 
 13 C        0.5450     5.3150     1.1300 C.2   1 <1>   0.2980 
 14 C       -5.6610    -3.0700    -0.8340 C.ar  1 <1>  -0.1440 
 15 O        1.5700     4.5930     1.5030 O.3   1 <1>  -0.0190 
 16 N        0.8290     6.4430     0.6250 N.2   1 <1>  -0.5650 
 17 C       -5.6050    -4.4240    -0.5700 C.ar  1 <1>  -0.1500 
 18 C       -6.8750    -2.4550    -0.6050 C.ar  1 <1>  -0.1500 
 19 N        2.5960     5.3250     1.2070 N.2   1 <1>  -0.4100 
 20 C        2.1630     6.4180     0.6860 C.2   1 <1>   0.4620 
 21 C       -6.7320    -5.0760    -0.0960 C.ar  1 <1>   0.1600 
 22 C       -7.9420    -3.2000    -0.1310 C.ar  1 <1>   0.1600 
 23 C        2.9870     7.5140     0.2130 C.ar  1 <1>   0.0540 
 24 N       -7.8990    -4.4960     0.1310 N.ar  1 <1>  -0.6200 
 25 C        4.3730     7.4990     0.3020 C.ar  1 <1>  -0.1500 
 26 C        2.4600     8.6610    -0.3660 C.ar  1 <1>  -0.1500 
 27 C        5.1180     8.5660    -0.1630 C.ar  1 <1>   0.1600 
 28 C        3.2910     9.6750    -0.8010 C.ar  1 <1>   0.1600 
 29 N        4.6110     9.6560    -0.7130 N.ar  1 <1>  -0.6200 
 30 H       -2.0510     0.4150     0.9670 H     1 <1>   0.3700 
 31 H       -3.2610     3.7710     0.4030 H     1 <1>   0.0800 
 32 H       -2.6830     2.6700     1.6190 H     1 <1>   0.0800 
 33 H       -2.7430    -0.3570    -1.8150 H     1 <1>   0.0800 
 34 H       -0.4010     2.7780     0.6270 H     1 <1>   0.0800 
 35 H       -0.9910     3.8530    -0.6080 H     1 <1>   0.0800 
 36 H       -4.5990    -0.7620     0.1380 H     1 <1>   0.0800 
 37 H       -0.5550    -1.0860    -0.4040 H     1 <1>   0.0800 
 38 H       -1.4290    -2.3130    -1.3130 H     1 <1>   0.0800 
 39 H       -0.9670     4.4800     2.3620 H     1 <1>   0.0800 
 40 H       -1.5640     5.5390     1.1150 H     1 <1>   0.0800 
 41 H       -3.5660    -3.2630     0.9000 H     1 <1>   0.0800 
 42 H       -3.3740    -1.7880     1.8310 H     1 <1>   0.0800 
 43 H       -3.7270    -2.9810    -1.7400 H     1 <1>   0.0800 
 44 H       -4.7800    -1.6680    -2.1660 H     1 <1>   0.0800 
 45 H       -4.6980    -4.9790    -0.7250 H     1 <1>   0.1500 
 46 H       -7.0020    -1.4040    -0.7920 H     1 <1>   0.1500 
 47 H       -6.6690    -6.1320     0.1060 H     1 <1>   0.1500 
 48 H       -8.8810    -2.7020     0.0420 H     1 <1>   0.1500 
 49 H        4.8730     6.6520     0.7350 H     1 <1>   0.1500 
 50 H        1.3950     8.7630    -0.4790 H     1 <1>   0.1500 
 51 H        6.1910     8.5220    -0.0790 H     1 <1>   0.1500 
 52 H        2.8490    10.5510    -1.2450 H     1 <1>   0.1500 
@<TRIPOS>BOND
  1   1   2  2   
  2   2   3  am  
  3   2   4  1   
  4   3   5  1   
  5   3  30  1   
  6   4   6  1   
  7   4  31  1   
  8   4  32  1   
  9   5   7  1   
 10   5   8  1   
 11   5  33  1   
 12   6   9  1   
 13   6  34  1   
 14   6  35  1   
 15   7  10  1   
 16   7  11  1   
 17   7  36  1   
 18   8  12  1   
 19   8  37  1   
 20   8  38  1   
 21   9  13  1   
 22   9  39  1   
 23   9  40  1   
 24  10  12  1   
 25  10  41  1   
 26  10  42  1   
 27  11  14  1   
 28  11  43  1   
 29  11  44  1   
 30  13  15  1   
 31  13  16  2   
 32  14  17  ar  
 33  14  18  ar  
 34  15  19  1   
 35  16  20  1   
 36  17  21  ar  
 37  17  45  1   
 38  18  22  ar  
 39  18  46  1   
 40  19  20  2   
 41  20  23  1   
 42  21  24  ar  
 43  21  47  1   
 44  22  24  ar  
 45  22  48  1   
 46  23  25  ar  
 47  23  26  ar  
 48  25  27  ar  
 49  25  49  1   
 50  26  28  ar  
 51  26  50  1   
 52  27  29  ar  
 53  27  51  1   
 54  28  29  ar  
 55  28  52  1   
@<TRIPOS>SUBSTRUCTURE
  1 ****   6 GROUP 4 **** **** 0

# MOE 2024.06 (io_trps.svl 2023.06)
