@<TRIPOS>MOLECULE
NONAME
22 22 1 0 0 
SMALL
USER_CHARGES


@<TRIPOS>ATOM
  1 F       -0.4990     0.8780    -0.6880 F     1 <1>  -0.3400 
  2 C       -1.7300     0.3940    -0.8360 C.3   1 <1>   1.0810 
  3 F       -2.3160     1.1480    -1.7610 F     1 <1>  -0.3400 
  4 F       -1.5720    -0.8030    -1.3960 F     1 <1>  -0.3400 
  5 C       -2.5090     0.3430     0.5000 C.2   1 <1>   0.4480 
  6 O       -3.2010    -0.5770     0.8500 O.2   1 <1>  -0.5700 
  7 C       -2.3410     1.5290     1.4260 C.3   1 <1>   0.0810 
  8 C       -2.7360     2.8020     0.7280 C.2   1 <1>   0.2980 
  9 O       -3.9790     2.9640     0.3490 O.3   1 <1>  -0.2800 
 10 N       -1.9550     3.7740     0.4350 N.2   1 <1>  -0.5650 
 11 C       -4.0150     4.1270    -0.2370 C.2   1 <1>  -0.0400 
 12 C       -2.7740     4.6410    -0.1920 C.2   1 <1>   0.0460 
 13 C       -5.3310     4.6190    -0.8020 C.3   1 <1>  -0.0600 
 14 C       -2.2270     5.9520    -0.7120 C.3   1 <1>  -0.0590 
 15 H       -1.3200     1.5970     1.7510 H     1 <1>   0.0800 
 16 H       -2.9630     1.4020     2.2930 H     1 <1>   0.0800 
 17 H       -5.6860     3.9280    -1.5450 H     1 <1>   0.0800 
 18 H       -5.2130     5.5860    -1.2530 H     1 <1>   0.0800 
 19 H       -6.0600     4.6870    -0.0150 H     1 <1>   0.0800 
 20 H       -1.4490     5.7570    -1.4270 H     1 <1>   0.0800 
 21 H       -1.8160     6.5180     0.1030 H     1 <1>   0.0800 
 22 H       -3.0000     6.5270    -1.1840 H     1 <1>   0.0800 
@<TRIPOS>BOND
  1   1   2  1   
  2   2   3  1   
  3   2   4  1   
  4   2   5  1   
  5   5   6  2   
  6   5   7  1   
  7   7   8  1   
  8   7  15  1   
  9   7  16  1   
 10   8   9  1   
 11   8  10  2   
 12   9  11  1   
 13  10  12  1   
 14  11  12  2   
 15  11  13  1   
 16  12  14  1   
 17  13  17  1   
 18  13  18  1   
 19  13  19  1   
 20  14  20  1   
 21  14  21  1   
 22  14  22  1   
@<TRIPOS>SUBSTRUCTURE
  1 ****   8 GROUP 4 **** **** 0

# MOE 2024.06 (io_trps.svl 2023.06)
