@<TRIPOS>MOLECULE
NONAME
49 51 1 0 0 
SMALL
USER_CHARGES


@<TRIPOS>ATOM
  1 O        0.3660     0.4130     0.5330 O.2   1 <1>  -0.5700 
  2 C        1.1210    -0.5140     0.2780 C.2   1 <1>   0.5650 
  3 N        2.4950    -0.5280     0.6420 N.pl3 1 <1>   0.5610 
  4 C        0.6260    -1.6640    -0.4060 C.2   1 <1>  -0.1360 
  5 N        3.2560     0.4010     1.3060 N.2   1 <1>  -0.7070 
  6 C        3.2760    -1.6160     0.3260 C.2   1 <1>  -0.0680 
  7 C        1.4060    -2.7380    -0.7100 C.2   1 <1>  -0.0380 
  8 C        4.4430    -0.1090     1.3760 C.2   1 <1>   0.1080 
  9 N        2.7430    -2.7240    -0.3560 N.pl3 1 <1>  -0.5840 
 10 C        4.5230    -1.3640     0.7830 C.2   1 <1>  -0.1500 
 11 C        0.8490    -3.9690    -1.4210 C.3   1 <1>   0.4810 
 12 C        5.5910     0.6160     2.0390 C.3   1 <1>  -0.0590 
 13 N        0.8330    -5.1090    -0.4590 N.4   1 <1>  -0.9590 
 14 C        0.6900    -6.4510    -1.1050 C.3   1 <1>   0.3430 
 15 C       -0.2110    -4.9340     0.6060 C.3   1 <1>   0.2630 
 16 C       -0.5380    -6.5420    -2.0280 C.3   1 <1>  -0.1600 
 17 C       -1.1330    -7.9650    -2.0420 C.3   1 <1>   0.0960 
 18 N       -1.6140    -8.4150    -0.7090 N.pl3 1 <1>   0.3140 
 19 N       -1.6380    -7.6100     0.3790 N.2   1 <1>  -0.7070 
 20 C       -2.0760    -9.6480    -0.4100 C.2   1 <1>  -0.3320 
 21 C       -2.1210    -8.3490     1.3290 C.2   1 <1>   0.1080 
 22 C       -2.4110    -9.6350     0.8960 C.2   1 <1>  -0.1500 
 23 C       -2.1920   -10.8070    -1.3880 C.3   1 <1>  -0.0600 
 24 C       -2.3380    -7.8450     2.7370 C.3   1 <1>  -0.0590 
 25 H       -0.4170    -1.6190    -0.6620 H     1 <1>   0.1500 
 26 H        3.4180    -3.4450    -0.6540 H     1 <1>   0.4000 
 27 H        5.4040    -1.9760     0.7200 H     1 <1>   0.1500 
 28 H        1.4750    -4.2020    -2.2660 H     1 <1>   0.0800 
 29 H       -0.1490    -3.7730    -1.7770 H     1 <1>   0.0800 
 30 H        5.7540     1.5560     1.5450 H     1 <1>   0.0800 
 31 H        6.4900     0.0310     1.9900 H     1 <1>   0.0800 
 32 H        5.3480     0.8050     3.0690 H     1 <1>   0.0800 
 33 H        1.7370    -5.0860     0.0300 H     1 <1>   0.4500 
 34 H        0.6030    -7.1940    -0.3270 H     1 <1>   0.0800 
 35 H        1.5770    -6.6850    -1.6720 H     1 <1>   0.0800 
 36 H       -1.1990    -4.9270     0.1750 H     1 <1>   0.0800 
 37 H       -0.0570    -4.0130     1.1430 H     1 <1>   0.0800 
 38 H       -0.1650    -5.7530     1.3080 H     1 <1>   0.0800 
 39 H       -0.2480    -6.2810    -3.0300 H     1 <1>   0.0800 
 40 H       -1.3190    -5.8710    -1.7210 H     1 <1>   0.0800 
 41 H       -0.3990    -8.6700    -2.3870 H     1 <1>   0.0800 
 42 H       -1.9700    -7.9970    -2.7160 H     1 <1>   0.0800 
 43 H       -2.8180   -10.4300     1.4960 H     1 <1>   0.1500 
 44 H       -2.8420   -10.5460    -2.2040 H     1 <1>   0.0800 
 45 H       -2.6030   -11.6680    -0.8910 H     1 <1>   0.0800 
 46 H       -1.2250   -11.0710    -1.7760 H     1 <1>   0.0800 
 47 H       -2.9780    -6.9830     2.7170 H     1 <1>   0.0800 
 48 H       -1.3950    -7.5760     3.1760 H     1 <1>   0.0800 
 49 H       -2.7990    -8.6070     3.3380 H     1 <1>   0.0800 
@<TRIPOS>BOND
  1   1   2  2   
  2   2   3  1   
  3   2   4  1   
  4   3   5  1   
  5   3   6  1   
  6   4   7  2   
  7   4  25  1   
  8   5   8  2   
  9   6   9  1   
 10   6  10  2   
 11   7   9  1   
 12   7  11  1   
 13   8  10  1   
 14   8  12  1   
 15   9  26  1   
 16  10  27  1   
 17  11  13  1   
 18  11  28  1   
 19  11  29  1   
 20  12  30  1   
 21  12  31  1   
 22  12  32  1   
 23  13  14  1   
 24  13  15  1   
 25  13  33  1   
 26  14  16  1   
 27  14  34  1   
 28  14  35  1   
 29  15  36  1   
 30  15  37  1   
 31  15  38  1   
 32  16  17  1   
 33  16  39  1   
 34  16  40  1   
 35  17  18  1   
 36  17  41  1   
 37  17  42  1   
 38  18  19  1   
 39  18  20  1   
 40  19  21  2   
 41  20  22  2   
 42  20  23  1   
 43  21  22  1   
 44  21  24  1   
 45  22  43  1   
 46  23  44  1   
 47  23  45  1   
 48  23  46  1   
 49  24  47  1   
 50  24  48  1   
 51  24  49  1   
@<TRIPOS>SUBSTRUCTURE
  1 ****  13 GROUP 4 **** **** 0

# MOE 2024.06 (io_trps.svl 2023.06)
