@<TRIPOS>MOLECULE
NONAME
48 50 1 0 0 
SMALL
USER_CHARGES


@<TRIPOS>ATOM
  1 S        0.2410     0.8690    -0.9080 S.o2  1 <1>   1.3330 
  2 O        0.2010     1.9840    -1.8280 O.2   1 <1>  -0.6500 
  3 O        0.1140    -0.4720    -1.4340 O.2   1 <1>  -0.6500 
  4 N        1.6770     0.9330    -0.0040 N.am  1 <1>  -0.8490 
  5 C       -1.0450     1.0750     0.3350 C.3   1 <1>  -0.0550 
  6 C        2.3270    -0.3650     0.1950 C.3   1 <1>   0.1160 
  7 C        2.6410     1.9340    -0.4700 C.3   1 <1>   0.1160 
  8 C       -1.2500     2.4520     1.0140 C.3   1 <1>  -0.0800 
  9 C       -1.6120     3.5880     0.0460 C.3   1 <1>   0.2000 
 10 C       -0.0600     2.9700     1.8380 C.3   1 <1>   0.1400 
 11 O       -2.6270     4.3280     0.6340 O.3   1 <1>  -0.6800 
 12 C       -0.3750     4.4820    -0.0500 C.3   1 <1>   0.1400 
 13 N        0.3820     4.2350     1.2020 N.am  1 <1>  -0.6600 
 14 C        1.5980     4.8180     1.4880 C.2   1 <1>   0.5440 
 15 O        2.3860     4.1970     2.1770 O.2   1 <1>  -0.5700 
 16 C        1.9620     6.1250     0.9780 C.ar  1 <1>   0.0860 
 17 C        3.2170     6.3570     0.4360 C.ar  1 <1>  -0.1500 
 18 C        1.0560     7.2070     1.0310 C.ar  1 <1>  -0.1500 
 19 C        3.5560     7.6180    -0.0580 C.ar  1 <1>  -0.1520 
 20 C        1.3800     8.4520     0.5470 C.ar  1 <1>  -0.1500 
 21 N        4.7170     8.0820    -0.6310 N.pl3 1 <1>   0.0480 
 22 C        2.6430     8.6660    -0.0100 C.ar  1 <1>   0.0000 
 23 C        4.5330     9.3990    -0.9400 C.2   1 <1>  -0.3020 
 24 C        5.9460     7.3030    -0.8510 C.3   1 <1>   0.0160 
 25 C        3.2850     9.7840    -0.5770 C.2   1 <1>  -0.1500 
 26 H       -1.9780     0.8130    -0.1260 H     1 <1>   0.0800 
 27 H       -0.8750     0.3480     1.1060 H     1 <1>   0.0800 
 28 H        3.1690    -0.2610     0.8580 H     1 <1>   0.0800 
 29 H        2.6660    -0.7610    -0.7480 H     1 <1>   0.0800 
 30 H        1.6330    -1.0620     0.6330 H     1 <1>   0.0800 
 31 H        3.4730     1.9920     0.2110 H     1 <1>   0.0800 
 32 H        2.1790     2.9040    -0.5110 H     1 <1>   0.0800 
 33 H        2.9990     1.6790    -1.4530 H     1 <1>   0.0800 
 34 H       -2.0700     2.3030     1.6970 H     1 <1>   0.0800 
 35 H       -1.9580     3.2520    -0.9170 H     1 <1>   0.0800 
 36 H        0.7500     2.2640     1.8830 H     1 <1>   0.0800 
 37 H       -0.3710     3.1840     2.8460 H     1 <1>   0.0800 
 38 H       -2.2850     4.7400     1.4520 H     1 <1>   0.4000 
 39 H       -0.6510     5.5150    -0.1620 H     1 <1>   0.0800 
 40 H        0.2330     4.1970    -0.8890 H     1 <1>   0.0800 
 41 H        3.9350     5.5570     0.4030 H     1 <1>   0.1500 
 42 H        0.0910     7.0420     1.4740 H     1 <1>   0.1500 
 43 H        0.6840     9.2710     0.5890 H     1 <1>   0.1500 
 44 H        5.3030     9.9910    -1.4010 H     1 <1>   0.1500 
 45 H        6.6580     7.8970    -1.3930 H     1 <1>   0.0800 
 46 H        5.7090     6.4210    -1.4180 H     1 <1>   0.0800 
 47 H        6.3600     7.0220     0.1000 H     1 <1>   0.0800 
 48 H        2.8310    10.7530    -0.6830 H     1 <1>   0.1500 
@<TRIPOS>BOND
  1   1   2  2   
  2   1   3  2   
  3   1   4  am  
  4   1   5  1   
  5   4   6  1   
  6   4   7  1   
  7   5   8  1   
  8   5  26  1   
  9   5  27  1   
 10   6  28  1   
 11   6  29  1   
 12   6  30  1   
 13   7  31  1   
 14   7  32  1   
 15   7  33  1   
 16   8   9  1   
 17   8  10  1   
 18   8  34  1   
 19   9  11  1   
 20   9  12  1   
 21   9  35  1   
 22  10  13  1   
 23  10  36  1   
 24  10  37  1   
 25  11  38  1   
 26  12  13  1   
 27  12  39  1   
 28  12  40  1   
 29  13  14  am  
 30  14  15  2   
 31  14  16  1   
 32  16  17  ar  
 33  16  18  ar  
 34  17  19  ar  
 35  17  41  1   
 36  18  20  ar  
 37  18  42  1   
 38  19  21  1   
 39  19  22  ar  
 40  20  22  ar  
 41  20  43  1   
 42  21  23  1   
 43  21  24  1   
 44  22  25  1   
 45  23  25  2   
 46  23  44  1   
 47  24  45  1   
 48  24  46  1   
 49  24  47  1   
 50  25  48  1   
@<TRIPOS>SUBSTRUCTURE
  1 ****  14 GROUP 4 **** **** 0

# MOE 2024.06 (io_trps.svl 2023.06)
