@<TRIPOS>MOLECULE
NONAME
45 46 1 0 0 
SMALL
USER_CHARGES


@<TRIPOS>ATOM
  1 CL       1.5320    -1.2240     2.2950 Cl    1 <1>  -0.1770 
  2 C        0.8160    -2.4140     1.2420 C.ar  1 <1>   0.1770 
  3 C        1.1030    -3.7500     1.4370 C.ar  1 <1>  -0.1500 
  4 C       -0.0310    -1.9990     0.2280 C.ar  1 <1>  -0.1500 
  5 C        0.5140    -4.6620     0.5840 C.ar  1 <1>   0.1900 
  6 C       -0.6110    -2.9350    -0.6170 C.ar  1 <1>  -0.1500 
  7 F        0.7690    -5.9310     0.7600 F     1 <1>  -0.1900 
  8 C       -0.3420    -4.2880    -0.4430 C.ar  1 <1>  -0.1440 
  9 C       -0.9570    -5.3370    -1.3510 C.3   1 <1>   0.4870 
 10 N       -1.9010    -6.1810    -0.5720 N.4   1 <1>  -0.9590 
 11 C       -2.4120    -7.3440    -1.3520 C.3   1 <1>   0.3430 
 12 C       -3.0180    -5.4210     0.0520 C.3   1 <1>   0.3430 
 13 C       -3.0920    -8.3420    -0.3940 C.3   1 <1>   0.2000 
 14 C       -3.7950    -6.3310     1.0070 C.3   1 <1>  -0.1600 
 15 O       -2.0800    -8.7640     0.4720 O.3   1 <1>  -0.6800 
 16 C       -4.2570    -7.6980     0.4210 C.3   1 <1>   0.0000 
 17 C       -4.6180    -8.6380     1.6100 C.3   1 <1>   0.1200 
 18 C       -5.5580    -7.5500    -0.4330 C.3   1 <1>  -0.1600 
 19 O       -5.6720    -8.1330     2.3600 O.3   1 <1>  -0.6800 
 20 C       -5.5000    -6.9140    -1.8330 C.3   1 <1>  -0.1600 
 21 C       -6.9110    -6.7510    -2.4050 C.3   1 <1>  -0.2400 
 22 H        1.7630    -4.0650     2.2250 H     1 <1>   0.1500 
 23 H       -0.2280    -0.9470     0.1050 H     1 <1>   0.1500 
 24 H       -1.2630    -2.5930    -1.4050 H     1 <1>   0.1500 
 25 H       -0.1700    -5.9520    -1.7590 H     1 <1>   0.0800 
 26 H       -1.4740    -4.8590    -2.1660 H     1 <1>   0.0800 
 27 H       -1.3580    -6.6130     0.1980 H     1 <1>   0.4500 
 28 H       -3.0940    -7.0080    -2.1100 H     1 <1>   0.0800 
 29 H       -1.5950    -7.8500    -1.8410 H     1 <1>   0.0800 
 30 H       -2.6280    -4.5840     0.6090 H     1 <1>   0.0800 
 31 H       -3.6730    -5.0340    -0.7100 H     1 <1>   0.0800 
 32 H       -3.4400    -9.2030    -0.9410 H     1 <1>   0.0800 
 33 H       -3.1560    -6.5110     1.8540 H     1 <1>   0.0800 
 34 H       -4.6470    -5.7870     1.3760 H     1 <1>   0.0800 
 35 H       -2.3170    -9.6080     0.9130 H     1 <1>   0.4000 
 36 H       -3.7890    -8.7770     2.2830 H     1 <1>   0.0800 
 37 H       -4.9260    -9.6030     1.2430 H     1 <1>   0.0800 
 38 H       -5.9860    -8.5310    -0.5590 H     1 <1>   0.0800 
 39 H       -6.2780    -6.9940     0.1450 H     1 <1>   0.0800 
 40 H       -5.3770    -7.4300     2.9700 H     1 <1>   0.4000 
 41 H       -5.0450    -5.9430    -1.8020 H     1 <1>   0.0800 
 42 H       -4.9520    -7.5480    -2.5070 H     1 <1>   0.0800 
 43 H       -7.5030    -6.1030    -1.7810 H     1 <1>   0.0800 
 44 H       -7.4060    -7.7050    -2.4730 H     1 <1>   0.0800 
 45 H       -6.8670    -6.3220    -3.3910 H     1 <1>   0.0800 
@<TRIPOS>BOND
  1   1   2  1   
  2   2   3  ar  
  3   2   4  ar  
  4   3   5  ar  
  5   3  22  1   
  6   4   6  ar  
  7   4  23  1   
  8   5   7  1   
  9   5   8  ar  
 10   6   8  ar  
 11   6  24  1   
 12   8   9  1   
 13   9  10  1   
 14   9  25  1   
 15   9  26  1   
 16  10  11  1   
 17  10  12  1   
 18  10  27  1   
 19  11  13  1   
 20  11  28  1   
 21  11  29  1   
 22  12  14  1   
 23  12  30  1   
 24  12  31  1   
 25  13  15  1   
 26  13  16  1   
 27  13  32  1   
 28  14  16  1   
 29  14  33  1   
 30  14  34  1   
 31  15  35  1   
 32  16  17  1   
 33  16  18  1   
 34  17  19  1   
 35  17  36  1   
 36  17  37  1   
 37  18  20  1   
 38  18  38  1   
 39  18  39  1   
 40  19  40  1   
 41  20  21  1   
 42  20  41  1   
 43  20  42  1   
 44  21  43  1   
 45  21  44  1   
 46  21  45  1   
@<TRIPOS>SUBSTRUCTURE
  1 ****  10 GROUP 4 **** **** 0

# MOE 2024.06 (io_trps.svl 2023.06)
