@<TRIPOS>MOLECULE
NONAME
43 45 1 0 0 
SMALL
USER_CHARGES


@<TRIPOS>ATOM
  1 O       -2.3050    -0.9220    -0.7630 O.2   1 <1>  -0.5700 
  2 C       -2.3890     0.0080     0.0340 C.2   1 <1>   0.6160 
  3 N       -1.9260     1.2640    -0.3530 N.am  1 <1>  -0.4690 
  4 C       -2.9540    -0.1430     1.3410 C.2   1 <1>   0.0290 
  5 C       -1.9940     2.3340     0.5070 C.2   1 <1>  -0.0410 
  6 C       -1.3250     1.4370    -1.7020 C.3   1 <1>   0.0600 
  7 C       -3.4390    -1.4310     1.7460 C.2   1 <1>   0.6160 
  8 C       -2.9990     0.9420     2.1800 C.2   1 <1>  -0.1500 
  9 C       -2.5170     2.1950     1.7550 C.2   1 <1>  -0.1500 
 10 O       -2.9290    -1.9830     2.7040 O.2   1 <1>  -0.5700 
 11 N       -4.5160    -2.0410     1.1450 N.am  1 <1>  -0.6600 
 12 C       -5.3270    -1.4920     0.0260 C.3   1 <1>   0.1400 
 13 C       -4.9090    -3.4440     1.4280 C.3   1 <1>   0.1400 
 14 C       -6.4580    -2.5030    -0.1630 C.3   1 <1>   0.2000 
 15 C       -5.8490    -3.8360     0.2800 C.3   1 <1>  -0.0800 
 16 O       -7.4830    -2.1800     0.7120 O.3   1 <1>  -0.6800 
 17 C       -5.0740    -4.4970    -0.8760 C.3   1 <1>   0.0210 
 18 C       -4.4760    -5.8250    -0.4540 C.2   1 <1>   0.1080 
 19 N       -5.1960    -6.8760    -0.2080 N.2   1 <1>  -0.7070 
 20 C       -3.1170    -6.0640    -0.2790 C.2   1 <1>  -0.1500 
 21 N       -4.3040    -7.8250     0.1330 N.pl3 1 <1>   0.3000 
 22 C       -3.0380    -7.3570     0.0990 C.2   1 <1>  -0.3320 
 23 C       -1.8110    -8.1840     0.4360 C.3   1 <1>  -0.0600 
 24 H       -1.6180     3.2840     0.1640 H     1 <1>   0.1500 
 25 H       -1.0240     2.4580    -1.8570 H     1 <1>   0.0800 
 26 H       -2.0440     1.1640    -2.4540 H     1 <1>   0.0800 
 27 H       -0.4640     0.7980    -1.7950 H     1 <1>   0.0800 
 28 H       -3.3990     0.8470     3.1750 H     1 <1>   0.1500 
 29 H       -2.5690     3.0280     2.4350 H     1 <1>   0.1500 
 30 H       -5.7020    -0.5070     0.2480 H     1 <1>   0.0800 
 31 H       -4.7280    -1.4580    -0.8660 H     1 <1>   0.0800 
 32 H       -4.0420    -4.0800     1.4930 H     1 <1>   0.0800 
 33 H       -5.4320    -3.4780     2.3680 H     1 <1>   0.0800 
 34 H       -6.8570    -2.5150    -1.1620 H     1 <1>   0.0800 
 35 H       -6.6080    -4.5220     0.6150 H     1 <1>   0.0800 
 36 H       -7.1150    -2.1090     1.6160 H     1 <1>   0.4000 
 37 H       -4.2860    -3.8520    -1.2210 H     1 <1>   0.0800 
 38 H       -5.7420    -4.6800    -1.6980 H     1 <1>   0.0800 
 39 H       -2.3260    -5.3490    -0.4190 H     1 <1>   0.1500 
 40 H       -4.5910    -8.7780     0.3830 H     1 <1>   0.2700 
 41 H       -0.9240    -7.5830     0.3410 H     1 <1>   0.0800 
 42 H       -1.7310    -9.0220    -0.2340 H     1 <1>   0.0800 
 43 H       -1.8720    -8.5450     1.4470 H     1 <1>   0.0800 
@<TRIPOS>BOND
  1   1   2  2   
  2   2   3  am  
  3   2   4  1   
  4   3   5  1   
  5   3   6  1   
  6   4   7  1   
  7   4   8  2   
  8   5   9  2   
  9   5  24  1   
 10   6  25  1   
 11   6  26  1   
 12   6  27  1   
 13   7  10  2   
 14   7  11  am  
 15   8   9  1   
 16   8  28  1   
 17   9  29  1   
 18  11  12  1   
 19  11  13  1   
 20  12  14  1   
 21  12  30  1   
 22  12  31  1   
 23  13  15  1   
 24  13  32  1   
 25  13  33  1   
 26  14  15  1   
 27  14  16  1   
 28  14  34  1   
 29  15  17  1   
 30  15  35  1   
 31  16  36  1   
 32  17  18  1   
 33  17  37  1   
 34  17  38  1   
 35  18  19  2   
 36  18  20  1   
 37  19  21  1   
 38  20  22  2   
 39  20  39  1   
 40  21  22  1   
 41  21  40  1   
 42  22  23  1   
 43  23  41  1   
 44  23  42  1   
 45  23  43  1   
@<TRIPOS>SUBSTRUCTURE
  1 ****  11 GROUP 4 **** **** 0

# MOE 2024.06 (io_trps.svl 2023.06)
