@<TRIPOS>MOLECULE
NONAME
44 45 1 0 0 
SMALL
USER_CHARGES


@<TRIPOS>ATOM
  1 O       -1.8720     1.1150    -2.0110 O.2   1 <1>  -0.5700 
  2 C       -1.4530     1.5060    -0.9500 C.2   1 <1>   0.5690 
  3 N       -2.1400     1.5950     0.2170 N.am  1 <1>  -0.6600 
  4 C       -0.0380     1.9840    -0.7790 C.3   1 <1>  -0.0990 
  5 C       -3.5290     1.1780     0.5040 C.3   1 <1>   0.2200 
  6 C       -1.2910     2.1430     1.2920 C.3   1 <1>   0.1400 
  7 C       -0.1010     2.7590     0.5380 C.3   1 <1>   0.2890 
  8 C       -3.6860    -0.3190     0.2490 C.3   1 <1>  -0.2400 
  9 C       -4.5000     2.0030    -0.3370 C.3   1 <1>  -0.2400 
 10 N       -0.4130     4.1780     0.2200 N.pl3 1 <1>  -0.8690 
 11 C        0.2180     5.2890     0.6540 C.ar  1 <1>   0.4100 
 12 N        1.1920     5.1210     1.5250 N.ar  1 <1>  -0.6200 
 13 C       -0.1780     6.5670     0.1830 C.ar  1 <1>  -0.1440 
 14 C        1.7970     6.2000     1.9630 C.ar  1 <1>   0.7710 
 15 C        0.4650     7.6610     0.6860 C.ar  1 <1>   0.2180 
 16 C       -1.2930     6.6460    -0.8690 C.3   1 <1>  -0.0970 
 17 N        1.4630     7.4400     1.5760 N.ar  1 <1>  -0.1790 
 18 N        2.7830     6.0130     2.8360 N.pl3 1 <1>  -0.9000 
 19 C        0.1760     9.1220     0.3410 C.3   1 <1>  -0.0170 
 20 C        1.1350     9.6440    -0.7350 C.3   1 <1>  -0.2400 
 21 H        0.2840     2.5890    -1.6050 H     1 <1>   0.0800 
 22 H        0.6000     1.1260    -0.6820 H     1 <1>   0.0800 
 23 H       -3.7360     1.3670     1.5440 H     1 <1>   0.0800 
 24 H       -0.9610     1.3380     1.9250 H     1 <1>   0.0800 
 25 H       -1.8130     2.8810     1.8750 H     1 <1>   0.0800 
 26 H        0.8140     2.6780     1.1000 H     1 <1>   0.0800 
 27 H       -3.5320    -0.5450    -0.7910 H     1 <1>   0.0800 
 28 H       -4.6770    -0.6340     0.5190 H     1 <1>   0.0800 
 29 H       -2.9790    -0.8720     0.8390 H     1 <1>   0.0800 
 30 H       -4.3510     1.8120    -1.3850 H     1 <1>   0.0800 
 31 H       -4.3610     3.0510    -0.1440 H     1 <1>   0.0800 
 32 H       -5.5130     1.7420    -0.0880 H     1 <1>   0.0800 
 33 H       -1.2310     4.2630    -0.3920 H     1 <1>   0.4000 
 34 H       -1.0980     5.9510    -1.6680 H     1 <1>   0.0800 
 35 H       -1.3780     7.6150    -1.3210 H     1 <1>   0.0800 
 36 H       -2.2400     6.3950    -0.4220 H     1 <1>   0.0800 
 37 H        1.9960     8.2050     1.9730 H     1 <1>   0.4570 
 38 H        3.3760     6.7050     3.2970 H     1 <1>   0.4000 
 39 H        3.0000     5.0460     3.0990 H     1 <1>   0.4000 
 40 H        0.2650     9.7310     1.2250 H     1 <1>   0.0800 
 41 H       -0.8360     9.2400     0.0000 H     1 <1>   0.0800 
 42 H        2.1580     9.6040    -0.4030 H     1 <1>   0.0800 
 43 H        0.8990    10.6680    -0.9730 H     1 <1>   0.0800 
 44 H        1.0420     9.0620    -1.6360 H     1 <1>   0.0800 
@<TRIPOS>BOND
  1   1   2  2   
  2   2   3  am  
  3   2   4  1   
  4   3   5  1   
  5   3   6  1   
  6   4   7  1   
  7   4  21  1   
  8   4  22  1   
  9   5   8  1   
 10   5   9  1   
 11   5  23  1   
 12   6   7  1   
 13   6  24  1   
 14   6  25  1   
 15   7  10  1   
 16   7  26  1   
 17   8  27  1   
 18   8  28  1   
 19   8  29  1   
 20   9  30  1   
 21   9  31  1   
 22   9  32  1   
 23  10  11  1   
 24  10  33  1   
 25  11  12  ar  
 26  11  13  ar  
 27  12  14  ar  
 28  13  15  ar  
 29  13  16  1   
 30  14  17  ar  
 31  14  18  1   
 32  15  17  ar  
 33  15  19  1   
 34  16  34  1   
 35  16  35  1   
 36  16  36  1   
 37  17  37  1   
 38  18  38  1   
 39  18  39  1   
 40  19  20  1   
 41  19  40  1   
 42  19  41  1   
 43  20  42  1   
 44  20  43  1   
 45  20  44  1   
@<TRIPOS>SUBSTRUCTURE
  1 ****  10 GROUP 4 **** **** 0

# MOE 2024.06 (io_trps.svl 2023.06)
