@<TRIPOS>MOLECULE
NONAME
54 58 1 0 0 
SMALL
USER_CHARGES


@<TRIPOS>ATOM
  1 O       -2.7600     0.9120    -1.7890 O.2   1 <1>  -0.5700 
  2 C       -2.2390     0.9670    -0.6920 C.2   1 <1>   0.5440 
  3 N       -2.0320    -0.2040    -0.0200 N.am  1 <1>  -0.7300 
  4 C       -1.8500     2.2390    -0.1210 C.ar  1 <1>   0.0860 
  5 C       -2.4360    -1.5380    -0.5180 C.3   1 <1>   0.2200 
  6 C       -1.8460     2.4510     1.2550 C.ar  1 <1>   0.1600 
  7 C       -1.4640     3.3090    -0.9160 C.ar  1 <1>  -0.1500 
  8 C       -3.8180    -1.8660     0.0180 C.3   1 <1>  -0.0800 
  9 C       -1.5840    -2.6200     0.1350 C.3   1 <1>   0.1200 
 10 N       -1.4910     3.5670     1.8680 N.ar  1 <1>  -0.6200 
 11 C       -1.0920     4.4890    -0.3070 C.ar  1 <1>  -0.1440 
 12 C       -3.5050    -2.4590     1.3960 C.3   1 <1>   0.1200 
 13 C       -4.5550    -2.8630    -0.8980 C.3   1 <1>  -0.0170 
 14 O       -2.1690    -2.8750     1.3760 O.3   1 <1>  -0.5600 
 15 C       -1.1190     4.5660     1.0830 C.ar  1 <1>   0.1670 
 16 C       -0.6560     5.6600    -1.1810 C.3   1 <1>  -0.0170 
 17 C       -5.9860    -3.1000    -0.4270 C.ar  1 <1>  -0.1440 
 18 C       -0.7300     5.8460     1.8110 C.3   1 <1>  -0.0170 
 19 C       -0.6850     6.9960    -0.4300 C.3   1 <1>  -0.1600 
 20 C       -7.0140    -2.1480    -0.6270 C.ar  1 <1>   0.0000 
 21 C       -6.3150    -4.2600     0.2110 C.ar  1 <1>  -0.1500 
 22 C        0.0120     6.8570     0.9260 C.3   1 <1>  -0.1600 
 23 C       -8.3040    -2.4610    -0.1310 C.ar  1 <1>   0.3100 
 24 C       -6.8420    -0.9090    -1.2880 C.ar  1 <1>  -0.1500 
 25 C       -7.6250    -4.4730     0.6570 C.ar  1 <1>   0.1600 
 26 N       -8.5910    -3.6230     0.5070 N.ar  1 <1>  -0.6200 
 27 C       -9.3430    -1.5320    -0.3050 C.ar  1 <1>  -0.1500 
 28 C       -7.8770    -0.0270    -1.4420 C.ar  1 <1>  -0.1500 
 29 C       -9.1440    -0.3390    -0.9440 C.ar  1 <1>  -0.1500 
 30 H       -1.5880    -0.2180     0.9010 H     1 <1>   0.3700 
 31 H       -2.3770    -1.5660    -1.5930 H     1 <1>   0.0800 
 32 H       -2.1640     1.6460     1.8930 H     1 <1>   0.1500 
 33 H       -1.4580     3.2040    -1.9870 H     1 <1>   0.1500 
 34 H       -4.4130    -0.9760     0.1180 H     1 <1>   0.0800 
 35 H       -0.5600    -2.3190     0.2700 H     1 <1>   0.0800 
 36 H       -1.6230    -3.5300    -0.4370 H     1 <1>   0.0800 
 37 H       -4.1290    -3.2990     1.6450 H     1 <1>   0.0800 
 38 H       -3.5980    -1.7080     2.1620 H     1 <1>   0.0800 
 39 H       -4.0220    -3.7980    -0.9210 H     1 <1>   0.0800 
 40 H       -4.5750    -2.4910    -1.9070 H     1 <1>   0.0800 
 41 H        0.3460     5.4710    -1.5240 H     1 <1>   0.0800 
 42 H       -1.2940     5.7280    -2.0450 H     1 <1>   0.0800 
 43 H       -1.6330     6.2960     2.1850 H     1 <1>   0.0800 
 44 H       -0.1150     5.5980     2.6580 H     1 <1>   0.0800 
 45 H       -0.1960     7.7510    -1.0200 H     1 <1>   0.0800 
 46 H       -1.7070     7.3000    -0.2790 H     1 <1>   0.0800 
 47 H       -5.5900    -5.0320     0.3910 H     1 <1>   0.1500 
 48 H        0.0470     7.8110     1.4230 H     1 <1>   0.0800 
 49 H        1.0240     6.5220     0.7760 H     1 <1>   0.0800 
 50 H       -5.8790    -0.6450    -1.6840 H     1 <1>   0.1500 
 51 H       -7.8420    -5.4010     1.1570 H     1 <1>   0.1500 
 52 H      -10.3090    -1.7950     0.0850 H     1 <1>   0.1500 
 53 H       -7.7290     0.9130    -1.9460 H     1 <1>   0.1500 
 54 H       -9.9500     0.3630    -1.0710 H     1 <1>   0.1500 
@<TRIPOS>BOND
  1   1   2  2   
  2   2   3  am  
  3   2   4  1   
  4   3   5  1   
  5   3  30  1   
  6   4   6  ar  
  7   4   7  ar  
  8   5   8  1   
  9   5   9  1   
 10   5  31  1   
 11   6  10  ar  
 12   6  32  1   
 13   7  11  ar  
 14   7  33  1   
 15   8  12  1   
 16   8  13  1   
 17   8  34  1   
 18   9  14  1   
 19   9  35  1   
 20   9  36  1   
 21  10  15  ar  
 22  11  15  ar  
 23  11  16  1   
 24  12  14  1   
 25  12  37  1   
 26  12  38  1   
 27  13  17  1   
 28  13  39  1   
 29  13  40  1   
 30  15  18  1   
 31  16  19  1   
 32  16  41  1   
 33  16  42  1   
 34  17  20  ar  
 35  17  21  ar  
 36  18  22  1   
 37  18  43  1   
 38  18  44  1   
 39  19  22  1   
 40  19  45  1   
 41  19  46  1   
 42  20  23  ar  
 43  20  24  ar  
 44  21  25  ar  
 45  21  47  1   
 46  22  48  1   
 47  22  49  1   
 48  23  26  ar  
 49  23  27  ar  
 50  24  28  ar  
 51  24  50  1   
 52  25  26  ar  
 53  25  51  1   
 54  27  29  ar  
 55  27  52  1   
 56  28  29  ar  
 57  28  53  1   
 58  29  54  1   
@<TRIPOS>SUBSTRUCTURE
  1 ****   2 GROUP 4 **** **** 0

# MOE 2024.06 (io_trps.svl 2023.06)
