@<TRIPOS>MOLECULE
NONAME
52 54 1 0 0 
SMALL
USER_CHARGES


@<TRIPOS>ATOM
  1 O       -0.4780     0.3290     0.1590 O.2   1 <1>  -0.5700 
  2 C       -1.3110     1.1370    -0.2240 C.2   1 <1>   0.6300 
  3 N       -2.5360     0.6510    -0.6540 N.am  1 <1>  -0.6600 
  4 C       -1.0080     2.5510    -0.2010 C.2   1 <1>   0.4500 
  5 C       -2.8710    -0.8060    -0.5830 C.3   1 <1>   0.1400 
  6 C       -3.6760     1.5290    -1.0360 C.3   1 <1>   0.1400 
  7 N       -0.7330     3.2340    -1.2960 N.2   1 <1>  -0.6210 
  8 C       -1.0550     3.1610     1.1070 C.2   1 <1>   0.6300 
  9 C       -3.6260    -1.1530     0.7100 C.3   1 <1>   0.1400 
 10 C       -4.4270     2.0580     0.1960 C.3   1 <1>  -0.1600 
 11 C       -0.4300     4.5540    -1.1350 C.2   1 <1>   0.0210 
 12 O       -1.4210     2.6090     2.1360 O.2   1 <1>  -0.5700 
 13 N       -0.7230     4.4840     1.2080 N.am  1 <1>  -0.5390 
 14 N       -4.8460    -0.3010     0.8940 N.am  1 <1>  -0.6600 
 15 C       -4.5500     1.0780     1.3710 C.3   1 <1>   0.1400 
 16 C       -0.4130     5.1850     0.0710 C.2   1 <1>  -0.0410 
 17 C       -6.1360    -0.6910     0.6390 C.2   1 <1>   0.5690 
 18 O       -7.0650     0.0680     0.7870 O.2   1 <1>  -0.5700 
 19 C       -6.4160    -2.1010     0.1390 C.3   1 <1>  -0.0990 
 20 C       -7.8950    -2.3780    -0.1670 C.3   1 <1>  -0.0170 
 21 C       -8.0580    -3.7900    -0.7080 C.ar  1 <1>  -0.1440 
 22 C       -8.1200    -4.8670     0.1610 C.ar  1 <1>  -0.1500 
 23 C       -8.1360    -4.0150    -2.0740 C.ar  1 <1>  -0.1500 
 24 C       -8.2560    -6.1600    -0.3180 C.ar  1 <1>   0.0820 
 25 C       -8.2740    -5.3020    -2.5630 C.ar  1 <1>  -0.1500 
 26 O       -8.3030    -7.1520     0.6060 O.3   1 <1>  -0.3620 
 27 C       -8.3330    -6.3760    -1.6920 C.ar  1 <1>  -0.1500 
 28 C       -8.4760    -8.4990     0.2260 C.3   1 <1>   0.0400 
 29 H       -1.9700    -1.3920    -0.6290 H     1 <1>   0.0800 
 30 H       -3.4700    -1.0790    -1.4330 H     1 <1>   0.0800 
 31 H       -4.3640     0.9620    -1.6420 H     1 <1>   0.0800 
 32 H       -3.3280     2.3510    -1.6390 H     1 <1>   0.0800 
 33 H       -2.9630    -1.0120     1.5460 H     1 <1>   0.0800 
 34 H       -3.8880    -2.1950     0.6930 H     1 <1>   0.0800 
 35 H       -5.4170     2.3420    -0.1120 H     1 <1>   0.0800 
 36 H       -3.9500     2.9530     0.5490 H     1 <1>   0.0800 
 37 H       -0.1920     5.0930    -2.0390 H     1 <1>   0.1500 
 38 H       -0.7410     4.8870     2.1480 H     1 <1>   0.3700 
 39 H       -5.3310     1.4080     2.0350 H     1 <1>   0.0800 
 40 H       -3.6310     1.0730     1.9340 H     1 <1>   0.0800 
 41 H       -0.1630     6.2300     0.1700 H     1 <1>   0.1500 
 42 H       -6.0860    -2.7980     0.8870 H     1 <1>   0.0800 
 43 H       -5.8460    -2.2640    -0.7560 H     1 <1>   0.0800 
 44 H       -8.2590    -1.6650    -0.8860 H     1 <1>   0.0800 
 45 H       -8.4800    -2.2630     0.7300 H     1 <1>   0.0800 
 46 H       -8.0650    -4.7160     1.2230 H     1 <1>   0.1500 
 47 H       -8.0910    -3.1890    -2.7620 H     1 <1>   0.1500 
 48 H       -8.3360    -5.4680    -3.6240 H     1 <1>   0.1500 
 49 H       -8.4400    -7.3630    -2.0970 H     1 <1>   0.1500 
 50 H       -8.4980    -9.0980     1.1180 H     1 <1>   0.0800 
 51 H       -7.6480    -8.7960    -0.3940 H     1 <1>   0.0800 
 52 H       -9.4080    -8.5960    -0.3020 H     1 <1>   0.0800 
@<TRIPOS>BOND
  1   1   2  2   
  2   2   3  am  
  3   2   4  1   
  4   3   5  1   
  5   3   6  1   
  6   4   7  2   
  7   4   8  1   
  8   5   9  1   
  9   5  29  1   
 10   5  30  1   
 11   6  10  1   
 12   6  31  1   
 13   6  32  1   
 14   7  11  1   
 15   8  12  2   
 16   8  13  am  
 17   9  14  1   
 18   9  33  1   
 19   9  34  1   
 20  10  15  1   
 21  10  35  1   
 22  10  36  1   
 23  11  16  2   
 24  11  37  1   
 25  13  16  1   
 26  13  38  1   
 27  14  15  1   
 28  14  17  am  
 29  15  39  1   
 30  15  40  1   
 31  16  41  1   
 32  17  18  2   
 33  17  19  1   
 34  19  20  1   
 35  19  42  1   
 36  19  43  1   
 37  20  21  1   
 38  20  44  1   
 39  20  45  1   
 40  21  22  ar  
 41  21  23  ar  
 42  22  24  ar  
 43  22  46  1   
 44  23  25  ar  
 45  23  47  1   
 46  24  26  1   
 47  24  27  ar  
 48  25  27  ar  
 49  25  48  1   
 50  26  28  1   
 51  27  49  1   
 52  28  50  1   
 53  28  51  1   
 54  28  52  1   
@<TRIPOS>SUBSTRUCTURE
  1 ****  14 GROUP 4 **** **** 0

# MOE 2024.06 (io_trps.svl 2023.06)
