@<TRIPOS>MOLECULE
NONAME
48 50 1 0 0 
SMALL
USER_CHARGES


@<TRIPOS>ATOM
  1 O        0.4190     1.9950     1.5580 O.3   1 <1>  -0.3630 
  2 C       -0.6830     1.9590     0.7540 C.ar  1 <1>   0.0830 
  3 C        0.9840     0.8370     2.1280 C.3   1 <1>   0.0400 
  4 C       -1.1400     3.1900     0.2060 C.ar  1 <1>   0.3100 
  5 C       -1.3390     0.7780     0.4740 C.ar  1 <1>  -0.1500 
  6 N       -0.4850     4.3520     0.4830 N.ar  1 <1>  -0.6200 
  7 C       -2.2830     3.1580    -0.6300 C.ar  1 <1>   0.0000 
  8 C       -2.4640     0.7670    -0.3520 C.ar  1 <1>  -0.1500 
  9 C       -0.9350     5.4470    -0.0440 C.ar  1 <1>   0.4100 
 10 C       -2.7470     4.3700    -1.1740 C.ar  1 <1>  -0.1500 
 11 C       -2.9250     1.9350    -0.8920 C.ar  1 <1>  -0.1500 
 12 N       -0.2280     6.5650     0.2650 N.pl3 1 <1>  -0.8690 
 13 C       -2.0690     5.5070    -0.8730 C.ar  1 <1>  -0.1500 
 14 C        0.3920     7.3580    -0.7930 C.3   1 <1>   0.4700 
 15 C        1.8740     7.5080    -0.4780 C.2   1 <1>  -0.1810 
 16 C       -0.2870     8.7210    -0.8520 C.3   1 <1>  -0.2400 
 17 C        2.9010     7.2880    -1.3910 C.2   1 <1>   0.1080 
 18 C        2.5100     7.8640     0.6680 C.2   1 <1>  -0.3320 
 19 N        4.0710     7.4900    -0.8780 N.2   1 <1>  -0.7070 
 20 C        2.7370     6.8530    -2.8310 C.3   1 <1>  -0.0590 
 21 N        3.8360     7.8420     0.3970 N.pl3 1 <1>   0.3140 
 22 C        1.9370     8.2300     2.0310 C.3   1 <1>  -0.0600 
 23 C        4.9560     8.1400     1.3150 C.3   1 <1>   0.0960 
 24 C        5.3130     9.6320     1.2900 C.3   1 <1>  -0.2400 
 25 H        1.8450     1.1360     2.6990 H     1 <1>   0.0800 
 26 H        1.2830     0.1700     1.3400 H     1 <1>   0.0800 
 27 H        0.2590     0.3760     2.7750 H     1 <1>   0.0800 
 28 H       -1.0130    -0.1620     0.8760 H     1 <1>   0.1500 
 29 H       -2.9590    -0.1670    -0.5560 H     1 <1>   0.1500 
 30 H       -3.6180     4.3750    -1.8030 H     1 <1>   0.1500 
 31 H       -3.7930     1.9320    -1.5290 H     1 <1>   0.1500 
 32 H        0.5160     6.3110     0.9200 H     1 <1>   0.4000 
 33 H       -2.3790     6.4630    -1.2450 H     1 <1>   0.1500 
 34 H        0.2700     6.8520    -1.7360 H     1 <1>   0.0800 
 35 H       -0.1850     9.2290     0.0880 H     1 <1>   0.0800 
 36 H       -1.3290     8.6090    -1.0850 H     1 <1>   0.0800 
 37 H        0.1770     9.3180    -1.6150 H     1 <1>   0.0800 
 38 H        2.1210     7.5550    -3.3590 H     1 <1>   0.0800 
 39 H        2.2880     5.8780    -2.8650 H     1 <1>   0.0800 
 40 H        3.6990     6.8070    -3.3080 H     1 <1>   0.0800 
 41 H        0.8630     8.2520     2.0100 H     1 <1>   0.0800 
 42 H        2.2830     9.2030     2.3300 H     1 <1>   0.0800 
 43 H        2.2440     7.5070     2.7660 H     1 <1>   0.0800 
 44 H        5.8030     7.5580     1.0010 H     1 <1>   0.0800 
 45 H        4.6820     7.8340     2.3060 H     1 <1>   0.0800 
 46 H        5.5980     9.9220     0.2930 H     1 <1>   0.0800 
 47 H        6.1380     9.8220     1.9520 H     1 <1>   0.0800 
 48 H        4.4730    10.2260     1.6040 H     1 <1>   0.0800 
@<TRIPOS>BOND
  1   1   2  1   
  2   1   3  1   
  3   2   4  ar  
  4   2   5  ar  
  5   3  25  1   
  6   3  26  1   
  7   3  27  1   
  8   4   6  ar  
  9   4   7  ar  
 10   5   8  ar  
 11   5  28  1   
 12   6   9  ar  
 13   7  10  ar  
 14   7  11  ar  
 15   8  11  ar  
 16   8  29  1   
 17   9  12  1   
 18   9  13  ar  
 19  10  13  ar  
 20  10  30  1   
 21  11  31  1   
 22  12  14  1   
 23  12  32  1   
 24  13  33  1   
 25  14  15  1   
 26  14  16  1   
 27  14  34  1   
 28  15  17  1   
 29  15  18  2   
 30  16  35  1   
 31  16  36  1   
 32  16  37  1   
 33  17  19  2   
 34  17  20  1   
 35  18  21  1   
 36  18  22  1   
 37  19  21  1   
 38  20  38  1   
 39  20  39  1   
 40  20  40  1   
 41  21  23  1   
 42  22  41  1   
 43  22  42  1   
 44  22  43  1   
 45  23  24  1   
 46  23  44  1   
 47  23  45  1   
 48  24  46  1   
 49  24  47  1   
 50  24  48  1   
@<TRIPOS>SUBSTRUCTURE
  1 ****  12 GROUP 4 **** **** 0

# MOE 2024.06 (io_trps.svl 2023.06)
