@<TRIPOS>MOLECULE
NONAME
39 41 1 0 0 
SMALL
USER_CHARGES


@<TRIPOS>ATOM
  1 O       -1.4580     1.0220    -1.8760 O.3   1 <1>  -0.0190 
  2 N       -0.5300     1.9250    -1.8280 N.2   1 <1>  -0.4100 
  3 C       -1.9070     0.9600    -0.6490 C.2   1 <1>   0.2980 
  4 C       -0.4590     2.3540    -0.6180 C.2   1 <1>   0.4620 
  5 N       -1.3460     1.7470     0.1770 N.2   1 <1>  -0.5650 
  6 C       -3.0350    -0.0180    -0.3340 C.3   1 <1>   0.2900 
  7 C        0.4550     3.3720    -0.1360 C.ar  1 <1>   0.0540 
  8 N       -2.6610    -1.4440    -0.5330 N.3   1 <1>  -0.8100 
  9 C        0.4780     3.8060     1.1830 C.ar  1 <1>  -0.1500 
 10 C        1.3820     3.9940    -0.9630 C.ar  1 <1>  -0.1500 
 11 C       -3.8320    -2.3230    -0.3900 C.3   1 <1>   0.1100 
 12 C       -1.5620    -1.8300     0.3730 C.3   1 <1>   0.0300 
 13 C        1.3710     4.7800     1.5870 C.ar  1 <1>   0.1600 
 14 C        2.2350     4.9590    -0.4620 C.ar  1 <1>   0.1600 
 15 C       -3.5940    -3.6560    -1.1040 C.3   1 <1>   0.0960 
 16 N        2.2520     5.3690     0.7950 N.ar  1 <1>  -0.6200 
 17 N       -4.8170    -4.4760    -1.0440 N.pl3 1 <1>   0.0480 
 18 C       -5.2260    -5.3360    -0.1060 C.2   1 <1>   0.0060 
 19 C       -5.8160    -4.5080    -1.9270 C.2   1 <1>   0.0370 
 20 N       -6.3750    -5.8400    -0.3970 N.2   1 <1>  -0.3380 
 21 C       -4.4460    -5.6840     1.1480 C.3   1 <1>  -0.0600 
 22 N       -6.7530    -5.3110    -1.5610 N.2   1 <1>  -0.3380 
 23 H       -3.8620     0.2260    -0.9780 H     1 <1>   0.0800 
 24 H       -3.3500     0.1340     0.6840 H     1 <1>   0.0800 
 25 H       -0.2030     3.3840     1.8990 H     1 <1>   0.1500 
 26 H        1.4400     3.7230    -2.0020 H     1 <1>   0.1500 
 27 H       -4.6880    -1.8530    -0.8470 H     1 <1>   0.0800 
 28 H       -4.0490    -2.4860     0.6530 H     1 <1>   0.0800 
 29 H       -0.6980    -1.2110     0.1960 H     1 <1>   0.0800 
 30 H       -1.2690    -2.8500     0.2000 H     1 <1>   0.0800 
 31 H       -1.8610    -1.7190     1.4020 H     1 <1>   0.0800 
 32 H        1.3620     5.0940     2.6170 H     1 <1>   0.1500 
 33 H        2.9410     5.4210    -1.1310 H     1 <1>   0.1500 
 34 H       -2.7910    -4.1990    -0.6420 H     1 <1>   0.0800 
 35 H       -3.3470    -3.4760    -2.1350 H     1 <1>   0.0800 
 36 H       -5.8270    -3.9270    -2.8300 H     1 <1>   0.1500 
 37 H       -4.2880    -4.8050     1.7440 H     1 <1>   0.0800 
 38 H       -3.4990    -6.1180     0.8860 H     1 <1>   0.0800 
 39 H       -5.0000    -6.3990     1.7310 H     1 <1>   0.0800 
@<TRIPOS>BOND
  1   1   2  1   
  2   1   3  1   
  3   2   4  2   
  4   3   5  2   
  5   3   6  1   
  6   4   5  1   
  7   4   7  1   
  8   6   8  1   
  9   6  23  1   
 10   6  24  1   
 11   7   9  ar  
 12   7  10  ar  
 13   8  11  1   
 14   8  12  1   
 15   9  13  ar  
 16   9  25  1   
 17  10  14  ar  
 18  10  26  1   
 19  11  15  1   
 20  11  27  1   
 21  11  28  1   
 22  12  29  1   
 23  12  30  1   
 24  12  31  1   
 25  13  16  ar  
 26  13  32  1   
 27  14  16  ar  
 28  14  33  1   
 29  15  17  1   
 30  15  34  1   
 31  15  35  1   
 32  17  18  1   
 33  17  19  1   
 34  18  20  2   
 35  18  21  1   
 36  19  22  2   
 37  19  36  1   
 38  20  22  1   
 39  21  37  1   
 40  21  38  1   
 41  21  39  1   
@<TRIPOS>SUBSTRUCTURE
  1 ****   6 GROUP 4 **** **** 0

# MOE 2024.06 (io_trps.svl 2023.06)
