@<TRIPOS>MOLECULE
NONAME
56 59 1 0 0 
SMALL
USER_CHARGES


@<TRIPOS>ATOM
  1 O       -0.3930     0.4120     0.1280 O.2   1 <1>  -0.5700 
  2 C        0.6660     0.8320     0.5340 C.2   1 <1>   0.5690 
  3 N        0.7780     1.9720     1.2940 N.am  1 <1>  -0.6600 
  4 C        1.9180     0.0560     0.1480 C.3   1 <1>  -0.0990 
  5 C       -0.1880     3.1270     1.3020 C.3   1 <1>   0.2200 
  6 C        1.9450     2.2510     2.1830 C.3   1 <1>   0.1400 
  7 C        1.7850    -0.6590    -1.2040 C.3   1 <1>  -0.0160 
  8 C        0.4720     4.4220     0.7290 C.3   1 <1>   0.1380 
  9 C       -1.6070     2.9120     0.7580 C.3   1 <1>  -0.1600 
 10 C        2.6330     3.5630     1.7760 C.3   1 <1>  -0.1600 
 11 C        3.1150    -1.2760    -1.6080 C.ar  1 <1>  -0.1440 
 12 C        1.0180     4.3290    -0.7280 C.2   1 <1>  -0.2760 
 13 C       -0.5840     5.5590     0.7470 C.3   1 <1>   0.1200 
 14 C        1.6350     4.7370     1.7040 C.3   1 <1>  -0.1600 
 15 C       -2.4670     4.1710     0.9690 C.3   1 <1>   0.1200 
 16 C        3.3810    -2.6100    -1.3440 C.ar  1 <1>  -0.1500 
 17 C        4.0750    -0.4990    -2.2400 C.ar  1 <1>  -0.1500 
 18 C        0.8170     3.3340    -1.6040 C.2   1 <1>  -0.2880 
 19 C        1.8660     5.5150    -1.2010 C.3   1 <1>  -0.0220 
 20 O       -1.7100     5.2200     1.5070 O.3   1 <1>  -0.5600 
 21 C        4.6000    -3.1560    -1.7140 C.ar  1 <1>   0.0820 
 22 C        5.2930    -1.0490    -2.6080 C.ar  1 <1>  -0.1500 
 23 C        1.3990     3.2850    -3.0100 C.3   1 <1>   0.2580 
 24 C        2.0200     5.5260    -2.7290 C.3   1 <1>   0.1200 
 25 O        4.8650    -4.4470    -1.4640 O.3   1 <1>  -0.5320 
 26 C        5.5570    -2.3810    -2.3440 C.ar  1 <1>  -0.1500 
 27 O        2.3900     4.2570    -3.1670 O.3   1 <1>  -0.5600 
 28 H        2.7420     0.7410     0.0730 H     1 <1>   0.0800 
 29 H        2.1340    -0.6610     0.9160 H     1 <1>   0.0800 
 30 H       -0.3620     3.3250     2.3470 H     1 <1>   0.0800 
 31 H        1.5870     2.3390     3.1950 H     1 <1>   0.0800 
 32 H        2.6560     1.4440     2.1690 H     1 <1>   0.0800 
 33 H        1.4750     0.0450    -1.9550 H     1 <1>   0.0800 
 34 H        1.0270    -1.4210    -1.1410 H     1 <1>   0.0800 
 35 H       -2.0690     2.0870     1.2690 H     1 <1>   0.0800 
 36 H       -1.5970     2.6830    -0.2890 H     1 <1>   0.0800 
 37 H        3.4040     3.7910     2.4900 H     1 <1>   0.0800 
 38 H        3.1080     3.4230     0.8200 H     1 <1>   0.0800 
 39 H       -0.9230     5.7750    -0.2520 H     1 <1>   0.0800 
 40 H       -0.1690     6.4600     1.1630 H     1 <1>   0.0800 
 41 H        2.1510     5.6370     1.4230 H     1 <1>   0.0800 
 42 H        1.2320     4.9100     2.6870 H     1 <1>   0.0800 
 43 H       -3.2640     3.9650     1.6620 H     1 <1>   0.0800 
 44 H       -2.8960     4.5020     0.0390 H     1 <1>   0.0800 
 45 H        2.6440    -3.2180    -0.8550 H     1 <1>   0.1500 
 46 H        3.8810     0.5390    -2.4490 H     1 <1>   0.1500 
 47 H        0.2230     2.4650    -1.4110 H     1 <1>   0.1500 
 48 H        2.8480     5.4580    -0.7670 H     1 <1>   0.0800 
 49 H        1.4240     6.4480    -0.9050 H     1 <1>   0.0800 
 50 H        6.0320    -0.4400    -3.0980 H     1 <1>   0.1500 
 51 H        0.6330     3.4530    -3.7470 H     1 <1>   0.0800 
 52 H        1.8590     2.3290    -3.1910 H     1 <1>   0.0800 
 53 H        2.7870     6.2180    -3.0270 H     1 <1>   0.0800 
 54 H        1.0940     5.7970    -3.2070 H     1 <1>   0.0800 
 55 H        4.1270    -4.9090    -1.0310 H     1 <1>   0.4500 
 56 H        6.4960    -2.8220    -2.6230 H     1 <1>   0.1500 
@<TRIPOS>BOND
  1   1   2  2   
  2   2   3  am  
  3   2   4  1   
  4   3   5  1   
  5   3   6  1   
  6   4   7  1   
  7   4  28  1   
  8   4  29  1   
  9   5   8  1   
 10   5   9  1   
 11   5  30  1   
 12   6  10  1   
 13   6  31  1   
 14   6  32  1   
 15   7  11  1   
 16   7  33  1   
 17   7  34  1   
 18   8  12  1   
 19   8  13  1   
 20   8  14  1   
 21   9  15  1   
 22   9  35  1   
 23   9  36  1   
 24  10  14  1   
 25  10  37  1   
 26  10  38  1   
 27  11  16  ar  
 28  11  17  ar  
 29  12  18  2   
 30  12  19  1   
 31  13  20  1   
 32  13  39  1   
 33  13  40  1   
 34  14  41  1   
 35  14  42  1   
 36  15  20  1   
 37  15  43  1   
 38  15  44  1   
 39  16  21  ar  
 40  16  45  1   
 41  17  22  ar  
 42  17  46  1   
 43  18  23  1   
 44  18  47  1   
 45  19  24  1   
 46  19  48  1   
 47  19  49  1   
 48  21  25  1   
 49  21  26  ar  
 50  22  26  ar  
 51  22  50  1   
 52  23  27  1   
 53  23  51  1   
 54  23  52  1   
 55  24  27  1   
 56  24  53  1   
 57  24  54  1   
 58  25  55  1   
 59  26  56  1   
@<TRIPOS>SUBSTRUCTURE
  1 ****   2 GROUP 4 **** **** 0

# MOE 2024.06 (io_trps.svl 2023.06)
