@<TRIPOS>MOLECULE
NONAME
24 24 1 0 0 
SMALL
USER_CHARGES


@<TRIPOS>ATOM
  1 S       -0.6730    -1.1250    -1.4400 S.3   1 <1>  -0.9850 
  2 C        0.1510    -1.4410    -0.0460 C.2   1 <1>   0.4940 
  3 O       -0.1860    -0.9820     1.0280 O.2   1 <1>  -0.5700 
  4 C        1.3570    -2.3480    -0.1590 C.3   1 <1>  -0.0990 
  5 C        2.6720    -1.5850     0.0580 C.3   1 <1>  -0.1600 
  6 C        3.8740    -2.5140    -0.1060 C.3   1 <1>   0.1200 
  7 O        5.0520    -1.7790     0.1370 O.3   1 <1>  -0.3620 
  8 C        6.2750    -2.3600     0.0550 C.ar  1 <1>   0.0820 
  9 C        6.4780    -3.6990    -0.2720 C.ar  1 <1>  -0.1500 
 10 C        7.3680    -1.5500     0.3180 C.ar  1 <1>  -0.1500 
 11 C        7.7640    -4.2090    -0.3320 C.ar  1 <1>  -0.1500 
 12 C        8.6520    -2.0610     0.2570 C.ar  1 <1>  -0.1500 
 13 C        8.8500    -3.3920    -0.0680 C.ar  1 <1>  -0.1500 
 14 H        1.3520    -2.7960    -1.1360 H     1 <1>   0.0800 
 15 H        1.2530    -3.1280     0.5710 H     1 <1>   0.0800 
 16 H        2.6720    -1.1600     1.0460 H     1 <1>   0.0800 
 17 H        2.7320    -0.7870    -0.6610 H     1 <1>   0.0800 
 18 H        3.9140    -2.9000    -1.1100 H     1 <1>   0.0800 
 19 H        3.8260    -3.3210     0.6050 H     1 <1>   0.0800 
 20 H        5.6540    -4.3520    -0.4820 H     1 <1>   0.1500 
 21 H        7.2020    -0.5180     0.5690 H     1 <1>   0.1500 
 22 H        7.9220    -5.2430    -0.5850 H     1 <1>   0.1500 
 23 H        9.4950    -1.4240     0.4630 H     1 <1>   0.1500 
 24 H        9.8490    -3.7910    -0.1150 H     1 <1>   0.1500 
@<TRIPOS>BOND
  1   1   2  1   
  2   2   3  2   
  3   2   4  1   
  4   4   5  1   
  5   4  14  1   
  6   4  15  1   
  7   5   6  1   
  8   5  16  1   
  9   5  17  1   
 10   6   7  1   
 11   6  18  1   
 12   6  19  1   
 13   7   8  1   
 14   8   9  ar  
 15   8  10  ar  
 16   9  11  ar  
 17   9  20  1   
 18  10  12  ar  
 19  10  21  1   
 20  11  13  ar  
 21  11  22  1   
 22  12  13  ar  
 23  12  23  1   
 24  13  24  1   
@<TRIPOS>SUBSTRUCTURE
  1 ****   6 GROUP 4 **** **** 0

# MOE 2024.06 (io_trps.svl 2023.06)
