@<TRIPOS>MOLECULE
NONAME
44 47 1 0 0 
SMALL
USER_CHARGES


@<TRIPOS>ATOM
  1 O       -2.0920     0.5590    -2.0320 O.2   1 <1>  -0.5700 
  2 C       -1.8630     0.5730    -0.8370 C.2   1 <1>   0.5440 
  3 N       -1.7940    -0.6280    -0.1900 N.am  1 <1>  -0.7300 
  4 C       -1.6770     1.8250    -0.1230 C.ar  1 <1>   0.0860 
  5 C       -1.9540    -1.9570    -0.8250 C.3   1 <1>   0.2200 
  6 C       -1.3700     3.0000    -0.8210 C.ar  1 <1>  -0.1500 
  7 C       -1.8000     1.9130     1.2730 C.ar  1 <1>  -0.1500 
  8 C       -3.3270    -2.5470    -0.5330 C.3   1 <1>  -0.0800 
  9 C       -1.0640    -2.9560    -0.0990 C.3   1 <1>   0.1200 
 10 C       -1.1900     4.1880    -0.1430 C.ar  1 <1>  -0.1430 
 11 C       -1.6170     3.1070     1.9500 C.ar  1 <1>  -0.1500 
 12 C       -3.1390    -3.1950     0.8430 C.3   1 <1>   0.1200 
 13 C       -4.5130    -1.5680    -0.6190 C.3   1 <1>  -0.0160 
 14 O       -1.7610    -3.2810     1.0660 O.3   1 <1>  -0.5600 
 15 C       -1.3110     4.2380     1.2190 C.ar  1 <1>   0.0830 
 16 C       -0.8590     5.5630    -0.6430 C.3   1 <1>  -0.0170 
 17 C       -5.8310    -2.2910    -0.3900 C.ar  1 <1>  -0.1430 
 18 O       -1.1060     5.4620     1.7190 O.3   1 <1>  -0.3630 
 19 C       -0.8180     6.3730     0.6670 C.3   1 <1>   0.1200 
 20 C       -6.4490    -3.0080    -1.3940 C.ar  1 <1>  -0.1500 
 21 C       -6.4770    -2.2710     0.8300 C.ar  1 <1>  -0.1500 
 22 C       -7.6450    -3.6560    -1.1370 C.ar  1 <1>   0.1600 
 23 C       -7.6720    -2.9540     0.9830 C.ar  1 <1>   0.1600 
 24 N       -8.2710    -3.6490     0.0290 N.ar  1 <1>  -0.6200 
 25 H       -1.5730    -0.6730     0.8060 H     1 <1>   0.3700 
 26 H       -1.7370    -1.9070    -1.8790 H     1 <1>   0.0800 
 27 H       -1.2750     2.9700    -1.8930 H     1 <1>   0.1500 
 28 H       -2.0480     1.0370     1.8440 H     1 <1>   0.1500 
 29 H       -3.4990    -3.3410    -1.2390 H     1 <1>   0.0800 
 30 H       -0.0990    -2.5520     0.1520 H     1 <1>   0.0800 
 31 H       -0.9480    -3.8560    -0.6770 H     1 <1>   0.0800 
 32 H       -1.7090     3.1750     3.0190 H     1 <1>   0.1500 
 33 H       -3.5640    -4.1830     0.8800 H     1 <1>   0.0800 
 34 H       -3.5580    -2.5890     1.6290 H     1 <1>   0.0800 
 35 H       -4.5240    -1.1050    -1.5910 H     1 <1>   0.0800 
 36 H       -4.4080    -0.7830     0.1080 H     1 <1>   0.0800 
 37 H       -1.6230     5.9340    -1.3020 H     1 <1>   0.0800 
 38 H        0.0950     5.5810    -1.1380 H     1 <1>   0.0800 
 39 H       -1.5670     7.1450     0.6790 H     1 <1>   0.0800 
 40 H        0.1560     6.7920     0.8430 H     1 <1>   0.0800 
 41 H       -6.0120    -3.0670    -2.3740 H     1 <1>   0.1500 
 42 H       -6.0650    -1.7300     1.6620 H     1 <1>   0.1500 
 43 H       -8.1130    -4.2110    -1.9330 H     1 <1>   0.1500 
 44 H       -8.1620    -2.9280     1.9420 H     1 <1>   0.1500 
@<TRIPOS>BOND
  1   1   2  2   
  2   2   3  am  
  3   2   4  1   
  4   3   5  1   
  5   3  25  1   
  6   4   6  ar  
  7   4   7  ar  
  8   5   8  1   
  9   5   9  1   
 10   5  26  1   
 11   6  10  ar  
 12   6  27  1   
 13   7  11  ar  
 14   7  28  1   
 15   8  12  1   
 16   8  13  1   
 17   8  29  1   
 18   9  14  1   
 19   9  30  1   
 20   9  31  1   
 21  10  15  ar  
 22  10  16  1   
 23  11  15  ar  
 24  11  32  1   
 25  12  14  1   
 26  12  33  1   
 27  12  34  1   
 28  13  17  1   
 29  13  35  1   
 30  13  36  1   
 31  15  18  1   
 32  16  19  1   
 33  16  37  1   
 34  16  38  1   
 35  17  20  ar  
 36  17  21  ar  
 37  18  19  1   
 38  19  39  1   
 39  19  40  1   
 40  20  22  ar  
 41  20  41  1   
 42  21  23  ar  
 43  21  42  1   
 44  22  24  ar  
 45  22  43  1   
 46  23  24  ar  
 47  23  44  1   
@<TRIPOS>SUBSTRUCTURE
  1 ****   3 GROUP 4 **** **** 0

# MOE 2024.06 (io_trps.svl 2023.06)
