@<TRIPOS>MOLECULE
NONAME
57 59 1 0 0 
SMALL
USER_CHARGES


@<TRIPOS>ATOM
  1 CL      -0.7170    -1.5670    -0.1720 Cl    1 <1>  -0.1770 
  2 C       -2.2640    -0.7710    -0.2810 C.ar  1 <1>   0.1770 
  3 C       -3.1750    -1.1810    -1.2360 C.ar  1 <1>  -0.1500 
  4 C       -2.5620     0.2610     0.5880 C.ar  1 <1>  -0.1500 
  5 C       -4.4030    -0.5470    -1.3170 C.ar  1 <1>  -0.1500 
  6 C       -3.7920     0.8880     0.4970 C.ar  1 <1>  -0.1500 
  7 C       -4.7390     0.4970    -0.4520 C.ar  1 <1>   0.0530 
  8 C       -6.0090     1.1720    -0.5350 C.2   1 <1>   0.0870 
  9 O       -6.0370     2.4810    -0.5210 O.3   1 <1>  -0.0190 
 10 C       -7.2990     0.7450    -0.6340 C.2   1 <1>  -0.0860 
 11 N       -7.2450     2.9660    -0.6190 N.2   1 <1>  -0.4100 
 12 C       -8.0150     1.9450    -0.6850 C.2   1 <1>   0.3720 
 13 C       -7.8470    -0.5790    -0.6640 C.2   1 <1>   0.7160 
 14 N       -9.3850     2.0980    -0.7990 N.pl3 1 <1>  -0.8520 
 15 O       -7.1390    -1.5580    -0.5120 O.2   1 <1>  -0.5700 
 16 N       -9.1830    -0.8000    -0.8230 N.am  1 <1>  -0.7300 
 17 C      -10.1130     2.1240     0.4980 C.3   1 <1>   0.2090 
 18 C       -9.8370    -2.1290    -0.9820 C.3   1 <1>   0.1400 
 19 C      -11.6040     1.8280     0.2930 C.3   1 <1>   0.1200 
 20 C      -10.4420    -2.6910     0.3350 C.3   1 <1>   0.2800 
 21 O      -11.7690     0.5800    -0.3190 O.3   1 <1>  -0.5600 
 22 O      -11.5490    -1.9490     0.6650 O.3   1 <1>  -0.6800 
 23 C      -10.9400    -4.1290     0.1510 C.3   1 <1>  -0.1600 
 24 C       -9.5010    -2.6320     1.5460 C.3   1 <1>  -0.1600 
 25 C      -13.0710     0.3600    -0.7730 C.3   1 <1>   0.0400 
 26 C       -9.7810    -5.1180     0.0460 C.3   1 <1>   0.3430 
 27 C       -8.3510    -3.6220     1.4000 C.3   1 <1>   0.3430 
 28 N       -8.8980    -5.0020     1.2430 N.4   1 <1>  -0.9590 
 29 C       -7.7840    -5.9940     1.1840 C.3   1 <1>   0.2630 
 30 H       -2.9210    -1.9830    -1.9050 H     1 <1>   0.1500 
 31 H       -1.8380     0.5650     1.3220 H     1 <1>   0.1500 
 32 H       -5.1110    -0.8610    -2.0630 H     1 <1>   0.1500 
 33 H       -4.0270     1.6950     1.1700 H     1 <1>   0.1500 
 34 H       -9.5530     2.9880    -1.2820 H     1 <1>   0.4000 
 35 H       -9.7900     0.0370    -0.9220 H     1 <1>   0.3700 
 36 H      -10.0000     3.0960     0.9480 H     1 <1>   0.0800 
 37 H       -9.6970     1.3960     1.1730 H     1 <1>   0.0800 
 38 H       -9.1050    -2.8180    -1.3630 H     1 <1>   0.0800 
 39 H      -10.6120    -2.0490    -1.7250 H     1 <1>   0.0800 
 40 H      -12.0380     2.5890    -0.3330 H     1 <1>   0.0800 
 41 H      -12.1160     1.8120     1.2400 H     1 <1>   0.0800 
 42 H      -11.4450    -1.0090     0.3620 H     1 <1>   0.4000 
 43 H      -11.5390    -4.1930    -0.7410 H     1 <1>   0.0800 
 44 H      -11.5610    -4.4110     0.9830 H     1 <1>   0.0800 
 45 H      -10.0460    -2.8640     2.4440 H     1 <1>   0.0800 
 46 H       -9.0980    -1.6430     1.6630 H     1 <1>   0.0800 
 47 H      -13.1150    -0.6170    -1.2230 H     1 <1>   0.0800 
 48 H      -13.3240     1.1050    -1.5090 H     1 <1>   0.0800 
 49 H      -13.7520     0.4040     0.0600 H     1 <1>   0.0800 
 50 H       -9.2100    -4.9160    -0.8460 H     1 <1>   0.0800 
 51 H      -10.1730    -6.1210    -0.0260 H     1 <1>   0.0800 
 52 H       -7.7200    -3.5700     2.2730 H     1 <1>   0.0800 
 53 H       -7.7540    -3.3720     0.5400 H     1 <1>   0.0800 
 54 H       -9.4750    -5.1980     2.0750 H     1 <1>   0.4500 
 55 H       -7.1570    -5.8010     0.3280 H     1 <1>   0.0800 
 56 H       -8.1770    -6.9950     1.1070 H     1 <1>   0.0800 
 57 H       -7.1790    -5.9300     2.0740 H     1 <1>   0.0800 
@<TRIPOS>BOND
  1   1   2  1   
  2   2   3  ar  
  3   2   4  ar  
  4   3   5  ar  
  5   3  30  1   
  6   4   6  ar  
  7   4  31  1   
  8   5   7  ar  
  9   5  32  1   
 10   6   7  ar  
 11   6  33  1   
 12   7   8  1   
 13   8   9  1   
 14   8  10  2   
 15   9  11  1   
 16  10  12  1   
 17  10  13  1   
 18  11  12  2   
 19  12  14  1   
 20  13  15  2   
 21  13  16  am  
 22  14  17  1   
 23  14  34  1   
 24  16  18  1   
 25  16  35  1   
 26  17  19  1   
 27  17  36  1   
 28  17  37  1   
 29  18  20  1   
 30  18  38  1   
 31  18  39  1   
 32  19  21  1   
 33  19  40  1   
 34  19  41  1   
 35  20  22  1   
 36  20  23  1   
 37  20  24  1   
 38  21  25  1   
 39  22  42  1   
 40  23  26  1   
 41  23  43  1   
 42  23  44  1   
 43  24  27  1   
 44  24  45  1   
 45  24  46  1   
 46  25  47  1   
 47  25  48  1   
 48  25  49  1   
 49  26  28  1   
 50  26  50  1   
 51  26  51  1   
 52  27  28  1   
 53  27  52  1   
 54  27  53  1   
 55  28  29  1   
 56  28  54  1   
 57  29  55  1   
 58  29  56  1   
 59  29  57  1   
@<TRIPOS>SUBSTRUCTURE
  1 ****  13 GROUP 4 **** **** 0

# MOE 2024.06 (io_trps.svl 2023.06)
