@<TRIPOS>MOLECULE
NONAME
44 45 1 0 0 
SMALL
USER_CHARGES


@<TRIPOS>ATOM
  1 CL      -1.9340    -3.6640     0.7460 Cl    1 <1>  -0.1770 
  2 C       -0.2480    -3.2030     0.7320 C.ar  1 <1>   0.1770 
  3 C        0.4740    -3.2010    -0.4600 C.ar  1 <1>  -0.1440 
  4 C        0.3380    -2.8600     1.9360 C.ar  1 <1>  -0.1500 
  5 C        1.8180    -2.8470    -0.4300 C.ar  1 <1>  -0.1500 
  6 C       -0.1770    -3.5790    -1.7930 C.3   1 <1>   0.0450 
  7 C        1.6730    -2.5110     1.9260 C.ar  1 <1>   0.1900 
  8 C        2.4250    -2.4990     0.7670 C.ar  1 <1>  -0.1500 
  9 C       -0.2910    -5.0780    -2.0250 C.2   1 <1>   0.5690 
 10 F        2.2450    -2.1810     3.0520 F     1 <1>  -0.1900 
 11 O       -0.5220    -5.4740    -3.1400 O.2   1 <1>  -0.5700 
 12 N       -0.1640    -5.9380    -0.9850 N.am  1 <1>  -0.7300 
 13 C       -0.2800    -7.4120    -1.0560 C.3   1 <1>   0.2200 
 14 C       -1.6440    -7.8660    -0.5610 C.3   1 <1>  -0.0800 
 15 C        0.6160    -8.0180     0.0140 C.3   1 <1>   0.1200 
 16 C       -1.4660    -7.8630     0.9620 C.3   1 <1>   0.1200 
 17 C       -2.8360    -7.0360    -1.0870 C.3   1 <1>  -0.0550 
 18 O       -0.0880    -7.8530     1.2070 O.3   1 <1>  -0.5600 
 19 S       -4.4460    -7.7010    -0.6570 S.o2  1 <1>   1.3330 
 20 O       -5.4760    -6.8800    -1.2520 O.2   1 <1>  -0.6500 
 21 O       -4.4270    -9.1240    -0.9160 O.2   1 <1>  -0.6500 
 22 N       -4.5420    -7.4830     1.0250 N.am  1 <1>  -0.8490 
 23 C       -5.4620    -8.4360     1.6530 C.3   1 <1>   0.1160 
 24 C       -4.9080    -6.1150     1.4120 C.3   1 <1>   0.1160 
 25 H       -0.2240    -2.8650     2.8510 H     1 <1>   0.1500 
 26 H        2.4020    -2.8390    -1.3360 H     1 <1>   0.1500 
 27 H        0.3940    -3.1640    -2.6030 H     1 <1>   0.0800 
 28 H       -1.1600    -3.1530    -1.8570 H     1 <1>   0.0800 
 29 H        3.4640    -2.2220     0.8040 H     1 <1>   0.1500 
 30 H        0.0040    -5.5840    -0.0390 H     1 <1>   0.3700 
 31 H       -0.0480    -7.7690    -2.0460 H     1 <1>   0.0800 
 32 H       -1.7820    -8.8890    -0.8700 H     1 <1>   0.0800 
 33 H        1.5740    -7.5330     0.0840 H     1 <1>   0.0800 
 34 H        0.7480    -9.0740    -0.1490 H     1 <1>   0.0800 
 35 H       -1.8990    -8.7360     1.4190 H     1 <1>   0.0800 
 36 H       -1.8790    -6.9760     1.4100 H     1 <1>   0.0800 
 37 H       -2.7650    -6.9990    -2.1570 H     1 <1>   0.0800 
 38 H       -2.7650    -6.0290    -0.7300 H     1 <1>   0.0800 
 39 H       -5.4920    -8.2810     2.7180 H     1 <1>   0.0800 
 40 H       -5.1300    -9.4440     1.4690 H     1 <1>   0.0800 
 41 H       -6.4540    -8.3200     1.2480 H     1 <1>   0.0800 
 42 H       -4.8620    -6.0080     2.4820 H     1 <1>   0.0800 
 43 H       -5.9070    -5.8830     1.0790 H     1 <1>   0.0800 
 44 H       -4.2270    -5.4080     0.9720 H     1 <1>   0.0800 
@<TRIPOS>BOND
  1   1   2  1   
  2   2   3  ar  
  3   2   4  ar  
  4   3   5  ar  
  5   3   6  1   
  6   4   7  ar  
  7   4  25  1   
  8   5   8  ar  
  9   5  26  1   
 10   6   9  1   
 11   6  27  1   
 12   6  28  1   
 13   7   8  ar  
 14   7  10  1   
 15   8  29  1   
 16   9  11  2   
 17   9  12  am  
 18  12  13  1   
 19  12  30  1   
 20  13  14  1   
 21  13  15  1   
 22  13  31  1   
 23  14  16  1   
 24  14  17  1   
 25  14  32  1   
 26  15  18  1   
 27  15  33  1   
 28  15  34  1   
 29  16  18  1   
 30  16  35  1   
 31  16  36  1   
 32  17  19  1   
 33  17  37  1   
 34  17  38  1   
 35  19  20  2   
 36  19  21  2   
 37  19  22  am  
 38  22  23  1   
 39  22  24  1   
 40  23  39  1   
 41  23  40  1   
 42  23  41  1   
 43  24  42  1   
 44  24  43  1   
 45  24  44  1   
@<TRIPOS>SUBSTRUCTURE
  1 ****  12 GROUP 4 **** **** 0

# MOE 2024.06 (io_trps.svl 2023.06)
