@<TRIPOS>MOLECULE
NONAME
56 58 1 0 0 
SMALL
USER_CHARGES


@<TRIPOS>ATOM
  1 O        3.6030    -0.6880     1.6440 O.2   1 <1>  -0.5700 
  2 C        2.8030    -1.1060     0.8220 C.2   1 <1>   0.5440 
  3 N        2.6400    -0.3250    -0.2940 N.am  1 <1>  -0.6600 
  4 C        2.1640    -2.4000     0.9870 C.ar  1 <1>   0.0860 
  5 C        3.5700    -0.4590    -1.4520 C.3   1 <1>   0.1400 
  6 C        1.8520     0.9310    -0.2270 C.3   1 <1>   0.1400 
  7 C        0.8510    -2.6800     0.5730 C.ar  1 <1>   0.0820 
  8 C        2.8860    -3.4340     1.5890 C.ar  1 <1>  -0.1500 
  9 C        4.9530     0.1660    -1.1680 C.3   1 <1>   0.3430 
 10 C        2.6760     2.0930     0.3450 C.3   1 <1>  -0.1600 
 11 O        0.1190    -1.6780     0.0250 O.3   1 <1>  -0.3630 
 12 C        0.3200    -3.9590     0.7400 C.ar  1 <1>  -0.1500 
 13 C        2.3530    -4.6970     1.7570 C.ar  1 <1>  -0.1500 
 14 N        4.9190     1.1470    -0.0340 N.4   1 <1>  -0.9590 
 15 C        4.0420     2.3120    -0.3110 C.3   1 <1>   0.3430 
 16 C       -1.2170    -1.8380    -0.3920 C.3   1 <1>   0.1200 
 17 C        1.0670    -4.9610     1.3260 C.ar  1 <1>  -0.1500 
 18 C        6.3010     1.5030     0.4560 C.3   1 <1>   0.3430 
 19 C       -1.7000    -0.4990    -0.9400 C.3   1 <1>  -0.2400 
 20 C        7.1150     2.4990    -0.4150 C.3   1 <1>   0.3440 
 21 O        7.0240     2.1970    -1.7670 O.3   1 <1>  -0.6800 
 22 C        8.5850     2.4750    -0.0300 C.ar  1 <1>  -0.1440 
 23 C        9.3850     1.3800    -0.3330 C.ar  1 <1>  -0.1500 
 24 C        9.1430     3.5560     0.6380 C.ar  1 <1>  -0.1500 
 25 C       10.7190     1.3650     0.0320 C.ar  1 <1>  -0.1500 
 26 C       10.4780     3.5400     1.0020 C.ar  1 <1>  -0.1500 
 27 C       11.2670     2.4450     0.7000 C.ar  1 <1>  -0.1500 
 28 H        3.1360     0.0140    -2.3160 H     1 <1>   0.0800 
 29 H        3.6960    -1.5010    -1.6910 H     1 <1>   0.0800 
 30 H        0.9900     0.7690     0.4000 H     1 <1>   0.0800 
 31 H        1.4910     1.1760    -1.2120 H     1 <1>   0.0800 
 32 H        3.8870    -3.2410     1.9340 H     1 <1>   0.1500 
 33 H        5.3270     0.6340    -2.0630 H     1 <1>   0.0800 
 34 H        5.6310    -0.6320    -0.9150 H     1 <1>   0.0800 
 35 H        2.8060     1.9490     1.4030 H     1 <1>   0.0800 
 36 H        2.0990     2.9930     0.2270 H     1 <1>   0.0800 
 37 H       -0.6770    -4.1970     0.4240 H     1 <1>   0.1500 
 38 H        2.9350    -5.4750     2.2220 H     1 <1>   0.1500 
 39 H        4.4360     0.6090     0.7230 H     1 <1>   0.4500 
 40 H        4.4810     3.2040     0.1040 H     1 <1>   0.0800 
 41 H        3.9340     2.4540    -1.3740 H     1 <1>   0.0800 
 42 H       -1.8080    -2.1380     0.4570 H     1 <1>   0.0800 
 43 H       -1.2490    -2.5950    -1.1570 H     1 <1>   0.0800 
 44 H        0.6500    -5.9450     1.4530 H     1 <1>   0.1500 
 45 H        6.8790     0.6000     0.5530 H     1 <1>   0.0800 
 46 H        6.2240     1.9220     1.4450 H     1 <1>   0.0800 
 47 H       -1.6580     0.2520    -0.1720 H     1 <1>   0.0800 
 48 H       -2.7190    -0.5900    -1.2720 H     1 <1>   0.0800 
 49 H       -1.0930    -0.2000    -1.7750 H     1 <1>   0.0800 
 50 H        6.7250     3.4940    -0.2840 H     1 <1>   0.0800 
 51 H        7.7760     2.6270    -2.2290 H     1 <1>   0.4000 
 52 H        8.9810     0.5310    -0.8570 H     1 <1>   0.1500 
 53 H        8.5530     4.4220     0.8840 H     1 <1>   0.1500 
 54 H       11.3360     0.5150    -0.2060 H     1 <1>   0.1500 
 55 H       10.9080     4.3800     1.5210 H     1 <1>   0.1500 
 56 H       12.3060     2.4340     0.9830 H     1 <1>   0.1500 
@<TRIPOS>BOND
  1   1   2  2   
  2   2   3  am  
  3   2   4  1   
  4   3   5  1   
  5   3   6  1   
  6   4   7  ar  
  7   4   8  ar  
  8   5   9  1   
  9   5  28  1   
 10   5  29  1   
 11   6  10  1   
 12   6  30  1   
 13   6  31  1   
 14   7  11  1   
 15   7  12  ar  
 16   8  13  ar  
 17   8  32  1   
 18   9  14  1   
 19   9  33  1   
 20   9  34  1   
 21  10  15  1   
 22  10  35  1   
 23  10  36  1   
 24  11  16  1   
 25  12  17  ar  
 26  12  37  1   
 27  13  17  ar  
 28  13  38  1   
 29  14  15  1   
 30  14  18  1   
 31  14  39  1   
 32  15  40  1   
 33  15  41  1   
 34  16  19  1   
 35  16  42  1   
 36  16  43  1   
 37  17  44  1   
 38  18  20  1   
 39  18  45  1   
 40  18  46  1   
 41  19  47  1   
 42  19  48  1   
 43  19  49  1   
 44  20  21  1   
 45  20  22  1   
 46  20  50  1   
 47  21  51  1   
 48  22  23  ar  
 49  22  24  ar  
 50  23  25  ar  
 51  23  52  1   
 52  24  26  ar  
 53  24  53  1   
 54  25  27  ar  
 55  25  54  1   
 56  26  27  ar  
 57  26  55  1   
 58  27  56  1   
@<TRIPOS>SUBSTRUCTURE
  1 ****  14 GROUP 4 **** **** 0

# MOE 2024.06 (io_trps.svl 2023.06)
