@<TRIPOS>MOLECULE
NONAME
33 34 1 0 0 
SMALL
USER_CHARGES


@<TRIPOS>ATOM
  1 S       -0.2260     0.0110    -0.4510 S.3   1 <1>  -0.0800 
  2 C       -1.3530    -0.9320     0.4650 C.2   1 <1>   0.4420 
  3 C       -0.4630     1.2840     0.7010 C.2   1 <1>   0.1980 
  4 N       -1.7910    -0.3020     1.4940 N.2   1 <1>  -0.3380 
  5 N       -1.6160    -2.1970    -0.0080 N.am  1 <1>  -0.4940 
  6 N       -1.2820     0.9600     1.6210 N.2   1 <1>  -0.3380 
  7 C        0.2930     2.5960     0.5230 C.3   1 <1>   0.3800 
  8 C       -2.4750    -3.1520     0.4630 C.2   1 <1>   0.7160 
  9 O        0.2190     2.9980    -0.8160 O.3   1 <1>  -0.5600 
 10 C        1.7700     2.4500     0.9010 C.3   1 <1>  -0.2400 
 11 O       -3.2350    -2.9100     1.3740 O.2   1 <1>  -0.5700 
 12 C       -2.4760    -4.4390    -0.1790 C.2   1 <1>  -0.0860 
 13 C        0.2530     4.3740    -1.0330 C.3   1 <1>   0.0400 
 14 C       -1.4810    -5.2020    -0.6860 C.2   1 <1>  -0.0400 
 15 C       -3.5830    -5.2310    -0.4490 C.2   1 <1>   0.1080 
 16 O       -1.9320    -6.3080    -1.2270 O.3   1 <1>  -0.0190 
 17 C        0.0220    -4.9910    -0.7000 C.3   1 <1>  -0.0600 
 18 N       -3.2330    -6.2980    -1.0620 N.2   1 <1>  -0.4100 
 19 C       -5.0200    -4.9100    -0.0890 C.3   1 <1>  -0.0590 
 20 H       -1.1320    -2.4500    -0.8620 H     1 <1>   0.3700 
 21 H       -0.1790     3.3410     1.1410 H     1 <1>   0.0800 
 22 H        2.2550     1.7520     0.2430 H     1 <1>   0.0800 
 23 H        1.8470     2.0840     1.9090 H     1 <1>   0.0800 
 24 H        2.2700     3.3990     0.8490 H     1 <1>   0.0800 
 25 H        0.1910     4.5460    -2.0930 H     1 <1>   0.0800 
 26 H        1.1770     4.7780    -0.6570 H     1 <1>   0.0800 
 27 H       -0.5900     4.8330    -0.5450 H     1 <1>   0.0800 
 28 H        0.3060    -4.1370    -0.1140 H     1 <1>   0.0800 
 29 H        0.3640    -4.8600    -1.7110 H     1 <1>   0.0800 
 30 H        0.5070    -5.8580    -0.2860 H     1 <1>   0.0800 
 31 H       -5.2920    -3.9460    -0.4750 H     1 <1>   0.0800 
 32 H       -5.1320    -4.9030     0.9800 H     1 <1>   0.0800 
 33 H       -5.6800    -5.6510    -0.5020 H     1 <1>   0.0800 
@<TRIPOS>BOND
  1   1   2  1   
  2   1   3  1   
  3   2   4  2   
  4   2   5  1   
  5   3   6  2   
  6   3   7  1   
  7   4   6  1   
  8   5   8  am  
  9   5  20  1   
 10   7   9  1   
 11   7  10  1   
 12   7  21  1   
 13   8  11  2   
 14   8  12  1   
 15   9  13  1   
 16  10  22  1   
 17  10  23  1   
 18  10  24  1   
 19  12  14  2   
 20  12  15  1   
 21  13  25  1   
 22  13  26  1   
 23  13  27  1   
 24  14  16  1   
 25  14  17  1   
 26  15  18  2   
 27  15  19  1   
 28  16  18  1   
 29  17  28  1   
 30  17  29  1   
 31  17  30  1   
 32  19  31  1   
 33  19  32  1   
 34  19  33  1   
@<TRIPOS>SUBSTRUCTURE
  1 ****   5 GROUP 4 **** **** 0

# MOE 2024.06 (io_trps.svl 2023.06)
