@<TRIPOS>MOLECULE
NONAME
52 54 1 0 0 
SMALL
USER_CHARGES


@<TRIPOS>ATOM
  1 O        2.0730     2.7800     1.6040 O.2   1 <1>  -0.5700 
  2 C        2.9030     1.9580     1.3170 C.2   1 <1>   0.5690 
  3 N        4.1530     2.2550     0.9280 N.am  1 <1>  -0.7300 
  4 C        2.6980     0.4700     1.3510 C.3   1 <1>  -0.0990 
  5 C        4.9630     1.0720     0.6240 C.3   1 <1>   0.3000 
  6 C        4.1510    -0.0520     1.2940 C.3   1 <1>  -0.1860 
  7 C        5.0350     0.9490    -0.9120 C.3   1 <1>  -0.1600 
  8 C        6.3560     1.2110     1.2500 C.3   1 <1>  -0.1600 
  9 C        4.3910    -1.3750     0.6080 C.2   1 <1>   0.9060 
 10 C        5.9190     2.0180    -1.5250 C.3   1 <1>   0.3430 
 11 C        7.2120     2.2420     0.5300 C.3   1 <1>   0.3430 
 12 O        3.4870    -1.9040    -0.0370 O.co2 1 <1>  -0.9000 
 13 O        5.5460    -1.8140     0.6250 O.co2 1 <1>  -0.9000 
 14 N        7.2770     1.9110    -0.9220 N.4   1 <1>  -0.9590 
 15 C        8.2780     2.7480    -1.6510 C.3   1 <1>   0.4860 
 16 C        7.8190     4.1980    -1.7070 C.ar  1 <1>  -0.1440 
 17 C        8.0080     5.0260    -0.6130 C.ar  1 <1>  -0.1500 
 18 C        7.1910     4.7030    -2.8360 C.ar  1 <1>  -0.1500 
 19 C        7.5280     6.3250    -0.6050 C.ar  1 <1>  -0.1440 
 20 C        6.7370     6.0100    -2.8540 C.ar  1 <1>  -0.1500 
 21 C        6.8960     6.8270    -1.7380 C.ar  1 <1>   0.0820 
 22 C        7.6860     7.1940     0.6390 C.3   1 <1>   0.2630 
 23 O        6.4620     8.1140    -1.6990 O.3   1 <1>  -0.3630 
 24 O        7.6900     6.3820     1.7800 O.3   1 <1>  -0.5600 
 25 C        5.8000     8.7130    -2.7920 C.3   1 <1>   0.0400 
 26 C        7.7570     7.0970     2.9720 C.3   1 <1>   0.0400 
 27 H        4.4750     3.2210     0.8920 H     1 <1>   0.3700 
 28 H        2.1320     0.1740     0.4860 H     1 <1>   0.0800 
 29 H        2.1930     0.1590     2.2460 H     1 <1>   0.0800 
 30 H        4.4910    -0.1730     2.3050 H     1 <1>   0.0800 
 31 H        4.0450     1.0020    -1.3300 H     1 <1>   0.0800 
 32 H        5.4440    -0.0010    -1.2060 H     1 <1>   0.0800 
 33 H        6.8620     0.2630     1.2150 H     1 <1>   0.0800 
 34 H        6.2620     1.4800     2.2870 H     1 <1>   0.0800 
 35 H        5.5010     2.9940    -1.3320 H     1 <1>   0.0800 
 36 H        5.9690     1.8690    -2.5910 H     1 <1>   0.0800 
 37 H        8.2020     2.2430     0.9570 H     1 <1>   0.0800 
 38 H        6.7820     3.2210     0.6650 H     1 <1>   0.0800 
 39 H        7.5530     0.9200    -0.9890 H     1 <1>   0.4500 
 40 H        8.4000     2.3770    -2.6550 H     1 <1>   0.0800 
 41 H        9.2330     2.6930    -1.1560 H     1 <1>   0.0800 
 42 H        8.5260     4.6640     0.2580 H     1 <1>   0.1500 
 43 H        7.0480     4.0900    -3.7100 H     1 <1>   0.1500 
 44 H        6.2600     6.3750    -3.7440 H     1 <1>   0.1500 
 45 H        6.8650     7.8870     0.7220 H     1 <1>   0.0800 
 46 H        8.6140     7.7380     0.5960 H     1 <1>   0.0800 
 47 H        5.5510     9.7230    -2.5180 H     1 <1>   0.0800 
 48 H        4.9020     8.1610    -3.0030 H     1 <1>   0.0800 
 49 H        6.4610     8.7190    -3.6410 H     1 <1>   0.0800 
 50 H        7.7650     6.3940     3.7870 H     1 <1>   0.0800 
 51 H        6.8930     7.7340     3.0550 H     1 <1>   0.0800 
 52 H        8.6620     7.6810     2.9890 H     1 <1>   0.0800 
@<TRIPOS>BOND
  1   1   2  2   
  2   2   3  am  
  3   2   4  1   
  4   3   5  1   
  5   3  27  1   
  6   4   6  1   
  7   4  28  1   
  8   4  29  1   
  9   5   6  1   
 10   5   7  1   
 11   5   8  1   
 12   6   9  1   
 13   6  30  1   
 14   7  10  1   
 15   7  31  1   
 16   7  32  1   
 17   8  11  1   
 18   8  33  1   
 19   8  34  1   
 20   9  12  ar  
 21   9  13  ar  
 22  10  14  1   
 23  10  35  1   
 24  10  36  1   
 25  11  14  1   
 26  11  37  1   
 27  11  38  1   
 28  14  15  1   
 29  14  39  1   
 30  15  16  1   
 31  15  40  1   
 32  15  41  1   
 33  16  17  ar  
 34  16  18  ar  
 35  17  19  ar  
 36  17  42  1   
 37  18  20  ar  
 38  18  43  1   
 39  19  21  ar  
 40  19  22  1   
 41  20  21  ar  
 42  20  44  1   
 43  21  23  1   
 44  22  24  1   
 45  22  45  1   
 46  22  46  1   
 47  23  25  1   
 48  24  26  1   
 49  25  47  1   
 50  25  48  1   
 51  25  49  1   
 52  26  50  1   
 53  26  51  1   
 54  26  52  1   
@<TRIPOS>SUBSTRUCTURE
  1 ****  11 GROUP 4 **** **** 0

# MOE 2024.06 (io_trps.svl 2023.06)
