@<TRIPOS>MOLECULE
NONAME
47 49 1 0 0 
SMALL
USER_CHARGES


@<TRIPOS>ATOM
  1 O        1.3320     2.1530     1.6700 O.3   1 <1>  -0.5600 
  2 C        1.6510     3.4410     1.2390 C.3   1 <1>   0.1200 
  3 C        1.1490     1.2240     0.6480 C.3   1 <1>   0.1200 
  4 C        2.9910     3.4180     0.4970 C.3   1 <1>  -0.1600 
  5 C        2.4660     1.0460    -0.1150 C.3   1 <1>  -0.1600 
  6 C        2.9760     2.3920    -0.6530 C.3   1 <1>  -0.0800 
  7 C        4.3590     2.2260    -1.3020 C.3   1 <1>   0.2090 
  8 N        4.7880     3.4920    -1.9340 N.pl3 1 <1>  -0.8690 
  9 C        5.7680     4.2600    -1.3830 C.ar  1 <1>   0.4100 
 10 N        5.4420     5.4910    -1.1820 N.ar  1 <1>  -0.6200 
 11 C        7.0240     3.7330    -1.0640 C.ar  1 <1>  -0.1500 
 12 C        6.3610     6.3140    -0.6050 C.ar  1 <1>   0.3100 
 13 C        7.9810     4.5100    -0.4880 C.ar  1 <1>  -0.1430 
 14 C        7.6620     5.8750    -0.2230 C.ar  1 <1>   0.0000 
 15 C        5.9830     7.6660    -0.3780 C.ar  1 <1>   0.0820 
 16 C        9.3240     3.8570    -0.1780 C.3   1 <1>  -0.0970 
 17 C        8.5300     6.8300     0.3860 C.ar  1 <1>   0.0820 
 18 O        4.7250     8.0510    -0.7560 O.3   1 <1>  -0.3630 
 19 C        6.8570     8.5510     0.2060 C.ar  1 <1>  -0.1500 
 20 O        9.7730     6.4320     0.7710 O.3   1 <1>  -0.3630 
 21 C        8.1250     8.1310     0.5860 C.ar  1 <1>  -0.1500 
 22 C        4.2850     9.3880    -0.6790 C.3   1 <1>   0.0400 
 23 C       10.7140     7.2950     1.3730 C.3   1 <1>   0.0400 
 24 H        1.7140     4.0730     2.1070 H     1 <1>   0.0800 
 25 H        0.8590     3.7970     0.6030 H     1 <1>   0.0800 
 26 H        0.3630     1.5740     0.0010 H     1 <1>   0.0800 
 27 H        0.8450     0.2960     1.1000 H     1 <1>   0.0800 
 28 H        3.7690     3.1770     1.1990 H     1 <1>   0.0800 
 29 H        3.1930     4.4030     0.1150 H     1 <1>   0.0800 
 30 H        2.3140     0.3580    -0.9270 H     1 <1>   0.0800 
 31 H        3.1900     0.6150     0.5550 H     1 <1>   0.0800 
 32 H        2.2870     2.7290    -1.4080 H     1 <1>   0.0800 
 33 H        4.3170     1.4620    -2.0600 H     1 <1>   0.0800 
 34 H        5.0740     1.9220    -0.5560 H     1 <1>   0.0800 
 35 H        3.9970     4.0940    -2.1770 H     1 <1>   0.4000 
 36 H        7.1960     2.7020    -1.3010 H     1 <1>   0.1500 
 37 H        9.3380     2.8270    -0.4840 H     1 <1>   0.0800 
 38 H        9.5160     3.8940     0.8790 H     1 <1>   0.0800 
 39 H       10.1120     4.3700    -0.7010 H     1 <1>   0.0800 
 40 H        6.5960     9.5760     0.3880 H     1 <1>   0.1500 
 41 H        8.7630     8.8650     1.0390 H     1 <1>   0.1500 
 42 H        3.2880     9.4320    -1.0790 H     1 <1>   0.0800 
 43 H        4.9410    10.0060    -1.2660 H     1 <1>   0.0800 
 44 H        4.2790     9.6950     0.3510 H     1 <1>   0.0800 
 45 H       11.6070     6.7290     1.5700 H     1 <1>   0.0800 
 46 H       10.3080     7.6670     2.2970 H     1 <1>   0.0800 
 47 H       10.9360     8.0990     0.6940 H     1 <1>   0.0800 
@<TRIPOS>BOND
  1   1   2  1   
  2   1   3  1   
  3   2   4  1   
  4   2  24  1   
  5   2  25  1   
  6   3   5  1   
  7   3  26  1   
  8   3  27  1   
  9   4   6  1   
 10   4  28  1   
 11   4  29  1   
 12   5   6  1   
 13   5  30  1   
 14   5  31  1   
 15   6   7  1   
 16   6  32  1   
 17   7   8  1   
 18   7  33  1   
 19   7  34  1   
 20   8   9  1   
 21   8  35  1   
 22   9  10  ar  
 23   9  11  ar  
 24  10  12  ar  
 25  11  13  ar  
 26  11  36  1   
 27  12  14  ar  
 28  12  15  ar  
 29  13  14  ar  
 30  13  16  1   
 31  14  17  ar  
 32  15  18  1   
 33  15  19  ar  
 34  16  37  1   
 35  16  38  1   
 36  16  39  1   
 37  17  20  1   
 38  17  21  ar  
 39  18  22  1   
 40  19  21  ar  
 41  19  40  1   
 42  20  23  1   
 43  21  41  1   
 44  22  42  1   
 45  22  43  1   
 46  22  44  1   
 47  23  45  1   
 48  23  46  1   
 49  23  47  1   
@<TRIPOS>SUBSTRUCTURE
  1 ****  10 GROUP 4 **** **** 0

# MOE 2024.06 (io_trps.svl 2023.06)
