@<TRIPOS>MOLECULE
NONAME
52 55 1 0 0 
SMALL
USER_CHARGES


@<TRIPOS>ATOM
  1 S        0.0700     0.6030    -0.0740 S.3   1 <1>  -0.0800 
  2 C        1.1030    -0.7780     0.3250 C.2   1 <1>  -0.0450 
  3 C        0.7070     1.5570     1.2450 C.2   1 <1>  -0.1100 
  4 C        1.8670    -0.4510     1.4030 C.2   1 <1>  -0.1810 
  5 C        1.0250    -1.9580    -0.5050 C.2   1 <1>   0.7150 
  6 C        1.6380     0.8600     1.9200 C.2   1 <1>  -0.1500 
  7 C        2.9020    -1.3480     2.0600 C.3   1 <1>  -0.0590 
  8 O        2.0540    -2.4810    -0.8960 O.2   1 <1>  -0.5700 
  9 N       -0.1800    -2.5360    -0.8550 N.am  1 <1>  -0.6600 
 10 C       -0.2920    -3.5040    -1.9800 C.3   1 <1>   0.1400 
 11 C       -1.4330    -2.3670    -0.0700 C.3   1 <1>   0.1400 
 12 C       -0.7200    -4.8690    -1.4380 C.3   1 <1>  -0.1600 
 13 C       -1.8680    -3.7250     0.4840 C.3   1 <1>  -0.1600 
 14 C       -2.0200    -4.7810    -0.6250 C.3   1 <1>   0.4240 
 15 O       -2.9960    -4.3250    -1.5320 O.3   1 <1>  -0.5600 
 16 C       -2.3860    -6.1600    -0.0370 C.ar  1 <1>  -0.1430 
 17 C       -4.3320    -4.5680    -1.2180 C.3   1 <1>   0.1200 
 18 C       -3.5960    -6.7730    -0.3320 C.ar  1 <1>  -0.1430 
 19 C       -1.5060    -6.8190     0.8130 C.ar  1 <1>  -0.1500 
 20 C       -4.5800    -6.0730    -1.2490 C.3   1 <1>  -0.0170 
 21 C       -3.9110    -8.0110     0.2060 C.ar  1 <1>  -0.1500 
 22 C       -1.8010    -8.0590     1.3540 C.ar  1 <1>   0.0830 
 23 C       -3.0300    -8.6690     1.0590 C.ar  1 <1>   0.0830 
 24 O       -0.8300    -8.5790     2.1570 O.3   1 <1>  -0.3630 
 25 O       -3.3460    -9.8730     1.6210 O.3   1 <1>  -0.3630 
 26 C       -0.5930    -9.9680     2.2020 C.3   1 <1>   0.0400 
 27 C       -4.6300   -10.4450     1.4970 C.3   1 <1>   0.0400 
 28 H        0.3170     2.5500     1.3780 H     1 <1>   0.1500 
 29 H        2.1830     1.2250     2.7730 H     1 <1>   0.1500 
 30 H        2.9320    -2.3130     1.5880 H     1 <1>   0.0800 
 31 H        2.6650    -1.4830     3.1000 H     1 <1>   0.0800 
 32 H        3.8760    -0.9000     1.9780 H     1 <1>   0.0800 
 33 H        0.6460    -3.5970    -2.5000 H     1 <1>   0.0800 
 34 H       -1.0240    -3.1420    -2.6820 H     1 <1>   0.0800 
 35 H       -2.1990    -1.9640    -0.7120 H     1 <1>   0.0800 
 36 H       -1.2850    -1.6870     0.7500 H     1 <1>   0.0800 
 37 H        0.0780    -5.2480    -0.8270 H     1 <1>   0.0800 
 38 H       -0.8600    -5.5580    -2.2500 H     1 <1>   0.0800 
 39 H       -2.7890    -3.6240     1.0260 H     1 <1>   0.0800 
 40 H       -1.1260    -4.0510     1.1890 H     1 <1>   0.0800 
 41 H       -4.9390    -4.0710    -1.9540 H     1 <1>   0.0800 
 42 H       -4.5490    -4.1580    -0.2470 H     1 <1>   0.0800 
 43 H       -0.5620    -6.3770     1.0710 H     1 <1>   0.1500 
 44 H       -4.4590    -6.4340    -2.2540 H     1 <1>   0.0800 
 45 H       -5.5890    -6.2710    -0.9360 H     1 <1>   0.0800 
 46 H       -4.8550    -8.4480    -0.0530 H     1 <1>   0.1500 
 47 H        0.4060   -10.1270     2.5640 H     1 <1>   0.0800 
 48 H       -0.6970   -10.3760     1.2110 H     1 <1>   0.0800 
 49 H       -1.2990   -10.4190     2.8760 H     1 <1>   0.0800 
 50 H       -4.6500   -11.3470     2.0820 H     1 <1>   0.0800 
 51 H       -4.8110   -10.6780     0.4630 H     1 <1>   0.0800 
 52 H       -5.3600    -9.7510     1.8720 H     1 <1>   0.0800 
@<TRIPOS>BOND
  1   1   2  1   
  2   1   3  1   
  3   2   4  2   
  4   2   5  1   
  5   3   6  2   
  6   3  28  1   
  7   4   6  1   
  8   4   7  1   
  9   5   8  2   
 10   5   9  am  
 11   6  29  1   
 12   7  30  1   
 13   7  31  1   
 14   7  32  1   
 15   9  10  1   
 16   9  11  1   
 17  10  12  1   
 18  10  33  1   
 19  10  34  1   
 20  11  13  1   
 21  11  35  1   
 22  11  36  1   
 23  12  14  1   
 24  12  37  1   
 25  12  38  1   
 26  13  14  1   
 27  13  39  1   
 28  13  40  1   
 29  14  15  1   
 30  14  16  1   
 31  15  17  1   
 32  16  18  ar  
 33  16  19  ar  
 34  17  20  1   
 35  17  41  1   
 36  17  42  1   
 37  18  20  1   
 38  18  21  ar  
 39  19  22  ar  
 40  19  43  1   
 41  20  44  1   
 42  20  45  1   
 43  21  23  ar  
 44  21  46  1   
 45  22  23  ar  
 46  22  24  1   
 47  23  25  1   
 48  24  26  1   
 49  25  27  1   
 50  26  47  1   
 51  26  48  1   
 52  26  49  1   
 53  27  50  1   
 54  27  51  1   
 55  27  52  1   
@<TRIPOS>SUBSTRUCTURE
  1 ****  13 GROUP 4 **** **** 0

# MOE 2024.06 (io_trps.svl 2023.06)
