@<TRIPOS>MOLECULE
NONAME
48 50 1 0 0 
SMALL
USER_CHARGES


@<TRIPOS>ATOM
  1 O        0.6490     0.0170    -1.2210 O.2   1 <1>  -0.5700 
  2 C        1.0250    -0.4540    -0.1730 C.2   1 <1>   0.5690 
  3 N        1.6160     0.3250     0.7860 N.am  1 <1>  -0.6600 
  4 C        0.8530    -1.9460     0.0640 C.3   1 <1>  -0.0990 
  5 C        2.0210     1.7310     0.4570 C.3   1 <1>   0.3200 
  6 C        2.0660    -0.1740     2.1190 C.3   1 <1>   0.0600 
  7 C        0.3250    -2.7080    -1.1590 C.3   1 <1>   0.0200 
  8 C        3.5130     1.8840     0.1640 C.2   1 <1>   0.2980 
  9 C        0.3190    -4.1990    -0.8800 C.2   1 <1>   0.0060 
 10 O        3.9600     3.0330    -0.2320 O.3   1 <1>  -0.2800 
 11 N        4.4490     1.0130     0.2590 N.2   1 <1>  -0.3380 
 12 N       -0.5850    -4.7970    -0.1860 N.2   1 <1>  -0.5650 
 13 N        1.2940    -5.0240    -1.3380 N.pl3 1 <1>   0.0330 
 14 C        5.2300     2.8370    -0.3860 C.2   1 <1>   0.2980 
 15 N        5.5710     1.6380    -0.1000 N.2   1 <1>  -0.3380 
 16 C       -0.1950    -6.1030    -0.1780 C.ar  1 <1>   0.2270 
 17 C        0.9760    -6.2630    -0.8890 C.ar  1 <1>  -0.1520 
 18 C        6.1050     3.9880    -0.8590 C.3   1 <1>   0.0200 
 19 C       -0.7940    -7.2080     0.4210 C.ar  1 <1>  -0.1500 
 20 C        1.5760    -7.5150    -1.0200 C.ar  1 <1>  -0.1500 
 21 C        7.5890     3.6160    -0.9880 C.3   1 <1>  -0.2400 
 22 C       -0.2150    -8.4550     0.3020 C.ar  1 <1>  -0.1430 
 23 C        0.9820    -8.6090    -0.4250 C.ar  1 <1>  -0.1430 
 24 C       -0.8880    -9.6470     0.9660 C.3   1 <1>  -0.0970 
 25 C        1.6360    -9.9760    -0.5680 C.3   1 <1>  -0.0970 
 26 H        0.1680    -2.0930     0.8780 H     1 <1>   0.0800 
 27 H        1.8060    -2.3570     0.3430 H     1 <1>   0.0800 
 28 H        1.7650     2.3710     1.2810 H     1 <1>   0.0800 
 29 H        1.4750     2.0840    -0.4000 H     1 <1>   0.0800 
 30 H        1.4260    -0.9650     2.4690 H     1 <1>   0.0800 
 31 H        2.0400     0.6230     2.8420 H     1 <1>   0.0800 
 32 H        3.0750    -0.5450     2.0470 H     1 <1>   0.0800 
 33 H        0.9350    -2.4990    -2.0200 H     1 <1>   0.0800 
 34 H       -0.6790    -2.3860    -1.3770 H     1 <1>   0.0800 
 35 H        2.1060    -4.7720    -1.9050 H     1 <1>   0.2700 
 36 H        6.0020     4.8000    -0.1620 H     1 <1>   0.0800 
 37 H        5.7390     4.3200    -1.8130 H     1 <1>   0.0800 
 38 H       -1.7050    -7.0470     0.9660 H     1 <1>   0.1500 
 39 H        2.4890    -7.6080    -1.5800 H     1 <1>   0.1500 
 40 H        7.9750     3.2940    -0.0360 H     1 <1>   0.0800 
 41 H        8.1580     4.4640    -1.3240 H     1 <1>   0.0800 
 42 H        7.7100     2.8140    -1.6950 H     1 <1>   0.0800 
 43 H       -1.7860    -9.3460     1.4750 H     1 <1>   0.0800 
 44 H       -0.2260   -10.0910     1.6870 H     1 <1>   0.0800 
 45 H       -1.1500   -10.3820     0.2270 H     1 <1>   0.0800 
 46 H        2.5370    -9.9130    -1.1510 H     1 <1>   0.0800 
 47 H        0.9650   -10.6570    -1.0580 H     1 <1>   0.0800 
 48 H        1.8890   -10.3660     0.4010 H     1 <1>   0.0800 
@<TRIPOS>BOND
  1   1   2  2   
  2   2   3  am  
  3   2   4  1   
  4   3   5  1   
  5   3   6  1   
  6   4   7  1   
  7   4  26  1   
  8   4  27  1   
  9   5   8  1   
 10   5  28  1   
 11   5  29  1   
 12   6  30  1   
 13   6  31  1   
 14   6  32  1   
 15   7   9  1   
 16   7  33  1   
 17   7  34  1   
 18   8  10  1   
 19   8  11  2   
 20   9  12  2   
 21   9  13  1   
 22  10  14  1   
 23  11  15  1   
 24  12  16  1   
 25  13  17  1   
 26  13  35  1   
 27  14  15  2   
 28  14  18  1   
 29  16  17  ar  
 30  16  19  ar  
 31  17  20  ar  
 32  18  21  1   
 33  18  36  1   
 34  18  37  1   
 35  19  22  ar  
 36  19  38  1   
 37  20  23  ar  
 38  20  39  1   
 39  21  40  1   
 40  21  41  1   
 41  21  42  1   
 42  22  23  ar  
 43  22  24  1   
 44  23  25  1   
 45  24  43  1   
 46  24  44  1   
 47  24  45  1   
 48  25  46  1   
 49  25  47  1   
 50  25  48  1   
@<TRIPOS>SUBSTRUCTURE
  1 ****   4 GROUP 4 **** **** 0

# MOE 2024.06 (io_trps.svl 2023.06)
