@<TRIPOS>MOLECULE
NONAME
42 44 1 0 0 
SMALL
USER_CHARGES


@<TRIPOS>ATOM
  1 CL      -1.5890    -0.3200    -2.0130 Cl    1 <1>  -0.1770 
  2 C       -2.3500     0.7220    -0.8350 C.ar  1 <1>   0.1770 
  3 C       -3.0880     0.1660     0.2040 C.ar  1 <1>  -0.1440 
  4 C       -2.2070     2.0890    -0.9760 C.ar  1 <1>  -0.1500 
  5 C       -3.6880     1.0100     1.1340 C.ar  1 <1>  -0.1500 
  6 C       -3.2300    -1.3410     0.3250 C.3   1 <1>   0.4870 
  7 C       -2.8230     2.8970    -0.0430 C.ar  1 <1>   0.1900 
  8 C       -3.5590     2.3850     1.0100 C.ar  1 <1>  -0.1500 
  9 N       -3.9870    -1.9220    -0.8330 N.4   1 <1>  -0.9590 
 10 F       -2.7070     4.1910    -0.1580 F     1 <1>  -0.1900 
 11 C       -5.4590    -1.6690    -0.9290 C.3   1 <1>   0.4230 
 12 C       -3.7220    -3.3910    -0.9100 C.3   1 <1>   0.2630 
 13 C       -6.2220    -1.6870     0.3940 C.3   1 <1>  -0.1600 
 14 C       -5.8120    -0.3310    -1.5710 C.3   1 <1>  -0.1600 
 15 C       -7.5550    -1.0070     0.0590 C.3   1 <1>  -0.0800 
 16 C       -7.2400    -0.0200    -1.0940 C.3   1 <1>  -0.0800 
 17 C       -8.2600    -0.4110     1.2990 C.3   1 <1>   0.1400 
 18 C       -7.4300     1.4620    -0.7140 C.3   1 <1>  -0.0990 
 19 N       -9.1090     0.7300     0.9100 N.am  1 <1>  -0.7300 
 20 C       -8.7530     1.6530    -0.0070 C.2   1 <1>   0.5690 
 21 O       -9.4520     2.6000    -0.2540 O.2   1 <1>  -0.5700 
 22 H       -1.6370     2.5150    -1.7830 H     1 <1>   0.1500 
 23 H       -4.2540     0.6190     1.9630 H     1 <1>   0.1500 
 24 H       -3.7130    -1.5950     1.2540 H     1 <1>   0.0800 
 25 H       -2.2380    -1.7630     0.3490 H     1 <1>   0.0800 
 26 H       -4.0160     3.0570     1.7160 H     1 <1>   0.1500 
 27 H       -3.5650    -1.4930    -1.6720 H     1 <1>   0.4500 
 28 H       -5.8980    -2.4280    -1.5580 H     1 <1>   0.0800 
 29 H       -4.1330    -3.8930    -0.0490 H     1 <1>   0.0800 
 30 H       -2.6610    -3.5800    -0.9480 H     1 <1>   0.0800 
 31 H       -4.1710    -3.8060    -1.7980 H     1 <1>   0.0800 
 32 H       -6.3760    -2.6880     0.7550 H     1 <1>   0.0800 
 33 H       -5.7210    -1.1010     1.1390 H     1 <1>   0.0800 
 34 H       -5.1530     0.4510    -1.2530 H     1 <1>   0.0800 
 35 H       -5.7790    -0.3980    -2.6450 H     1 <1>   0.0800 
 36 H       -8.2140    -1.7600    -0.3440 H     1 <1>   0.0800 
 37 H       -7.9290    -0.2320    -1.8960 H     1 <1>   0.0800 
 38 H       -7.5370    -0.0560     2.0140 H     1 <1>   0.0800 
 39 H       -8.8640    -1.1650     1.7770 H     1 <1>   0.0800 
 40 H       -7.4070     2.0790    -1.5940 H     1 <1>   0.0800 
 41 H       -6.6550     1.7920    -0.0490 H     1 <1>   0.0800 
 42 H       -9.9890     0.8870     1.4090 H     1 <1>   0.3700 
@<TRIPOS>BOND
  1   1   2  1   
  2   2   3  ar  
  3   2   4  ar  
  4   3   5  ar  
  5   3   6  1   
  6   4   7  ar  
  7   4  22  1   
  8   5   8  ar  
  9   5  23  1   
 10   6   9  1   
 11   6  24  1   
 12   6  25  1   
 13   7   8  ar  
 14   7  10  1   
 15   8  26  1   
 16   9  11  1   
 17   9  12  1   
 18   9  27  1   
 19  11  13  1   
 20  11  14  1   
 21  11  28  1   
 22  12  29  1   
 23  12  30  1   
 24  12  31  1   
 25  13  15  1   
 26  13  32  1   
 27  13  33  1   
 28  14  16  1   
 29  14  34  1   
 30  14  35  1   
 31  15  16  1   
 32  15  17  1   
 33  15  36  1   
 34  16  18  1   
 35  16  37  1   
 36  17  19  1   
 37  17  38  1   
 38  17  39  1   
 39  18  20  1   
 40  18  40  1   
 41  18  41  1   
 42  19  20  am  
 43  19  42  1   
 44  20  21  2   
@<TRIPOS>SUBSTRUCTURE
  1 ****  14 GROUP 4 **** **** 0

# MOE 2024.06 (io_trps.svl 2023.06)
