@<TRIPOS>MOLECULE
NONAME
45 47 1 0 0 
SMALL
USER_CHARGES


@<TRIPOS>ATOM
  1 S       -0.1380     0.1910    -0.8770 S.o2  1 <1>   1.3330 
  2 O        0.2310     1.0860    -1.9510 O.2   1 <1>  -0.6500 
  3 O       -0.8480    -1.0330    -1.1680 O.2   1 <1>  -0.6500 
  4 N        1.2950    -0.2490    -0.0730 N.am  1 <1>  -0.8490 
  5 C       -1.0510     1.1170     0.3670 C.3   1 <1>  -0.0550 
  6 C        2.3610    -0.5740    -1.0280 C.3   1 <1>   0.1160 
  7 C        1.1180    -1.3860     0.8410 C.3   1 <1>   0.1160 
  8 C       -0.6070     2.5720     0.6450 C.3   1 <1>  -0.0800 
  9 C       -1.0440     3.5700    -0.4180 C.3   1 <1>   0.2000 
 10 C        0.8930     2.8410     0.7770 C.3   1 <1>   0.2090 
 11 O       -2.4010     3.8350    -0.2830 O.3   1 <1>  -0.6800 
 12 C       -0.1880     4.8050    -0.1390 C.3   1 <1>   0.2090 
 13 N        1.0780     4.2990     0.4900 N.pl3 1 <1>  -0.8380 
 14 C        2.2860     4.9360     0.4650 C.ar  1 <1>   0.1000 
 15 C        2.4580     6.3580     0.3200 C.ar  1 <1>   0.0000 
 16 C        3.4590     4.1740     0.5200 C.ar  1 <1>  -0.1500 
 17 C        3.7310     6.8620    -0.0290 C.ar  1 <1>   0.3610 
 18 C        1.4550     7.3230     0.5490 C.ar  1 <1>  -0.1500 
 19 C        4.6900     4.7100     0.2550 C.ar  1 <1>   0.2110 
 20 N        4.8090     6.0110    -0.0520 N.ar  1 <1>  -0.1790 
 21 C        3.9150     8.2270    -0.2980 C.ar  1 <1>  -0.1500 
 22 C        1.6520     8.6590     0.3110 C.ar  1 <1>  -0.1500 
 23 C        2.8860     9.1180    -0.1380 C.ar  1 <1>  -0.1500 
 24 H       -2.0820     1.1460     0.0690 H     1 <1>   0.0800 
 25 H       -1.0170     0.5710     1.2890 H     1 <1>   0.0800 
 26 H        3.2610    -0.8500    -0.5060 H     1 <1>   0.0800 
 27 H        2.5790     0.2810    -1.6460 H     1 <1>   0.0800 
 28 H        2.0570    -1.3890    -1.6640 H     1 <1>   0.0800 
 29 H        2.0360    -1.5830     1.3690 H     1 <1>   0.0800 
 30 H        0.8360    -2.2710     0.2940 H     1 <1>   0.0800 
 31 H        0.3530    -1.1730     1.5660 H     1 <1>   0.0800 
 32 H       -1.0480     2.8720     1.5800 H     1 <1>   0.0800 
 33 H       -0.8630     3.2150    -1.4170 H     1 <1>   0.0800 
 34 H        1.4460     2.2860     0.0420 H     1 <1>   0.0800 
 35 H        1.2480     2.5930     1.7630 H     1 <1>   0.0800 
 36 H       -2.6060     4.1720     0.6100 H     1 <1>   0.4000 
 37 H       -0.7120     5.4280     0.5610 H     1 <1>   0.0800 
 38 H        0.0190     5.3410    -1.0490 H     1 <1>   0.0800 
 39 H        3.4070     3.1250     0.7420 H     1 <1>   0.1500 
 40 H        0.5060     7.0200     0.9410 H     1 <1>   0.1500 
 41 H        5.5750     4.0930     0.2780 H     1 <1>   0.1500 
 42 H        5.7230     6.4140    -0.2730 H     1 <1>   0.4570 
 43 H        4.8730     8.5910    -0.6220 H     1 <1>   0.1500 
 44 H        0.8560     9.3680     0.4750 H     1 <1>   0.1500 
 45 H        3.0170    10.1700    -0.3390 H     1 <1>   0.1500 
@<TRIPOS>BOND
  1   1   2  2   
  2   1   3  2   
  3   1   4  am  
  4   1   5  1   
  5   4   6  1   
  6   4   7  1   
  7   5   8  1   
  8   5  24  1   
  9   5  25  1   
 10   6  26  1   
 11   6  27  1   
 12   6  28  1   
 13   7  29  1   
 14   7  30  1   
 15   7  31  1   
 16   8   9  1   
 17   8  10  1   
 18   8  32  1   
 19   9  11  1   
 20   9  12  1   
 21   9  33  1   
 22  10  13  1   
 23  10  34  1   
 24  10  35  1   
 25  11  36  1   
 26  12  13  1   
 27  12  37  1   
 28  12  38  1   
 29  13  14  1   
 30  14  15  ar  
 31  14  16  ar  
 32  15  17  ar  
 33  15  18  ar  
 34  16  19  ar  
 35  16  39  1   
 36  17  20  ar  
 37  17  21  ar  
 38  18  22  ar  
 39  18  40  1   
 40  19  20  ar  
 41  19  41  1   
 42  20  42  1   
 43  21  23  ar  
 44  21  43  1   
 45  22  23  ar  
 46  22  44  1   
 47  23  45  1   
@<TRIPOS>SUBSTRUCTURE
  1 ****  13 GROUP 4 **** **** 0

# MOE 2024.06 (io_trps.svl 2023.06)
