@<TRIPOS>MOLECULE
NONAME
54 58 1 0 0 
SMALL
USER_CHARGES


@<TRIPOS>ATOM
  1 O        0.3320     0.2580    -0.2820 O.3   1 <1>  -0.5600 
  2 C        1.6160    -0.2730    -0.4790 C.3   1 <1>   0.3440 
  3 C        0.2700     1.6420    -0.4620 C.3   1 <1>   0.2950 
  4 C        1.5800    -1.7870    -0.2910 C.ar  1 <1>  -0.1440 
  5 C        2.6100     0.3740     0.5080 C.3   1 <1>   0.1100 
  6 C       -1.1860     2.0680    -0.2420 C.3   1 <1>  -0.1950 
  7 C        1.2230     2.3570     0.5190 C.3   1 <1>   0.1100 
  8 C        0.7360    -2.3810     0.6390 C.ar  1 <1>  -0.1500 
  9 C        2.4150    -2.5930    -1.0510 C.ar  1 <1>  -0.1500 
 10 N        2.6080     1.8490     0.4090 N.3   1 <1>  -0.8100 
 11 C       -2.2060     1.9250    -1.3270 C.3   1 <1>  -0.2000 
 12 C       -1.7430     3.2900    -0.9030 C.3   1 <1>  -0.2000 
 13 C        0.7300    -3.7550     0.8070 C.ar  1 <1>  -0.1500 
 14 C        2.4100    -3.9680    -0.8850 C.ar  1 <1>  -0.1500 
 15 C        3.5400     2.4510     1.3940 C.3   1 <1>   0.2530 
 16 C        1.5680    -4.5500     0.0450 C.ar  1 <1>  -0.1500 
 17 C        3.7000     3.9670     1.2610 C.ar  1 <1>   0.1670 
 18 N        4.6590     4.4220     0.5110 N.ar  1 <1>  -0.6200 
 19 C        2.8240     4.8030     1.9720 C.ar  1 <1>  -0.1500 
 20 C        4.8200     5.7710     0.3870 C.ar  1 <1>   0.3100 
 21 C        2.9500     6.1550     1.8770 C.ar  1 <1>  -0.1500 
 22 C        5.8570     6.3070    -0.4280 C.ar  1 <1>   0.0820 
 23 C        3.9680     6.6760     1.0630 C.ar  1 <1>   0.0000 
 24 O        6.6790     5.4280    -1.0670 O.3   1 <1>  -0.3620 
 25 C        6.0120     7.6720    -0.5550 C.ar  1 <1>  -0.1500 
 26 C        4.1590     8.0620     0.9080 C.ar  1 <1>  -0.1500 
 27 C        7.7470     5.8400    -1.8890 C.3   1 <1>   0.0400 
 28 C        5.1590     8.5510     0.1150 C.ar  1 <1>  -0.1500 
 29 H        1.9140    -0.0470    -1.4890 H     1 <1>   0.0800 
 30 H        0.5630     1.8640    -1.4740 H     1 <1>   0.0800 
 31 H        3.5980     0.0040     0.2920 H     1 <1>   0.0800 
 32 H        2.3500     0.0680     1.5060 H     1 <1>   0.0800 
 33 H       -1.5130     1.8640     0.7630 H     1 <1>   0.1000 
 34 H        0.8590     2.2200     1.5220 H     1 <1>   0.0800 
 35 H        1.2090     3.4080     0.2930 H     1 <1>   0.0800 
 36 H        0.0780    -1.7700     1.2320 H     1 <1>   0.1500 
 37 H        3.0760    -2.1550    -1.7790 H     1 <1>   0.1500 
 38 H       -1.8910     1.5340    -2.2790 H     1 <1>   0.1000 
 39 H       -3.1950     1.5960    -1.0550 H     1 <1>   0.1000 
 40 H       -2.4230     3.9150    -0.3500 H     1 <1>   0.1000 
 41 H       -1.1250     3.8530    -1.5820 H     1 <1>   0.1000 
 42 H        0.0700    -4.2040     1.5290 H     1 <1>   0.1500 
 43 H        3.0610    -4.5850    -1.4800 H     1 <1>   0.1500 
 44 H        3.2130     2.2150     2.3910 H     1 <1>   0.0800 
 45 H        4.5130     2.0110     1.2580 H     1 <1>   0.0800 
 46 H        1.5620    -5.6180     0.1750 H     1 <1>   0.1500 
 47 H        2.0610     4.3620     2.5850 H     1 <1>   0.1500 
 48 H        2.2940     6.8230     2.4060 H     1 <1>   0.1500 
 49 H        6.7840     8.1010    -1.1650 H     1 <1>   0.1500 
 50 H        3.5000     8.7350     1.4270 H     1 <1>   0.1500 
 51 H        8.2360     4.9590    -2.2630 H     1 <1>   0.0800 
 52 H        8.4370     6.4190    -1.3010 H     1 <1>   0.0800 
 53 H        7.3550     6.4160    -2.7080 H     1 <1>   0.0800 
 54 H        5.3010     9.6110    -0.0010 H     1 <1>   0.1500 
@<TRIPOS>BOND
  1   1   2  1   
  2   1   3  1   
  3   2   4  1   
  4   2   5  1   
  5   2  29  1   
  6   3   6  1   
  7   3   7  1   
  8   3  30  1   
  9   4   8  ar  
 10   4   9  ar  
 11   5  10  1   
 12   5  31  1   
 13   5  32  1   
 14   6  11  1   
 15   6  12  1   
 16   6  33  1   
 17   7  10  1   
 18   7  34  1   
 19   7  35  1   
 20   8  13  ar  
 21   8  36  1   
 22   9  14  ar  
 23   9  37  1   
 24  10  15  1   
 25  11  12  1   
 26  11  38  1   
 27  11  39  1   
 28  12  40  1   
 29  12  41  1   
 30  13  16  ar  
 31  13  42  1   
 32  14  16  ar  
 33  14  43  1   
 34  15  17  1   
 35  15  44  1   
 36  15  45  1   
 37  16  46  1   
 38  17  18  ar  
 39  17  19  ar  
 40  18  20  ar  
 41  19  21  ar  
 42  19  47  1   
 43  20  22  ar  
 44  20  23  ar  
 45  21  23  ar  
 46  21  48  1   
 47  22  24  1   
 48  22  25  ar  
 49  23  26  ar  
 50  24  27  1   
 51  25  28  ar  
 52  25  49  1   
 53  26  28  ar  
 54  26  50  1   
 55  27  51  1   
 56  27  52  1   
 57  27  53  1   
 58  28  54  1   
@<TRIPOS>SUBSTRUCTURE
  1 ****  10 GROUP 4 **** **** 0

# MOE 2024.06 (io_trps.svl 2023.06)
