@<TRIPOS>MOLECULE
NONAME
43 45 1 0 0 
SMALL
USER_CHARGES


@<TRIPOS>ATOM
  1 CL       0.0760    -0.0810     1.1980 Cl    1 <1>  -0.1770 
  2 C        0.0750    -1.8160     1.0070 C.ar  1 <1>   0.1770 
  3 C        0.8430    -2.4160     0.0190 C.ar  1 <1>  -0.1440 
  4 C       -0.7050    -2.5710     1.8630 C.ar  1 <1>  -0.1500 
  5 C        0.8080    -3.7960    -0.0980 C.ar  1 <1>  -0.1500 
  6 C        1.7090    -1.5860    -0.9170 C.3   1 <1>  -0.0960 
  7 C       -0.7250    -3.9470     1.7300 C.ar  1 <1>  -0.1500 
  8 C        0.0230    -4.5890     0.7410 C.ar  1 <1>   0.0860 
  9 C       -0.0010    -6.0320     0.5830 C.2   1 <1>   0.5440 
 10 O        1.0440    -6.6430     0.4650 O.2   1 <1>  -0.5700 
 11 N       -1.1830    -6.7350     0.5410 N.am  1 <1>  -0.6600 
 12 C       -2.5020    -6.1490     0.1900 C.3   1 <1>   0.1400 
 13 C       -1.2150    -8.2120     0.3880 C.3   1 <1>   0.1400 
 14 C       -3.2710    -7.2920    -0.4690 C.3   1 <1>   0.2000 
 15 C       -2.6800    -8.5650     0.1290 C.3   1 <1>  -0.0800 
 16 O       -4.6280    -7.2160    -0.2020 O.3   1 <1>  -0.6800 
 17 C       -2.8650    -9.7990    -0.7670 C.3   1 <1>   0.0210 
 18 C       -2.1860   -11.0110    -0.1620 C.2   1 <1>   0.1080 
 19 N       -2.5550   -11.5340     0.9650 N.2   1 <1>  -0.7070 
 20 C       -1.1050   -11.6810    -0.7240 C.2   1 <1>  -0.1500 
 21 N       -1.7110   -12.5660     1.1540 N.pl3 1 <1>   0.3000 
 22 C       -0.8220   -12.6740     0.1450 C.2   1 <1>  -0.3320 
 23 C        0.2610   -13.7350     0.0720 C.3   1 <1>  -0.0600 
 24 H       -1.2840    -2.0800     2.6250 H     1 <1>   0.1500 
 25 H        1.4000    -4.2900    -0.8500 H     1 <1>   0.1500 
 26 H        2.2390    -2.2130    -1.6110 H     1 <1>   0.0800 
 27 H        2.4280    -1.0220    -0.3500 H     1 <1>   0.0800 
 28 H        1.0950    -0.9010    -1.4760 H     1 <1>   0.0800 
 29 H       -1.3200    -4.5400     2.4020 H     1 <1>   0.1500 
 30 H       -2.9970    -5.8310     1.0910 H     1 <1>   0.0800 
 31 H       -2.3880    -5.3220    -0.4890 H     1 <1>   0.0800 
 32 H       -0.5950    -8.4920    -0.4480 H     1 <1>   0.0800 
 33 H       -0.8460    -8.6960     1.2770 H     1 <1>   0.0800 
 34 H       -3.1300    -7.2530    -1.5360 H     1 <1>   0.0800 
 35 H       -3.1310    -8.7570     1.0870 H     1 <1>   0.0800 
 36 H       -4.8020    -7.4520     0.7300 H     1 <1>   0.4000 
 37 H       -2.4600    -9.6120    -1.7450 H     1 <1>   0.0800 
 38 H       -3.9140   -10.0100    -0.8740 H     1 <1>   0.0800 
 39 H       -0.6170   -11.4380    -1.6510 H     1 <1>   0.1500 
 40 H       -1.7680   -13.1740     1.9790 H     1 <1>   0.2700 
 41 H        0.8400   -13.6110    -0.8260 H     1 <1>   0.0800 
 42 H       -0.1790   -14.7170     0.0630 H     1 <1>   0.0800 
 43 H        0.9200   -13.6530     0.9180 H     1 <1>   0.0800 
@<TRIPOS>BOND
  1   1   2  1   
  2   2   3  ar  
  3   2   4  ar  
  4   3   5  ar  
  5   3   6  1   
  6   4   7  ar  
  7   4  24  1   
  8   5   8  ar  
  9   5  25  1   
 10   6  26  1   
 11   6  27  1   
 12   6  28  1   
 13   7   8  ar  
 14   7  29  1   
 15   8   9  1   
 16   9  10  2   
 17   9  11  am  
 18  11  12  1   
 19  11  13  1   
 20  12  14  1   
 21  12  30  1   
 22  12  31  1   
 23  13  15  1   
 24  13  32  1   
 25  13  33  1   
 26  14  15  1   
 27  14  16  1   
 28  14  34  1   
 29  15  17  1   
 30  15  35  1   
 31  16  36  1   
 32  17  18  1   
 33  17  37  1   
 34  17  38  1   
 35  18  19  2   
 36  18  20  1   
 37  19  21  1   
 38  20  22  2   
 39  20  39  1   
 40  21  22  1   
 41  21  40  1   
 42  22  23  1   
 43  23  41  1   
 44  23  42  1   
 45  23  43  1   
@<TRIPOS>SUBSTRUCTURE
  1 ****  11 GROUP 4 **** **** 0

# MOE 2024.06 (io_trps.svl 2023.06)
