@<TRIPOS>MOLECULE
NONAME
49 51 1 0 0 
SMALL
USER_CHARGES


@<TRIPOS>ATOM
  1 O        0.0940     0.5610     1.5740 O.3   1 <1>  -0.5600 
  2 C       -0.7330    -0.0770     0.6510 C.3   1 <1>   0.2640 
  3 C       -0.5390     1.1190     2.6840 C.3   1 <1>   0.1200 
  4 C        0.0120     0.0020    -0.6690 C.ar  1 <1>  -0.1440 
  5 C        0.4740     2.0020     3.4330 C.3   1 <1>   0.2090 
  6 C       -0.3270     0.9630    -1.6100 C.ar  1 <1>  -0.1500 
  7 C        1.0530    -0.8750    -0.9360 C.ar  1 <1>  -0.1500 
  8 N        0.9170     3.2070     2.6570 N.pl3 1 <1>  -0.8690 
  9 C        0.3670     1.0450    -2.8050 C.ar  1 <1>  -0.1500 
 10 C        1.7470    -0.7930    -2.1310 C.ar  1 <1>  -0.1500 
 11 C        1.6170     3.3630     1.5240 C.ar  1 <1>   0.7710 
 12 C        1.4040     0.1670    -3.0660 C.ar  1 <1>  -0.1500 
 13 N        2.0320     4.5890     1.2740 N.ar  1 <1>  -0.6200 
 14 N        1.8700     2.3330     0.7030 N.ar  1 <1>  -0.1790 
 15 C        2.7470     4.7920     0.1810 C.ar  1 <1>   0.4100 
 16 C        2.5680     2.4960    -0.4400 C.ar  1 <1>   0.2110 
 17 N        3.2050     6.0510    -0.0500 N.pl3 1 <1>  -0.8380 
 18 C        3.0220     3.7400    -0.7190 C.ar  1 <1>  -0.1500 
 19 C        4.4740     6.3740    -0.7820 C.3   1 <1>   0.2090 
 20 C        2.5190     7.2680     0.4830 C.3   1 <1>   0.2090 
 21 C        4.1820     7.3240    -1.9550 C.3   1 <1>   0.2000 
 22 C        2.2060     8.2280    -0.6730 C.3   1 <1>  -0.1600 
 23 O        5.3690     7.6960    -2.5620 O.3   1 <1>  -0.6800 
 24 C        3.4590     8.5930    -1.4890 C.3   1 <1>  -0.1600 
 25 H       -1.6800     0.4320     0.5850 H     1 <1>   0.0800 
 26 H       -0.8850    -1.0970     0.9620 H     1 <1>   0.0800 
 27 H       -0.8830     0.3190     3.3170 H     1 <1>   0.0800 
 28 H       -1.3790     1.7140     2.3650 H     1 <1>   0.0800 
 29 H        1.3310     1.4110     3.7090 H     1 <1>   0.0800 
 30 H        0.0130     2.3410     4.3460 H     1 <1>   0.0800 
 31 H       -1.1370     1.6490    -1.4250 H     1 <1>   0.1500 
 32 H        1.3240    -1.6310    -0.2170 H     1 <1>   0.1500 
 33 H        0.7930     4.0900     3.1650 H     1 <1>   0.4000 
 34 H        0.0930     1.7860    -3.5380 H     1 <1>   0.1500 
 35 H        2.5470    -1.4850    -2.3380 H     1 <1>   0.1500 
 36 H        1.9370     0.2240    -4.0010 H     1 <1>   0.1500 
 37 H        1.4090     1.4490     0.9490 H     1 <1>   0.4570 
 38 H        2.7260     1.6460    -1.0840 H     1 <1>   0.1500 
 39 H        3.5670     3.9410    -1.6200 H     1 <1>   0.1500 
 40 H        4.9540     5.4860    -1.1470 H     1 <1>   0.0800 
 41 H        5.1470     6.8560    -0.0940 H     1 <1>   0.0800 
 42 H        3.1610     7.7500     1.2020 H     1 <1>   0.0800 
 43 H        1.6000     7.0080     0.9800 H     1 <1>   0.0800 
 44 H        3.5920     6.8060    -2.6910 H     1 <1>   0.0800 
 45 H        1.7620     9.1230    -0.2770 H     1 <1>   0.0800 
 46 H        1.4800     7.7620    -1.3160 H     1 <1>   0.0800 
 47 H        5.8370     8.3610    -2.0220 H     1 <1>   0.4000 
 48 H        3.1720     9.1800    -2.3440 H     1 <1>   0.0800 
 49 H        4.1150     9.1790    -0.8690 H     1 <1>   0.0800 
@<TRIPOS>BOND
  1   1   2  1   
  2   1   3  1   
  3   2   4  1   
  4   2  25  1   
  5   2  26  1   
  6   3   5  1   
  7   3  27  1   
  8   3  28  1   
  9   4   6  ar  
 10   4   7  ar  
 11   5   8  1   
 12   5  29  1   
 13   5  30  1   
 14   6   9  ar  
 15   6  31  1   
 16   7  10  ar  
 17   7  32  1   
 18   8  11  1   
 19   8  33  1   
 20   9  12  ar  
 21   9  34  1   
 22  10  12  ar  
 23  10  35  1   
 24  11  13  ar  
 25  11  14  ar  
 26  12  36  1   
 27  13  15  ar  
 28  14  16  ar  
 29  14  37  1   
 30  15  17  1   
 31  15  18  ar  
 32  16  18  ar  
 33  16  38  1   
 34  17  19  1   
 35  17  20  1   
 36  18  39  1   
 37  19  21  1   
 38  19  40  1   
 39  19  41  1   
 40  20  22  1   
 41  20  42  1   
 42  20  43  1   
 43  21  23  1   
 44  21  24  1   
 45  21  44  1   
 46  22  24  1   
 47  22  45  1   
 48  22  46  1   
 49  23  47  1   
 50  24  48  1   
 51  24  49  1   
@<TRIPOS>SUBSTRUCTURE
  1 ****  16 GROUP 4 **** **** 0

# MOE 2024.06 (io_trps.svl 2023.06)
