@<TRIPOS>MOLECULE
NONAME
43 45 1 0 0 
SMALL
USER_CHARGES


@<TRIPOS>ATOM
  1 O       -0.4510     0.3680     1.0360 O.2   1 <1>  -0.5700 
  2 C       -1.4430     1.0080     0.7480 C.2   1 <1>   0.5440 
  3 N       -2.6360     0.3480     0.5710 N.am  1 <1>  -0.6600 
  4 C       -1.3430     2.4450     0.5740 C.ar  1 <1>   0.0860 
  5 C       -3.7510     0.8390    -0.2820 C.3   1 <1>   0.1400 
  6 C       -2.8110    -1.1000     0.8340 C.3   1 <1>   0.1400 
  7 C       -0.3340     2.9980    -0.2100 C.ar  1 <1>  -0.1500 
  8 C       -2.2390     3.3200     1.1850 C.ar  1 <1>  -0.1500 
  9 C       -4.6710    -0.3690    -0.5100 C.3   1 <1>   0.2000 
 10 C       -3.7660    -1.5800    -0.2580 C.3   1 <1>  -0.0800 
 11 C       -0.2170     4.3670    -0.4080 C.ar  1 <1>   0.0730 
 12 C       -2.1420     4.6870     1.0040 C.ar  1 <1>  -0.1500 
 13 O       -5.6950    -0.3640     0.4440 O.3   1 <1>  -0.5600 
 14 C       -4.5140    -2.8760     0.1030 C.3   1 <1>   0.0200 
 15 C        0.8290     4.9040    -1.2310 C.1   1 <1>   0.4840 
 16 C       -1.1370     5.2060     0.2090 C.ar  1 <1>  -0.1500 
 17 C       -6.8300     0.3630     0.0930 C.3   1 <1>   0.0400 
 18 C       -3.6050    -4.0920     0.1760 C.2   1 <1>  -0.0400 
 19 N        1.6520     5.3350    -1.8930 N.1   1 <1>  -0.5570 
 20 O       -4.1150    -5.2340     0.5530 O.3   1 <1>  -0.0190 
 21 C       -2.3020    -4.2930    -0.0780 C.2   1 <1>  -0.1500 
 22 N       -3.2260    -6.1850     0.5680 N.2   1 <1>  -0.4100 
 23 C       -2.1230    -5.6460     0.1930 C.2   1 <1>   0.1080 
 24 C       -0.8120    -6.3880     0.0670 C.3   1 <1>  -0.0590 
 25 H       -4.2770     1.6440     0.1960 H     1 <1>   0.0800 
 26 H       -3.3480     1.1740    -1.2220 H     1 <1>   0.0800 
 27 H       -1.8710    -1.6240     0.8050 H     1 <1>   0.0800 
 28 H       -3.2570    -1.2210     1.8070 H     1 <1>   0.0800 
 29 H        0.3760     2.3310    -0.6720 H     1 <1>   0.1500 
 30 H       -3.0150     2.9180     1.8150 H     1 <1>   0.1500 
 31 H       -5.1010    -0.3870    -1.4970 H     1 <1>   0.0800 
 32 H       -3.1890    -1.7490    -1.1500 H     1 <1>   0.0800 
 33 H       -2.8460     5.3470     1.4850 H     1 <1>   0.1500 
 34 H       -5.2730    -3.0660    -0.6340 H     1 <1>   0.0800 
 35 H       -5.0060    -2.7600     1.0530 H     1 <1>   0.0800 
 36 H       -1.0650     6.2720     0.0700 H     1 <1>   0.1500 
 37 H       -7.5280     0.3040     0.9100 H     1 <1>   0.0800 
 38 H       -7.2720    -0.0700    -0.7880 H     1 <1>   0.0800 
 39 H       -6.5640     1.3910    -0.0800 H     1 <1>   0.0800 
 40 H       -1.5420    -3.6110    -0.4120 H     1 <1>   0.1500 
 41 H       -0.0690    -5.9250     0.6890 H     1 <1>   0.0800 
 42 H       -0.4810    -6.3720    -0.9550 H     1 <1>   0.0800 
 43 H       -0.9370    -7.4100     0.3760 H     1 <1>   0.0800 
@<TRIPOS>BOND
  1   1   2  2   
  2   2   3  am  
  3   2   4  1   
  4   3   5  1   
  5   3   6  1   
  6   4   7  ar  
  7   4   8  ar  
  8   5   9  1   
  9   5  25  1   
 10   5  26  1   
 11   6  10  1   
 12   6  27  1   
 13   6  28  1   
 14   7  11  ar  
 15   7  29  1   
 16   8  12  ar  
 17   8  30  1   
 18   9  10  1   
 19   9  13  1   
 20   9  31  1   
 21  10  14  1   
 22  10  32  1   
 23  11  15  1   
 24  11  16  ar  
 25  12  16  ar  
 26  12  33  1   
 27  13  17  1   
 28  14  18  1   
 29  14  34  1   
 30  14  35  1   
 31  15  19  3   
 32  16  36  1   
 33  17  37  1   
 34  17  38  1   
 35  17  39  1   
 36  18  20  1   
 37  18  21  2   
 38  20  22  1   
 39  21  23  1   
 40  21  40  1   
 41  22  23  2   
 42  23  24  1   
 43  24  41  1   
 44  24  42  1   
 45  24  43  1   
@<TRIPOS>SUBSTRUCTURE
  1 ****   3 GROUP 4 **** **** 0

# MOE 2024.06 (io_trps.svl 2023.06)
