@<TRIPOS>MOLECULE
NONAME
52 56 1 0 0 
SMALL
USER_CHARGES


@<TRIPOS>ATOM
  1 S       -0.2350     1.2020    -2.3030 S.3   1 <1>  -0.0800 
  2 C       -1.2240     1.4190    -0.8660 C.2   1 <1>  -0.1400 
  3 C       -1.3560     0.0020    -2.9320 C.2   1 <1>  -0.1100 
  4 C       -2.3110     0.6380    -0.9190 C.2   1 <1>  -0.1810 
  5 C       -0.8600     2.3900     0.2540 C.3   1 <1>   0.4600 
  6 C       -2.3910    -0.1810    -2.0890 C.2   1 <1>  -0.1500 
  7 C       -3.3200     0.6890     0.2070 C.3   1 <1>   0.0210 
  8 O       -1.7750     2.2130     1.3150 O.3   1 <1>  -0.5600 
  9 C        0.5170     2.0520     0.8390 C.3   1 <1>  -0.1600 
 10 C       -0.9680     3.8550    -0.2090 C.3   1 <1>  -0.1600 
 11 C       -3.1300     2.0040     0.9890 C.3   1 <1>   0.1200 
 12 C        1.1020     3.2630     1.5530 C.3   1 <1>   0.2090 
 13 C        0.3910     4.4360    -0.5930 C.3   1 <1>   0.2090 
 14 N        1.3540     4.3580     0.5530 N.pl3 1 <1>  -0.8380 
 15 C        2.5300     5.0500     0.5350 C.ar  1 <1>   0.4100 
 16 N        3.6310     4.3910     0.8940 N.ar  1 <1>  -0.6200 
 17 C        2.5810     6.3840     0.1510 C.ar  1 <1>  -0.1500 
 18 C        4.7570     5.0400     0.8490 C.ar  1 <1>   0.7710 
 19 C        3.7830     7.0480     0.1190 C.ar  1 <1>   0.4610 
 20 N        4.8580     6.3280     0.4740 N.ar  1 <1>  -0.1790 
 21 N        5.8550     4.3620     1.1980 N.pl3 1 <1>  -0.9000 
 22 N        3.9520     8.3580    -0.2460 N.pl3 1 <1>  -0.8380 
 23 C        2.8390     9.2030    -0.7660 C.3   1 <1>   0.2090 
 24 C        5.1890     9.1810    -0.1140 C.3   1 <1>   0.2090 
 25 C        3.4940    10.5100    -1.1890 C.3   1 <1>  -0.1600 
 26 C        4.7310    10.6200    -0.3080 C.3   1 <1>  -0.1600 
 27 H       -1.1170    -0.4470    -3.8800 H     1 <1>   0.1500 
 28 H       -3.2110    -0.8600    -2.2410 H     1 <1>   0.1500 
 29 H       -3.1770    -0.1510     0.8630 H     1 <1>   0.0800 
 30 H       -4.3180     0.6500    -0.1870 H     1 <1>   0.0800 
 31 H        1.2020     1.7620     0.0650 H     1 <1>   0.0800 
 32 H        0.4250     1.2230     1.5160 H     1 <1>   0.0800 
 33 H       -1.3740     4.4600     0.5810 H     1 <1>   0.0800 
 34 H       -1.6310     3.9190    -1.0530 H     1 <1>   0.0800 
 35 H       -3.6880     1.9740     1.9080 H     1 <1>   0.0800 
 36 H       -3.4710     2.8410     0.4040 H     1 <1>   0.0800 
 37 H        2.0070     2.9760     2.0570 H     1 <1>   0.0800 
 38 H        0.4080     3.6150     2.2990 H     1 <1>   0.0800 
 39 H        0.2570     5.4560    -0.9040 H     1 <1>   0.0800 
 40 H        0.7960     3.8840    -1.4250 H     1 <1>   0.0800 
 41 H        1.6720     6.8890    -0.1000 H     1 <1>   0.1500 
 42 H        5.7650     6.7600     0.4400 H     1 <1>   0.4570 
 43 H        6.8230     4.6810     1.2320 H     1 <1>   0.4000 
 44 H        5.7260     3.3810     1.4660 H     1 <1>   0.4000 
 45 H        2.1290     9.3870     0.0230 H     1 <1>   0.0800 
 46 H        2.3440     8.7330    -1.6000 H     1 <1>   0.0800 
 47 H        5.8830     8.9160    -0.8940 H     1 <1>   0.0800 
 48 H        5.6490     9.0590     0.8530 H     1 <1>   0.0800 
 49 H        2.8290    11.3480    -1.0680 H     1 <1>   0.0800 
 50 H        3.7830    10.4420    -2.2240 H     1 <1>   0.0800 
 51 H        5.4980    11.2290    -0.7540 H     1 <1>   0.0800 
 52 H        4.4650    11.0380     0.6470 H     1 <1>   0.0800 
@<TRIPOS>BOND
  1   1   2  1   
  2   1   3  1   
  3   2   4  2   
  4   2   5  1   
  5   3   6  2   
  6   3  27  1   
  7   4   6  1   
  8   4   7  1   
  9   5   8  1   
 10   5   9  1   
 11   5  10  1   
 12   6  28  1   
 13   7  11  1   
 14   7  29  1   
 15   7  30  1   
 16   8  11  1   
 17   9  12  1   
 18   9  31  1   
 19   9  32  1   
 20  10  13  1   
 21  10  33  1   
 22  10  34  1   
 23  11  35  1   
 24  11  36  1   
 25  12  14  1   
 26  12  37  1   
 27  12  38  1   
 28  13  14  1   
 29  13  39  1   
 30  13  40  1   
 31  14  15  1   
 32  15  16  ar  
 33  15  17  ar  
 34  16  18  ar  
 35  17  19  ar  
 36  17  41  1   
 37  18  20  ar  
 38  18  21  1   
 39  19  20  ar  
 40  19  22  1   
 41  20  42  1   
 42  21  43  1   
 43  21  44  1   
 44  22  23  1   
 45  22  24  1   
 46  23  25  1   
 47  23  45  1   
 48  23  46  1   
 49  24  26  1   
 50  24  47  1   
 51  24  48  1   
 52  25  26  1   
 53  25  49  1   
 54  25  50  1   
 55  26  51  1   
 56  26  52  1   
@<TRIPOS>SUBSTRUCTURE
  1 ****  14 GROUP 4 **** **** 0

# MOE 2024.06 (io_trps.svl 2023.06)
