@<TRIPOS>MOLECULE
NONAME
46 49 1 0 0 
SMALL
USER_CHARGES


@<TRIPOS>ATOM
  1 O       -1.6500     1.2070    -0.1760 O.2   1 <1>  -0.5700 
  2 C       -1.1150     2.2190     0.2000 C.2   1 <1>   0.5690 
  3 N       -1.8050     3.3790     0.2660 N.am  1 <1>  -0.7300 
  4 C        0.3740     2.2040     0.5710 C.3   1 <1>   0.1810 
  5 C       -1.2200     4.6440     0.7670 C.3   1 <1>   0.3640 
  6 O        0.7980     3.3510     1.2820 O.3   1 <1>  -0.5600 
  7 C       -1.7050     5.8070    -0.0950 C.ar  1 <1>  -0.1440 
  8 C        0.3250     4.5820     0.7600 C.3   1 <1>   0.2610 
  9 C       -1.6800     5.7410    -1.4830 C.ar  1 <1>  -0.1500 
 10 C       -2.1600     6.9690     0.5130 C.ar  1 <1>  -0.1500 
 11 C        0.9140     5.7860     1.5110 C.2   1 <1>   0.5690 
 12 C       -2.0970     6.8180    -2.2450 C.ar  1 <1>  -0.1500 
 13 C       -2.5820     8.0450    -0.2480 C.ar  1 <1>  -0.1500 
 14 O        0.3290     6.2040     2.4880 O.2   1 <1>  -0.5700 
 15 N        2.0520     6.4060     1.0540 N.am  1 <1>  -0.6600 
 16 C       -2.5490     7.9710    -1.6280 C.ar  1 <1>  -0.1500 
 17 C        2.3130     7.8100     1.4420 C.3   1 <1>   0.3200 
 18 C        3.0170     5.8010     0.0980 C.3   1 <1>   0.1400 
 19 C        1.6620     8.6720     0.3850 C.2   1 <1>  -0.3320 
 20 C        2.7960     6.3020    -1.3370 C.3   1 <1>  -0.1600 
 21 N        2.0140     8.6430    -0.9130 N.pl3 1 <1>   0.3140 
 22 C        0.6370     9.5420     0.4930 C.2   1 <1>  -0.1500 
 23 C        3.0620     7.8060    -1.5340 C.3   1 <1>   0.0960 
 24 N        1.2570     9.4750    -1.6450 N.2   1 <1>  -0.7070 
 25 C        0.4110    10.0150    -0.8000 C.2   1 <1>   0.3080 
 26 C       -0.6280    10.9540    -1.1350 C.1   1 <1>   0.5380 
 27 N       -1.4720    11.6930    -1.3570 N.1   1 <1>  -0.5570 
 28 H       -2.7980     3.3860     0.0270 H     1 <1>   0.3700 
 29 H        0.9600     2.1300    -0.3260 H     1 <1>   0.0800 
 30 H        0.5760     1.3470     1.1870 H     1 <1>   0.0800 
 31 H       -1.5610     4.7860     1.7790 H     1 <1>   0.0800 
 32 H        0.6450     4.6360    -0.2620 H     1 <1>   0.0800 
 33 H       -1.3370     4.8500    -1.9810 H     1 <1>   0.1500 
 34 H       -2.1800     7.0470     1.5880 H     1 <1>   0.1500 
 35 H       -2.0720     6.7620    -3.3200 H     1 <1>   0.1500 
 36 H       -2.9360     8.9410     0.2330 H     1 <1>   0.1500 
 37 H       -2.8730     8.8100    -2.2200 H     1 <1>   0.1500 
 38 H        1.8890     8.0240     2.4080 H     1 <1>   0.0800 
 39 H        3.3720     7.9960     1.4920 H     1 <1>   0.0800 
 40 H        4.0200     6.0330     0.4160 H     1 <1>   0.0800 
 41 H        2.9220     4.7290     0.1240 H     1 <1>   0.0800 
 42 H        1.7990     6.0690    -1.6690 H     1 <1>   0.0800 
 43 H        3.4740     5.7650    -1.9760 H     1 <1>   0.0800 
 44 H        0.0790     9.8180     1.3700 H     1 <1>   0.1500 
 45 H        3.0770     8.0300    -2.5860 H     1 <1>   0.0800 
 46 H        4.0130     8.0810    -1.1180 H     1 <1>   0.0800 
@<TRIPOS>BOND
  1   1   2  2   
  2   2   3  am  
  3   2   4  1   
  4   3   5  1   
  5   3  28  1   
  6   4   6  1   
  7   4  29  1   
  8   4  30  1   
  9   5   7  1   
 10   5   8  1   
 11   5  31  1   
 12   6   8  1   
 13   7   9  ar  
 14   7  10  ar  
 15   8  11  1   
 16   8  32  1   
 17   9  12  ar  
 18   9  33  1   
 19  10  13  ar  
 20  10  34  1   
 21  11  14  2   
 22  11  15  am  
 23  12  16  ar  
 24  12  35  1   
 25  13  16  ar  
 26  13  36  1   
 27  15  17  1   
 28  15  18  1   
 29  16  37  1   
 30  17  19  1   
 31  17  38  1   
 32  17  39  1   
 33  18  20  1   
 34  18  40  1   
 35  18  41  1   
 36  19  21  1   
 37  19  22  2   
 38  20  23  1   
 39  20  42  1   
 40  20  43  1   
 41  21  23  1   
 42  21  24  1   
 43  22  25  1   
 44  22  44  1   
 45  23  45  1   
 46  23  46  1   
 47  24  25  2   
 48  25  26  1   
 49  26  27  3   
@<TRIPOS>SUBSTRUCTURE
  1 ****   7 GROUP 4 **** **** 0

# MOE 2024.06 (io_trps.svl 2023.06)
