@<TRIPOS>MOLECULE
NONAME
47 50 1 0 0 
SMALL
USER_CHARGES


@<TRIPOS>ATOM
  1 N       -1.2370    -1.4670     2.0140 N.2   1 <1>  -0.5760 
  2 C       -1.5290    -2.1510     0.8620 C.2   1 <1>   0.3120 
  3 C       -0.6140    -0.3420     1.8650 C.2   1 <1>   0.3760 
  4 N       -2.1440    -3.2900     0.7890 N.2   1 <1>  -0.5650 
  5 N       -1.2050    -1.7000    -0.3850 N.pl3 1 <1>   0.6010 
  6 C       -0.2420     0.1890     0.5970 C.2   1 <1>  -0.1360 
  7 C       -2.1710    -3.4920    -0.5310 C.2   1 <1>   0.3350 
  8 N       -1.6400    -2.5800    -1.2840 N.2   1 <1>  -0.7070 
  9 C       -0.5430    -0.5010    -0.5360 C.2   1 <1>  -0.1810 
 10 C       -2.8370    -4.7600    -1.0760 C.3   1 <1>   0.5240 
 11 N       -3.9930    -5.1450    -0.1950 N.4   1 <1>  -0.9590 
 12 C       -4.2530    -6.6130    -0.2560 C.3   1 <1>   0.3430 
 13 C       -5.1780    -4.2770    -0.4680 C.3   1 <1>   0.2630 
 14 C       -5.2100    -7.0920     0.8460 C.3   1 <1>  -0.0800 
 15 C       -4.9150    -8.5640     1.0790 C.3   1 <1>   0.2090 
 16 C       -6.6720    -7.1410     0.3740 C.3   1 <1>  -0.1600 
 17 N       -5.5600    -9.2080    -0.0800 N.pl3 1 <1>  -0.8380 
 18 C       -6.7910    -8.4500    -0.4110 C.3   1 <1>   0.2090 
 19 C       -5.6720   -10.5940    -0.0300 C.ar  1 <1>   0.1000 
 20 C       -4.9830   -11.3640    -0.9570 C.ar  1 <1>  -0.1500 
 21 C       -6.4550   -11.2390     0.9230 C.ar  1 <1>  -0.1500 
 22 C       -5.0670   -12.7440    -0.9360 C.ar  1 <1>  -0.1500 
 23 C       -6.5420   -12.6190     0.9480 C.ar  1 <1>  -0.1500 
 24 C       -5.8470   -13.3750     0.0190 C.ar  1 <1>  -0.1500 
 25 H       -0.3600     0.2320     2.7390 H     1 <1>   0.0600 
 26 H        0.2740     1.1330     0.5760 H     1 <1>   0.1500 
 27 H       -0.3100    -0.1930    -1.5380 H     1 <1>   0.1500 
 28 H       -2.1000    -5.5440    -1.0790 H     1 <1>   0.0800 
 29 H       -3.1650    -4.5920    -2.0870 H     1 <1>   0.0800 
 30 H       -3.6470    -4.9000     0.7530 H     1 <1>   0.4500 
 31 H       -3.3160    -7.1340    -0.1330 H     1 <1>   0.0800 
 32 H       -4.6490    -6.8920    -1.2200 H     1 <1>   0.0800 
 33 H       -5.5770    -4.4800    -1.4480 H     1 <1>   0.0800 
 34 H       -4.8980    -3.2360    -0.4140 H     1 <1>   0.0800 
 35 H       -5.9470    -4.4560     0.2650 H     1 <1>   0.0800 
 36 H       -5.0740    -6.5360     1.7570 H     1 <1>   0.0800 
 37 H       -5.3730    -8.9060     1.9930 H     1 <1>   0.0800 
 38 H       -3.8610    -8.7870     1.1050 H     1 <1>   0.0800 
 39 H       -6.9730    -6.3050    -0.2280 H     1 <1>   0.0800 
 40 H       -7.3260    -7.1970     1.2270 H     1 <1>   0.0800 
 41 H       -6.8150    -8.2660    -1.4720 H     1 <1>   0.0800 
 42 H       -7.6760    -8.9980    -0.1300 H     1 <1>   0.0800 
 43 H       -4.3800   -10.8690    -1.6950 H     1 <1>   0.1500 
 44 H       -6.9970   -10.6590     1.6440 H     1 <1>   0.1500 
 45 H       -4.5270   -13.3280    -1.6600 H     1 <1>   0.1500 
 46 H       -7.1490   -13.1070     1.6900 H     1 <1>   0.1500 
 47 H       -5.9140   -14.4480     0.0370 H     1 <1>   0.1500 
@<TRIPOS>BOND
  1   1   2  1   
  2   1   3  2   
  3   2   4  2   
  4   2   5  1   
  5   3   6  1   
  6   3  25  1   
  7   4   7  1   
  8   5   8  1   
  9   5   9  1   
 10   6   9  2   
 11   6  26  1   
 12   7   8  2   
 13   7  10  1   
 14   9  27  1   
 15  10  11  1   
 16  10  28  1   
 17  10  29  1   
 18  11  12  1   
 19  11  13  1   
 20  11  30  1   
 21  12  14  1   
 22  12  31  1   
 23  12  32  1   
 24  13  33  1   
 25  13  34  1   
 26  13  35  1   
 27  14  15  1   
 28  14  16  1   
 29  14  36  1   
 30  15  17  1   
 31  15  37  1   
 32  15  38  1   
 33  16  18  1   
 34  16  39  1   
 35  16  40  1   
 36  17  18  1   
 37  17  19  1   
 38  18  41  1   
 39  18  42  1   
 40  19  20  ar  
 41  19  21  ar  
 42  20  22  ar  
 43  20  43  1   
 44  21  23  ar  
 45  21  44  1   
 46  22  24  ar  
 47  22  45  1   
 48  23  24  ar  
 49  23  46  1   
 50  24  47  1   
@<TRIPOS>SUBSTRUCTURE
  1 ****  12 GROUP 4 **** **** 0

# MOE 2024.06 (io_trps.svl 2023.06)
