@<TRIPOS>MOLECULE
NONAME
48 50 1 0 0 
SMALL
USER_CHARGES


@<TRIPOS>ATOM
  1 F       -1.1980     2.1880     1.5130 F     1 <1>  -0.1900 
  2 C       -1.7350     2.7660     0.4700 C.ar  1 <1>   0.1900 
  3 C       -1.3720     4.0620     0.1370 C.ar  1 <1>  -0.1440 
  4 C       -2.6650     2.0450    -0.2570 C.ar  1 <1>  -0.1500 
  5 C       -1.9860     4.6460    -0.9630 C.ar  1 <1>  -0.1500 
  6 C       -0.3430     4.8400     0.9460 C.3   1 <1>   0.2540 
  7 C       -3.2610     2.6410    -1.3550 C.ar  1 <1>  -0.1500 
  8 C       -2.9220     3.9390    -1.7040 C.ar  1 <1>  -0.1500 
  9 N        1.0410     4.4350     0.6150 N.3   1 <1>  -0.8100 
 10 C        2.0130     5.1420     1.4940 C.3   1 <1>   0.1710 
 11 C        1.3580     4.6020    -0.8110 C.3   1 <1>   0.0300 
 12 C        2.0430     6.6770     1.3590 C.2   1 <1>   0.5690 
 13 O        1.4200     7.3150     2.1750 O.2   1 <1>  -0.5700 
 14 N        2.7470     7.3010     0.3560 N.am  1 <1>  -0.6600 
 15 C        2.3150     8.6690    -0.1200 C.3   1 <1>   0.4000 
 16 C        4.1700     6.9290     0.1040 C.3   1 <1>   0.1400 
 17 C        0.7940     8.8800    -0.1340 C.2   1 <1>   0.2980 
 18 C        2.8270     8.9430    -1.5490 C.3   1 <1>  -0.1600 
 19 C        4.5710     7.1750    -1.3500 C.3   1 <1>  -0.1600 
 20 O        0.0410     7.9760    -0.7140 O.3   1 <1>  -0.0190 
 21 N        0.1680     9.8840     0.3430 N.2   1 <1>  -0.5650 
 22 C        4.3120     8.6290    -1.7440 C.3   1 <1>  -0.1600 
 23 N       -1.1660     8.4320    -0.5760 N.2   1 <1>  -0.4100 
 24 C       -1.0740     9.5370     0.0480 C.2   1 <1>   0.3350 
 25 C       -2.2380    10.4130     0.4420 C.3   1 <1>  -0.0590 
 26 H       -2.9120     1.0420     0.0350 H     1 <1>   0.1500 
 27 H       -1.7340     5.6540    -1.2460 H     1 <1>   0.1500 
 28 H       -0.5210     4.6660     1.9930 H     1 <1>   0.0800 
 29 H       -0.4730     5.8940     0.7680 H     1 <1>   0.0800 
 30 H       -3.9870     2.0990    -1.9360 H     1 <1>   0.1500 
 31 H       -3.3870     4.4050    -2.5550 H     1 <1>   0.1500 
 32 H        2.9890     4.7340     1.3210 H     1 <1>   0.0800 
 33 H        1.7680     4.9130     2.5160 H     1 <1>   0.0800 
 34 H        0.7550     3.9330    -1.4010 H     1 <1>   0.0800 
 35 H        2.3910     4.3610    -0.9890 H     1 <1>   0.0800 
 36 H        1.1700     5.6120    -1.1290 H     1 <1>   0.0800 
 37 H        2.7430     9.3980     0.5450 H     1 <1>   0.0800 
 38 H        4.3450     5.8950     0.3370 H     1 <1>   0.0800 
 39 H        4.7970     7.5210     0.7500 H     1 <1>   0.0800 
 40 H        2.6480     9.9770    -1.7870 H     1 <1>   0.0800 
 41 H        2.2530     8.3530    -2.2430 H     1 <1>   0.0800 
 42 H        4.0160     6.5110    -1.9890 H     1 <1>   0.0800 
 43 H        5.6160     6.9510    -1.4710 H     1 <1>   0.0800 
 44 H        4.9090     9.2870    -1.1360 H     1 <1>   0.0800 
 45 H        4.5850     8.7830    -2.7740 H     1 <1>   0.0800 
 46 H       -2.1280    11.3820    -0.0060 H     1 <1>   0.0800 
 47 H       -2.2590    10.5170     1.5110 H     1 <1>   0.0800 
 48 H       -3.1600     9.9720     0.1120 H     1 <1>   0.0800 
@<TRIPOS>BOND
  1   1   2  1   
  2   2   3  ar  
  3   2   4  ar  
  4   3   5  ar  
  5   3   6  1   
  6   4   7  ar  
  7   4  26  1   
  8   5   8  ar  
  9   5  27  1   
 10   6   9  1   
 11   6  28  1   
 12   6  29  1   
 13   7   8  ar  
 14   7  30  1   
 15   8  31  1   
 16   9  10  1   
 17   9  11  1   
 18  10  12  1   
 19  10  32  1   
 20  10  33  1   
 21  11  34  1   
 22  11  35  1   
 23  11  36  1   
 24  12  13  2   
 25  12  14  am  
 26  14  15  1   
 27  14  16  1   
 28  15  17  1   
 29  15  18  1   
 30  15  37  1   
 31  16  19  1   
 32  16  38  1   
 33  16  39  1   
 34  17  20  1   
 35  17  21  2   
 36  18  22  1   
 37  18  40  1   
 38  18  41  1   
 39  19  22  1   
 40  19  42  1   
 41  19  43  1   
 42  20  23  1   
 43  21  24  1   
 44  22  44  1   
 45  22  45  1   
 46  23  24  2   
 47  24  25  1   
 48  25  46  1   
 49  25  47  1   
 50  25  48  1   
@<TRIPOS>SUBSTRUCTURE
  1 ****  20 GROUP 4 **** **** 0

# MOE 2024.06 (io_trps.svl 2023.06)
