@<TRIPOS>MOLECULE
NONAME
54 56 1 0 0 
SMALL
USER_CHARGES


@<TRIPOS>ATOM
  1 O       -1.7120     2.2140    -2.5740 O.2   1 <1>  -0.5700 
  2 C       -1.7350     2.2140    -1.3640 C.2   1 <1>   0.5690 
  3 N       -2.4420     1.2580    -0.6760 N.am  1 <1>  -0.6600 
  4 C       -0.9880     3.3410    -0.6670 C.3   1 <1>   0.0440 
  5 C       -3.1600     0.1650    -1.4020 C.3   1 <1>   0.1400 
  6 C       -2.6370     1.2230     0.8010 C.3   1 <1>   0.1400 
  7 C        0.2130     2.8780     0.1490 C.ar  1 <1>   0.1660 
  8 C       -4.6640     0.4530    -1.5380 C.3   1 <1>   0.1400 
  9 C       -3.8120     2.1070     1.2430 C.3   1 <1>  -0.1600 
 10 N        0.1450     3.1820     1.4400 N.ar  1 <1>  -0.6200 
 11 C        1.2910     2.2080    -0.4340 C.ar  1 <1>  -0.1430 
 12 N       -5.3090     0.7430    -0.2160 N.am  1 <1>  -0.6600 
 13 C       -5.0260     2.1090     0.3040 C.3   1 <1>   0.1400 
 14 C        1.1660     2.7990     2.1860 C.ar  1 <1>   0.1600 
 15 C        2.3430     1.8150     0.3700 C.ar  1 <1>  -0.1500 
 16 C        1.3740     1.8880    -1.9220 C.3   1 <1>  -0.0970 
 17 C       -6.0700    -0.1370     0.5090 C.2   1 <1>   0.5690 
 18 C        2.2710     2.1200     1.7100 C.ar  1 <1>  -0.1500 
 19 O       -6.5630     0.1790     1.5670 O.2   1 <1>  -0.5700 
 20 C       -6.3000    -1.5490    -0.0090 C.3   1 <1>  -0.0990 
 21 C       -6.9920    -2.4790     0.9980 C.3   1 <1>  -0.0170 
 22 C       -7.1360    -3.8720     0.4070 C.ar  1 <1>  -0.1430 
 23 C       -8.2650    -4.2080    -0.3250 C.ar  1 <1>  -0.1500 
 24 C       -6.1380    -4.8160     0.5880 C.ar  1 <1>  -0.1500 
 25 C       -8.3940    -5.4730    -0.8710 C.ar  1 <1>  -0.1500 
 26 C       -6.2650    -6.0820     0.0430 C.ar  1 <1>  -0.1500 
 27 C       -7.3930    -6.4120    -0.6870 C.ar  1 <1>  -0.1500 
 28 H       -1.6800     3.8670    -0.0380 H     1 <1>   0.0800 
 29 H       -0.6470     4.0420    -1.4030 H     1 <1>   0.0800 
 30 H       -3.0200    -0.7660    -0.8810 H     1 <1>   0.0800 
 31 H       -2.7410     0.0410    -2.3860 H     1 <1>   0.0800 
 32 H       -1.7420     1.5190     1.3130 H     1 <1>   0.0800 
 33 H       -2.8420     0.2100     1.1010 H     1 <1>   0.0800 
 34 H       -5.1400    -0.3830    -2.0160 H     1 <1>   0.0800 
 35 H       -4.7940     1.2990    -2.1910 H     1 <1>   0.0800 
 36 H       -3.4700     3.1170     1.3650 H     1 <1>   0.0800 
 37 H       -4.1350     1.7740     2.2140 H     1 <1>   0.0800 
 38 H       -4.8370     2.7730    -0.5220 H     1 <1>   0.0800 
 39 H       -5.8880     2.4840     0.8300 H     1 <1>   0.0800 
 40 H        1.1200     3.0400     3.2340 H     1 <1>   0.1500 
 41 H        3.1930     1.2890    -0.0280 H     1 <1>   0.1500 
 42 H        1.0520     2.7250    -2.5140 H     1 <1>   0.0800 
 43 H        0.7530     1.0400    -2.1510 H     1 <1>   0.0800 
 44 H        2.3830     1.6540    -2.2090 H     1 <1>   0.0800 
 45 H        3.0630     1.8390     2.3790 H     1 <1>   0.1500 
 46 H       -5.3500    -1.9780    -0.2660 H     1 <1>   0.0800 
 47 H       -6.9000    -1.4920    -0.8970 H     1 <1>   0.0800 
 48 H       -7.9630    -2.0870     1.2490 H     1 <1>   0.0800 
 49 H       -6.4160    -2.5260     1.9060 H     1 <1>   0.0800 
 50 H       -9.0480    -3.4850    -0.4720 H     1 <1>   0.1500 
 51 H       -5.2580    -4.5700     1.1560 H     1 <1>   0.1500 
 52 H       -9.2720    -5.7280    -1.4370 H     1 <1>   0.1500 
 53 H       -5.4870    -6.8110     0.1880 H     1 <1>   0.1500 
 54 H       -7.4930    -7.3960    -1.1110 H     1 <1>   0.1500 
@<TRIPOS>BOND
  1   1   2  2   
  2   2   3  am  
  3   2   4  1   
  4   3   5  1   
  5   3   6  1   
  6   4   7  1   
  7   4  28  1   
  8   4  29  1   
  9   5   8  1   
 10   5  30  1   
 11   5  31  1   
 12   6   9  1   
 13   6  32  1   
 14   6  33  1   
 15   7  10  ar  
 16   7  11  ar  
 17   8  12  1   
 18   8  34  1   
 19   8  35  1   
 20   9  13  1   
 21   9  36  1   
 22   9  37  1   
 23  10  14  ar  
 24  11  15  ar  
 25  11  16  1   
 26  12  13  1   
 27  12  17  am  
 28  13  38  1   
 29  13  39  1   
 30  14  18  ar  
 31  14  40  1   
 32  15  18  ar  
 33  15  41  1   
 34  16  42  1   
 35  16  43  1   
 36  16  44  1   
 37  17  19  2   
 38  17  20  1   
 39  18  45  1   
 40  20  21  1   
 41  20  46  1   
 42  20  47  1   
 43  21  22  1   
 44  21  48  1   
 45  21  49  1   
 46  22  23  ar  
 47  22  24  ar  
 48  23  25  ar  
 49  23  50  1   
 50  24  26  ar  
 51  24  51  1   
 52  25  27  ar  
 53  25  52  1   
 54  26  27  ar  
 55  26  53  1   
 56  27  54  1   
@<TRIPOS>SUBSTRUCTURE
  1 ****   5 GROUP 4 **** **** 0

# MOE 2024.06 (io_trps.svl 2023.06)
