@<TRIPOS>MOLECULE
NONAME
42 44 1 0 0 
SMALL
USER_CHARGES


@<TRIPOS>ATOM
  1 S       -0.7610    -0.4150    -1.1700 S.3   1 <1>  -0.0800 
  2 C       -1.0800    -1.1490     0.3690 C.2   1 <1>   0.4420 
  3 C       -0.5080     1.0720    -0.3230 C.2   1 <1>   0.1980 
  4 N       -0.9870    -0.3060     1.3320 N.2   1 <1>  -0.3380 
  5 N       -1.3850    -2.4930     0.3670 N.am  1 <1>  -0.4940 
  6 N       -0.6600     0.9570     0.9310 N.2   1 <1>  -0.3380 
  7 C       -0.1460     2.3100    -1.1130 C.3   1 <1>   0.0200 
  8 C       -1.6620    -3.3300     1.4130 C.2   1 <1>   0.5690 
  9 C        0.0610     3.4740    -0.1370 C.3   1 <1>   0.3430 
 10 O       -1.6630    -2.9770     2.5650 O.2   1 <1>  -0.5700 
 11 C       -1.9900    -4.7880     1.1010 C.3   1 <1>   0.2610 
 12 N        0.4890     4.7440    -0.8150 N.4   1 <1>  -0.9590 
 13 O       -1.9240    -5.0180    -0.3080 O.3   1 <1>  -0.3630 
 14 C       -3.3830    -5.1560     1.6330 C.3   1 <1>   0.1200 
 15 C        0.9310     5.7350     0.2170 C.3   1 <1>   0.2630 
 16 C       -0.5960     5.3380    -1.6610 C.3   1 <1>   0.2630 
 17 C       -2.5120    -6.1480    -0.7760 C.ar  1 <1>   0.0830 
 18 O       -3.7210    -6.4820     1.2690 O.3   1 <1>  -0.3630 
 19 C       -3.3980    -6.8830     0.0140 C.ar  1 <1>   0.0830 
 20 C       -2.2160    -6.5730    -2.0600 C.ar  1 <1>  -0.1500 
 21 C       -3.9660    -8.0440    -0.4810 C.ar  1 <1>  -0.1500 
 22 C       -2.7920    -7.7320    -2.5540 C.ar  1 <1>  -0.1500 
 23 C       -3.6640    -8.4670    -1.7660 C.ar  1 <1>  -0.1500 
 24 H       -1.4130    -2.9470    -0.5460 H     1 <1>   0.3700 
 25 H       -0.9460     2.5230    -1.7970 H     1 <1>   0.0800 
 26 H        0.7590     2.1180    -1.6600 H     1 <1>   0.0800 
 27 H        0.8130     3.1790     0.5790 H     1 <1>   0.0800 
 28 H       -0.8540     3.6410     0.4110 H     1 <1>   0.0800 
 29 H       -1.2520    -5.4140     1.5700 H     1 <1>   0.0800 
 30 H        1.3030     4.5370    -1.4150 H     1 <1>   0.4500 
 31 H       -4.1280    -4.4960     1.2270 H     1 <1>   0.0800 
 32 H       -3.4070    -5.0900     2.7070 H     1 <1>   0.0800 
 33 H        0.1140     5.9800     0.8760 H     1 <1>   0.0800 
 34 H        1.2770     6.6400    -0.2560 H     1 <1>   0.0800 
 35 H        1.7370     5.3280     0.8070 H     1 <1>   0.0800 
 36 H       -1.4650     5.5520    -1.0600 H     1 <1>   0.0800 
 37 H       -0.8790     4.6580    -2.4470 H     1 <1>   0.0800 
 38 H       -0.2570     6.2570    -2.1120 H     1 <1>   0.0800 
 39 H       -1.5370    -6.0030    -2.6680 H     1 <1>   0.1500 
 40 H       -4.6420    -8.6070     0.1360 H     1 <1>   0.1500 
 41 H       -2.5620    -8.0640    -3.5520 H     1 <1>   0.1500 
 42 H       -4.1080    -9.3690    -2.1510 H     1 <1>   0.1500 
@<TRIPOS>BOND
  1   1   2  1   
  2   1   3  1   
  3   2   4  2   
  4   2   5  1   
  5   3   6  2   
  6   3   7  1   
  7   4   6  1   
  8   5   8  am  
  9   5  24  1   
 10   7   9  1   
 11   7  25  1   
 12   7  26  1   
 13   8  10  2   
 14   8  11  1   
 15   9  12  1   
 16   9  27  1   
 17   9  28  1   
 18  11  13  1   
 19  11  14  1   
 20  11  29  1   
 21  12  15  1   
 22  12  16  1   
 23  12  30  1   
 24  13  17  1   
 25  14  18  1   
 26  14  31  1   
 27  14  32  1   
 28  15  33  1   
 29  15  34  1   
 30  15  35  1   
 31  16  36  1   
 32  16  37  1   
 33  16  38  1   
 34  17  19  ar  
 35  17  20  ar  
 36  18  19  1   
 37  19  21  ar  
 38  20  22  ar  
 39  20  39  1   
 40  21  23  ar  
 41  21  40  1   
 42  22  23  ar  
 43  22  41  1   
 44  23  42  1   
@<TRIPOS>SUBSTRUCTURE
  1 ****   5 GROUP 4 **** **** 0

# MOE 2024.06 (io_trps.svl 2023.06)
