@<TRIPOS>MOLECULE
NONAME
44 45 1 0 0 
SMALL
USER_CHARGES


@<TRIPOS>ATOM
  1 O        3.9900     1.7590     1.9670 O.co2 1 <1>  -0.9000 
  2 C        3.2740     0.8470     1.5260 C.2   1 <1>   0.9060 
  3 O        3.3680    -0.2950     1.9700 O.co2 1 <1>  -0.9000 
  4 C        2.5000     1.0580     0.2060 C.3   1 <1>  -0.1060 
  5 C        3.1820     0.0690    -0.7730 C.3   1 <1>   0.2000 
  6 C        2.7180     2.5070    -0.3490 C.3   1 <1>  -0.1600 
  7 C        0.9940     0.7710     0.4870 C.3   1 <1>  -0.1600 
  8 O        2.7000     0.2610    -2.0680 O.3   1 <1>  -0.6800 
  9 C        4.7150     0.3130    -0.7940 C.3   1 <1>   0.3430 
 10 C        4.0750     2.7130    -1.0540 C.3   1 <1>   0.3430 
 11 C        0.0290     0.6990    -0.7120 C.3   1 <1>  -0.1600 
 12 N        5.0740     1.7530    -0.5160 N.4   1 <1>  -0.9590 
 13 C       -1.4200     0.5980    -0.2300 C.3   1 <1>  -0.2400 
 14 C        6.4880     2.0910    -0.7690 C.3   1 <1>   0.4860 
 15 C        6.7770     3.4730    -0.2080 C.ar  1 <1>  -0.1440 
 16 C        6.5050     3.7530     1.1240 C.ar  1 <1>  -0.1500 
 17 C        7.3010     4.4710    -1.0200 C.ar  1 <1>  -0.1500 
 18 C        6.7320     5.0220     1.6250 C.ar  1 <1>   0.0820 
 19 C        7.5420     5.7360    -0.5080 C.ar  1 <1>  -0.1500 
 20 O        6.4260     5.2910     2.9010 O.3   1 <1>  -0.5330 
 21 C        7.2550     6.0140     0.8170 C.ar  1 <1>  -0.1500 
 22 H        2.9800    -0.9520    -0.4930 H     1 <1>   0.0800 
 23 H        2.6280     3.2190     0.4550 H     1 <1>   0.0800 
 24 H        1.9570     2.7630    -1.0600 H     1 <1>   0.0800 
 25 H        0.9230    -0.1650     1.0180 H     1 <1>   0.0800 
 26 H        0.6440     1.5300     1.1660 H     1 <1>   0.0800 
 27 H        1.7250     0.1870    -2.0500 H     1 <1>   0.4000 
 28 H        5.1010    -0.0020    -1.7480 H     1 <1>   0.0800 
 29 H        5.1580    -0.3010    -0.0250 H     1 <1>   0.0800 
 30 H        4.4030     3.7290    -0.9020 H     1 <1>   0.0800 
 31 H        3.9570     2.5420    -2.1120 H     1 <1>   0.0800 
 32 H        0.1210     1.5710    -1.3340 H     1 <1>   0.0800 
 33 H        0.2410    -0.1740    -1.3020 H     1 <1>   0.0800 
 34 H        4.9370     1.8570     0.5220 H     1 <1>   0.4500 
 35 H       -1.6880     1.4670     0.3450 H     1 <1>   0.0800 
 36 H       -1.5520    -0.2760     0.3840 H     1 <1>   0.0800 
 37 H       -2.0870     0.5280    -1.0710 H     1 <1>   0.0800 
 38 H        7.1260     1.3720    -0.2820 H     1 <1>   0.0800 
 39 H        6.6870     2.0710    -1.8270 H     1 <1>   0.0800 
 40 H        6.1090     2.9970     1.7810 H     1 <1>   0.1500 
 41 H        7.5260     4.2770    -2.0550 H     1 <1>   0.1500 
 42 H        7.9510     6.5070    -1.1380 H     1 <1>   0.1500 
 43 H        5.9660     4.5500     3.3410 H     1 <1>   0.4500 
 44 H        7.4310     6.9920     1.2290 H     1 <1>   0.1500 
@<TRIPOS>BOND
  1   1   2  ar  
  2   2   3  ar  
  3   2   4  1   
  4   4   5  1   
  5   4   6  1   
  6   4   7  1   
  7   5   8  1   
  8   5   9  1   
  9   5  22  1   
 10   6  10  1   
 11   6  23  1   
 12   6  24  1   
 13   7  11  1   
 14   7  25  1   
 15   7  26  1   
 16   8  27  1   
 17   9  12  1   
 18   9  28  1   
 19   9  29  1   
 20  10  12  1   
 21  10  30  1   
 22  10  31  1   
 23  11  13  1   
 24  11  32  1   
 25  11  33  1   
 26  12  14  1   
 27  12  34  1   
 28  13  35  1   
 29  13  36  1   
 30  13  37  1   
 31  14  15  1   
 32  14  38  1   
 33  14  39  1   
 34  15  16  ar  
 35  15  17  ar  
 36  16  18  ar  
 37  16  40  1   
 38  17  19  ar  
 39  17  41  1   
 40  18  20  1   
 41  18  21  ar  
 42  19  21  ar  
 43  19  42  1   
 44  20  43  1   
 45  21  44  1   
@<TRIPOS>SUBSTRUCTURE
  1 ****  12 GROUP 4 **** **** 0

# MOE 2024.06 (io_trps.svl 2023.06)
