@<TRIPOS>MOLECULE
NONAME
49 51 1 0 0 
SMALL
USER_CHARGES


@<TRIPOS>ATOM
  1 O        3.0720    -0.3360     3.3220 O.2   1 <1>  -0.5700 
  2 C        3.0980    -1.1250     2.3940 C.2   1 <1>   0.7150 
  3 N        3.9970    -0.8890     1.3650 N.am  1 <1>  -0.6600 
  4 C        2.1270    -2.1970     2.3550 C.2   1 <1>   0.0550 
  5 C        4.6980     0.4280     1.2200 C.3   1 <1>   0.1400 
  6 C        4.3030    -1.8700     0.2840 C.3   1 <1>   0.1400 
  7 O        1.5880    -2.5700     1.2000 O.3   1 <1>  -0.2800 
  8 C        1.5620    -2.9450     3.3430 C.2   1 <1>  -0.1500 
  9 C        4.2550     1.2520    -0.0230 C.3   1 <1>   0.4230 
 10 C        3.7040    -1.4290    -1.0710 C.3   1 <1>  -0.0800 
 11 C        0.7130    -3.5290     1.4000 C.2   1 <1>   0.1600 
 12 C        0.6560    -3.8070     2.7250 C.2   1 <1>  -0.1500 
 13 N        2.8500     0.9690    -0.5350 N.4   1 <1>  -0.9590 
 14 C        5.2960     1.1810    -1.1620 C.3   1 <1>   0.1200 
 15 C        4.7650    -0.9510    -2.0740 C.3   1 <1>   0.1200 
 16 C        2.5250    -0.4510    -0.9380 C.3   1 <1>   0.3430 
 17 C        0.0310    -4.0590     0.2650 C.1   1 <1>  -0.0200 
 18 C        1.8340     1.4330     0.4640 C.3   1 <1>   0.2630 
 19 O        5.6950    -0.1210    -1.4590 O.3   1 <1>  -0.5600 
 20 C       -0.4810    -4.4220    -0.7470 C.1   1 <1>  -0.2000 
 21 C       -1.0770    -4.8170    -2.0510 C.3   1 <1>   0.4800 
 22 O       -0.5450    -3.9880    -3.0040 O.3   1 <1>  -0.6800 
 23 C       -0.6960    -6.2440    -2.4240 C.3   1 <1>  -0.2400 
 24 C       -2.5860    -4.6060    -2.0560 C.3   1 <1>  -0.2400 
 25 H        4.5300     1.0340     2.0930 H     1 <1>   0.0800 
 26 H        5.7600     0.2540     1.1800 H     1 <1>   0.0800 
 27 H        5.3710    -1.9850     0.2030 H     1 <1>   0.0800 
 28 H        3.9190    -2.8400     0.5500 H     1 <1>   0.0800 
 29 H        1.7610    -2.8890     4.4000 H     1 <1>   0.1500 
 30 H        4.2680     2.2820     0.2910 H     1 <1>   0.0800 
 31 H        3.2840    -2.3190    -1.5060 H     1 <1>   0.0800 
 32 H        0.0410    -4.5370     3.2190 H     1 <1>   0.1500 
 33 H        2.7310     1.5390    -1.3800 H     1 <1>   0.4500 
 34 H        6.1840     1.7000    -0.8490 H     1 <1>   0.0800 
 35 H        4.9370     1.6540    -2.0590 H     1 <1>   0.0800 
 36 H        4.3310    -0.4440    -2.9200 H     1 <1>   0.0800 
 37 H        5.3140    -1.8020    -2.4410 H     1 <1>   0.0800 
 38 H        1.8390    -0.8660    -0.2200 H     1 <1>   0.0800 
 39 H        2.0000    -0.4280    -1.8790 H     1 <1>   0.0800 
 40 H        1.9260     0.8740     1.3810 H     1 <1>   0.0800 
 41 H        0.8370     1.2930     0.0780 H     1 <1>   0.0800 
 42 H        1.9730     2.4780     0.6870 H     1 <1>   0.0800 
 43 H       -0.9170    -4.2330    -3.8690 H     1 <1>   0.4000 
 44 H       -1.0780    -6.9260    -1.6860 H     1 <1>   0.0800 
 45 H        0.3750    -6.3460    -2.4530 H     1 <1>   0.0800 
 46 H       -1.1080    -6.5140    -3.3790 H     1 <1>   0.0800 
 47 H       -3.0410    -5.2240    -1.3030 H     1 <1>   0.0800 
 48 H       -3.0080    -4.8690    -3.0090 H     1 <1>   0.0800 
 49 H       -2.8180    -3.5800    -1.8320 H     1 <1>   0.0800 
@<TRIPOS>BOND
  1   1   2  2   
  2   2   3  am  
  3   2   4  1   
  4   3   5  1   
  5   3   6  1   
  6   4   7  1   
  7   4   8  2   
  8   5   9  1   
  9   5  25  1   
 10   5  26  1   
 11   6  10  1   
 12   6  27  1   
 13   6  28  1   
 14   7  11  1   
 15   8  12  1   
 16   8  29  1   
 17   9  13  1   
 18   9  14  1   
 19   9  30  1   
 20  10  15  1   
 21  10  16  1   
 22  10  31  1   
 23  11  12  2   
 24  11  17  1   
 25  12  32  1   
 26  13  16  1   
 27  13  18  1   
 28  13  33  1   
 29  14  19  1   
 30  14  34  1   
 31  14  35  1   
 32  15  19  1   
 33  15  36  1   
 34  15  37  1   
 35  16  38  1   
 36  16  39  1   
 37  17  20  3   
 38  18  40  1   
 39  18  41  1   
 40  18  42  1   
 41  20  21  1   
 42  21  22  1   
 43  21  23  1   
 44  21  24  1   
 45  22  43  1   
 46  23  44  1   
 47  23  45  1   
 48  23  46  1   
 49  24  47  1   
 50  24  48  1   
 51  24  49  1   
@<TRIPOS>SUBSTRUCTURE
  1 ****   7 GROUP 4 **** **** 0

# MOE 2024.06 (io_trps.svl 2023.06)
