@<TRIPOS>MOLECULE
NONAME
46 49 1 0 0 
SMALL
USER_CHARGES


@<TRIPOS>ATOM
  1 O       -0.6350    -0.0570     0.9810 O.2   1 <1>  -0.5700 
  2 C       -1.6850     0.5390     0.8130 C.2   1 <1>   0.7160 
  3 N       -2.7920    -0.1870     0.4320 N.am  1 <1>  -0.6600 
  4 C       -1.7590     1.9760     0.9920 C.2   1 <1>  -0.0860 
  5 C       -3.9550     0.3990    -0.2790 C.3   1 <1>   0.1400 
  6 C       -2.7370    -1.6540     0.2290 C.3   1 <1>   0.1400 
  7 C       -0.8920     2.9650     0.5880 C.2   1 <1>  -0.3320 
  8 C       -2.7990     2.6560     1.6610 C.2   1 <1>  -0.1500 
  9 C       -4.5010    -0.7390    -1.1400 C.3   1 <1>   0.2000 
 10 C       -4.0590    -2.0240    -0.4450 C.3   1 <1>  -0.0800 
 11 N       -1.3560     4.1770     0.9700 N.pl3 1 <1>   0.0330 
 12 C        0.4160     2.8150    -0.1710 C.3   1 <1>  -0.0600 
 13 C       -2.5280     3.9830     1.6260 C.2   1 <1>  -0.3020 
 14 O       -5.8840    -0.6970    -1.2260 O.3   1 <1>  -0.6800 
 15 C       -3.9400    -3.2150    -1.4110 C.3   1 <1>  -0.0170 
 16 C       -3.5170    -4.4790    -0.6700 C.ar  1 <1>  -0.1440 
 17 C       -4.4260    -5.2480     0.0960 C.ar  1 <1>   0.0000 
 18 C       -2.2210    -4.9020    -0.7210 C.ar  1 <1>  -0.1500 
 19 C       -3.9200    -6.3880     0.7660 C.ar  1 <1>   0.3100 
 20 C       -5.8030    -4.9540     0.2350 C.ar  1 <1>  -0.1500 
 21 C       -1.8260    -6.0500    -0.0250 C.ar  1 <1>   0.1600 
 22 N       -2.6220    -6.7740     0.6950 N.ar  1 <1>  -0.6200 
 23 C       -4.7950    -7.1620     1.5440 C.ar  1 <1>  -0.1500 
 24 C       -6.6300    -5.7320     0.9990 C.ar  1 <1>  -0.1500 
 25 C       -6.1220    -6.8490     1.6650 C.ar  1 <1>  -0.1500 
 26 H       -4.6850     0.7170     0.4450 H     1 <1>   0.0800 
 27 H       -3.6510     1.2310    -0.8900 H     1 <1>   0.0800 
 28 H       -1.9000    -1.8870    -0.4080 H     1 <1>   0.0800 
 29 H       -2.6170    -2.1630     1.1700 H     1 <1>   0.0800 
 30 H       -3.6450     2.1730     2.1190 H     1 <1>   0.1500 
 31 H       -4.0950    -0.6690    -2.1350 H     1 <1>   0.0800 
 32 H       -4.7550    -2.2600     0.3400 H     1 <1>   0.0800 
 33 H       -0.9020     5.0820     0.8030 H     1 <1>   0.2700 
 34 H        0.5960     1.7850    -0.4220 H     1 <1>   0.0800 
 35 H        1.2340     3.1620     0.4330 H     1 <1>   0.0800 
 36 H        0.3850     3.3850    -1.0820 H     1 <1>   0.0800 
 37 H       -3.0990     4.7970     2.0360 H     1 <1>   0.1500 
 38 H       -6.2830    -0.7470    -0.3360 H     1 <1>   0.4000 
 39 H       -3.2160    -2.9840    -2.1730 H     1 <1>   0.0800 
 40 H       -4.8760    -3.3790    -1.9150 H     1 <1>   0.0800 
 41 H       -1.4750    -4.3720    -1.2850 H     1 <1>   0.1500 
 42 H       -6.2160    -4.1030    -0.2720 H     1 <1>   0.1500 
 43 H       -0.7930    -6.3470    -0.0910 H     1 <1>   0.1500 
 44 H       -4.3820    -8.0180     2.0460 H     1 <1>   0.1500 
 45 H       -7.6760    -5.4980     1.0970 H     1 <1>   0.1500 
 46 H       -6.7810    -7.4530     2.2650 H     1 <1>   0.1500 
@<TRIPOS>BOND
  1   1   2  2   
  2   2   3  am  
  3   2   4  1   
  4   3   5  1   
  5   3   6  1   
  6   4   7  2   
  7   4   8  1   
  8   5   9  1   
  9   5  26  1   
 10   5  27  1   
 11   6  10  1   
 12   6  28  1   
 13   6  29  1   
 14   7  11  1   
 15   7  12  1   
 16   8  13  2   
 17   8  30  1   
 18   9  10  1   
 19   9  14  1   
 20   9  31  1   
 21  10  15  1   
 22  10  32  1   
 23  11  13  1   
 24  11  33  1   
 25  12  34  1   
 26  12  35  1   
 27  12  36  1   
 28  13  37  1   
 29  14  38  1   
 30  15  16  1   
 31  15  39  1   
 32  15  40  1   
 33  16  17  ar  
 34  16  18  ar  
 35  17  19  ar  
 36  17  20  ar  
 37  18  21  ar  
 38  18  41  1   
 39  19  22  ar  
 40  19  23  ar  
 41  20  24  ar  
 42  20  42  1   
 43  21  22  ar  
 44  21  43  1   
 45  23  25  ar  
 46  23  44  1   
 47  24  25  ar  
 48  24  45  1   
 49  25  46  1   
@<TRIPOS>SUBSTRUCTURE
  1 ****   6 GROUP 4 **** **** 0

# MOE 2024.06 (io_trps.svl 2023.06)
