@<TRIPOS>MOLECULE
NONAME
48 50 1 0 0 
SMALL
USER_CHARGES


@<TRIPOS>ATOM
  1 CL      -3.4780    -0.6660    -3.8870 Cl    1 <1>  -0.1770 
  2 C       -3.6070    -1.5190    -2.3650 C.ar  1 <1>   0.1770 
  3 C       -2.5480    -2.2730    -1.8720 C.ar  1 <1>   0.0820 
  4 C       -4.7920    -1.4360    -1.6640 C.ar  1 <1>  -0.1500 
  5 O       -1.3750    -2.3860    -2.5340 O.3   1 <1>  -0.3630 
  6 C       -2.6980    -2.9570    -0.6760 C.ar  1 <1>  -0.1500 
  7 C       -4.9210    -2.1160    -0.4610 C.ar  1 <1>   0.0830 
  8 C       -0.4870    -1.2950    -2.4350 C.3   1 <1>   0.0400 
  9 C       -3.8830    -2.8940     0.0510 C.ar  1 <1>  -0.0090 
 10 O       -6.0960    -2.0290     0.1930 O.3   1 <1>  -0.3630 
 11 S       -4.0490    -3.7920     1.6160 S.o2  1 <1>   1.4470 
 12 C       -6.3100    -0.8590     0.9520 C.3   1 <1>   0.0400 
 13 O       -2.9560    -4.7270     1.7560 O.2   1 <1>  -0.6500 
 14 O       -4.3330    -2.8820     2.7010 O.2   1 <1>  -0.6500 
 15 N       -5.4290    -4.7250     1.4410 N.am  1 <1>  -0.9140 
 16 C       -5.2570    -5.9450     0.6670 C.3   1 <1>   0.2760 
 17 C       -6.6070    -6.4070     0.1350 C.3   1 <1>  -0.0800 
 18 C       -4.9190    -7.1110     1.5940 C.3   1 <1>   0.1200 
 19 C       -7.1950    -7.1810     1.3210 C.3   1 <1>   0.1200 
 20 C       -7.5260    -5.2990    -0.4160 C.3   1 <1>  -0.0170 
 21 O       -6.1320    -7.4660     2.1850 O.3   1 <1>  -0.5600 
 22 C       -8.8100    -5.8910    -0.9730 C.ar  1 <1>  -0.1430 
 23 C       -9.9860    -5.8950    -0.2500 C.ar  1 <1>  -0.1500 
 24 C       -8.8650    -6.4590    -2.2300 C.ar  1 <1>  -0.1500 
 25 C      -11.1260    -6.4560    -0.8000 C.ar  1 <1>   0.1600 
 26 C      -10.0570    -6.9940    -2.6870 C.ar  1 <1>   0.1600 
 27 N      -11.1880    -7.0080    -2.0010 N.ar  1 <1>  -0.6200 
 28 H       -5.6090    -0.8560    -2.0520 H     1 <1>   0.1500 
 29 H       -1.8730    -3.5470    -0.3130 H     1 <1>   0.1500 
 30 H        0.4070    -1.5390    -2.9790 H     1 <1>   0.0800 
 31 H       -0.2530    -1.1280    -1.3980 H     1 <1>   0.0800 
 32 H       -0.9470    -0.4210    -2.8610 H     1 <1>   0.0800 
 33 H       -7.2570    -0.9540     1.4540 H     1 <1>   0.0800 
 34 H       -6.3240    -0.0080     0.2950 H     1 <1>   0.0800 
 35 H       -5.5220    -0.7620     1.6790 H     1 <1>   0.0800 
 36 H       -5.6760    -5.0180     2.3860 H     1 <1>   0.4200 
 37 H       -4.5360    -5.8140    -0.1240 H     1 <1>   0.0800 
 38 H       -6.4260    -7.1170    -0.6520 H     1 <1>   0.0800 
 39 H       -4.2030    -6.8610     2.3570 H     1 <1>   0.0800 
 40 H       -4.5670    -7.9570     1.0300 H     1 <1>   0.0800 
 41 H       -7.6550    -8.1030     1.0100 H     1 <1>   0.0800 
 42 H       -7.9050    -6.5860     1.8680 H     1 <1>   0.0800 
 43 H       -7.0140    -4.7600    -1.1940 H     1 <1>   0.0800 
 44 H       -7.7690    -4.5890     0.3560 H     1 <1>   0.0800 
 45 H      -10.0280    -5.4670     0.7350 H     1 <1>   0.1500 
 46 H       -7.9930    -6.4900    -2.8570 H     1 <1>   0.1500 
 47 H      -12.0340    -6.4510    -0.2230 H     1 <1>   0.1500 
 48 H      -10.0830    -7.4330    -3.6700 H     1 <1>   0.1500 
@<TRIPOS>BOND
  1   1   2  1   
  2   2   3  ar  
  3   2   4  ar  
  4   3   5  1   
  5   3   6  ar  
  6   4   7  ar  
  7   4  28  1   
  8   5   8  1   
  9   6   9  ar  
 10   6  29  1   
 11   7   9  ar  
 12   7  10  1   
 13   8  30  1   
 14   8  31  1   
 15   8  32  1   
 16   9  11  1   
 17  10  12  1   
 18  11  13  2   
 19  11  14  2   
 20  11  15  am  
 21  12  33  1   
 22  12  34  1   
 23  12  35  1   
 24  15  16  1   
 25  15  36  1   
 26  16  17  1   
 27  16  18  1   
 28  16  37  1   
 29  17  19  1   
 30  17  20  1   
 31  17  38  1   
 32  18  21  1   
 33  18  39  1   
 34  18  40  1   
 35  19  21  1   
 36  19  41  1   
 37  19  42  1   
 38  20  22  1   
 39  20  43  1   
 40  20  44  1   
 41  22  23  ar  
 42  22  24  ar  
 43  23  25  ar  
 44  23  45  1   
 45  24  26  ar  
 46  24  46  1   
 47  25  27  ar  
 48  25  47  1   
 49  26  27  ar  
 50  26  48  1   
@<TRIPOS>SUBSTRUCTURE
  1 ****  15 GROUP 4 **** **** 0

# MOE 2024.06 (io_trps.svl 2023.06)
