@<TRIPOS>MOLECULE
NONAME
49 52 1 0 0 
SMALL
USER_CHARGES


@<TRIPOS>ATOM
  1 CL      -1.7870    -1.6330     3.1630 Cl    1 <1>  -0.1770 
  2 C       -2.3410    -1.8480     1.5160 C.ar  1 <1>   0.1770 
  3 C       -1.7050    -2.7370     0.6570 C.ar  1 <1>   0.0830 
  4 C       -3.4350    -1.1170     1.0960 C.ar  1 <1>  -0.1500 
  5 O       -0.6370    -3.4720     1.0340 O.3   1 <1>  -0.3630 
  6 C       -2.1960    -2.8950    -0.6280 C.ar  1 <1>  -0.1500 
  7 C       -3.9340    -1.2630    -0.1940 C.ar  1 <1>  -0.0090 
  8 C        0.6040    -2.8050     1.0960 C.3   1 <1>   0.0400 
  9 C       -3.2960    -2.1620    -1.0440 C.ar  1 <1>  -0.1500 
 10 S       -5.3750    -0.3050    -0.7390 S.o2  1 <1>   1.4470 
 11 O       -5.9030    -0.8620    -1.9660 O.2   1 <1>  -0.6500 
 12 O       -5.0400     1.1010    -0.6850 O.2   1 <1>  -0.6500 
 13 N       -6.4990    -0.6030     0.4960 N.am  1 <1>  -0.8490 
 14 C       -7.5130     0.4540     0.6880 C.3   1 <1>   0.1960 
 15 C       -7.0480    -1.9730     0.5260 C.3   1 <1>   0.1960 
 16 C       -8.6730     0.4240    -0.3430 C.3   1 <1>   0.1430 
 17 C       -8.5600    -2.0450     0.2490 C.3   1 <1>  -0.1600 
 18 C       -9.8690     1.0900     0.3220 C.ar  1 <1>   0.1670 
 19 C       -8.9970    -1.0180    -0.8040 C.3   1 <1>  -0.1600 
 20 C       -8.4300     1.3600    -1.5600 C.3   1 <1>  -0.1600 
 21 N      -10.6080     0.5610     1.2730 N.ar  1 <1>  -0.6200 
 22 C      -10.0900     2.3420    -0.1710 C.ar  1 <1>  -0.1430 
 23 C       -9.0910     2.7100    -1.2370 C.3   1 <1>  -0.0170 
 24 C      -11.5920     1.3380     1.7020 C.ar  1 <1>   0.4770 
 25 C      -11.1370     3.0620     0.3480 C.ar  1 <1>   0.1600 
 26 N      -11.9030     2.5620     1.2960 N.ar  1 <1>  -0.6200 
 27 C      -12.4690     0.7590     2.7850 C.3   1 <1>  -0.0970 
 28 H       -3.9070    -0.4320     1.7790 H     1 <1>   0.1500 
 29 H       -1.7160    -3.5910    -1.2940 H     1 <1>   0.1500 
 30 H        1.3570    -3.5230     1.3660 H     1 <1>   0.0800 
 31 H        0.5560    -2.0300     1.8390 H     1 <1>   0.0800 
 32 H        0.8220    -2.3860     0.1300 H     1 <1>   0.0800 
 33 H       -3.6660    -2.2920    -2.0490 H     1 <1>   0.1500 
 34 H       -7.0510     1.4260     0.6970 H     1 <1>   0.0800 
 35 H       -7.9340     0.3110     1.6690 H     1 <1>   0.0800 
 36 H       -6.8550    -2.3990     1.4960 H     1 <1>   0.0800 
 37 H       -6.5360    -2.5880    -0.1960 H     1 <1>   0.0800 
 38 H       -9.0970    -1.8690     1.1650 H     1 <1>   0.0800 
 39 H       -8.8110    -3.0370    -0.0810 H     1 <1>   0.0800 
 40 H       -8.4740    -1.2360    -1.7190 H     1 <1>   0.0800 
 41 H      -10.0510    -1.1140    -1.0020 H     1 <1>   0.0800 
 42 H       -8.9240     0.9530    -2.4250 H     1 <1>   0.0800 
 43 H       -7.3910     1.4820    -1.7990 H     1 <1>   0.0800 
 44 H       -9.5660     3.1350    -2.1030 H     1 <1>   0.0800 
 45 H       -8.3690     3.4000    -0.8360 H     1 <1>   0.0800 
 46 H      -11.3500     4.0540    -0.0110 H     1 <1>   0.1500 
 47 H      -11.9130     0.0530     3.3740 H     1 <1>   0.0800 
 48 H      -13.3050     0.2610     2.3330 H     1 <1>   0.0800 
 49 H      -12.8280     1.5420     3.4260 H     1 <1>   0.0800 
@<TRIPOS>BOND
  1   1   2  1   
  2   2   3  ar  
  3   2   4  ar  
  4   3   5  1   
  5   3   6  ar  
  6   4   7  ar  
  7   4  28  1   
  8   5   8  1   
  9   6   9  ar  
 10   6  29  1   
 11   7   9  ar  
 12   7  10  1   
 13   8  30  1   
 14   8  31  1   
 15   8  32  1   
 16   9  33  1   
 17  10  11  2   
 18  10  12  2   
 19  10  13  am  
 20  13  14  1   
 21  13  15  1   
 22  14  16  1   
 23  14  34  1   
 24  14  35  1   
 25  15  17  1   
 26  15  36  1   
 27  15  37  1   
 28  16  18  1   
 29  16  19  1   
 30  16  20  1   
 31  17  19  1   
 32  17  38  1   
 33  17  39  1   
 34  18  21  ar  
 35  18  22  ar  
 36  19  40  1   
 37  19  41  1   
 38  20  23  1   
 39  20  42  1   
 40  20  43  1   
 41  21  24  ar  
 42  22  23  1   
 43  22  25  ar  
 44  23  44  1   
 45  23  45  1   
 46  24  26  ar  
 47  24  27  1   
 48  25  26  ar  
 49  25  46  1   
 50  27  47  1   
 51  27  48  1   
 52  27  49  1   
@<TRIPOS>SUBSTRUCTURE
  1 ****  13 GROUP 4 **** **** 0

# MOE 2024.06 (io_trps.svl 2023.06)
