@<TRIPOS>MOLECULE
NONAME
47 50 1 0 0 
SMALL
USER_CHARGES


@<TRIPOS>ATOM
  1 F        1.5550     1.6620     1.0740 F     1 <1>  -0.1900 
  2 C        2.1680     0.6220     0.5700 C.ar  1 <1>   0.1900 
  3 C        3.2500     0.8350    -0.3150 C.ar  1 <1>   0.3100 
  4 C        1.7210    -0.6180     0.9380 C.ar  1 <1>  -0.1500 
  5 N        3.6470     2.0910    -0.6540 N.ar  1 <1>  -0.6200 
  6 C        3.8860    -0.3240    -0.8150 C.ar  1 <1>   0.0000 
  7 C        2.3620    -1.7490     0.4250 C.ar  1 <1>  -0.1500 
  8 C        4.6600     2.2380    -1.4860 C.ar  1 <1>   0.3960 
  9 C        4.9730    -0.1480    -1.6840 C.ar  1 <1>  -0.1500 
 10 C        3.4220    -1.5990    -0.4310 C.ar  1 <1>  -0.1500 
 11 C        5.1020     3.5730    -1.8990 C.2   1 <1>   0.5440 
 12 C        5.3420     1.1190    -2.0070 C.ar  1 <1>  -0.1500 
 13 O        5.2160     3.8150    -3.0900 O.2   1 <1>  -0.5700 
 14 N        5.4210     4.5970    -1.0110 N.am  1 <1>  -0.6600 
 15 C        5.6560     4.3190     0.4590 C.3   1 <1>   0.2200 
 16 C        5.7230     5.9720    -1.5390 C.3   1 <1>   0.1400 
 17 C        5.0660     5.4040     1.3740 C.3   1 <1>   0.1200 
 18 C        7.1580     4.1060     0.7500 C.3   1 <1>   0.3430 
 19 C        6.7110     6.8060    -0.6990 C.3   1 <1>  -0.0800 
 20 O        5.9790     6.4430     1.5800 O.3   1 <1>  -0.5600 
 21 N        8.0190     4.6580    -0.3470 N.4   1 <1>  -0.9590 
 22 C        6.0570     7.3850     0.5650 C.3   1 <1>   0.1200 
 23 C        8.0770     6.1400    -0.4250 C.3   1 <1>   0.3430 
 24 C        9.3610     3.9470    -0.3930 C.3   1 <1>   0.2370 
 25 C        9.2490     2.4460    -0.7030 C.2   1 <1>   0.9060 
 26 O        8.1640     2.0370    -1.1430 O.co2 1 <1>  -0.9000 
 27 O       10.2040     1.7110    -0.4620 O.co2 1 <1>  -0.9000 
 28 H        0.8900    -0.7260     1.6130 H     1 <1>   0.1500 
 29 H        2.0140    -2.7280     0.7110 H     1 <1>   0.1500 
 30 H        5.5000    -1.0020    -2.0730 H     1 <1>   0.1500 
 31 H        3.9230    -2.4650    -0.8270 H     1 <1>   0.1500 
 32 H        6.1790     1.3000    -2.6600 H     1 <1>   0.1500 
 33 H        5.1570     3.4120     0.7380 H     1 <1>   0.0800 
 34 H        6.1350     5.8880    -2.5310 H     1 <1>   0.0800 
 35 H        4.7930     6.5050    -1.6340 H     1 <1>   0.0800 
 36 H        4.8710     4.9740     2.3410 H     1 <1>   0.0800 
 37 H        4.1380     5.7890     0.9860 H     1 <1>   0.0800 
 38 H        7.3220     3.0440     0.8260 H     1 <1>   0.0800 
 39 H        7.4210     4.5460     1.6970 H     1 <1>   0.0800 
 40 H        6.9290     7.6710    -1.3000 H     1 <1>   0.0800 
 41 H        7.5240     4.3020    -1.1900 H     1 <1>   0.4500 
 42 H        5.0690     7.7650     0.3630 H     1 <1>   0.0800 
 43 H        6.6550     8.1970     0.9430 H     1 <1>   0.0800 
 44 H        8.4900     6.5350     0.4890 H     1 <1>   0.0800 
 45 H        8.7440     6.4060    -1.2280 H     1 <1>   0.0800 
 46 H        9.9770     4.3760    -1.1600 H     1 <1>   0.0800 
 47 H        9.8710     4.0490     0.5480 H     1 <1>   0.0800 
@<TRIPOS>BOND
  1   1   2  1   
  2   2   3  ar  
  3   2   4  ar  
  4   3   5  ar  
  5   3   6  ar  
  6   4   7  ar  
  7   4  28  1   
  8   5   8  ar  
  9   6   9  ar  
 10   6  10  ar  
 11   7  10  ar  
 12   7  29  1   
 13   8  11  1   
 14   8  12  ar  
 15   9  12  ar  
 16   9  30  1   
 17  10  31  1   
 18  11  13  2   
 19  11  14  am  
 20  12  32  1   
 21  14  15  1   
 22  14  16  1   
 23  15  17  1   
 24  15  18  1   
 25  15  33  1   
 26  16  19  1   
 27  16  34  1   
 28  16  35  1   
 29  17  20  1   
 30  17  36  1   
 31  17  37  1   
 32  18  21  1   
 33  18  38  1   
 34  18  39  1   
 35  19  22  1   
 36  19  23  1   
 37  19  40  1   
 38  20  22  1   
 39  21  23  1   
 40  21  24  1   
 41  21  41  1   
 42  22  42  1   
 43  22  43  1   
 44  23  44  1   
 45  23  45  1   
 46  24  25  1   
 47  24  46  1   
 48  24  47  1   
 49  25  26  ar  
 50  25  27  ar  
@<TRIPOS>SUBSTRUCTURE
  1 ****   8 GROUP 4 **** **** 0

# MOE 2024.06 (io_trps.svl 2023.06)
