@<TRIPOS>MOLECULE
NONAME
43 46 1 0 0 
SMALL
USER_CHARGES


@<TRIPOS>ATOM
  1 N       -0.9330    -0.2590    -1.0610 N.ar  1 <1>  -0.6200 
  2 C       -1.4420    -1.2830    -0.3870 C.ar  1 <1>   0.7710 
  3 C        0.3680    -0.2020    -1.2090 C.ar  1 <1>   0.4100 
  4 N       -0.6520    -2.2420     0.1350 N.ar  1 <1>  -0.1790 
  5 N       -2.7900    -1.3670    -0.2130 N.pl3 1 <1>  -0.8380 
  6 N        0.8340     0.8410    -1.8970 N.pl3 1 <1>  -0.9000 
  7 C        1.2340    -1.1710    -0.6820 C.ar  1 <1>  -0.1500 
  8 C        0.6980    -2.2090     0.0020 C.ar  1 <1>   0.2110 
  9 C       -3.7360    -0.3820    -0.8690 C.3   1 <1>   0.2090 
 10 C       -3.5440    -2.3410     0.6380 C.3   1 <1>   0.2090 
 11 C       -4.5200     0.4290     0.1820 C.3   1 <1>   0.1440 
 12 C       -4.2950    -1.5820     1.7380 C.3   1 <1>  -0.1600 
 13 C       -5.4820     1.3420    -0.5530 C.ar  1 <1>   0.1670 
 14 C       -5.2510    -0.5320     1.1460 C.3   1 <1>  -0.1600 
 15 C       -3.6110     1.4360     0.9390 C.3   1 <1>  -0.1600 
 16 N       -6.5600     0.9480    -1.1930 N.ar  1 <1>  -0.6200 
 17 C       -5.0860     2.6440    -0.4990 C.ar  1 <1>  -0.1430 
 18 C       -3.8000     2.8110     0.2720 C.3   1 <1>  -0.0170 
 19 C       -7.2450     1.9280    -1.7650 C.ar  1 <1>   0.4770 
 20 C       -5.8680     3.5770    -1.1310 C.ar  1 <1>   0.1600 
 21 N       -6.9630     3.2250    -1.7740 N.ar  1 <1>  -0.6200 
 22 C       -8.4940     1.5180    -2.5050 C.3   1 <1>  -0.0970 
 23 H       -1.1330    -2.9900     0.6180 H     1 <1>   0.4570 
 24 H        1.8180     1.0220    -2.1080 H     1 <1>   0.4000 
 25 H        0.1830     1.5250    -2.2920 H     1 <1>   0.4000 
 26 H        2.2930    -1.0640    -0.8370 H     1 <1>   0.1500 
 27 H        1.2940    -2.9970     0.4350 H     1 <1>   0.1500 
 28 H       -4.4380    -0.9280    -1.4760 H     1 <1>   0.0800 
 29 H       -3.2250     0.2990    -1.5270 H     1 <1>   0.0800 
 30 H       -2.8970    -3.0690     1.0930 H     1 <1>   0.0800 
 31 H       -4.2540    -2.8710     0.0230 H     1 <1>   0.0800 
 32 H       -3.5870    -1.1060     2.3940 H     1 <1>   0.0800 
 33 H       -4.8640    -2.2810     2.3260 H     1 <1>   0.0800 
 34 H       -6.0280    -1.0420     0.6020 H     1 <1>   0.0800 
 35 H       -5.7310     0.0250     1.9320 H     1 <1>   0.0800 
 36 H       -2.5770     1.1430     0.9380 H     1 <1>   0.0800 
 37 H       -3.9360     1.5180     1.9610 H     1 <1>   0.0800 
 38 H       -2.9940     3.0180    -0.4110 H     1 <1>   0.0800 
 39 H       -3.8740     3.5990     1.0010 H     1 <1>   0.0800 
 40 H       -5.5990     4.6190    -1.1150 H     1 <1>   0.1500 
 41 H       -8.9430     0.6670    -2.0270 H     1 <1>   0.0800 
 42 H       -8.2400     1.2620    -3.5160 H     1 <1>   0.0800 
 43 H       -9.2020     2.3260    -2.5130 H     1 <1>   0.0800 
@<TRIPOS>BOND
  1   1   2  ar  
  2   1   3  ar  
  3   2   4  ar  
  4   2   5  1   
  5   3   6  1   
  6   3   7  ar  
  7   4   8  ar  
  8   4  23  1   
  9   5   9  1   
 10   5  10  1   
 11   6  24  1   
 12   6  25  1   
 13   7   8  ar  
 14   7  26  1   
 15   8  27  1   
 16   9  11  1   
 17   9  28  1   
 18   9  29  1   
 19  10  12  1   
 20  10  30  1   
 21  10  31  1   
 22  11  13  1   
 23  11  14  1   
 24  11  15  1   
 25  12  14  1   
 26  12  32  1   
 27  12  33  1   
 28  13  16  ar  
 29  13  17  ar  
 30  14  34  1   
 31  14  35  1   
 32  15  18  1   
 33  15  36  1   
 34  15  37  1   
 35  16  19  ar  
 36  17  18  1   
 37  17  20  ar  
 38  18  38  1   
 39  18  39  1   
 40  19  21  ar  
 41  19  22  1   
 42  20  21  ar  
 43  20  40  1   
 44  22  41  1   
 45  22  42  1   
 46  22  43  1   
@<TRIPOS>SUBSTRUCTURE
  1 ****   9 GROUP 4 **** **** 0

# MOE 2024.06 (io_trps.svl 2023.06)
