@<TRIPOS>MOLECULE
NONAME
52 54 1 0 0 
SMALL
USER_CHARGES


@<TRIPOS>ATOM
  1 O        1.5910    -0.1120     2.2630 O.3   1 <1>  -0.6800 
  2 C        2.0430     0.8400     1.3660 C.3   1 <1>   0.2000 
  3 C        2.9350     0.1640     0.2910 C.3   1 <1>   0.0000 
  4 C        2.7120     1.9850     2.1470 C.3   1 <1>  -0.1600 
  5 C        3.4900     1.3060    -0.5870 C.3   1 <1>   0.3430 
  6 C        2.0000    -0.6890    -0.5980 C.3   1 <1>   0.1200 
  7 C        4.0460    -0.7660     0.9030 C.3   1 <1>  -0.0170 
  8 C        4.1200     2.3150     1.6580 C.3   1 <1>   0.3430 
  9 N        4.1580     2.4120     0.1760 N.4   1 <1>  -0.9590 
 10 O        2.6480    -1.0370    -1.7750 O.3   1 <1>  -0.6800 
 11 C        5.4940    -0.5130     0.4760 C.ar  1 <1>  -0.1440 
 12 C        5.5540     2.6300    -0.2980 C.3   1 <1>   0.5240 
 13 C        5.8950    -0.6930    -0.8400 C.ar  1 <1>  -0.1500 
 14 C        6.4400    -0.1250     1.4160 C.ar  1 <1>  -0.1500 
 15 C        5.8320     4.1250    -0.2040 C.2   1 <1>   0.1080 
 16 C        7.2000    -0.4370    -1.2210 C.ar  1 <1>  -0.1500 
 17 C        7.7480     0.1280     1.0390 C.ar  1 <1>  -0.1500 
 18 N        4.8790     5.0140    -0.1320 N.2   1 <1>  -0.7070 
 19 C        7.0930     4.7070    -0.1820 C.2   1 <1>  -0.1500 
 20 C        8.1270    -0.0190    -0.2830 C.ar  1 <1>  -0.1500 
 21 N        5.5180     6.2020    -0.0730 N.pl3 1 <1>   0.3140 
 22 C        6.8550     6.0330    -0.0980 C.2   1 <1>  -0.3020 
 23 C        4.7980     7.4910    -0.0010 C.3   1 <1>   0.0960 
 24 C        4.5780     8.0790    -1.4010 C.3   1 <1>  -0.2400 
 25 H        0.9270     0.2630     2.8770 H     1 <1>   0.4000 
 26 H        1.1680     1.2440     0.8830 H     1 <1>   0.0800 
 27 H        2.1100     2.8720     2.0500 H     1 <1>   0.0800 
 28 H        2.7700     1.7500     3.1950 H     1 <1>   0.0800 
 29 H        2.6670     1.7270    -1.1390 H     1 <1>   0.0800 
 30 H        4.1650     0.8930    -1.3160 H     1 <1>   0.0800 
 31 H        1.1120    -0.1420    -0.8690 H     1 <1>   0.0800 
 32 H        1.7030    -1.5910    -0.0870 H     1 <1>   0.0800 
 33 H        4.0070    -0.7160     1.9760 H     1 <1>   0.0800 
 34 H        3.8270    -1.7940     0.6690 H     1 <1>   0.0800 
 35 H        4.7870     1.5380     1.9850 H     1 <1>   0.0800 
 36 H        4.4520     3.2450     2.0950 H     1 <1>   0.0800 
 37 H        3.7360     3.3280    -0.0720 H     1 <1>   0.4500 
 38 H        2.1220    -1.6960    -2.2780 H     1 <1>   0.4000 
 39 H        6.2570     2.0740     0.2960 H     1 <1>   0.0800 
 40 H        5.6520     2.3240    -1.3260 H     1 <1>   0.0800 
 41 H        5.1950    -1.0430    -1.5790 H     1 <1>   0.1500 
 42 H        6.1730    -0.0290     2.4550 H     1 <1>   0.1500 
 43 H        7.5000    -0.5780    -2.2460 H     1 <1>   0.1500 
 44 H        8.4750     0.4260     1.7750 H     1 <1>   0.1500 
 45 H        8.0440     4.2030    -0.2270 H     1 <1>   0.1500 
 46 H        9.1450     0.1720    -0.5780 H     1 <1>   0.1500 
 47 H        7.5500     6.8520    -0.0600 H     1 <1>   0.1500 
 48 H        3.8510     7.3230     0.4790 H     1 <1>   0.0800 
 49 H        5.3720     8.1720     0.6010 H     1 <1>   0.0800 
 50 H        3.9980     7.4000    -2.0010 H     1 <1>   0.0800 
 51 H        5.5210     8.2640    -1.8840 H     1 <1>   0.0800 
 52 H        4.0450     9.0090    -1.3270 H     1 <1>   0.0800 
@<TRIPOS>BOND
  1   1   2  1   
  2   1  25  1   
  3   2   3  1   
  4   2   4  1   
  5   2  26  1   
  6   3   5  1   
  7   3   6  1   
  8   3   7  1   
  9   4   8  1   
 10   4  27  1   
 11   4  28  1   
 12   5   9  1   
 13   5  29  1   
 14   5  30  1   
 15   6  10  1   
 16   6  31  1   
 17   6  32  1   
 18   7  11  1   
 19   7  33  1   
 20   7  34  1   
 21   8   9  1   
 22   8  35  1   
 23   8  36  1   
 24   9  12  1   
 25   9  37  1   
 26  10  38  1   
 27  11  13  ar  
 28  11  14  ar  
 29  12  15  1   
 30  12  39  1   
 31  12  40  1   
 32  13  16  ar  
 33  13  41  1   
 34  14  17  ar  
 35  14  42  1   
 36  15  18  2   
 37  15  19  1   
 38  16  20  ar  
 39  16  43  1   
 40  17  20  ar  
 41  17  44  1   
 42  18  21  1   
 43  19  22  2   
 44  19  45  1   
 45  20  46  1   
 46  21  22  1   
 47  21  23  1   
 48  22  47  1   
 49  23  24  1   
 50  23  48  1   
 51  23  49  1   
 52  24  50  1   
 53  24  51  1   
 54  24  52  1   
@<TRIPOS>SUBSTRUCTURE
  1 ****   9 GROUP 4 **** **** 0

# MOE 2024.06 (io_trps.svl 2023.06)
