@<TRIPOS>MOLECULE
NONAME
50 53 1 0 0 
SMALL
USER_CHARGES


@<TRIPOS>ATOM
  1 S        0.2980    -1.1850     1.5730 S.o2  1 <1>   1.5000 
  2 O        1.0790    -2.3480     1.9370 O.2   1 <1>  -0.6500 
  3 O       -0.5300    -0.5540     2.5790 O.2   1 <1>  -0.6500 
  4 N       -0.7140    -1.6610     0.2960 N.am  1 <1>  -0.8490 
  5 C        1.3980     0.0190     0.7860 C.2   1 <1>  -0.0220 
  6 C       -1.6530    -0.6270    -0.1380 C.3   1 <1>   0.1960 
  7 C       -1.5110    -2.8510     0.6100 C.3   1 <1>   0.1960 
  8 S        1.1680     1.7280     1.1400 S.3   1 <1>  -0.0800 
  9 C        2.4140    -0.1130    -0.0920 C.2   1 <1>  -0.1500 
 10 C       -2.9670    -0.9010     0.5950 C.3   1 <1>  -0.0800 
 11 C       -2.9850    -2.4310     0.7010 C.3   1 <1>  -0.0800 
 12 C        2.4850     2.2220     0.0760 C.2   1 <1>   0.0400 
 13 C        3.0240     1.1130    -0.4870 C.2   1 <1>  -0.1500 
 14 C       -4.2460    -0.2530    -0.0110 C.3   1 <1>   0.2800 
 15 C       -3.8390    -3.0690    -0.4070 C.3   1 <1>  -0.1600 
 16 C        2.7990     3.6160    -0.0520 C.2   1 <1>   0.1400 
 17 O       -4.1100    -0.1190    -1.3800 O.3   1 <1>  -0.6800 
 18 C       -5.4590    -1.1690     0.2310 C.3   1 <1>  -0.1600 
 19 C       -4.5340     1.1560     0.5550 C.3   1 <1>  -0.1600 
 20 C       -5.3000    -2.5870    -0.3570 C.3   1 <1>  -0.1600 
 21 O        2.1250     4.5460     0.5890 O.3   1 <1>  -0.0190 
 22 C        3.7440     4.2630    -0.7680 C.2   1 <1>  -0.1500 
 23 C       -3.4240     2.2030     0.3510 C.3   1 <1>  -0.2400 
 24 N        2.5610     5.7480     0.3430 N.2   1 <1>  -0.4100 
 25 C        3.5400     5.6040    -0.4750 C.2   1 <1>   0.1080 
 26 C        4.3440     6.7600    -1.0270 C.3   1 <1>  -0.0590 
 27 H       -1.2810     0.3640     0.0480 H     1 <1>   0.0800 
 28 H       -1.7910    -0.7410    -1.2000 H     1 <1>   0.0800 
 29 H       -1.3740    -3.5780    -0.1720 H     1 <1>   0.0800 
 30 H       -1.1980    -3.3010     1.5390 H     1 <1>   0.0800 
 31 H        2.7580    -1.0570    -0.4810 H     1 <1>   0.1500 
 32 H       -2.8670    -0.5280     1.5980 H     1 <1>   0.0800 
 33 H       -3.3820    -2.7300     1.6560 H     1 <1>   0.0800 
 34 H        3.8460     1.1190    -1.1810 H     1 <1>   0.1500 
 35 H       -3.4190    -2.8000    -1.3620 H     1 <1>   0.0800 
 36 H       -3.8100    -4.1420    -0.3310 H     1 <1>   0.0800 
 37 H       -4.9440     0.2160    -1.7540 H     1 <1>   0.4000 
 38 H       -5.5890    -1.2640     1.2950 H     1 <1>   0.0800 
 39 H       -6.3570    -0.7180    -0.1520 H     1 <1>   0.0800 
 40 H       -5.4410     1.5290     0.1130 H     1 <1>   0.0800 
 41 H       -4.7180     1.0710     1.6120 H     1 <1>   0.0800 
 42 H       -5.8850    -3.2720     0.2320 H     1 <1>   0.0800 
 43 H       -5.6950    -2.6060    -1.3590 H     1 <1>   0.0800 
 44 H        4.4920     3.8540    -1.4200 H     1 <1>   0.1500 
 45 H       -3.1370     2.2620    -0.6840 H     1 <1>   0.0800 
 46 H       -2.5600     1.9640     0.9430 H     1 <1>   0.0800 
 47 H       -3.7760     3.1710     0.6600 H     1 <1>   0.0800 
 48 H        5.1090     6.4050    -1.6920 H     1 <1>   0.0800 
 49 H        4.8030     7.2980    -0.2180 H     1 <1>   0.0800 
 50 H        3.6930     7.4270    -1.5630 H     1 <1>   0.0800 
@<TRIPOS>BOND
  1   1   2  2   
  2   1   3  2   
  3   1   4  am  
  4   1   5  1   
  5   4   6  1   
  6   4   7  1   
  7   5   8  1   
  8   5   9  2   
  9   6  10  1   
 10   6  27  1   
 11   6  28  1   
 12   7  11  1   
 13   7  29  1   
 14   7  30  1   
 15   8  12  1   
 16   9  13  1   
 17   9  31  1   
 18  10  11  1   
 19  10  14  1   
 20  10  32  1   
 21  11  15  1   
 22  11  33  1   
 23  12  13  2   
 24  12  16  1   
 25  13  34  1   
 26  14  17  1   
 27  14  18  1   
 28  14  19  1   
 29  15  20  1   
 30  15  35  1   
 31  15  36  1   
 32  16  21  1   
 33  16  22  2   
 34  17  37  1   
 35  18  20  1   
 36  18  38  1   
 37  18  39  1   
 38  19  23  1   
 39  19  40  1   
 40  19  41  1   
 41  20  42  1   
 42  20  43  1   
 43  21  24  1   
 44  22  25  1   
 45  22  44  1   
 46  23  45  1   
 47  23  46  1   
 48  23  47  1   
 49  24  25  2   
 50  25  26  1   
 51  26  48  1   
 52  26  49  1   
 53  26  50  1   
@<TRIPOS>SUBSTRUCTURE
  1 ****   6 GROUP 4 **** **** 0

# MOE 2024.06 (io_trps.svl 2023.06)
