@<TRIPOS>MOLECULE
NONAME
43 45 1 0 0 
SMALL
USER_CHARGES


@<TRIPOS>ATOM
  1 O        2.1450     0.8980    -0.6260 O.co2 1 <1>  -0.9000 
  2 C        2.6370    -0.2260    -0.7510 C.2   1 <1>   0.9060 
  3 O        2.5940    -0.8480    -1.8130 O.co2 1 <1>  -0.9000 
  4 C        3.4610    -0.8160     0.3880 C.3   1 <1>  -0.1860 
  5 C        4.9350    -1.0910    -0.0160 C.3   1 <1>   0.2000 
  6 C        3.4240     0.0840     1.6510 C.3   1 <1>  -0.1600 
  7 O        5.1120    -1.0550    -1.3890 O.3   1 <1>  -0.6800 
  8 C        5.9180    -0.0730     0.6010 C.3   1 <1>   0.3430 
  9 C        4.0910     1.4500     1.3950 C.3   1 <1>   0.3430 
 10 N        5.3730     1.3280     0.6220 N.4   1 <1>  -0.9590 
 11 C        5.1720     1.8570    -0.7640 C.3   1 <1>   0.4860 
 12 C        5.4520     3.3520    -0.7090 C.ar  1 <1>  -0.1440 
 13 C        6.7870     3.7810    -0.4690 C.ar  1 <1>   0.0000 
 14 C        4.4320     4.2650    -0.8560 C.ar  1 <1>  -0.1440 
 15 C        7.0260     5.1600    -0.2730 C.ar  1 <1>   0.0000 
 16 C        7.9070     2.9150    -0.4190 C.ar  1 <1>  -0.1500 
 17 C        4.6980     5.6300    -0.6950 C.ar  1 <1>  -0.1500 
 18 C        2.9940     3.8790    -1.1890 C.3   1 <1>  -0.0970 
 19 C        5.9570     6.0630    -0.4000 C.ar  1 <1>  -0.1500 
 20 C        8.3280     5.6020     0.0360 C.ar  1 <1>  -0.1500 
 21 C        9.1630     3.3700    -0.1290 C.ar  1 <1>  -0.1500 
 22 C        9.3760     4.7300     0.1130 C.ar  1 <1>  -0.1500 
 23 H        2.9990    -1.7550     0.6290 H     1 <1>   0.0800 
 24 H        5.2140    -2.0810     0.3010 H     1 <1>   0.0800 
 25 H        3.9050    -0.4090     2.4770 H     1 <1>   0.0800 
 26 H        2.4010     0.2550     1.9380 H     1 <1>   0.0800 
 27 H        4.1980    -1.1180    -1.8190 H     1 <1>   0.4000 
 28 H        6.8450    -0.1120     0.0550 H     1 <1>   0.0800 
 29 H        6.1180    -0.3750     1.6140 H     1 <1>   0.0800 
 30 H        4.2770     1.9330     2.3400 H     1 <1>   0.0800 
 31 H        3.4020     2.0720     0.8470 H     1 <1>   0.0800 
 32 H        6.0580     1.9720     1.0330 H     1 <1>   0.4500 
 33 H        5.8540     1.3870    -1.4510 H     1 <1>   0.0800 
 34 H        4.1730     1.6590    -1.1070 H     1 <1>   0.0800 
 35 H        7.7880     1.8700    -0.6300 H     1 <1>   0.1500 
 36 H        3.8960     6.3410    -0.8020 H     1 <1>   0.1500 
 37 H        2.4670     4.7070    -1.6280 H     1 <1>   0.0800 
 38 H        2.4650     3.5790    -0.3030 H     1 <1>   0.0800 
 39 H        2.9560     3.0720    -1.9000 H     1 <1>   0.0800 
 40 H        6.1510     7.1120    -0.2680 H     1 <1>   0.1500 
 41 H        8.4860     6.6520     0.2080 H     1 <1>   0.1500 
 42 H       10.0050     2.7000    -0.0900 H     1 <1>   0.1500 
 43 H       10.3690     5.0740     0.3470 H     1 <1>   0.1500 
@<TRIPOS>BOND
  1   1   2  ar  
  2   2   3  ar  
  3   2   4  1   
  4   4   5  1   
  5   4   6  1   
  6   4  23  1   
  7   5   7  1   
  8   5   8  1   
  9   5  24  1   
 10   6   9  1   
 11   6  25  1   
 12   6  26  1   
 13   7  27  1   
 14   8  10  1   
 15   8  28  1   
 16   8  29  1   
 17   9  10  1   
 18   9  30  1   
 19   9  31  1   
 20  10  11  1   
 21  10  32  1   
 22  11  12  1   
 23  11  33  1   
 24  11  34  1   
 25  12  13  ar  
 26  12  14  ar  
 27  13  15  ar  
 28  13  16  ar  
 29  14  17  ar  
 30  14  18  1   
 31  15  19  ar  
 32  15  20  ar  
 33  16  21  ar  
 34  16  35  1   
 35  17  19  ar  
 36  17  36  1   
 37  18  37  1   
 38  18  38  1   
 39  18  39  1   
 40  19  40  1   
 41  20  22  ar  
 42  20  41  1   
 43  21  22  ar  
 44  21  42  1   
 45  22  43  1   
@<TRIPOS>SUBSTRUCTURE
  1 ****  11 GROUP 4 **** **** 0

# MOE 2024.06 (io_trps.svl 2023.06)
