@<TRIPOS>MOLECULE
NONAME
47 49 1 0 0 
SMALL
USER_CHARGES


@<TRIPOS>ATOM
  1 O       -0.8480     0.1680    -1.2950 O.2   1 <1>  -0.5700 
  2 C       -1.7440     0.9180    -0.9460 C.2   1 <1>   0.5440 
  3 N       -3.0470     0.4580    -1.1040 N.am  1 <1>  -0.6600 
  4 C       -1.3980     2.2250    -0.3840 C.ar  1 <1>   0.3960 
  5 C       -3.3320    -0.9770    -1.3690 C.3   1 <1>   0.1400 
  6 C       -4.2620     1.2540    -0.7750 C.3   1 <1>   0.1400 
  7 N       -1.9450     2.6130     0.7820 N.ar  1 <1>  -0.6200 
  8 C       -0.4920     3.0280    -1.0760 C.ar  1 <1>  -0.1500 
  9 C       -3.9490    -1.6010    -0.0980 C.3   1 <1>   0.4230 
 10 C       -4.8910     0.6640     0.4940 C.3   1 <1>  -0.1600 
 11 C       -1.5970     3.8000     1.2270 C.ar  1 <1>   0.4100 
 12 C       -0.1330     4.2700    -0.5960 C.ar  1 <1>  -0.1500 
 13 N       -4.1040    -3.1150    -0.1670 N.4   1 <1>  -0.9590 
 14 C       -5.2340    -0.8500     0.3690 C.3   1 <1>   0.0000 
 15 N       -2.1760     4.1450     2.4030 N.pl3 1 <1>  -0.9000 
 16 C       -0.7110     4.6570     0.5870 C.ar  1 <1>  -0.1500 
 17 C       -5.0470    -3.6800     0.8530 C.3   1 <1>   0.3430 
 18 C       -4.4230    -3.6700    -1.5240 C.3   1 <1>   0.2630 
 19 C       -5.6550    -1.3830     1.7710 C.3   1 <1>  -0.1600 
 20 C       -6.3810    -1.0620    -0.6600 C.3   1 <1>   0.1200 
 21 C       -5.1120    -2.7890     2.0920 C.3   1 <1>  -0.1600 
 22 O       -7.4740    -0.2570    -0.3870 O.3   1 <1>  -0.6800 
 23 H       -4.0010    -1.0420    -2.2080 H     1 <1>   0.0800 
 24 H       -2.4280    -1.5010    -1.6200 H     1 <1>   0.0800 
 25 H       -4.0210     2.2920    -0.6210 H     1 <1>   0.0800 
 26 H       -4.9580     1.2090    -1.5960 H     1 <1>   0.0800 
 27 H       -0.0690     2.6650    -1.9970 H     1 <1>   0.1500 
 28 H       -3.2220    -1.4120     0.6750 H     1 <1>   0.0800 
 29 H       -4.1890     0.8200     1.2960 H     1 <1>   0.0800 
 30 H       -5.7680     1.2360     0.7410 H     1 <1>   0.0800 
 31 H        0.5630     4.9010    -1.1230 H     1 <1>   0.1500 
 32 H       -3.1700    -3.4730     0.0830 H     1 <1>   0.4500 
 33 H       -2.6470     3.3660     2.8650 H     1 <1>   0.4000 
 34 H       -1.6270     4.7160     3.0450 H     1 <1>   0.4000 
 35 H       -0.4890     5.6120     1.0240 H     1 <1>   0.1500 
 36 H       -6.0370    -3.7530     0.4330 H     1 <1>   0.0800 
 37 H       -4.7320    -4.6730     1.1320 H     1 <1>   0.0800 
 38 H       -5.3730    -3.3000    -1.8710 H     1 <1>   0.0800 
 39 H       -4.4680    -4.7470    -1.4860 H     1 <1>   0.0800 
 40 H       -3.6620    -3.3910    -2.2360 H     1 <1>   0.0800 
 41 H       -5.3070    -0.7210     2.5470 H     1 <1>   0.0800 
 42 H       -6.7280    -1.3960     1.8540 H     1 <1>   0.0800 
 43 H       -6.7270    -2.0790    -0.6610 H     1 <1>   0.0800 
 44 H       -6.0650    -0.8110    -1.6570 H     1 <1>   0.0800 
 45 H       -5.7470    -3.2510     2.8280 H     1 <1>   0.0800 
 46 H       -4.1290    -2.7170     2.5270 H     1 <1>   0.0800 
 47 H       -7.8490    -0.4280     0.4990 H     1 <1>   0.4000 
@<TRIPOS>BOND
  1   1   2  2   
  2   2   3  am  
  3   2   4  1   
  4   3   5  1   
  5   3   6  1   
  6   4   7  ar  
  7   4   8  ar  
  8   5   9  1   
  9   5  23  1   
 10   5  24  1   
 11   6  10  1   
 12   6  25  1   
 13   6  26  1   
 14   7  11  ar  
 15   8  12  ar  
 16   8  27  1   
 17   9  13  1   
 18   9  14  1   
 19   9  28  1   
 20  10  14  1   
 21  10  29  1   
 22  10  30  1   
 23  11  15  1   
 24  11  16  ar  
 25  12  16  ar  
 26  12  31  1   
 27  13  17  1   
 28  13  18  1   
 29  13  32  1   
 30  14  19  1   
 31  14  20  1   
 32  15  33  1   
 33  15  34  1   
 34  16  35  1   
 35  17  21  1   
 36  17  36  1   
 37  17  37  1   
 38  18  38  1   
 39  18  39  1   
 40  18  40  1   
 41  19  21  1   
 42  19  41  1   
 43  19  42  1   
 44  20  22  1   
 45  20  43  1   
 46  20  44  1   
 47  21  45  1   
 48  21  46  1   
 49  22  47  1   
@<TRIPOS>SUBSTRUCTURE
  1 ****   3 GROUP 4 **** **** 0

# MOE 2024.06 (io_trps.svl 2023.06)
