@<TRIPOS>MOLECULE
NONAME
47 49 1 0 0 
SMALL
USER_CHARGES


@<TRIPOS>ATOM
  1 S       -0.2070    -0.2970     1.0290 S.3   1 <1>  -0.0800 
  2 C       -0.7490    -1.9620     0.8880 C.2   1 <1>  -0.1400 
  3 C        0.5260    -0.6170     2.5910 C.2   1 <1>  -0.1100 
  4 C       -0.3730    -2.6690     1.9730 C.2   1 <1>  -0.1500 
  5 C       -1.5150    -2.3160    -0.3730 C.3   1 <1>   0.3200 
  6 C        0.3510    -1.9040     2.9420 C.2   1 <1>  -0.1500 
  7 N       -2.0480    -3.6830    -0.2610 N.am  1 <1>  -0.7300 
  8 C       -2.1400    -4.5880    -1.2620 C.2   1 <1>   0.5690 
  9 O       -1.8390    -4.3210    -2.4010 O.2   1 <1>  -0.5700 
 10 C       -2.6490    -5.9920    -0.9240 C.3   1 <1>   0.1710 
 11 N       -3.4690    -6.0650     0.3260 N.3   1 <1>  -0.8100 
 12 C       -4.7980    -5.4300     0.1530 C.3   1 <1>   0.1100 
 13 C       -3.7360    -7.4540     0.7110 C.3   1 <1>   0.1100 
 14 C       -5.8670    -6.5380     0.1790 C.3   1 <1>   0.2000 
 15 C       -5.0570    -7.8240     0.0420 C.3   1 <1>  -0.0800 
 16 O       -6.5230    -6.5400     1.4160 O.3   1 <1>  -0.5600 
 17 C       -5.7150    -9.0800     0.6400 C.3   1 <1>   0.0200 
 18 C       -7.5830    -5.6420     1.5260 C.3   1 <1>   0.0400 
 19 C       -4.9440   -10.3540     0.3330 C.2   1 <1>  -0.0400 
 20 O       -5.3080   -11.4650     0.9150 O.3   1 <1>  -0.0190 
 21 C       -3.8960   -10.6330    -0.4590 C.2   1 <1>  -0.1500 
 22 N       -4.5600   -12.4700     0.5580 N.2   1 <1>  -0.4100 
 23 C       -3.7000   -11.9980    -0.2700 C.2   1 <1>   0.1080 
 24 C       -2.6270   -12.8230    -0.9420 C.3   1 <1>  -0.0590 
 25 H        1.0160     0.2020     3.0860 H     1 <1>   0.1500 
 26 H       -0.5710    -3.7140     2.1400 H     1 <1>   0.1500 
 27 H       -0.8650    -2.2430    -1.2290 H     1 <1>   0.0800 
 28 H       -2.3330    -1.6300    -0.5030 H     1 <1>   0.0800 
 29 H        0.7030    -2.3580     3.8510 H     1 <1>   0.1500 
 30 H       -2.3740    -3.9800     0.6630 H     1 <1>   0.3700 
 31 H       -1.7810    -6.6160    -0.8100 H     1 <1>   0.0800 
 32 H       -3.2140    -6.3620    -1.7600 H     1 <1>   0.0800 
 33 H       -4.9660    -4.7310     0.9530 H     1 <1>   0.0800 
 34 H       -4.8480    -4.9000    -0.7830 H     1 <1>   0.0800 
 35 H       -2.9310    -8.1140     0.4370 H     1 <1>   0.0800 
 36 H       -3.8590    -7.4900     1.7820 H     1 <1>   0.0800 
 37 H       -6.5940    -6.4360    -0.6080 H     1 <1>   0.0800 
 38 H       -4.8740    -7.9910    -1.0040 H     1 <1>   0.0800 
 39 H       -6.7120    -9.1840     0.2490 H     1 <1>   0.0800 
 40 H       -5.7940    -8.9760     1.7080 H     1 <1>   0.0800 
 41 H       -7.9900    -5.7290     2.5180 H     1 <1>   0.0800 
 42 H       -8.3380    -5.8940     0.8020 H     1 <1>   0.0800 
 43 H       -7.2260    -4.6390     1.3690 H     1 <1>   0.0800 
 44 H       -3.3190    -9.9960    -1.1020 H     1 <1>   0.1500 
 45 H       -1.6640   -12.3770    -0.7770 H     1 <1>   0.0800 
 46 H       -2.8180   -12.8780    -1.9980 H     1 <1>   0.0800 
 47 H       -2.6230   -13.8190    -0.5370 H     1 <1>   0.0800 
@<TRIPOS>BOND
  1   1   2  1   
  2   1   3  1   
  3   2   4  2   
  4   2   5  1   
  5   3   6  2   
  6   3  25  1   
  7   4   6  1   
  8   4  26  1   
  9   5   7  1   
 10   5  27  1   
 11   5  28  1   
 12   6  29  1   
 13   7   8  am  
 14   7  30  1   
 15   8   9  2   
 16   8  10  1   
 17  10  11  1   
 18  10  31  1   
 19  10  32  1   
 20  11  12  1   
 21  11  13  1   
 22  12  14  1   
 23  12  33  1   
 24  12  34  1   
 25  13  15  1   
 26  13  35  1   
 27  13  36  1   
 28  14  15  1   
 29  14  16  1   
 30  14  37  1   
 31  15  17  1   
 32  15  38  1   
 33  16  18  1   
 34  17  19  1   
 35  17  39  1   
 36  17  40  1   
 37  18  41  1   
 38  18  42  1   
 39  18  43  1   
 40  19  20  1   
 41  19  21  2   
 42  20  22  1   
 43  21  23  1   
 44  21  44  1   
 45  22  23  2   
 46  23  24  1   
 47  24  45  1   
 48  24  46  1   
 49  24  47  1   
@<TRIPOS>SUBSTRUCTURE
  1 ****  11 GROUP 4 **** **** 0

# MOE 2024.06 (io_trps.svl 2023.06)
