@<TRIPOS>MOLECULE
NONAME
38 40 1 0 0 
SMALL
USER_CHARGES


@<TRIPOS>ATOM
  1 N        0.0640     1.2310     0.9660 N.ar  1 <1>  -0.6200 
  2 C        0.1250     1.7670    -0.2450 C.ar  1 <1>   0.4100 
  3 C       -1.0000     0.4560     1.1160 C.ar  1 <1>   0.1600 
  4 N        1.2140     2.5900    -0.4760 N.pl3 1 <1>  -0.8380 
  5 C       -0.8420     1.5250    -1.2350 C.ar  1 <1>   0.1600 
  6 C       -1.9500     0.2230     0.1300 C.ar  1 <1>   0.1600 
  7 C        2.5220     1.8660    -0.5030 C.3   1 <1>   0.2090 
  8 C        1.2170     3.8370     0.3490 C.3   1 <1>   0.2090 
  9 N       -1.9010     0.7530    -1.0840 N.ar  1 <1>  -0.6200 
 10 C        3.7010     2.8110    -0.8160 C.3   1 <1>   0.3430 
 11 C        2.4200     4.7460     0.0200 C.3   1 <1>   0.3430 
 12 N        3.7400     4.0110     0.1010 N.4   1 <1>  -0.9590 
 13 C        4.9230     4.8770    -0.2230 C.3   1 <1>   0.3430 
 14 C        5.1650     5.9780     0.8160 C.3   1 <1>   0.0960 
 15 N        6.3990     6.6850     0.4510 N.pl3 1 <1>   0.0480 
 16 C        6.5250     7.8290    -0.2580 C.2   1 <1>   0.0360 
 17 C        7.6620     6.2880     0.6900 C.2   1 <1>  -0.3020 
 18 N        7.7490     8.1700    -0.4850 N.2   1 <1>  -0.5650 
 19 C        8.4700     7.2050     0.1150 C.2   1 <1>   0.0770 
 20 H       -1.1290    -0.0210     2.0720 H     1 <1>   0.1500 
 21 H       -0.7070     2.0040    -2.1870 H     1 <1>   0.1500 
 22 H       -2.7810    -0.4230     0.3480 H     1 <1>   0.1500 
 23 H        2.4800     1.0930    -1.2530 H     1 <1>   0.0800 
 24 H        2.6880     1.3850     0.4470 H     1 <1>   0.0800 
 25 H        1.2380     3.5780     1.3940 H     1 <1>   0.0800 
 26 H        0.3040     4.3790     0.1690 H     1 <1>   0.0800 
 27 H        3.6050     3.1390    -1.8380 H     1 <1>   0.0800 
 28 H        4.6210     2.2550    -0.7340 H     1 <1>   0.0800 
 29 H        2.4170     5.5790     0.7030 H     1 <1>   0.0800 
 30 H        2.2830     5.1350    -0.9760 H     1 <1>   0.0800 
 31 H        3.8300     3.6410     1.0590 H     1 <1>   0.4500 
 32 H        4.7840     5.3310    -1.1920 H     1 <1>   0.0800 
 33 H        5.8070     4.2610    -0.2690 H     1 <1>   0.0800 
 34 H        5.2940     5.5560     1.7960 H     1 <1>   0.0800 
 35 H        4.3560     6.6850     0.8290 H     1 <1>   0.0800 
 36 H        5.6780     8.3980    -0.6020 H     1 <1>   0.1500 
 37 H        7.9300     5.4060     1.2440 H     1 <1>   0.1500 
 38 H        9.5480     7.2260     0.1010 H     1 <1>   0.1500 
@<TRIPOS>BOND
  1   1   2  ar  
  2   1   3  ar  
  3   2   4  1   
  4   2   5  ar  
  5   3   6  ar  
  6   3  20  1   
  7   4   7  1   
  8   4   8  1   
  9   5   9  ar  
 10   5  21  1   
 11   6   9  ar  
 12   6  22  1   
 13   7  10  1   
 14   7  23  1   
 15   7  24  1   
 16   8  11  1   
 17   8  25  1   
 18   8  26  1   
 19  10  12  1   
 20  10  27  1   
 21  10  28  1   
 22  11  12  1   
 23  11  29  1   
 24  11  30  1   
 25  12  13  1   
 26  12  31  1   
 27  13  14  1   
 28  13  32  1   
 29  13  33  1   
 30  14  15  1   
 31  14  34  1   
 32  14  35  1   
 33  15  16  1   
 34  15  17  1   
 35  16  18  2   
 36  16  36  1   
 37  17  19  2   
 38  17  37  1   
 39  18  19  1   
 40  19  38  1   
@<TRIPOS>SUBSTRUCTURE
  1 ****  12 GROUP 4 **** **** 0

# MOE 2024.06 (io_trps.svl 2023.06)
