@<TRIPOS>MOLECULE
NONAME
53 57 1 0 0 
SMALL
USER_CHARGES


@<TRIPOS>ATOM
  1 O       -4.3120    -1.0690    -2.9870 O.2   1 <1>  -0.5700 
  2 C       -3.4070    -1.2570    -2.2040 C.2   1 <1>   0.7800 
  3 O       -2.7200    -0.2590    -1.6710 O.3   1 <1>  -0.4300 
  4 N       -3.0060    -2.4500    -1.7270 N.am  1 <1>  -0.6600 
  5 C       -1.7540    -0.7450    -0.7550 C.3   1 <1>   0.1200 
  6 C       -1.9480    -2.2670    -0.7330 C.3   1 <1>   0.1400 
  7 C       -3.6910    -3.7620    -1.9330 C.3   1 <1>   0.2010 
  8 C       -4.3180    -4.3190    -0.6510 C.2   1 <1>   0.5690 
  9 O       -3.6270    -5.0660     0.0050 O.2   1 <1>  -0.5700 
 10 N       -5.5950    -3.9890    -0.2550 N.am  1 <1>  -0.6600 
 11 C       -6.4960    -3.0130    -0.9570 C.3   1 <1>   0.1400 
 12 C       -6.2260    -4.6520     0.9240 C.3   1 <1>   0.1400 
 13 C       -7.0400    -1.9390     0.0090 C.3   1 <1>   0.1430 
 14 C       -6.7290    -3.6000     1.9170 C.3   1 <1>  -0.1600 
 15 C       -8.0390    -1.0730    -0.7370 C.ar  1 <1>   0.1670 
 16 C       -7.6900    -2.6090     1.2400 C.3   1 <1>  -0.1600 
 17 C       -5.9410    -0.9200     0.4210 C.3   1 <1>  -0.1600 
 18 N       -9.2210    -1.4660    -1.1510 N.ar  1 <1>  -0.6200 
 19 C       -7.5630     0.1820    -0.9490 C.ar  1 <1>  -0.1440 
 20 C       -6.1770     0.3690    -0.3890 C.3   1 <1>  -0.0170 
 21 C       -9.9520    -0.5450    -1.7930 C.ar  1 <1>   0.6200 
 22 C       -8.3680     1.0660    -1.6200 C.ar  1 <1>   0.1600 
 23 N       -9.5620     0.7150    -2.0390 N.ar  1 <1>  -0.6200 
 24 C      -11.2740    -0.9440    -2.2580 C.ar  1 <1>   0.0000 
 25 C      -12.3140    -0.0190    -2.3920 C.ar  1 <1>  -0.1500 
 26 C      -11.5650    -2.2700    -2.5930 C.ar  1 <1>  -0.1500 
 27 C      -13.5710    -0.3940    -2.8310 C.ar  1 <1>  -0.1500 
 28 C      -12.8190    -2.6530    -3.0320 C.ar  1 <1>  -0.1500 
 29 C      -13.8270    -1.7140    -3.1530 C.ar  1 <1>  -0.1500 
 30 H       -1.9360    -0.3050     0.2100 H     1 <1>   0.0800 
 31 H       -0.7760    -0.4750    -1.1100 H     1 <1>   0.0800 
 32 H       -1.0500    -2.7840    -1.0260 H     1 <1>   0.0800 
 33 H       -2.2660    -2.6050     0.2390 H     1 <1>   0.0800 
 34 H       -2.9660    -4.4720    -2.2870 H     1 <1>   0.0800 
 35 H       -4.4420    -3.6670    -2.6950 H     1 <1>   0.0800 
 36 H       -7.3270    -3.5560    -1.3740 H     1 <1>   0.0800 
 37 H       -5.9920    -2.5240    -1.7680 H     1 <1>   0.0800 
 38 H       -5.5260    -5.3030     1.4190 H     1 <1>   0.0800 
 39 H       -7.0510    -5.2530     0.5830 H     1 <1>   0.0800 
 40 H       -5.8840    -3.0800     2.3320 H     1 <1>   0.0800 
 41 H       -7.2360    -4.0950     2.7250 H     1 <1>   0.0800 
 42 H       -8.5670    -3.1450     0.9220 H     1 <1>   0.0800 
 43 H       -8.0100    -1.8610     1.9440 H     1 <1>   0.0800 
 44 H       -4.9510    -1.3080     0.2610 H     1 <1>   0.0800 
 45 H       -6.0380    -0.6810     1.4650 H     1 <1>   0.0800 
 46 H       -5.4710     0.4590    -1.1950 H     1 <1>   0.0800 
 47 H       -6.1210     1.2420     0.2370 H     1 <1>   0.0800 
 48 H       -8.0290     2.0690    -1.8160 H     1 <1>   0.1500 
 49 H      -12.1340     1.0130    -2.1460 H     1 <1>   0.1500 
 50 H      -10.7930    -3.0140    -2.5060 H     1 <1>   0.1500 
 51 H      -14.3500     0.3420    -2.9230 H     1 <1>   0.1500 
 52 H      -13.0110    -3.6820    -3.2810 H     1 <1>   0.1500 
 53 H      -14.8040    -2.0080    -3.4950 H     1 <1>   0.1500 
@<TRIPOS>BOND
  1   1   2  2   
  2   2   3  1   
  3   2   4  am  
  4   3   5  1   
  5   4   6  1   
  6   4   7  1   
  7   5   6  1   
  8   5  30  1   
  9   5  31  1   
 10   6  32  1   
 11   6  33  1   
 12   7   8  1   
 13   7  34  1   
 14   7  35  1   
 15   8   9  2   
 16   8  10  am  
 17  10  11  1   
 18  10  12  1   
 19  11  13  1   
 20  11  36  1   
 21  11  37  1   
 22  12  14  1   
 23  12  38  1   
 24  12  39  1   
 25  13  15  1   
 26  13  16  1   
 27  13  17  1   
 28  14  16  1   
 29  14  40  1   
 30  14  41  1   
 31  15  18  ar  
 32  15  19  ar  
 33  16  42  1   
 34  16  43  1   
 35  17  20  1   
 36  17  44  1   
 37  17  45  1   
 38  18  21  ar  
 39  19  20  1   
 40  19  22  ar  
 41  20  46  1   
 42  20  47  1   
 43  21  23  ar  
 44  21  24  1   
 45  22  23  ar  
 46  22  48  1   
 47  24  25  ar  
 48  24  26  ar  
 49  25  27  ar  
 50  25  49  1   
 51  26  28  ar  
 52  26  50  1   
 53  27  29  ar  
 54  27  51  1   
 55  28  29  ar  
 56  28  52  1   
 57  29  53  1   
@<TRIPOS>SUBSTRUCTURE
  1 ****  15 GROUP 4 **** **** 0

# MOE 2024.06 (io_trps.svl 2023.06)
