@<TRIPOS>MOLECULE
NONAME
43 45 1 0 0 
SMALL
USER_CHARGES


@<TRIPOS>ATOM
  1 F       -0.6280     0.2300    -0.7210 F     1 <1>  -0.3400 
  2 C       -1.7340    -0.1600    -0.1000 C.3   1 <1>   1.1640 
  3 F       -1.8060     0.5550     1.0160 F     1 <1>  -0.3400 
  4 F       -2.7490     0.2290    -0.8600 F     1 <1>  -0.3400 
  5 C       -1.7720    -1.6760     0.1640 C.ar  1 <1>  -0.1440 
  6 C       -2.5370    -2.1940     1.2040 C.ar  1 <1>  -0.1500 
  7 C       -1.0520    -2.5620    -0.6310 C.ar  1 <1>  -0.1500 
  8 C       -2.5820    -3.5560     1.4430 C.ar  1 <1>  -0.1500 
  9 C       -1.0960    -3.9250    -0.3940 C.ar  1 <1>  -0.1500 
 10 C       -1.8670    -4.4320     0.6400 C.ar  1 <1>  -0.1430 
 11 C       -1.9340    -5.9270     0.8860 C.3   1 <1>   0.4870 
 12 N       -2.8200    -6.5290    -0.1460 N.4   1 <1>  -0.9590 
 13 C       -4.2250    -6.0150    -0.0890 C.3   1 <1>   0.3430 
 14 C       -2.8730    -8.0230    -0.0900 C.3   1 <1>   0.3430 
 15 C       -5.1000    -7.1920    -0.5140 C.3   1 <1>   0.2000 
 16 C       -4.3510    -8.4260    -0.0260 C.3   1 <1>  -0.0800 
 17 O       -6.3630    -7.1310     0.0510 O.3   1 <1>  -0.6800 
 18 C       -4.6850    -9.6870    -0.8470 C.3   1 <1>  -0.0170 
 19 C       -3.9750   -10.9270    -0.3200 C.ar  1 <1>   0.1670 
 20 N       -2.6500   -10.9130    -0.3640 N.ar  1 <1>  -0.6200 
 21 C       -4.7180   -12.0010     0.1700 C.ar  1 <1>   0.1600 
 22 C       -2.1270   -12.0410     0.0950 C.ar  1 <1>   0.1600 
 23 N       -4.1930   -13.1170     0.6440 N.ar  1 <1>  -0.6200 
 24 C       -2.8730   -13.1060     0.5840 C.ar  1 <1>   0.1600 
 25 H       -3.1040    -1.5300     1.8390 H     1 <1>   0.1500 
 26 H       -0.4460    -2.1920    -1.4440 H     1 <1>   0.1500 
 27 H       -3.1810    -3.9160     2.2630 H     1 <1>   0.1500 
 28 H       -0.5160    -4.5760    -1.0260 H     1 <1>   0.1500 
 29 H       -2.3210    -6.1220     1.8730 H     1 <1>   0.0800 
 30 H       -0.9430    -6.3460     0.8170 H     1 <1>   0.0800 
 31 H       -2.4320    -6.2530    -1.0580 H     1 <1>   0.4500 
 32 H       -4.4730    -5.7370     0.9210 H     1 <1>   0.0800 
 33 H       -4.3600    -5.1680    -0.7420 H     1 <1>   0.0800 
 34 H       -2.4220    -8.4380    -0.9780 H     1 <1>   0.0800 
 35 H       -2.3470    -8.4110     0.7680 H     1 <1>   0.0800 
 36 H       -5.2120    -7.1900    -1.5860 H     1 <1>   0.0800 
 37 H       -4.5870    -8.6090     1.0080 H     1 <1>   0.0800 
 38 H       -6.3740    -7.3720     0.9990 H     1 <1>   0.4000 
 39 H       -4.4020    -9.5450    -1.8760 H     1 <1>   0.0800 
 40 H       -5.7500    -9.8470    -0.8290 H     1 <1>   0.0800 
 41 H       -5.7920   -11.9400     0.1730 H     1 <1>   0.1500 
 42 H       -1.0550   -12.1320     0.0860 H     1 <1>   0.1500 
 43 H       -2.3580   -13.9820     0.9390 H     1 <1>   0.1500 
@<TRIPOS>BOND
  1   1   2  1   
  2   2   3  1   
  3   2   4  1   
  4   2   5  1   
  5   5   6  ar  
  6   5   7  ar  
  7   6   8  ar  
  8   6  25  1   
  9   7   9  ar  
 10   7  26  1   
 11   8  10  ar  
 12   8  27  1   
 13   9  10  ar  
 14   9  28  1   
 15  10  11  1   
 16  11  12  1   
 17  11  29  1   
 18  11  30  1   
 19  12  13  1   
 20  12  14  1   
 21  12  31  1   
 22  13  15  1   
 23  13  32  1   
 24  13  33  1   
 25  14  16  1   
 26  14  34  1   
 27  14  35  1   
 28  15  16  1   
 29  15  17  1   
 30  15  36  1   
 31  16  18  1   
 32  16  37  1   
 33  17  38  1   
 34  18  19  1   
 35  18  39  1   
 36  18  40  1   
 37  19  20  ar  
 38  19  21  ar  
 39  20  22  ar  
 40  21  23  ar  
 41  21  41  1   
 42  22  24  ar  
 43  22  42  1   
 44  23  24  ar  
 45  24  43  1   
@<TRIPOS>SUBSTRUCTURE
  1 ****  12 GROUP 4 **** **** 0

# MOE 2024.06 (io_trps.svl 2023.06)
