@<TRIPOS>MOLECULE
NONAME
54 56 1 0 0 
SMALL
USER_CHARGES


@<TRIPOS>ATOM
  1 O        1.9510     0.6910     2.2660 O.co2 1 <1>  -0.9000 
  2 C        1.8210     0.1720     1.1510 C.2   1 <1>   0.9060 
  3 O        1.5430    -1.0290     1.0200 O.co2 1 <1>  -0.9000 
  4 C        2.1220     0.9770    -0.1160 C.3   1 <1>  -0.1060 
  5 C        3.4550     0.3580    -0.6050 C.3   1 <1>   0.2000 
  6 C        2.3200     2.4990     0.1640 C.3   1 <1>  -0.1600 
  7 C        0.9680     0.8110    -1.1500 C.3   1 <1>  -0.0160 
  8 O        3.2130    -0.8070    -1.3160 O.3   1 <1>  -0.6800 
  9 C        4.3110     1.3340    -1.4200 C.3   1 <1>   0.1400 
 10 C        3.7570     2.8410     0.5580 C.3   1 <1>   0.1400 
 11 C       -0.2930     1.6120    -0.8300 C.ar  1 <1>  -0.1440 
 12 N        4.6780     2.5330    -0.5870 N.am  1 <1>  -0.6600 
 13 C       -0.6470     2.7080    -1.6040 C.ar  1 <1>  -0.1500 
 14 C       -1.1020     1.2490     0.2350 C.ar  1 <1>  -0.1500 
 15 C        5.8050     3.2520    -0.8830 C.2   1 <1>   0.5690 
 16 C       -1.7900     3.4340    -1.3130 C.ar  1 <1>  -0.1500 
 17 C       -2.2440     1.9730     0.5280 C.ar  1 <1>  -0.1500 
 18 O        6.4540     3.0290    -1.8790 O.2   1 <1>  -0.5700 
 19 C        6.2620     4.3700     0.0510 C.3   1 <1>  -0.0990 
 20 C       -2.5900     3.0670    -0.2460 C.ar  1 <1>  -0.1500 
 21 C        7.7080     4.8500    -0.1850 C.3   1 <1>  -0.1600 
 22 C        8.1070     5.9500     0.8060 C.3   1 <1>  -0.0170 
 23 C        9.5390     6.3990     0.5640 C.ar  1 <1>  -0.1430 
 24 C        9.8110     7.4080    -0.3470 C.ar  1 <1>  -0.1500 
 25 C       10.5860     5.8050     1.2500 C.ar  1 <1>  -0.1500 
 26 C       11.1140     7.8220    -0.5660 C.ar  1 <1>  -0.1500 
 27 C       11.8900     6.2160     1.0320 C.ar  1 <1>  -0.1500 
 28 C       12.1550     7.2260     0.1240 C.ar  1 <1>  -0.1500 
 29 H        4.0460     0.0650     0.2480 H     1 <1>   0.0800 
 30 H        1.6470     2.8150     0.9430 H     1 <1>   0.0800 
 31 H        2.0800     3.0780    -0.7100 H     1 <1>   0.0800 
 32 H        1.3290     1.1040    -2.1190 H     1 <1>   0.0800 
 33 H        0.6890    -0.2260    -1.2300 H     1 <1>   0.0800 
 34 H        2.6300    -1.3570    -0.7310 H     1 <1>   0.4000 
 35 H        3.7640     1.6620    -2.2860 H     1 <1>   0.0800 
 36 H        5.2080     0.8330    -1.7420 H     1 <1>   0.0800 
 37 H        4.0410     2.2620     1.4220 H     1 <1>   0.0800 
 38 H        3.8050     3.8840     0.8140 H     1 <1>   0.0800 
 39 H       -0.0300     3.0010    -2.4340 H     1 <1>   0.1500 
 40 H       -0.8400     0.3980     0.8450 H     1 <1>   0.1500 
 41 H       -2.0540     4.2830    -1.9180 H     1 <1>   0.1500 
 42 H       -2.8570     1.6810     1.3630 H     1 <1>   0.1500 
 43 H        5.5910     5.1980    -0.0750 H     1 <1>   0.0800 
 44 H        6.1830     4.0160     1.0620 H     1 <1>   0.0800 
 45 H       -3.4760     3.6290    -0.0160 H     1 <1>   0.1500 
 46 H        8.3810     4.0150    -0.0820 H     1 <1>   0.0800 
 47 H        7.8030     5.2240    -1.1900 H     1 <1>   0.0800 
 48 H        8.0130     5.5850     1.8140 H     1 <1>   0.0800 
 49 H        7.4470     6.7930     0.7000 H     1 <1>   0.0800 
 50 H        9.0080     7.8750    -0.8910 H     1 <1>   0.1500 
 51 H       10.3910     5.0170     1.9570 H     1 <1>   0.1500 
 52 H       11.3170     8.6050    -1.2750 H     1 <1>   0.1500 
 53 H       12.6970     5.7500     1.5690 H     1 <1>   0.1500 
 54 H       13.1670     7.5470    -0.0460 H     1 <1>   0.1500 
@<TRIPOS>BOND
  1   1   2  ar  
  2   2   3  ar  
  3   2   4  1   
  4   4   5  1   
  5   4   6  1   
  6   4   7  1   
  7   5   8  1   
  8   5   9  1   
  9   5  29  1   
 10   6  10  1   
 11   6  30  1   
 12   6  31  1   
 13   7  11  1   
 14   7  32  1   
 15   7  33  1   
 16   8  34  1   
 17   9  12  1   
 18   9  35  1   
 19   9  36  1   
 20  10  12  1   
 21  10  37  1   
 22  10  38  1   
 23  11  13  ar  
 24  11  14  ar  
 25  12  15  am  
 26  13  16  ar  
 27  13  39  1   
 28  14  17  ar  
 29  14  40  1   
 30  15  18  2   
 31  15  19  1   
 32  16  20  ar  
 33  16  41  1   
 34  17  20  ar  
 35  17  42  1   
 36  19  21  1   
 37  19  43  1   
 38  19  44  1   
 39  20  45  1   
 40  21  22  1   
 41  21  46  1   
 42  21  47  1   
 43  22  23  1   
 44  22  48  1   
 45  22  49  1   
 46  23  24  ar  
 47  23  25  ar  
 48  24  26  ar  
 49  24  50  1   
 50  25  27  ar  
 51  25  51  1   
 52  26  28  ar  
 53  26  52  1   
 54  27  28  ar  
 55  27  53  1   
 56  28  54  1   
@<TRIPOS>SUBSTRUCTURE
  1 ****  12 GROUP 4 **** **** 0

# MOE 2024.06 (io_trps.svl 2023.06)
