@<TRIPOS>MOLECULE
NONAME
46 48 1 0 0 
SMALL
USER_CHARGES


@<TRIPOS>ATOM
  1 O       -2.2050     0.7690    -2.3140 O.2   1 <1>  -0.5700 
  2 C       -2.0990     1.0760    -1.1440 C.2   1 <1>   0.5440 
  3 N       -2.2620     0.0970    -0.2060 N.am  1 <1>  -0.7300 
  4 C       -1.8050     2.4420    -0.7740 C.ar  1 <1>   0.0860 
  5 C       -2.5360    -1.3280    -0.5010 C.3   1 <1>   0.2200 
  6 C       -1.9770     2.9410     0.5040 C.ar  1 <1>   0.1600 
  7 C       -1.3260     3.3560    -1.6930 C.ar  1 <1>   0.1600 
  8 C       -3.9930    -1.6290    -0.1870 C.3   1 <1>  -0.0800 
  9 C       -1.8180    -2.1970     0.5220 C.3   1 <1>   0.1200 
 10 N       -1.7000     4.1800     0.8420 N.ar  1 <1>  -0.6200 
 11 N       -1.0380     4.6050    -1.3920 N.ar  1 <1>  -0.6200 
 12 C       -3.9560    -1.9280     1.3190 C.3   1 <1>   0.1200 
 13 C       -4.5100    -2.8240    -1.0100 C.3   1 <1>  -0.0170 
 14 O       -2.6190    -2.1590     1.6630 O.3   1 <1>  -0.5600 
 15 C       -1.2390     4.9570    -0.1300 C.ar  1 <1>   0.4770 
 16 C       -5.9720    -3.1190    -0.7120 C.ar  1 <1>  -0.1430 
 17 C       -0.9040     6.4110     0.2290 C.3   1 <1>   0.0630 
 18 C       -6.9860    -2.3200    -1.2010 C.ar  1 <1>  -0.1500 
 19 C       -6.3630    -4.1960     0.0580 C.ar  1 <1>  -0.1500 
 20 C        0.2180     6.4960     1.2780 C.3   1 <1>  -0.2400 
 21 C       -2.1430     7.1810     0.7150 C.3   1 <1>  -0.2400 
 22 C       -8.3040    -2.6260    -0.9000 C.ar  1 <1>   0.1600 
 23 C       -7.7090    -4.4130     0.3000 C.ar  1 <1>   0.1600 
 24 N       -8.6890    -3.6520    -0.1590 N.ar  1 <1>  -0.6200 
 25 H       -2.1470     0.2810     0.7940 H     1 <1>   0.3700 
 26 H       -2.2560    -1.5700    -1.5130 H     1 <1>   0.0800 
 27 H       -2.3610     2.3010     1.2780 H     1 <1>   0.1500 
 28 H       -1.1750     3.0400    -2.7130 H     1 <1>   0.1500 
 29 H       -4.6160    -0.7770    -0.3940 H     1 <1>   0.0800 
 30 H       -0.8320    -1.8380     0.7570 H     1 <1>   0.0800 
 31 H       -1.7650    -3.2190     0.1900 H     1 <1>   0.0800 
 32 H       -4.5350    -2.7930     1.5890 H     1 <1>   0.0800 
 33 H       -4.2970    -1.0810     1.8870 H     1 <1>   0.0800 
 34 H       -3.9180    -3.7000    -0.8100 H     1 <1>   0.0800 
 35 H       -4.4130    -2.6010    -2.0590 H     1 <1>   0.0800 
 36 H       -0.5500     6.8970    -0.6640 H     1 <1>   0.0800 
 37 H       -6.7660    -1.4650    -1.8130 H     1 <1>   0.1500 
 38 H       -5.6360    -4.8700     0.4730 H     1 <1>   0.1500 
 39 H       -0.0980     6.0460     2.2020 H     1 <1>   0.0800 
 40 H        0.4820     7.5220     1.4640 H     1 <1>   0.0800 
 41 H        1.0890     5.9750     0.9230 H     1 <1>   0.0800 
 42 H       -2.5210     6.7490     1.6240 H     1 <1>   0.0800 
 43 H       -2.9160     7.1370    -0.0320 H     1 <1>   0.0800 
 44 H       -1.8980     8.2120     0.8960 H     1 <1>   0.0800 
 45 H       -9.0820    -1.9920    -1.2910 H     1 <1>   0.1500 
 46 H       -7.9950    -5.2570     0.9030 H     1 <1>   0.1500 
@<TRIPOS>BOND
  1   1   2  2   
  2   2   3  am  
  3   2   4  1   
  4   3   5  1   
  5   3  25  1   
  6   4   6  ar  
  7   4   7  ar  
  8   5   8  1   
  9   5   9  1   
 10   5  26  1   
 11   6  10  ar  
 12   6  27  1   
 13   7  11  ar  
 14   7  28  1   
 15   8  12  1   
 16   8  13  1   
 17   8  29  1   
 18   9  14  1   
 19   9  30  1   
 20   9  31  1   
 21  10  15  ar  
 22  11  15  ar  
 23  12  14  1   
 24  12  32  1   
 25  12  33  1   
 26  13  16  1   
 27  13  34  1   
 28  13  35  1   
 29  15  17  1   
 30  16  18  ar  
 31  16  19  ar  
 32  17  20  1   
 33  17  21  1   
 34  17  36  1   
 35  18  22  ar  
 36  18  37  1   
 37  19  23  ar  
 38  19  38  1   
 39  20  39  1   
 40  20  40  1   
 41  20  41  1   
 42  21  42  1   
 43  21  43  1   
 44  21  44  1   
 45  22  24  ar  
 46  22  45  1   
 47  23  24  ar  
 48  23  46  1   
@<TRIPOS>SUBSTRUCTURE
  1 ****   3 GROUP 4 **** **** 0

# MOE 2024.06 (io_trps.svl 2023.06)
