@<TRIPOS>MOLECULE
NONAME
53 56 1 0 0 
SMALL
USER_CHARGES


@<TRIPOS>ATOM
  1 O       -0.6910     1.2070    -0.9680 O.co2 1 <1>  -0.9000 
  2 C       -0.5550     1.7000     0.1650 C.2   1 <1>   0.9060 
  3 O        0.4510     1.5270     0.8560 O.co2 1 <1>  -0.9000 
  4 C       -1.8020     2.3830     0.7790 C.3   1 <1>   0.4600 
  5 N       -3.0900     1.6820     0.3650 N.4   1 <1>  -0.9590 
  6 C       -1.9180     3.8600     0.3990 C.ar  1 <1>  -0.1430 
  7 C       -4.3320     2.4190     0.7190 C.3   1 <1>   0.3430 
  8 C       -3.0540     0.2620     0.8060 C.3   1 <1>   0.3430 
  9 C       -2.2320     4.7930     1.3750 C.ar  1 <1>  -0.1500 
 10 C       -1.7450     4.2890    -0.9080 C.ar  1 <1>  -0.1500 
 11 C       -5.5470     1.6800     0.1690 C.3   1 <1>  -0.1600 
 12 C       -4.2690    -0.4830     0.2600 C.3   1 <1>  -0.1600 
 13 C       -2.3950     6.1320     1.0640 C.ar  1 <1>   0.0830 
 14 C       -1.9030     5.6240    -1.2360 C.ar  1 <1>  -0.1500 
 15 C       -5.5840     0.2160     0.6390 C.3   1 <1>   0.1000 
 16 O       -2.7150     6.9290     2.1200 O.3   1 <1>  -0.3630 
 17 C       -2.2410     6.5630    -0.2630 C.ar  1 <1>   0.0830 
 18 C       -6.7790    -0.5390     0.0660 C.2   1 <1>   0.2980 
 19 C       -2.1840     8.2330     2.2170 C.3   1 <1>   0.0400 
 20 O       -2.4430     7.8750    -0.5780 O.3   1 <1>  -0.3630 
 21 O       -7.0310    -1.7460     0.5500 O.3   1 <1>  -0.2800 
 22 N       -7.5850    -0.1360    -0.8430 N.2   1 <1>  -0.5650 
 23 C       -2.2580     8.3710    -1.8860 C.3   1 <1>   0.0400 
 24 C       -8.0960    -2.1660    -0.1030 C.ar  1 <1>   0.1400 
 25 C       -8.4570    -1.1730    -0.9790 C.ar  1 <1>   0.2270 
 26 C       -8.7960    -3.3610    -0.0040 C.ar  1 <1>  -0.1500 
 27 C       -9.5600    -1.3460    -1.8070 C.ar  1 <1>  -0.1500 
 28 C       -9.8930    -3.5330    -0.8280 C.ar  1 <1>  -0.1500 
 29 C      -10.2730    -2.5290    -1.7250 C.ar  1 <1>  -0.1500 
 30 H       -1.6870     2.3160     1.8450 H     1 <1>   0.0800 
 31 H       -2.9720     1.6490    -0.6620 H     1 <1>   0.4500 
 32 H       -4.3050     3.4140     0.3030 H     1 <1>   0.0800 
 33 H       -4.4100     2.5030     1.7900 H     1 <1>   0.0800 
 34 H       -3.0490     0.2140     1.8830 H     1 <1>   0.0800 
 35 H       -2.1540    -0.2130     0.4420 H     1 <1>   0.0800 
 36 H       -2.3550     4.4940     2.4000 H     1 <1>   0.1500 
 37 H       -1.4800     3.5860    -1.6840 H     1 <1>   0.1500 
 38 H       -5.5270     1.7220    -0.9070 H     1 <1>   0.0800 
 39 H       -6.4410     2.1830     0.4930 H     1 <1>   0.0800 
 40 H       -4.2660    -1.4860     0.6510 H     1 <1>   0.0800 
 41 H       -4.1860    -0.5560    -0.8110 H     1 <1>   0.0800 
 42 H       -1.7590     5.9060    -2.2610 H     1 <1>   0.1500 
 43 H       -5.6860     0.2050     1.7100 H     1 <1>   0.0800 
 44 H       -2.2110     8.5300     3.2500 H     1 <1>   0.0800 
 45 H       -2.7910     8.9000     1.6330 H     1 <1>   0.0800 
 46 H       -1.1700     8.2290     1.8600 H     1 <1>   0.0800 
 47 H       -2.4540     9.4280    -1.8720 H     1 <1>   0.0800 
 48 H       -2.9510     7.8820    -2.5470 H     1 <1>   0.0800 
 49 H       -1.2410     8.1920    -2.1880 H     1 <1>   0.0800 
 50 H       -8.4830    -4.1150     0.6940 H     1 <1>   0.1500 
 51 H       -9.8350    -0.5620    -2.4880 H     1 <1>   0.1500 
 52 H      -10.4640    -4.4450    -0.7830 H     1 <1>   0.1500 
 53 H      -11.1310    -2.6840    -2.3580 H     1 <1>   0.1500 
@<TRIPOS>BOND
  1   1   2  ar  
  2   2   3  ar  
  3   2   4  1   
  4   4   5  1   
  5   4   6  1   
  6   4  30  1   
  7   5   7  1   
  8   5   8  1   
  9   5  31  1   
 10   6   9  ar  
 11   6  10  ar  
 12   7  11  1   
 13   7  32  1   
 14   7  33  1   
 15   8  12  1   
 16   8  34  1   
 17   8  35  1   
 18   9  13  ar  
 19   9  36  1   
 20  10  14  ar  
 21  10  37  1   
 22  11  15  1   
 23  11  38  1   
 24  11  39  1   
 25  12  15  1   
 26  12  40  1   
 27  12  41  1   
 28  13  16  1   
 29  13  17  ar  
 30  14  17  ar  
 31  14  42  1   
 32  15  18  1   
 33  15  43  1   
 34  16  19  1   
 35  17  20  1   
 36  18  21  1   
 37  18  22  2   
 38  19  44  1   
 39  19  45  1   
 40  19  46  1   
 41  20  23  1   
 42  21  24  1   
 43  22  25  1   
 44  23  47  1   
 45  23  48  1   
 46  23  49  1   
 47  24  25  ar  
 48  24  26  ar  
 49  25  27  ar  
 50  26  28  ar  
 51  26  50  1   
 52  27  29  ar  
 53  27  51  1   
 54  28  29  ar  
 55  28  52  1   
 56  29  53  1   
@<TRIPOS>SUBSTRUCTURE
  1 ****   7 GROUP 4 **** **** 0

# MOE 2024.06 (io_trps.svl 2023.06)
