@<TRIPOS>MOLECULE
NONAME
57 60 1 0 0 
SMALL
USER_CHARGES


@<TRIPOS>ATOM
  1 O        1.6610     0.2350    -0.0730 O.3   1 <1>  -0.5600 
  2 C        2.5030    -0.7490     0.4910 C.3   1 <1>   0.4240 
  3 C        0.9740    -0.1030    -1.2430 C.3   1 <1>   0.1200 
  4 C        1.9250    -2.1690     0.3440 C.ar  1 <1>  -0.1440 
  5 C        2.6260    -0.3630     1.9760 C.3   1 <1>  -0.1600 
  6 C        3.8790    -0.6200    -0.1790 C.3   1 <1>  -0.1600 
  7 C       -0.0130    -1.2250    -0.9330 C.3   1 <1>  -0.0160 
  8 C        0.7290    -2.3950    -0.3200 C.ar  1 <1>  -0.1440 
  9 C        2.5990    -3.2630     0.8710 C.ar  1 <1>  -0.1500 
 10 C        3.5820     0.8060     2.2390 C.3   1 <1>   0.3430 
 11 C        4.4580     0.7950    -0.0760 C.3   1 <1>   0.3430 
 12 C        0.2170    -3.6770    -0.4320 C.ar  1 <1>  -0.1500 
 13 C        2.1100    -4.5530     0.7650 C.ar  1 <1>   0.0830 
 14 N        3.7790     1.5890     0.9960 N.4   1 <1>  -0.9590 
 15 C        0.8880    -4.7730     0.1070 C.ar  1 <1>   0.0830 
 16 O        2.9180    -5.4910     1.3430 O.3   1 <1>  -0.3630 
 17 C        4.4150     2.9140     1.2180 C.3   1 <1>   0.4860 
 18 O        0.3710    -6.0330     0.0030 O.3   1 <1>  -0.3630 
 19 C        2.6950    -6.8790     1.2420 C.3   1 <1>   0.0400 
 20 C        4.3140     3.7310    -0.0510 C.ar  1 <1>  -0.1430 
 21 C       -0.9080    -6.2880    -0.5370 C.3   1 <1>   0.0400 
 22 C        5.4090     3.8010    -0.9050 C.ar  1 <1>   0.3930 
 23 C        3.1570     4.4070    -0.3800 C.ar  1 <1>  -0.1500 
 24 O        6.5220     3.1190    -0.5470 O.3   1 <1>  -0.3620 
 25 N        5.4220     4.4760    -2.0460 N.ar  1 <1>  -0.6200 
 26 C        3.1660     5.1190    -1.5610 C.ar  1 <1>  -0.1500 
 27 C        7.7090     3.2150    -1.3170 C.3   1 <1>   0.0400 
 28 C        4.3070     5.1210    -2.3450 C.ar  1 <1>   0.1600 
 29 H        1.6800    -0.4100    -1.9950 H     1 <1>   0.0800 
 30 H        0.4490     0.7720    -1.5880 H     1 <1>   0.0800 
 31 H        2.9820    -1.1980     2.5500 H     1 <1>   0.0800 
 32 H        1.6470    -0.1320     2.3570 H     1 <1>   0.0800 
 33 H        3.8200    -0.9160    -1.2110 H     1 <1>   0.0800 
 34 H        4.5660    -1.3000     0.2910 H     1 <1>   0.0800 
 35 H       -0.4990    -1.5280    -1.8430 H     1 <1>   0.0800 
 36 H       -0.7650    -0.8690    -0.2510 H     1 <1>   0.0800 
 37 H        3.5350    -3.1380     1.3830 H     1 <1>   0.1500 
 38 H        4.5340     0.4240     2.5740 H     1 <1>   0.0800 
 39 H        3.1740     1.4300     3.0180 H     1 <1>   0.0800 
 40 H        4.3200     1.2970    -1.0210 H     1 <1>   0.0800 
 41 H        5.5180     0.7390     0.1150 H     1 <1>   0.0800 
 42 H       -0.7140    -3.8030    -0.9500 H     1 <1>   0.1500 
 43 H        2.8260     1.7460     0.6190 H     1 <1>   0.4500 
 44 H        5.4480     2.7890     1.4980 H     1 <1>   0.0800 
 45 H        3.9090     3.4370     2.0130 H     1 <1>   0.0800 
 46 H        3.5170    -7.3860     1.7120 H     1 <1>   0.0800 
 47 H        2.6410    -7.1490     0.2030 H     1 <1>   0.0800 
 48 H        1.7780    -7.1210     1.7510 H     1 <1>   0.0800 
 49 H       -1.1000    -7.3420    -0.4520 H     1 <1>   0.0800 
 50 H       -0.9140    -5.9990    -1.5730 H     1 <1>   0.0800 
 51 H       -1.6410    -5.7380     0.0250 H     1 <1>   0.0800 
 52 H        2.2780     4.3950     0.2440 H     1 <1>   0.1500 
 53 H        2.2980     5.6720    -1.8760 H     1 <1>   0.1500 
 54 H        8.4730     2.6230    -0.8470 H     1 <1>   0.0800 
 55 H        8.0160     4.2470    -1.3570 H     1 <1>   0.0800 
 56 H        7.5140     2.8480    -2.3100 H     1 <1>   0.0800 
 57 H        4.3010     5.6820    -3.2650 H     1 <1>   0.1500 
@<TRIPOS>BOND
  1   1   2  1   
  2   1   3  1   
  3   2   4  1   
  4   2   5  1   
  5   2   6  1   
  6   3   7  1   
  7   3  29  1   
  8   3  30  1   
  9   4   8  ar  
 10   4   9  ar  
 11   5  10  1   
 12   5  31  1   
 13   5  32  1   
 14   6  11  1   
 15   6  33  1   
 16   6  34  1   
 17   7   8  1   
 18   7  35  1   
 19   7  36  1   
 20   8  12  ar  
 21   9  13  ar  
 22   9  37  1   
 23  10  14  1   
 24  10  38  1   
 25  10  39  1   
 26  11  14  1   
 27  11  40  1   
 28  11  41  1   
 29  12  15  ar  
 30  12  42  1   
 31  13  15  ar  
 32  13  16  1   
 33  14  17  1   
 34  14  43  1   
 35  15  18  1   
 36  16  19  1   
 37  17  20  1   
 38  17  44  1   
 39  17  45  1   
 40  18  21  1   
 41  19  46  1   
 42  19  47  1   
 43  19  48  1   
 44  20  22  ar  
 45  20  23  ar  
 46  21  49  1   
 47  21  50  1   
 48  21  51  1   
 49  22  24  1   
 50  22  25  ar  
 51  23  26  ar  
 52  23  52  1   
 53  24  27  1   
 54  25  28  ar  
 55  26  28  ar  
 56  26  53  1   
 57  27  54  1   
 58  27  55  1   
 59  27  56  1   
 60  28  57  1   
@<TRIPOS>SUBSTRUCTURE
  1 ****   2 GROUP 4 **** **** 0

# MOE 2024.06 (io_trps.svl 2023.06)
