@<TRIPOS>MOLECULE
NONAME
52 55 1 0 0 
SMALL
USER_CHARGES


@<TRIPOS>ATOM
  1 O       -1.1100     0.6300     1.9670 O.2   1 <1>  -0.5700 
  2 C       -2.1070     0.9230     1.3450 C.2   1 <1>   0.5690 
  3 N       -3.2680     0.1940     1.4810 N.am  1 <1>  -0.6600 
  4 C       -2.0200     2.1190     0.3890 C.3   1 <1>  -0.0190 
  5 C       -3.3280    -0.9910     2.3830 C.3   1 <1>   0.1400 
  6 C       -4.5420     0.4040     0.7350 C.3   1 <1>   0.1400 
  7 C       -1.7670     1.6280    -1.0500 C.3   1 <1>  -0.0220 
  8 C       -0.9420     3.1480     0.7940 C.3   1 <1>  -0.1600 
  9 C       -3.5860    -2.2480     1.5490 C.3   1 <1>  -0.1600 
 10 C       -4.8230    -0.8230    -0.1360 C.3   1 <1>  -0.1600 
 11 C       -1.4660     2.7850    -1.9900 C.2   1 <1>  -0.2880 
 12 C       -0.9780     4.3920    -0.1090 C.3   1 <1>  -0.0220 
 13 C       -4.8580    -2.1240     0.6900 C.3   1 <1>   0.4240 
 14 C       -1.1290     4.0080    -1.5720 C.2   1 <1>  -0.2880 
 15 O       -5.8900    -1.9700     1.6410 O.3   1 <1>  -0.5600 
 16 C       -5.0730    -3.3860    -0.1950 C.ar  1 <1>  -0.1440 
 17 C       -7.1880    -2.2810     1.2520 C.3   1 <1>   0.1200 
 18 C       -4.1510    -3.7770    -1.1760 C.ar  1 <1>   0.0820 
 19 C       -6.2150    -4.1680    -0.0220 C.ar  1 <1>  -0.1440 
 20 C       -7.2590    -3.7790     1.0040 C.3   1 <1>  -0.0170 
 21 O       -3.0410    -3.0180    -1.3770 O.3   1 <1>  -0.3630 
 22 C       -4.3770    -4.9230    -1.9360 C.ar  1 <1>  -0.1500 
 23 C       -6.4270    -5.3070    -0.7810 C.ar  1 <1>  -0.1500 
 24 C       -1.9580    -3.4480    -2.1730 C.3   1 <1>   0.0400 
 25 C       -5.5090    -5.6860    -1.7370 C.ar  1 <1>  -0.1500 
 26 H       -2.9540     2.6440     0.4170 H     1 <1>   0.0800 
 27 H       -4.1210    -0.8520     3.0980 H     1 <1>   0.0800 
 28 H       -2.4080    -1.1070     2.9310 H     1 <1>   0.0800 
 29 H       -4.5040     1.2770     0.1130 H     1 <1>   0.0800 
 30 H       -5.3420     0.5400     1.4440 H     1 <1>   0.0800 
 31 H       -2.6310     1.0970    -1.4050 H     1 <1>   0.0800 
 32 H       -0.9330     0.9470    -1.0600 H     1 <1>   0.0800 
 33 H        0.0280     2.6870     0.7150 H     1 <1>   0.0800 
 34 H       -1.0810     3.4430     1.8190 H     1 <1>   0.0800 
 35 H       -3.6820    -3.1010     2.1940 H     1 <1>   0.0800 
 36 H       -2.7220    -2.4100     0.9370 H     1 <1>   0.0800 
 37 H       -4.0520    -0.8760    -0.8780 H     1 <1>   0.0800 
 38 H       -5.7490    -0.6980    -0.6620 H     1 <1>   0.0800 
 39 H       -1.5480     2.5230    -3.0320 H     1 <1>   0.1500 
 40 H       -0.0680     4.9500     0.0270 H     1 <1>   0.0800 
 41 H       -1.8030     5.0230     0.1710 H     1 <1>   0.0800 
 42 H       -0.9330     4.8250    -2.2480 H     1 <1>   0.1500 
 43 H       -7.4400    -1.7260     0.3660 H     1 <1>   0.0800 
 44 H       -7.8490    -1.9970     2.0510 H     1 <1>   0.0800 
 45 H       -8.2430    -4.0320     0.6520 H     1 <1>   0.0800 
 46 H       -7.0800    -4.3060     1.9240 H     1 <1>   0.0800 
 47 H       -3.6860    -5.2390    -2.6930 H     1 <1>   0.1500 
 48 H       -7.3100    -5.9040    -0.6310 H     1 <1>   0.1500 
 49 H       -1.1710    -2.7200    -2.0840 H     1 <1>   0.0800 
 50 H       -2.2800    -3.5130    -3.1970 H     1 <1>   0.0800 
 51 H       -1.6160    -4.4010    -1.8120 H     1 <1>   0.0800 
 52 H       -5.6770    -6.5710    -2.3260 H     1 <1>   0.1500 
@<TRIPOS>BOND
  1   1   2  2   
  2   2   3  am  
  3   2   4  1   
  4   3   5  1   
  5   3   6  1   
  6   4   7  1   
  7   4   8  1   
  8   4  26  1   
  9   5   9  1   
 10   5  27  1   
 11   5  28  1   
 12   6  10  1   
 13   6  29  1   
 14   6  30  1   
 15   7  11  1   
 16   7  31  1   
 17   7  32  1   
 18   8  12  1   
 19   8  33  1   
 20   8  34  1   
 21   9  13  1   
 22   9  35  1   
 23   9  36  1   
 24  10  13  1   
 25  10  37  1   
 26  10  38  1   
 27  11  14  2   
 28  11  39  1   
 29  12  14  1   
 30  12  40  1   
 31  12  41  1   
 32  13  15  1   
 33  13  16  1   
 34  14  42  1   
 35  15  17  1   
 36  16  18  ar  
 37  16  19  ar  
 38  17  20  1   
 39  17  43  1   
 40  17  44  1   
 41  18  21  1   
 42  18  22  ar  
 43  19  20  1   
 44  19  23  ar  
 45  20  45  1   
 46  20  46  1   
 47  21  24  1   
 48  22  25  ar  
 49  22  47  1   
 50  23  25  ar  
 51  23  48  1   
 52  24  49  1   
 53  24  50  1   
 54  24  51  1   
 55  25  52  1   
@<TRIPOS>SUBSTRUCTURE
  1 ****  10 GROUP 4 **** **** 0

# MOE 2024.06 (io_trps.svl 2023.06)
