@<TRIPOS>MOLECULE
NONAME
50 52 1 0 0 
SMALL
USER_CHARGES


@<TRIPOS>ATOM
  1 N       -1.2400    -0.2980     0.4420 N.ar  1 <1>  -0.6200 
  2 C       -1.6960     0.2000    -0.7020 C.ar  1 <1>   0.4100 
  3 C       -1.1620    -1.6140     0.5100 C.ar  1 <1>   0.1600 
  4 N       -1.7990     1.5760    -0.8040 N.pl3 1 <1>  -0.8380 
  5 C       -2.0740    -0.5980    -1.7790 C.ar  1 <1>  -0.1500 
  6 C       -1.5240    -2.4910    -0.5010 C.ar  1 <1>  -0.1430 
  7 C       -3.1610     2.1620    -0.8660 C.3   1 <1>   0.1290 
  8 C       -0.8080     2.4170    -0.0800 C.3   1 <1>   0.1290 
  9 C       -1.9950    -1.9670    -1.6900 C.ar  1 <1>  -0.1500 
 10 C       -1.4150    -3.9920    -0.3050 C.3   1 <1>   0.2530 
 11 N       -2.7660    -4.5590    -0.1910 N.3   1 <1>  -0.6890 
 12 C       -3.4370    -4.1700     1.0820 C.3   1 <1>   0.2100 
 13 C       -2.7860    -5.9540     0.3210 C.3   1 <1>   0.2100 
 14 C       -4.1370    -5.5620     1.0080 C.3   1 <1>   0.4720 
 15 N       -5.3690    -5.5580     0.1240 N.4   1 <1>  -0.9280 
 16 C       -6.6460    -5.2640     0.8480 C.3   1 <1>   0.4230 
 17 C       -5.4780    -6.8190    -0.6700 C.3   1 <1>   0.3430 
 18 C       -7.7920    -5.1320    -0.1650 C.3   1 <1>  -0.1600 
 19 C       -6.5680    -3.9840     1.6810 C.3   1 <1>  -0.2400 
 20 C       -6.5970    -6.7060    -1.7050 C.3   1 <1>  -0.1600 
 21 C       -7.9370    -6.3770    -1.0450 C.3   1 <1>  -0.1600 
 22 H       -0.7880    -2.0140     1.4360 H     1 <1>   0.1500 
 23 H       -2.4210    -0.1190    -2.6740 H     1 <1>   0.1500 
 24 H       -3.8600     1.4470    -1.2630 H     1 <1>   0.0800 
 25 H       -3.1530     3.0300    -1.5020 H     1 <1>   0.0800 
 26 H       -3.4810     2.4470     0.1210 H     1 <1>   0.0800 
 27 H        0.1630     1.9530    -0.1190 H     1 <1>   0.0800 
 28 H       -1.1000     2.5220     0.9500 H     1 <1>   0.0800 
 29 H       -0.7450     3.3890    -0.5380 H     1 <1>   0.0800 
 30 H       -2.2860    -2.6000    -2.5100 H     1 <1>   0.1500 
 31 H       -0.8310    -4.2110     0.5730 H     1 <1>   0.0800 
 32 H       -0.9180    -4.4260    -1.1570 H     1 <1>   0.0800 
 33 H       -4.0710    -3.3130     0.9530 H     1 <1>   0.0000 
 34 H       -2.7450    -4.0800     1.9040 H     1 <1>   0.0000 
 35 H       -1.9920    -6.1440     1.0250 H     1 <1>   0.0000 
 36 H       -2.8370    -6.6820    -0.4670 H     1 <1>   0.0000 
 37 H       -4.3060    -6.0390     1.9570 H     1 <1>   0.0000 
 38 H       -5.1920    -4.7960    -0.5440 H     1 <1>   0.4500 
 39 H       -6.8700    -6.0880     1.5080 H     1 <1>   0.0800 
 40 H       -5.6780    -7.6490    -0.0120 H     1 <1>   0.0800 
 41 H       -4.5570    -7.0140    -1.1930 H     1 <1>   0.0800 
 42 H       -7.6290    -4.2670    -0.7860 H     1 <1>   0.0800 
 43 H       -8.7180    -4.9760     0.3630 H     1 <1>   0.0800 
 44 H       -6.3160    -3.1370     1.0680 H     1 <1>   0.0800 
 45 H       -5.8680    -4.0800     2.4890 H     1 <1>   0.0800 
 46 H       -7.5280    -3.7890     2.1260 H     1 <1>   0.0800 
 47 H       -6.6810    -7.6380    -2.2360 H     1 <1>   0.0800 
 48 H       -6.3420    -5.9470    -2.4250 H     1 <1>   0.0800 
 49 H       -8.6870    -6.2070    -1.8010 H     1 <1>   0.0800 
 50 H       -8.2600    -7.2100    -0.4440 H     1 <1>   0.0800 
@<TRIPOS>BOND
  1   1   2  ar  
  2   1   3  ar  
  3   2   4  1   
  4   2   5  ar  
  5   3   6  ar  
  6   3  22  1   
  7   4   7  1   
  8   4   8  1   
  9   5   9  ar  
 10   5  23  1   
 11   6   9  ar  
 12   6  10  1   
 13   7  24  1   
 14   7  25  1   
 15   7  26  1   
 16   8  27  1   
 17   8  28  1   
 18   8  29  1   
 19   9  30  1   
 20  10  11  1   
 21  10  31  1   
 22  10  32  1   
 23  11  12  1   
 24  11  13  1   
 25  12  14  1   
 26  12  33  1   
 27  12  34  1   
 28  13  14  1   
 29  13  35  1   
 30  13  36  1   
 31  14  15  1   
 32  14  37  1   
 33  15  16  1   
 34  15  17  1   
 35  15  38  1   
 36  16  18  1   
 37  16  19  1   
 38  16  39  1   
 39  17  20  1   
 40  17  40  1   
 41  17  41  1   
 42  18  21  1   
 43  18  42  1   
 44  18  43  1   
 45  19  44  1   
 46  19  45  1   
 47  19  46  1   
 48  20  21  1   
 49  20  47  1   
 50  20  48  1   
 51  21  49  1   
 52  21  50  1   
@<TRIPOS>SUBSTRUCTURE
  1 ****  12 GROUP 4 **** **** 0

# MOE 2024.06 (io_trps.svl 2023.06)
