@<TRIPOS>MOLECULE
NONAME
51 54 1 0 0 
SMALL
USER_CHARGES


@<TRIPOS>ATOM
  1 O        1.9570    -2.4400    -0.5290 O.2   1 <1>  -0.5700 
  2 C        2.8140    -1.6590    -0.2080 C.2   1 <1>   0.5690 
  3 N        2.6160    -0.6080     0.6010 N.am  1 <1>  -0.7300 
  4 C        4.2440    -1.7180    -0.6600 C.3   1 <1>  -0.0990 
  5 C        3.7920     0.2370     0.7720 C.3   1 <1>   0.3000 
  6 C        4.9260    -0.7100     0.2930 C.3   1 <1>  -0.1860 
  7 C        3.9060     0.6520     2.2370 C.3   1 <1>  -0.1600 
  8 C        3.5540     1.5030    -0.0570 C.3   1 <1>  -0.1600 
  9 C        6.1320     0.0030    -0.2710 C.2   1 <1>   0.9060 
 10 C        5.1110     1.5630     2.4360 C.3   1 <1>   0.3430 
 11 C        4.6680     2.5330     0.1070 C.3   1 <1>   0.3430 
 12 O        6.1280     0.3850    -1.4410 O.co2 1 <1>  -0.9000 
 13 O        7.0050     0.3760     0.5180 O.co2 1 <1>  -0.9000 
 14 N        5.1040     2.7590     1.5300 N.4   1 <1>  -0.9590 
 15 C        6.5130     3.2480     1.4740 C.3   1 <1>   0.5240 
 16 C        6.5770     4.5180     0.6510 C.2   1 <1>  -0.1810 
 17 C        7.0210     4.6080    -0.6660 C.2   1 <1>   0.1080 
 18 C        6.2330     5.7820     0.9820 C.2   1 <1>  -0.3020 
 19 N        6.9430     5.8170    -1.1130 N.2   1 <1>  -0.7070 
 20 C        7.5380     3.4710    -1.5300 C.3   1 <1>  -0.0590 
 21 N        6.4590     6.5750    -0.0970 N.pl3 1 <1>   0.5930 
 22 C        6.2460     7.9820    -0.1920 C.ar  1 <1>  -0.0230 
 23 C        5.2210     8.6070     0.5160 C.ar  1 <1>  -0.1500 
 24 C        7.0650     8.7670    -1.0000 C.ar  1 <1>  -0.1500 
 25 C        5.0300     9.9750     0.4260 C.ar  1 <1>  -0.1500 
 26 C        6.8740    10.1340    -1.0920 C.ar  1 <1>  -0.1500 
 27 C        5.8570    10.7400    -0.3770 C.ar  1 <1>  -0.1500 
 28 H        1.6840    -0.3630     0.9350 H     1 <1>   0.3700 
 29 H        4.2990    -1.3980    -1.6850 H     1 <1>   0.0800 
 30 H        4.6490    -2.7070    -0.5590 H     1 <1>   0.0800 
 31 H        5.2770    -1.2720     1.1390 H     1 <1>   0.0800 
 32 H        4.0260    -0.2210     2.8530 H     1 <1>   0.0800 
 33 H        3.0170     1.1660     2.5530 H     1 <1>   0.0800 
 34 H        2.6240     1.9600     0.2270 H     1 <1>   0.0800 
 35 H        3.4900     1.2450    -1.1000 H     1 <1>   0.0800 
 36 H        6.0020     0.9840     2.2690 H     1 <1>   0.0800 
 37 H        5.1410     1.8900     3.4620 H     1 <1>   0.0800 
 38 H        4.3520     3.4680    -0.3260 H     1 <1>   0.0800 
 39 H        5.5180     2.2160    -0.4690 H     1 <1>   0.0800 
 40 H        4.5250     3.5030     1.9250 H     1 <1>   0.4500 
 41 H        7.1510     2.4990     1.0340 H     1 <1>   0.0800 
 42 H        6.8740     3.4490     2.4680 H     1 <1>   0.0800 
 43 H        5.8550     6.1800     1.9040 H     1 <1>   0.1500 
 44 H        7.8900     2.6460    -0.9370 H     1 <1>   0.0800 
 45 H        8.3510     3.8210    -2.1390 H     1 <1>   0.0800 
 46 H        6.7580     3.1150    -2.1780 H     1 <1>   0.0800 
 47 H        4.5620     8.0310     1.1400 H     1 <1>   0.1500 
 48 H        7.8570     8.3010    -1.5630 H     1 <1>   0.1500 
 49 H        4.2360    10.4480     0.9780 H     1 <1>   0.1500 
 50 H        7.5170    10.7260    -1.7200 H     1 <1>   0.1500 
 51 H        5.7080    11.8040    -0.4480 H     1 <1>   0.1500 
@<TRIPOS>BOND
  1   1   2  2   
  2   2   3  am  
  3   2   4  1   
  4   3   5  1   
  5   3  28  1   
  6   4   6  1   
  7   4  29  1   
  8   4  30  1   
  9   5   6  1   
 10   5   7  1   
 11   5   8  1   
 12   6   9  1   
 13   6  31  1   
 14   7  10  1   
 15   7  32  1   
 16   7  33  1   
 17   8  11  1   
 18   8  34  1   
 19   8  35  1   
 20   9  12  ar  
 21   9  13  ar  
 22  10  14  1   
 23  10  36  1   
 24  10  37  1   
 25  11  14  1   
 26  11  38  1   
 27  11  39  1   
 28  14  15  1   
 29  14  40  1   
 30  15  16  1   
 31  15  41  1   
 32  15  42  1   
 33  16  17  1   
 34  16  18  2   
 35  17  19  2   
 36  17  20  1   
 37  18  21  1   
 38  18  43  1   
 39  19  21  1   
 40  20  44  1   
 41  20  45  1   
 42  20  46  1   
 43  21  22  1   
 44  22  23  ar  
 45  22  24  ar  
 46  23  25  ar  
 47  23  47  1   
 48  24  26  ar  
 49  24  48  1   
 50  25  27  ar  
 51  25  49  1   
 52  26  27  ar  
 53  26  50  1   
 54  27  51  1   
@<TRIPOS>SUBSTRUCTURE
  1 ****  11 GROUP 4 **** **** 0

# MOE 2024.06 (io_trps.svl 2023.06)
