@<TRIPOS>MOLECULE
NONAME
46 49 1 0 0 
SMALL
USER_CHARGES


@<TRIPOS>ATOM
  1 S        1.1890    -1.0190     2.6160 S.3   1 <1>  -0.0800 
  2 C        1.8290    -0.6210     1.0410 C.2   1 <1>  -0.1400 
  3 C        0.6400    -2.5700     2.0250 C.2   1 <1>  -0.1100 
  4 C        1.6350    -1.6200     0.1660 C.2   1 <1>  -0.1810 
  5 C        2.5010     0.7140     0.8080 C.3   1 <1>   0.0200 
  6 C        0.9360    -2.7640     0.7120 C.2   1 <1>  -0.0860 
  7 C        2.1300    -1.5040    -1.2700 C.3   1 <1>   0.0210 
  8 C        2.6640     0.9390    -0.7060 C.3   1 <1>  -0.1600 
  9 C        0.5920    -3.9570    -0.0410 C.2   1 <1>   0.7160 
 10 C        3.1310    -0.3410    -1.4290 C.3   1 <1>  -0.1600 
 11 O        0.4990    -3.9630    -1.2530 O.2   1 <1>  -0.5700 
 12 N        0.3440    -5.1180     0.6260 N.am  1 <1>  -0.7300 
 13 C       -0.0570    -6.3980     0.0040 C.3   1 <1>   0.2200 
 14 C       -1.5600    -6.5670     0.1450 C.3   1 <1>  -0.0800 
 15 C        0.4660    -7.5600     0.8420 C.3   1 <1>   0.1200 
 16 C       -1.6910    -7.1660     1.5510 C.3   1 <1>   0.1200 
 17 C       -2.1280    -7.4970    -0.9430 C.3   1 <1>  -0.0170 
 18 O       -0.4520    -7.7260     1.8800 O.3   1 <1>  -0.5600 
 19 C       -3.6380    -7.6320    -0.8230 C.ar  1 <1>  -0.1430 
 20 C       -4.4880    -6.6130    -1.2020 C.ar  1 <1>  -0.1500 
 21 C       -4.2380    -8.7740    -0.3300 C.ar  1 <1>  -0.1500 
 22 C       -5.8570    -6.7770    -1.0700 C.ar  1 <1>   0.1600 
 23 C       -5.6190    -8.8360    -0.2380 C.ar  1 <1>   0.1600 
 24 N       -6.4430    -7.8640    -0.5940 N.ar  1 <1>  -0.6200 
 25 H        0.1310    -3.1980     2.7320 H     1 <1>   0.1500 
 26 H        1.9100     1.5060     1.2340 H     1 <1>   0.0800 
 27 H        3.4630     0.7070     1.2880 H     1 <1>   0.0800 
 28 H        2.6100    -2.4190    -1.5690 H     1 <1>   0.0800 
 29 H        1.2820    -1.3460    -1.9130 H     1 <1>   0.0800 
 30 H        1.7150     1.2390    -1.1170 H     1 <1>   0.0800 
 31 H        3.3650     1.7360    -0.8770 H     1 <1>   0.0800 
 32 H        4.0790    -0.6430    -1.0180 H     1 <1>   0.0800 
 33 H        3.2760    -0.1380    -2.4750 H     1 <1>   0.0800 
 34 H        0.4180    -5.1370     1.6430 H     1 <1>   0.3700 
 35 H        0.2850    -6.4440    -1.0170 H     1 <1>   0.0800 
 36 H       -2.0640    -5.6180     0.0830 H     1 <1>   0.0800 
 37 H        1.4440    -7.3740     1.2470 H     1 <1>   0.0800 
 38 H        0.4770    -8.4690     0.2670 H     1 <1>   0.0800 
 39 H       -2.4470    -7.9280     1.6160 H     1 <1>   0.0800 
 40 H       -1.9010    -6.3960     2.2730 H     1 <1>   0.0800 
 41 H       -1.6720    -8.4700    -0.8810 H     1 <1>   0.0800 
 42 H       -1.8980    -7.0910    -1.9140 H     1 <1>   0.0800 
 43 H       -4.0990    -5.6930    -1.6000 H     1 <1>   0.1500 
 44 H       -3.6480    -9.6150    -0.0160 H     1 <1>   0.1500 
 45 H       -6.5040    -5.9710    -1.3710 H     1 <1>   0.1500 
 46 H       -6.0690    -9.7340     0.1490 H     1 <1>   0.1500 
@<TRIPOS>BOND
  1   1   2  1   
  2   1   3  1   
  3   2   4  2   
  4   2   5  1   
  5   3   6  2   
  6   3  25  1   
  7   4   6  1   
  8   4   7  1   
  9   5   8  1   
 10   5  26  1   
 11   5  27  1   
 12   6   9  1   
 13   7  10  1   
 14   7  28  1   
 15   7  29  1   
 16   8  10  1   
 17   8  30  1   
 18   8  31  1   
 19   9  11  2   
 20   9  12  am  
 21  10  32  1   
 22  10  33  1   
 23  12  13  1   
 24  12  34  1   
 25  13  14  1   
 26  13  15  1   
 27  13  35  1   
 28  14  16  1   
 29  14  17  1   
 30  14  36  1   
 31  15  18  1   
 32  15  37  1   
 33  15  38  1   
 34  16  18  1   
 35  16  39  1   
 36  16  40  1   
 37  17  19  1   
 38  17  41  1   
 39  17  42  1   
 40  19  20  ar  
 41  19  21  ar  
 42  20  22  ar  
 43  20  43  1   
 44  21  23  ar  
 45  21  44  1   
 46  22  24  ar  
 47  22  45  1   
 48  23  24  ar  
 49  23  46  1   
@<TRIPOS>SUBSTRUCTURE
  1 ****  12 GROUP 4 **** **** 0

# MOE 2024.06 (io_trps.svl 2023.06)
