@<TRIPOS>MOLECULE
NONAME
51 54 1 0 0 
SMALL
USER_CHARGES


@<TRIPOS>ATOM
  1 O       -2.4290     0.1460     0.1150 O.2   1 <1>  -0.5700 
  2 C       -2.5210     1.0550    -0.6940 C.2   1 <1>   0.7150 
  3 N       -3.5500     0.9500    -1.5940 N.am  1 <1>  -0.6600 
  4 C       -1.6840     2.2190    -0.6860 C.2   1 <1>  -0.2370 
  5 C       -4.8740     1.4940    -1.1630 C.3   1 <1>   0.1400 
  6 C       -3.6730    -0.3270    -2.3690 C.3   1 <1>   0.1400 
  7 N       -0.5720     2.3820     0.1070 N.pl3 1 <1>   0.2940 
  8 C       -1.8240     3.3590    -1.4410 C.2   1 <1>  -0.1500 
  9 C       -5.6490     0.4750    -0.2800 C.3   1 <1>   0.4230 
 10 C       -4.6770    -1.3120    -1.7210 C.3   1 <1>   0.3430 
 11 C       -0.0610     3.6110    -0.1470 C.2   1 <1>  -0.3020 
 12 C        0.0150     1.4220     1.0760 C.3   1 <1>  -0.0910 
 13 C       -0.8040     4.2370    -1.0960 C.2   1 <1>  -0.1500 
 14 N       -5.0180    -0.9020    -0.3130 N.4   1 <1>  -0.9590 
 15 C       -7.1410     0.4080    -0.6800 C.3   1 <1>   0.1200 
 16 C        1.5040     1.3100     1.2360 C.3   1 <1>  -0.2000 
 17 C        0.7420     0.2160     0.5580 C.3   1 <1>  -0.2000 
 18 C       -5.8330    -1.8730     0.4860 C.3   1 <1>   0.4230 
 19 O       -7.8210    -0.5350     0.0990 O.3   1 <1>  -0.5600 
 20 C       -7.3160    -1.8420     0.0430 C.3   1 <1>   0.1200 
 21 C       -5.2150    -3.2790     0.4270 C.3   1 <1>  -0.1600 
 22 C       -5.7900    -4.2190     1.4980 C.3   1 <1>  -0.1600 
 23 C       -5.0930    -5.5810     1.4580 C.3   1 <1>  -0.2400 
 24 H       -4.7300     2.4060    -0.6070 H     1 <1>   0.0800 
 25 H       -5.4470     1.7450    -2.0400 H     1 <1>   0.0800 
 26 H       -3.9760    -0.1090    -3.3790 H     1 <1>   0.0800 
 27 H       -2.7070    -0.8010    -2.4230 H     1 <1>   0.0800 
 28 H       -2.5810     3.5650    -2.1790 H     1 <1>   0.1500 
 29 H       -5.6130     0.8390     0.7330 H     1 <1>   0.0800 
 30 H       -4.2400    -2.2970    -1.7290 H     1 <1>   0.0800 
 31 H       -5.5740    -1.3480    -2.3160 H     1 <1>   0.0800 
 32 H        0.8130     3.9820     0.3590 H     1 <1>   0.1500 
 33 H       -0.6050     1.3060     1.9470 H     1 <1>   0.1000 
 34 H       -0.6490     5.2180    -1.5130 H     1 <1>   0.1500 
 35 H       -4.0940    -0.7770     0.1520 H     1 <1>   0.4500 
 36 H       -7.2600     0.1450    -1.7160 H     1 <1>   0.0800 
 37 H       -7.6120     1.3620    -0.5130 H     1 <1>   0.0800 
 38 H        2.1560     1.9200     0.6360 H     1 <1>   0.1000 
 39 H        1.9100     1.1110     2.2130 H     1 <1>   0.1000 
 40 H        0.6270    -0.7210     1.0750 H     1 <1>   0.1000 
 41 H        0.8560     0.0920    -0.5050 H     1 <1>   0.1000 
 42 H       -5.8090    -1.5580     1.5170 H     1 <1>   0.0800 
 43 H       -7.9150    -2.4410     0.7050 H     1 <1>   0.0800 
 44 H       -7.4340    -2.2180    -0.9580 H     1 <1>   0.0800 
 45 H       -5.3810    -3.7200    -0.5400 H     1 <1>   0.0800 
 46 H       -4.1540    -3.1990     0.5920 H     1 <1>   0.0800 
 47 H       -5.6540    -3.7890     2.4770 H     1 <1>   0.0800 
 48 H       -6.8450    -4.3700     1.3440 H     1 <1>   0.0800 
 49 H       -4.0390    -5.4770     1.6460 H     1 <1>   0.0800 
 50 H       -5.2300    -6.0530     0.5000 H     1 <1>   0.0800 
 51 H       -5.5070    -6.2270     2.2140 H     1 <1>   0.0800 
@<TRIPOS>BOND
  1   1   2  2   
  2   2   3  am  
  3   2   4  1   
  4   3   5  1   
  5   3   6  1   
  6   4   7  1   
  7   4   8  2   
  8   5   9  1   
  9   5  24  1   
 10   5  25  1   
 11   6  10  1   
 12   6  26  1   
 13   6  27  1   
 14   7  11  1   
 15   7  12  1   
 16   8  13  1   
 17   8  28  1   
 18   9  14  1   
 19   9  15  1   
 20   9  29  1   
 21  10  14  1   
 22  10  30  1   
 23  10  31  1   
 24  11  13  2   
 25  11  32  1   
 26  12  16  1   
 27  12  17  1   
 28  12  33  1   
 29  13  34  1   
 30  14  18  1   
 31  14  35  1   
 32  15  19  1   
 33  15  36  1   
 34  15  37  1   
 35  16  17  1   
 36  16  38  1   
 37  16  39  1   
 38  17  40  1   
 39  17  41  1   
 40  18  20  1   
 41  18  21  1   
 42  18  42  1   
 43  19  20  1   
 44  20  43  1   
 45  20  44  1   
 46  21  22  1   
 47  21  45  1   
 48  21  46  1   
 49  22  23  1   
 50  22  47  1   
 51  22  48  1   
 52  23  49  1   
 53  23  50  1   
 54  23  51  1   
@<TRIPOS>SUBSTRUCTURE
  1 ****   1 GROUP 4 **** **** 0

# MOE 2024.06 (io_trps.svl 2023.06)
