@<TRIPOS>MOLECULE
NONAME
40 43 1 0 0 
SMALL
USER_CHARGES


@<TRIPOS>ATOM
  1 O        0.7880     2.0010     2.1700 O.co2 1 <1>  -0.9000 
  2 C        0.8590     1.6150     0.9950 C.2   1 <1>   0.9470 
  3 O       -0.1600     1.5370     0.2930 O.co2 1 <1>  -0.9000 
  4 C        2.2380     1.4180     0.3480 C.3   1 <1>  -0.2420 
  5 C        3.1310     0.2070     0.2570 C.3   1 <1>  -0.2420 
  6 C        3.1490     2.6060     0.6350 C.3   1 <1>   0.2050 
  7 C        2.3040     0.6240    -0.9330 C.3   1 <1>  -0.2000 
  8 C        2.9820    -1.2410     0.7380 C.2   1 <1>   0.9470 
  9 C        4.5460     0.7010     0.5100 C.3   1 <1>   0.2050 
 10 N        4.5430     2.1750     0.3700 N.3   1 <1>  -0.8100 
 11 O        2.6960    -2.1230    -0.0860 O.co2 1 <1>  -0.9000 
 12 O        3.3160    -1.5370     1.8930 O.co2 1 <1>  -0.9000 
 13 C        5.0320     2.6190    -0.9530 C.3   1 <1>   0.2910 
 14 C        5.3410     4.1180    -1.0250 C.2   1 <1>   0.3350 
 15 N        4.6050     4.9760    -1.6260 N.2   1 <1>  -0.4100 
 16 N        6.4490     4.6400    -0.4730 N.2   1 <1>  -0.5650 
 17 O        5.2230     6.0830    -1.4440 O.3   1 <1>  -0.0190 
 18 C        6.3140     5.8880    -0.7550 C.2   1 <1>   0.4250 
 19 C        7.1900     6.9870    -0.4110 C.ar  1 <1>   0.0530 
 20 C        8.3290     6.7810     0.3690 C.ar  1 <1>  -0.1500 
 21 C        6.9400     8.2930    -0.8390 C.ar  1 <1>  -0.1500 
 22 C        9.1760     7.8210     0.7030 C.ar  1 <1>  -0.1500 
 23 C        7.7840     9.3360    -0.5070 C.ar  1 <1>  -0.1500 
 24 C        8.9100     9.1080     0.2660 C.ar  1 <1>  -0.1440 
 25 C        9.8370    10.2520     0.6330 C.3   1 <1>  -0.0970 
 26 H        3.0680     2.8610     1.6790 H     1 <1>   0.0800 
 27 H        2.8640     3.4630     0.0510 H     1 <1>   0.0800 
 28 H        2.7720     1.0120    -1.8120 H     1 <1>   0.1000 
 29 H        1.4520     0.0130    -1.1790 H     1 <1>   0.1000 
 30 H        5.2460     0.2260    -0.1530 H     1 <1>   0.0800 
 31 H        4.8160     0.4590     1.5250 H     1 <1>   0.0800 
 32 H        5.9410     2.0930    -1.1820 H     1 <1>   0.0800 
 33 H        4.3150     2.3850    -1.7140 H     1 <1>   0.0800 
 34 H        8.5500     5.7870     0.7180 H     1 <1>   0.1500 
 35 H        6.0730     8.4990    -1.4410 H     1 <1>   0.1500 
 36 H       10.0440     7.6250     1.3080 H     1 <1>   0.1500 
 37 H        7.5610    10.3310    -0.8520 H     1 <1>   0.1500 
 38 H       10.8460     9.8970     0.7440 H     1 <1>   0.0800 
 39 H        9.5200    10.6930     1.5610 H     1 <1>   0.0800 
 40 H        9.8260    11.0060    -0.1330 H     1 <1>   0.0800 
@<TRIPOS>BOND
  1   1   2  ar  
  2   2   3  ar  
  3   2   4  1   
  4   4   5  1   
  5   4   6  1   
  6   4   7  1   
  7   5   7  1   
  8   5   8  1   
  9   5   9  1   
 10   6  10  1   
 11   6  26  1   
 12   6  27  1   
 13   7  28  1   
 14   7  29  1   
 15   8  11  ar  
 16   8  12  ar  
 17   9  10  1   
 18   9  30  1   
 19   9  31  1   
 20  10  13  1   
 21  13  14  1   
 22  13  32  1   
 23  13  33  1   
 24  14  15  2   
 25  14  16  1   
 26  15  17  1   
 27  16  18  2   
 28  17  18  1   
 29  18  19  1   
 30  19  20  ar  
 31  19  21  ar  
 32  20  22  ar  
 33  20  34  1   
 34  21  23  ar  
 35  21  35  1   
 36  22  24  ar  
 37  22  36  1   
 38  23  24  ar  
 39  23  37  1   
 40  24  25  1   
 41  25  38  1   
 42  25  39  1   
 43  25  40  1   
@<TRIPOS>SUBSTRUCTURE
  1 ****  14 GROUP 4 **** **** 0

# MOE 2024.06 (io_trps.svl 2023.06)
