@<TRIPOS>MOLECULE
NONAME
48 49 1 0 0 
SMALL
USER_CHARGES


@<TRIPOS>ATOM
  1 F       -1.0130    -1.6910     1.3560 F     1 <1>  -0.1900 
  2 C       -1.7410    -1.6070     0.2710 C.ar  1 <1>   0.1900 
  3 C       -1.8080    -0.4270    -0.4750 C.ar  1 <1>   0.0820 
  4 C       -2.4370    -2.7490    -0.0780 C.ar  1 <1>  -0.1500 
  5 O       -1.1640     0.7470    -0.2100 O.3   1 <1>  -0.3630 
  6 C       -2.6240    -0.4810    -1.6000 C.ar  1 <1>   0.1900 
  7 C       -3.2600    -2.7740    -1.2070 C.ar  1 <1>   0.0860 
  8 C       -0.2270     0.9120     0.8320 C.3   1 <1>   0.0400 
  9 F       -2.7470     0.5790    -2.3580 F     1 <1>  -0.1900 
 10 C       -3.3300    -1.6090    -1.9710 C.ar  1 <1>  -0.1500 
 11 C       -4.0060    -3.9610    -1.5820 C.2   1 <1>   0.5440 
 12 O       -4.1790    -4.2310    -2.7530 O.2   1 <1>  -0.5700 
 13 N       -4.5750    -4.7940    -0.6520 N.am  1 <1>  -0.6600 
 14 C       -4.5940    -6.2690    -0.9560 C.3   1 <1>   0.3210 
 15 C       -5.3680    -4.2460     0.5010 C.3   1 <1>   0.1400 
 16 C       -5.1660    -7.1450     0.1580 C.2   1 <1>   0.0460 
 17 C       -6.7850    -3.7690     0.1030 C.3   1 <1>   0.3430 
 18 N       -6.5010    -7.2670     0.3400 N.2   1 <1>  -0.5650 
 19 C       -4.4900    -7.8940     1.0600 C.2   1 <1>  -0.3320 
 20 N       -7.5690    -4.7830    -0.6720 N.4   1 <1>  -0.9590 
 21 C       -6.6040    -8.0940     1.3310 C.2   1 <1>   0.0360 
 22 N       -5.4170    -8.5110     1.8150 N.pl3 1 <1>   0.0330 
 23 C       -2.9990    -8.0980     1.2800 C.3   1 <1>  -0.0600 
 24 C       -7.4130    -4.6190    -2.1500 C.3   1 <1>   0.2630 
 25 C       -9.0070    -4.8040    -0.2840 C.3   1 <1>   0.2630 
 26 H       -2.3340    -3.6310     0.5300 H     1 <1>   0.1500 
 27 H        0.1620     1.9130     0.7740 H     1 <1>   0.0800 
 28 H        0.5720     0.2040     0.7020 H     1 <1>   0.0800 
 29 H       -0.7210     0.7690     1.7760 H     1 <1>   0.0800 
 30 H       -3.9320    -1.5850    -2.8630 H     1 <1>   0.1500 
 31 H       -3.5860    -6.5830    -1.1630 H     1 <1>   0.0800 
 32 H       -5.1630    -6.4420    -1.8520 H     1 <1>   0.0800 
 33 H       -4.8470    -3.4050     0.9220 H     1 <1>   0.0800 
 34 H       -5.4430    -4.9700     1.2920 H     1 <1>   0.0800 
 35 H       -6.7040    -2.8610    -0.4720 H     1 <1>   0.0800 
 36 H       -7.3150    -3.5290     1.0100 H     1 <1>   0.0800 
 37 H       -7.1680    -5.7150    -0.4140 H     1 <1>   0.4500 
 38 H       -7.5360    -8.4380     1.7470 H     1 <1>   0.1500 
 39 H       -5.2600    -9.1690     2.5860 H     1 <1>   0.2700 
 40 H       -2.4230    -7.4880     0.6080 H     1 <1>   0.0800 
 41 H       -2.7370    -9.1290     1.1120 H     1 <1>   0.0800 
 42 H       -2.7320    -7.8340     2.2880 H     1 <1>   0.0800 
 43 H       -7.7930    -3.6620    -2.4660 H     1 <1>   0.0800 
 44 H       -7.9510    -5.3950    -2.6690 H     1 <1>   0.0800 
 45 H       -6.3760    -4.6860    -2.4300 H     1 <1>   0.0800 
 46 H       -9.4740    -3.8610    -0.5180 H     1 <1>   0.0800 
 47 H       -9.1040    -4.9900     0.7730 H     1 <1>   0.0800 
 48 H       -9.5220    -5.5880    -0.8150 H     1 <1>   0.0800 
@<TRIPOS>BOND
  1   1   2  1   
  2   2   3  ar  
  3   2   4  ar  
  4   3   5  1   
  5   3   6  ar  
  6   4   7  ar  
  7   4  26  1   
  8   5   8  1   
  9   6   9  1   
 10   6  10  ar  
 11   7  10  ar  
 12   7  11  1   
 13   8  27  1   
 14   8  28  1   
 15   8  29  1   
 16  10  30  1   
 17  11  12  2   
 18  11  13  am  
 19  13  14  1   
 20  13  15  1   
 21  14  16  1   
 22  14  31  1   
 23  14  32  1   
 24  15  17  1   
 25  15  33  1   
 26  15  34  1   
 27  16  18  1   
 28  16  19  2   
 29  17  20  1   
 30  17  35  1   
 31  17  36  1   
 32  18  21  2   
 33  19  22  1   
 34  19  23  1   
 35  20  24  1   
 36  20  25  1   
 37  20  37  1   
 38  21  22  1   
 39  21  38  1   
 40  22  39  1   
 41  23  40  1   
 42  23  41  1   
 43  23  42  1   
 44  24  43  1   
 45  24  44  1   
 46  24  45  1   
 47  25  46  1   
 48  25  47  1   
 49  25  48  1   
@<TRIPOS>SUBSTRUCTURE
  1 ****  13 GROUP 4 **** **** 0

# MOE 2024.06 (io_trps.svl 2023.06)
