@<TRIPOS>MOLECULE
NONAME
50 52 1 0 0 
SMALL
USER_CHARGES


@<TRIPOS>ATOM
  1 CL      -0.4140    -1.3830    -2.0870 Cl    1 <1>  -0.1770 
  2 C       -1.2450    -2.7830    -1.4590 C.ar  1 <1>   0.1770 
  3 C       -1.3970    -3.8990    -2.2590 C.ar  1 <1>  -0.1500 
  4 C       -1.7410    -2.7610    -0.1700 C.ar  1 <1>  -0.1500 
  5 C       -2.0560    -5.0060    -1.7550 C.ar  1 <1>  -0.1500 
  6 C       -2.3950    -3.8770     0.3210 C.ar  1 <1>  -0.1500 
  7 C       -2.5720    -5.0240    -0.4550 C.ar  1 <1>   0.0530 
  8 C       -3.2430    -6.1980     0.0520 C.2   1 <1>   0.0870 
  9 O       -2.9240    -7.3800    -0.4300 O.3   1 <1>  -0.0190 
 10 C       -4.2020    -6.4110     0.9940 C.2   1 <1>  -0.2330 
 11 N       -3.5900    -8.3580     0.1250 N.2   1 <1>  -0.4100 
 12 C       -4.3550    -7.7910     0.9850 C.2   1 <1>   0.3720 
 13 C       -4.9820    -5.5460     1.8250 C.2   1 <1>   1.0330 
 14 N       -5.2370    -8.4920     1.7910 N.pl3 1 <1>  -0.8520 
 15 O       -5.1660    -4.3600     1.5260 O.co2 1 <1>  -0.9000 
 16 O       -5.5480    -6.0070     2.8360 O.co2 1 <1>  -0.9000 
 17 C       -6.6430    -8.5500     1.2720 C.3   1 <1>   0.2090 
 18 C       -6.8790    -9.5950     0.1360 C.3   1 <1>   0.4230 
 19 N       -5.6680   -10.4700    -0.0210 N.4   1 <1>  -0.9590 
 20 C       -7.3370    -8.9410    -1.2020 C.3   1 <1>  -0.0800 
 21 C       -5.4200   -11.1890    -1.2850 C.3   1 <1>   0.3430 
 22 C       -5.4830   -11.4410     1.0800 C.3   1 <1>   0.3430 
 23 C       -6.3410    -7.9350    -1.8110 C.3   1 <1>  -0.2400 
 24 C       -8.7090    -8.2580    -1.0540 C.3   1 <1>  -0.2400 
 25 C       -4.3000   -12.1550    -0.9370 C.3   1 <1>  -0.1600 
 26 C       -4.4460   -12.4310     0.5620 C.3   1 <1>  -0.1600 
 27 H       -1.0050    -3.8950    -3.2590 H     1 <1>   0.1500 
 28 H       -1.6210    -1.8850     0.4390 H     1 <1>   0.1500 
 29 H       -2.1760    -5.8730    -2.3800 H     1 <1>   0.1500 
 30 H       -2.7800    -3.8530     1.3260 H     1 <1>   0.1500 
 31 H       -5.3200    -7.8640     2.6270 H     1 <1>   0.4000 
 32 H       -6.9330    -7.5640     0.9510 H     1 <1>   0.0800 
 33 H       -7.2920    -8.7950     2.0940 H     1 <1>   0.0800 
 34 H       -7.6970   -10.2200     0.4510 H     1 <1>   0.0800 
 35 H       -4.8860    -9.7930     0.1200 H     1 <1>   0.4500 
 36 H       -7.4900    -9.7290    -1.9180 H     1 <1>   0.0800 
 37 H       -5.1330   -10.5170    -2.0770 H     1 <1>   0.0800 
 38 H       -6.3020   -11.7380    -1.5710 H     1 <1>   0.0800 
 39 H       -6.4090   -11.9530     1.2800 H     1 <1>   0.0800 
 40 H       -5.1410   -10.9470     1.9770 H     1 <1>   0.0800 
 41 H       -6.2120    -7.0760    -1.1760 H     1 <1>   0.0800 
 42 H       -6.7020    -7.5860    -2.7630 H     1 <1>   0.0800 
 43 H       -5.3780    -8.3820    -1.9710 H     1 <1>   0.0800 
 44 H       -8.6550    -7.3860    -0.4260 H     1 <1>   0.0800 
 45 H       -9.4320    -8.9380    -0.6390 H     1 <1>   0.0800 
 46 H       -9.0680    -7.9430    -2.0190 H     1 <1>   0.0800 
 47 H       -3.3540   -11.6770    -1.1320 H     1 <1>   0.0800 
 48 H       -4.3610   -13.0520    -1.5270 H     1 <1>   0.0800 
 49 H       -4.7790   -13.4380     0.7470 H     1 <1>   0.0800 
 50 H       -3.5090   -12.2810     1.0690 H     1 <1>   0.0800 
@<TRIPOS>BOND
  1   1   2  1   
  2   2   3  ar  
  3   2   4  ar  
  4   3   5  ar  
  5   3  27  1   
  6   4   6  ar  
  7   4  28  1   
  8   5   7  ar  
  9   5  29  1   
 10   6   7  ar  
 11   6  30  1   
 12   7   8  1   
 13   8   9  1   
 14   8  10  2   
 15   9  11  1   
 16  10  12  1   
 17  10  13  1   
 18  11  12  2   
 19  12  14  1   
 20  13  15  ar  
 21  13  16  ar  
 22  14  17  1   
 23  14  31  1   
 24  17  18  1   
 25  17  32  1   
 26  17  33  1   
 27  18  19  1   
 28  18  20  1   
 29  18  34  1   
 30  19  21  1   
 31  19  22  1   
 32  19  35  1   
 33  20  23  1   
 34  20  24  1   
 35  20  36  1   
 36  21  25  1   
 37  21  37  1   
 38  21  38  1   
 39  22  26  1   
 40  22  39  1   
 41  22  40  1   
 42  23  41  1   
 43  23  42  1   
 44  23  43  1   
 45  24  44  1   
 46  24  45  1   
 47  24  46  1   
 48  25  26  1   
 49  25  47  1   
 50  25  48  1   
 51  26  49  1   
 52  26  50  1   
@<TRIPOS>SUBSTRUCTURE
  1 ****  12 GROUP 4 **** **** 0

# MOE 2024.06 (io_trps.svl 2023.06)
