@<TRIPOS>MOLECULE
NONAME
52 54 1 0 0 
SMALL
USER_CHARGES


@<TRIPOS>ATOM
  1 O       -0.7110    -1.0570     1.2670 O.2   1 <1>  -0.5700 
  2 C        0.2370    -1.6090     0.7490 C.2   1 <1>   0.6900 
  3 N        0.8430    -2.7210     1.3100 N.am  1 <1>  -0.4690 
  4 N        0.7070    -1.1420    -0.4340 N.am  1 <1>  -0.4900 
  5 C        1.9140    -3.3350     0.6690 C.2   1 <1>  -0.0410 
  6 C        0.3550    -3.2750     2.6170 C.3   1 <1>   0.2010 
  7 C        1.7390    -1.7170    -1.1070 C.2   1 <1>   0.6160 
  8 C        2.3670    -2.8630    -0.5170 C.2   1 <1>  -0.1240 
  9 C       -0.0070    -4.7580     2.5260 C.2   1 <1>   0.5690 
 10 O        2.0670    -1.2340    -2.1710 O.2   1 <1>  -0.5700 
 11 C        3.5340    -3.5140    -1.2480 C.3   1 <1>  -0.1020 
 12 O        0.7930    -5.5450     2.9770 O.2   1 <1>  -0.5700 
 13 N       -1.1720    -5.1840     1.9350 N.am  1 <1>  -0.6600 
 14 C       -1.4610    -6.6380     1.7260 C.3   1 <1>   0.1400 
 15 C       -2.1410    -4.3210     1.1960 C.3   1 <1>   0.1400 
 16 C       -1.5650    -6.9600     0.2230 C.3   1 <1>   0.3430 
 17 C       -2.1690    -4.7280    -0.2950 C.3   1 <1>   0.2000 
 18 O       -2.4780    -6.0920    -0.4020 O.3   1 <1>  -0.5600 
 19 C       -2.0100    -8.4050     0.0140 C.ar  1 <1>  -0.1430 
 20 C       -3.1800    -3.9390    -1.1560 C.3   1 <1>  -0.0800 
 21 C       -1.0550    -9.4030    -0.1270 C.ar  1 <1>  -0.1500 
 22 C       -3.3540    -8.7490    -0.0260 C.ar  1 <1>  -0.1500 
 23 C       -2.8050    -2.4530    -1.2640 C.3   1 <1>  -0.2400 
 24 C       -4.6350    -4.0730    -0.6740 C.3   1 <1>  -0.2400 
 25 C       -1.4370   -10.7220    -0.3030 C.ar  1 <1>  -0.1500 
 26 C       -3.7380   -10.0670    -0.2010 C.ar  1 <1>  -0.1500 
 27 C       -2.7790   -11.0550    -0.3390 C.ar  1 <1>  -0.1500 
 28 H        0.2740    -0.3180    -0.8350 H     1 <1>   0.3700 
 29 H        2.3560    -4.1920     1.1550 H     1 <1>   0.1500 
 30 H        1.1340    -3.1600     3.3470 H     1 <1>   0.0800 
 31 H       -0.5010    -2.7310     2.9720 H     1 <1>   0.0800 
 32 H        4.3300    -2.8020    -1.3760 H     1 <1>   0.0800 
 33 H        3.2160    -3.8470    -2.2210 H     1 <1>   0.0800 
 34 H        3.9120    -4.3590    -0.7010 H     1 <1>   0.0800 
 35 H       -0.6930    -7.2500     2.1650 H     1 <1>   0.0800 
 36 H       -2.3910    -6.8890     2.2060 H     1 <1>   0.0800 
 37 H       -3.1190    -4.4520     1.6220 H     1 <1>   0.0800 
 38 H       -1.8860    -3.2850     1.2850 H     1 <1>   0.0800 
 39 H       -0.6060    -6.8150    -0.2410 H     1 <1>   0.0800 
 40 H       -1.1870    -4.5840    -0.7130 H     1 <1>   0.0800 
 41 H       -3.1250    -4.3520    -2.1490 H     1 <1>   0.0800 
 42 H       -0.0070    -9.1590    -0.0990 H     1 <1>   0.1500 
 43 H       -4.1080    -7.9870     0.0770 H     1 <1>   0.1500 
 44 H       -2.8900    -1.9580    -0.3130 H     1 <1>   0.0800 
 45 H       -3.4590    -1.9580    -1.9590 H     1 <1>   0.0800 
 46 H       -1.7960    -2.3480    -1.6220 H     1 <1>   0.0800 
 47 H       -4.7760    -3.6040     0.2830 H     1 <1>   0.0800 
 48 H       -4.9080    -5.1110    -0.5960 H     1 <1>   0.0800 
 49 H       -5.3010    -3.6060    -1.3790 H     1 <1>   0.0800 
 50 H       -0.6910   -11.4880    -0.4110 H     1 <1>   0.1500 
 51 H       -4.7830   -10.3220    -0.2320 H     1 <1>   0.1500 
 52 H       -3.0770   -12.0800    -0.4760 H     1 <1>   0.1500 
@<TRIPOS>BOND
  1   1   2  2   
  2   2   3  am  
  3   2   4  am  
  4   3   5  1   
  5   3   6  1   
  6   4   7  am  
  7   4  28  1   
  8   5   8  2   
  9   5  29  1   
 10   6   9  1   
 11   6  30  1   
 12   6  31  1   
 13   7   8  1   
 14   7  10  2   
 15   8  11  1   
 16   9  12  2   
 17   9  13  am  
 18  11  32  1   
 19  11  33  1   
 20  11  34  1   
 21  13  14  1   
 22  13  15  1   
 23  14  16  1   
 24  14  35  1   
 25  14  36  1   
 26  15  17  1   
 27  15  37  1   
 28  15  38  1   
 29  16  18  1   
 30  16  19  1   
 31  16  39  1   
 32  17  18  1   
 33  17  20  1   
 34  17  40  1   
 35  19  21  ar  
 36  19  22  ar  
 37  20  23  1   
 38  20  24  1   
 39  20  41  1   
 40  21  25  ar  
 41  21  42  1   
 42  22  26  ar  
 43  22  43  1   
 44  23  44  1   
 45  23  45  1   
 46  23  46  1   
 47  24  47  1   
 48  24  48  1   
 49  24  49  1   
 50  25  27  ar  
 51  25  50  1   
 52  26  27  ar  
 53  26  51  1   
 54  27  52  1   
@<TRIPOS>SUBSTRUCTURE
  1 ****  17 GROUP 4 **** **** 0

# MOE 2024.06 (io_trps.svl 2023.06)
