@<TRIPOS>MOLECULE
NONAME
53 56 1 0 0 
SMALL
USER_CHARGES


@<TRIPOS>ATOM
  1 O       -0.5450     0.0870    -0.1660 O.2   1 <1>  -0.5700 
  2 C       -1.6210     0.6360    -0.1750 C.2   1 <1>   0.5690 
  3 N       -2.7740    -0.0700    -0.3700 N.am  1 <1>  -0.6600 
  4 C       -1.6930     2.1420     0.0280 C.3   1 <1>  -0.0990 
  5 C       -4.1460     0.4830    -0.4810 C.3   1 <1>   0.1400 
  6 C       -2.7780    -1.5390    -0.5660 C.3   1 <1>   0.1400 
  7 C       -0.3450     2.7680     0.4050 C.3   1 <1>   0.0210 
  8 C       -5.0110    -0.6970    -0.9260 C.3   1 <1>   0.2000 
  9 C       -4.2490    -1.9520    -0.5030 C.3   1 <1>  -0.0800 
 10 C       -0.3720     4.2740     0.6590 C.2   1 <1>  -0.1810 
 11 O       -6.2570    -0.6700    -0.3200 O.3   1 <1>  -0.6800 
 12 C       -4.5800    -3.1740    -1.3750 C.3   1 <1>  -0.0170 
 13 C       -1.3130     5.2410     0.6020 C.2   1 <1>  -0.0400 
 14 C        0.7700     4.9780     1.0520 C.2   1 <1>   0.1080 
 15 C       -3.8310    -4.4120    -0.8940 C.ar  1 <1>  -0.1440 
 16 O       -0.7440     6.3690     0.9340 O.3   1 <1>  -0.0190 
 17 C       -2.7900     5.3100     0.2600 C.3   1 <1>  -0.0600 
 18 N        0.5150     6.2250     1.2080 N.2   1 <1>  -0.4100 
 19 C        2.1450     4.3830     1.2740 C.3   1 <1>  -0.0590 
 20 C       -4.2510    -5.1610     0.2320 C.ar  1 <1>   0.0000 
 21 C       -2.7100    -4.8330    -1.5470 C.ar  1 <1>  -0.1500 
 22 C       -3.4670    -6.2800     0.6070 C.ar  1 <1>   0.3100 
 23 C       -5.3990    -4.8670     1.0060 C.ar  1 <1>  -0.1500 
 24 C       -2.0120    -5.9600    -1.0970 C.ar  1 <1>   0.1600 
 25 N       -2.3550    -6.6660    -0.0670 N.ar  1 <1>  -0.6200 
 26 C       -3.8510    -7.0330     1.7280 C.ar  1 <1>  -0.1500 
 27 C       -5.7460    -5.6240     2.0920 C.ar  1 <1>  -0.1500 
 28 C       -4.9640    -6.7200     2.4610 C.ar  1 <1>  -0.1500 
 29 H       -2.0390     2.5830    -0.8880 H     1 <1>   0.0800 
 30 H       -2.3970     2.3430     0.8120 H     1 <1>   0.0800 
 31 H       -4.4610     0.8460     0.4820 H     1 <1>   0.0800 
 32 H       -4.1790     1.2720    -1.2110 H     1 <1>   0.0800 
 33 H       -2.3530    -1.7590    -1.5300 H     1 <1>   0.0800 
 34 H       -2.1960    -2.0300     0.1970 H     1 <1>   0.0800 
 35 H        0.3600     2.5700    -0.3840 H     1 <1>   0.0800 
 36 H        0.0200     2.2820     1.2930 H     1 <1>   0.0800 
 37 H       -5.1510    -0.6630    -1.9930 H     1 <1>   0.0800 
 38 H       -4.4680    -2.1700     0.5270 H     1 <1>   0.0800 
 39 H       -6.1690    -0.7630     0.6480 H     1 <1>   0.4000 
 40 H       -4.3130    -2.9660    -2.3970 H     1 <1>   0.0800 
 41 H       -5.6400    -3.3600    -1.3660 H     1 <1>   0.0800 
 42 H       -3.1920     4.3580    -0.0150 H     1 <1>   0.0800 
 43 H       -2.9320     5.9910    -0.5600 H     1 <1>   0.0800 
 44 H       -3.3340     5.6810     1.1100 H     1 <1>   0.0800 
 45 H        2.4910     3.9140     0.3720 H     1 <1>   0.0800 
 46 H        2.1060     3.6560     2.0630 H     1 <1>   0.0800 
 47 H        2.8380     5.1570     1.5500 H     1 <1>   0.0800 
 48 H       -2.3330    -4.3190    -2.4120 H     1 <1>   0.1500 
 49 H       -6.0180    -4.0330     0.7380 H     1 <1>   0.1500 
 50 H       -1.1310    -6.2560    -1.6420 H     1 <1>   0.1500 
 51 H       -3.2350    -7.8730     1.9910 H     1 <1>   0.1500 
 52 H       -6.6230    -5.3900     2.6720 H     1 <1>   0.1500 
 53 H       -5.2450    -7.3080     3.3180 H     1 <1>   0.1500 
@<TRIPOS>BOND
  1   1   2  2   
  2   2   3  am  
  3   2   4  1   
  4   3   5  1   
  5   3   6  1   
  6   4   7  1   
  7   4  29  1   
  8   4  30  1   
  9   5   8  1   
 10   5  31  1   
 11   5  32  1   
 12   6   9  1   
 13   6  33  1   
 14   6  34  1   
 15   7  10  1   
 16   7  35  1   
 17   7  36  1   
 18   8   9  1   
 19   8  11  1   
 20   8  37  1   
 21   9  12  1   
 22   9  38  1   
 23  10  13  2   
 24  10  14  1   
 25  11  39  1   
 26  12  15  1   
 27  12  40  1   
 28  12  41  1   
 29  13  16  1   
 30  13  17  1   
 31  14  18  2   
 32  14  19  1   
 33  15  20  ar  
 34  15  21  ar  
 35  16  18  1   
 36  17  42  1   
 37  17  43  1   
 38  17  44  1   
 39  19  45  1   
 40  19  46  1   
 41  19  47  1   
 42  20  22  ar  
 43  20  23  ar  
 44  21  24  ar  
 45  21  48  1   
 46  22  25  ar  
 47  22  26  ar  
 48  23  27  ar  
 49  23  49  1   
 50  24  25  ar  
 51  24  50  1   
 52  26  28  ar  
 53  26  51  1   
 54  27  28  ar  
 55  27  52  1   
 56  28  53  1   
@<TRIPOS>SUBSTRUCTURE
  1 ****   3 GROUP 4 **** **** 0

# MOE 2024.06 (io_trps.svl 2023.06)
