@<TRIPOS>MOLECULE
NONAME
30 31 1 0 0 
SMALL
USER_CHARGES


@<TRIPOS>ATOM
  1 S       -0.1560    -0.1170     0.9800 S.3   1 <1>  -0.0800 
  2 C       -1.5660    -0.7840     0.1850 C.2   1 <1>   0.1980 
  3 C        0.7790    -1.4580     0.3880 C.2   1 <1>  -0.1100 
  4 N       -1.3470    -1.8750    -0.4360 N.2   1 <1>  -0.5650 
  5 C       -2.8600    -0.0070     0.3320 C.3   1 <1>   0.0200 
  6 C       -0.0220    -2.2610    -0.3270 C.2   1 <1>   0.0460 
  7 C       -3.9540    -0.5460    -0.5920 C.3   1 <1>   0.1400 
  8 C        0.3760    -3.5410    -1.0260 C.3   1 <1>  -0.0590 
  9 N       -5.2510     0.1310    -0.2950 N.am  1 <1>  -0.4690 
 10 C       -5.4970     1.3900    -0.8710 C.2   1 <1>   0.6160 
 11 C       -6.2110    -0.4170     0.5650 C.2   1 <1>  -0.0290 
 12 O       -4.6290     1.8820    -1.6200 O.2   1 <1>  -0.5700 
 13 C       -6.6810     2.0630    -0.5840 C.2   1 <1>  -0.1360 
 14 C       -7.3590     0.2570     0.8350 C.2   1 <1>  -0.1500 
 15 C       -5.9640    -1.7760     1.2010 C.3   1 <1>  -0.1020 
 16 C       -7.6340     1.5280     0.2660 C.2   1 <1>  -0.1500 
 17 O       -8.6910     2.1190     0.5370 O.3   1 <1>  -0.8500 
 18 H        1.8230    -1.4980     0.6390 H     1 <1>   0.1500 
 19 H       -2.6760     1.0250     0.0940 H     1 <1>   0.0800 
 20 H       -3.1860    -0.0740     1.3530 H     1 <1>   0.0800 
 21 H       -4.0490    -1.6080    -0.4710 H     1 <1>   0.0800 
 22 H       -3.6790    -0.3710    -1.6180 H     1 <1>   0.0800 
 23 H        1.4210    -3.7420    -0.8770 H     1 <1>   0.0800 
 24 H        0.1820    -3.4530    -2.0790 H     1 <1>   0.0800 
 25 H       -0.1990    -4.3600    -0.6330 H     1 <1>   0.0800 
 26 H       -6.8650     3.0190    -1.0240 H     1 <1>   0.1500 
 27 H       -8.1240    -0.1200     1.4860 H     1 <1>   0.1500 
 28 H       -5.0520    -1.7620     1.7700 H     1 <1>   0.0800 
 29 H       -5.9050    -2.5320     0.4410 H     1 <1>   0.0800 
 30 H       -6.7710    -2.0290     1.8650 H     1 <1>   0.0800 
@<TRIPOS>BOND
  1   1   2  1   
  2   1   3  1   
  3   2   4  2   
  4   2   5  1   
  5   3   6  2   
  6   3  18  1   
  7   4   6  1   
  8   5   7  1   
  9   5  19  1   
 10   5  20  1   
 11   6   8  1   
 12   7   9  1   
 13   7  21  1   
 14   7  22  1   
 15   8  23  1   
 16   8  24  1   
 17   8  25  1   
 18   9  10  am  
 19   9  11  1   
 20  10  12  2   
 21  10  13  1   
 22  11  14  2   
 23  11  15  1   
 24  13  16  2   
 25  13  26  1   
 26  14  16  1   
 27  14  27  1   
 28  15  28  1   
 29  15  29  1   
 30  15  30  1   
 31  16  17  1   
@<TRIPOS>SUBSTRUCTURE
  1 ****   7 GROUP 4 **** **** 0

# MOE 2024.06 (io_trps.svl 2023.06)
