@<TRIPOS>MOLECULE
NONAME
39 40 1 0 0 
SMALL
USER_CHARGES


@<TRIPOS>ATOM
  1 O        0.5030     1.4540    -2.8460 O.3   1 <1>  -0.6800 
  2 C        0.9160     0.7640    -1.7200 C.3   1 <1>   0.1200 
  3 C        2.4300     0.5470    -1.8310 C.3   1 <1>   0.3430 
  4 N        2.9230    -0.4440    -0.8300 N.4   1 <1>  -0.9590 
  5 C        4.3380    -0.2240    -0.4360 C.3   1 <1>   0.4860 
  6 C        2.6290    -1.8680    -1.1650 C.3   1 <1>   0.5240 
  7 C        4.4500     1.0830     0.3210 C.ar  1 <1>  -0.1430 
  8 C        3.0330    -2.7720    -0.0010 C.2   1 <1>   0.0460 
  9 C        3.6020     1.3690     1.3960 C.ar  1 <1>   0.4100 
 10 C        5.3960     2.0160    -0.0480 C.ar  1 <1>  -0.1500 
 11 N        2.8180    -2.3970     1.2800 N.2   1 <1>  -0.5650 
 12 C        3.6370    -3.9800    -0.0480 C.2   1 <1>  -0.3020 
 13 N        3.6320     2.4880     2.0860 N.ar  1 <1>  -0.6200 
 14 N        2.6270     0.5230     1.8260 N.pl3 1 <1>  -0.9000 
 15 C        5.4370     3.1890     0.6790 C.ar  1 <1>  -0.1500 
 16 C        3.2800    -3.3830     1.9780 C.2   1 <1>   0.0060 
 17 N        3.7930    -4.3810     1.2270 N.pl3 1 <1>   0.0330 
 18 C        4.5460     3.3700     1.7200 C.ar  1 <1>   0.1600 
 19 C        3.2530    -3.4360     3.4920 C.3   1 <1>  -0.0600 
 20 H       -0.4440     1.7040    -2.7870 H     1 <1>   0.4000 
 21 H        0.3800    -0.1680    -1.6940 H     1 <1>   0.0800 
 22 H        0.6810     1.3560    -0.8510 H     1 <1>   0.0800 
 23 H        2.9110     1.4980    -1.6680 H     1 <1>   0.0800 
 24 H        2.6690     0.2100    -2.8260 H     1 <1>   0.0800 
 25 H        2.4290    -0.2660     0.0690 H     1 <1>   0.4500 
 26 H        4.9710    -0.2070    -1.3080 H     1 <1>   0.0800 
 27 H        4.6730    -1.0180     0.2130 H     1 <1>   0.0800 
 28 H        3.1570    -2.1640    -2.0550 H     1 <1>   0.0800 
 29 H        1.5730    -1.9880    -1.3370 H     1 <1>   0.0800 
 30 H        6.0830     1.8590    -0.8630 H     1 <1>   0.1500 
 31 H        3.9550    -4.5740    -0.8880 H     1 <1>   0.1500 
 32 H        2.1520     0.9350     2.6370 H     1 <1>   0.4000 
 33 H        2.9110    -0.4440     2.0550 H     1 <1>   0.4000 
 34 H        6.1530     3.9560     0.4430 H     1 <1>   0.1500 
 35 H        4.2050    -5.2580     1.5660 H     1 <1>   0.2700 
 36 H        4.5860     4.2900     2.2810 H     1 <1>   0.1500 
 37 H        2.7790    -2.5540     3.8850 H     1 <1>   0.0800 
 38 H        4.2540    -3.4900     3.8800 H     1 <1>   0.0800 
 39 H        2.6990    -4.2950     3.8220 H     1 <1>   0.0800 
@<TRIPOS>BOND
  1   1   2  1   
  2   1  20  1   
  3   2   3  1   
  4   2  21  1   
  5   2  22  1   
  6   3   4  1   
  7   3  23  1   
  8   3  24  1   
  9   4   5  1   
 10   4   6  1   
 11   4  25  1   
 12   5   7  1   
 13   5  26  1   
 14   5  27  1   
 15   6   8  1   
 16   6  28  1   
 17   6  29  1   
 18   7   9  ar  
 19   7  10  ar  
 20   8  11  1   
 21   8  12  2   
 22   9  13  ar  
 23   9  14  1   
 24  10  15  ar  
 25  10  30  1   
 26  11  16  2   
 27  12  17  1   
 28  12  31  1   
 29  13  18  ar  
 30  14  32  1   
 31  14  33  1   
 32  15  18  ar  
 33  15  34  1   
 34  16  17  1   
 35  16  19  1   
 36  17  35  1   
 37  18  36  1   
 38  19  37  1   
 39  19  38  1   
 40  19  39  1   
@<TRIPOS>SUBSTRUCTURE
  1 ****   4 GROUP 4 **** **** 0

# MOE 2024.06 (io_trps.svl 2023.06)
