@<TRIPOS>MOLECULE
NONAME
45 47 1 0 0 
SMALL
USER_CHARGES


@<TRIPOS>ATOM
  1 CL      -0.6590    -0.8400    -1.9710 Cl    1 <1>  -0.1770 
  2 C       -1.7960    -1.3320    -0.7340 C.ar  1 <1>   0.1770 
  3 C       -2.0490    -2.6770    -0.4320 C.ar  1 <1>   0.0820 
  4 C       -2.4690    -0.3170    -0.0820 C.ar  1 <1>  -0.1500 
  5 O       -1.4200    -3.7320    -1.0230 O.3   1 <1>  -0.3630 
  6 C       -3.0220    -2.9870     0.5190 C.ar  1 <1>  -0.1440 
  7 C       -3.4150    -0.6480     0.8670 C.ar  1 <1>   0.1770 
  8 C       -0.0170    -3.7130    -1.2140 C.3   1 <1>   0.0400 
  9 C       -3.7000    -1.9660     1.1710 C.ar  1 <1>  -0.1500 
 10 C       -3.3450    -4.4350     0.8470 C.3   1 <1>   0.4870 
 11 CL      -4.2770     0.6200     1.6960 Cl    1 <1>  -0.1770 
 12 N       -3.8420    -5.1040    -0.3830 N.4   1 <1>  -0.9590 
 13 C       -5.1740    -4.5580    -0.7940 C.3   1 <1>   0.3430 
 14 C       -4.0170    -6.5720    -0.1650 C.3   1 <1>   0.3430 
 15 C       -6.2050    -5.5440    -0.2390 C.3   1 <1>   0.2000 
 16 C       -5.4960    -6.8850    -0.4260 C.3   1 <1>  -0.0800 
 17 O       -6.3730    -5.2810     1.1190 O.3   1 <1>  -0.6800 
 18 C       -6.0200    -8.0630     0.4180 C.3   1 <1>  -0.0170 
 19 C       -5.1330    -9.2810     0.2220 C.ar  1 <1>  -0.1430 
 20 C       -4.2810    -9.7320     1.2120 C.ar  1 <1>  -0.1500 
 21 C       -5.1290    -9.9980    -0.9580 C.ar  1 <1>  -0.1500 
 22 C       -3.4750   -10.8330     0.9730 C.ar  1 <1>   0.1600 
 23 C       -4.2830   -11.0860    -1.0960 C.ar  1 <1>   0.1600 
 24 N       -3.4500   -11.5110    -0.1610 N.ar  1 <1>  -0.6200 
 25 H       -2.2670     0.7130    -0.3140 H     1 <1>   0.1500 
 26 H        0.3470    -4.7230    -1.1560 H     1 <1>   0.0800 
 27 H        0.4460    -3.1150    -0.4480 H     1 <1>   0.0800 
 28 H        0.1990    -3.3140    -2.1890 H     1 <1>   0.0800 
 29 H       -4.4510    -2.1730     1.9150 H     1 <1>   0.1500 
 30 H       -4.0900    -4.4850     1.6250 H     1 <1>   0.0800 
 31 H       -2.4490    -4.9230     1.1940 H     1 <1>   0.0800 
 32 H       -3.1280    -4.9040    -1.1040 H     1 <1>   0.4500 
 33 H       -5.3450    -3.5610    -0.4220 H     1 <1>   0.0800 
 34 H       -5.2390    -4.5490    -1.8690 H     1 <1>   0.0800 
 35 H       -3.3860    -7.1460    -0.8250 H     1 <1>   0.0800 
 36 H       -3.7740    -6.8250     0.8540 H     1 <1>   0.0800 
 37 H       -7.1580    -5.4730    -0.7360 H     1 <1>   0.0800 
 38 H       -5.5790    -7.1590    -1.4640 H     1 <1>   0.0800 
 39 H       -7.1980    -5.6910     1.4580 H     1 <1>   0.4000 
 40 H       -7.0270    -8.3050     0.1260 H     1 <1>   0.0800 
 41 H       -6.0360    -7.8060     1.4630 H     1 <1>   0.0800 
 42 H       -4.2330    -9.2480     2.1710 H     1 <1>   0.1500 
 43 H       -5.7750    -9.7300    -1.7740 H     1 <1>   0.1500 
 44 H       -2.8180   -11.1750     1.7540 H     1 <1>   0.1500 
 45 H       -4.2910   -11.6360    -2.0220 H     1 <1>   0.1500 
@<TRIPOS>BOND
  1   1   2  1   
  2   2   3  ar  
  3   2   4  ar  
  4   3   5  1   
  5   3   6  ar  
  6   4   7  ar  
  7   4  25  1   
  8   5   8  1   
  9   6   9  ar  
 10   6  10  1   
 11   7   9  ar  
 12   7  11  1   
 13   8  26  1   
 14   8  27  1   
 15   8  28  1   
 16   9  29  1   
 17  10  12  1   
 18  10  30  1   
 19  10  31  1   
 20  12  13  1   
 21  12  14  1   
 22  12  32  1   
 23  13  15  1   
 24  13  33  1   
 25  13  34  1   
 26  14  16  1   
 27  14  35  1   
 28  14  36  1   
 29  15  16  1   
 30  15  17  1   
 31  15  37  1   
 32  16  18  1   
 33  16  38  1   
 34  17  39  1   
 35  18  19  1   
 36  18  40  1   
 37  18  41  1   
 38  19  20  ar  
 39  19  21  ar  
 40  20  22  ar  
 41  20  42  1   
 42  21  23  ar  
 43  21  43  1   
 44  22  24  ar  
 45  22  44  1   
 46  23  24  ar  
 47  23  45  1   
@<TRIPOS>SUBSTRUCTURE
  1 ****  12 GROUP 4 **** **** 0

# MOE 2024.06 (io_trps.svl 2023.06)
