@<TRIPOS>MOLECULE
NONAME
47 49 1 0 0 
SMALL
USER_CHARGES


@<TRIPOS>ATOM
  1 O        0.5050    -0.1020    -1.8000 O.2   1 <1>  -0.5700 
  2 C        1.3640     0.4220    -1.1100 C.2   1 <1>   0.5440 
  3 N        1.1120     1.6670    -0.5770 N.am  1 <1>  -0.6600 
  4 C        2.6090    -0.2640    -0.8610 C.ar  1 <1>   0.0860 
  5 C        1.8260     2.2230     0.5960 C.3   1 <1>   0.1400 
  6 C       -0.1520     2.4010    -0.8190 C.3   1 <1>   0.1400 
  7 C        2.6210    -1.5590    -0.3100 C.ar  1 <1>   0.4100 
  8 C        3.8300     0.3290    -1.1500 C.ar  1 <1>  -0.1500 
  9 C        1.0530     3.4830     0.9690 C.3   1 <1>  -0.1600 
 10 C       -0.3550     3.2500     0.4300 C.3   1 <1>  -0.1600 
 11 N        3.7330    -2.2320    -0.0220 N.ar  1 <1>  -0.6200 
 12 N        1.4420    -2.2060    -0.0380 N.pl3 1 <1>  -0.8690 
 13 C        4.9790    -0.3720    -0.8620 C.ar  1 <1>  -0.1500 
 14 C        4.8730    -1.6330    -0.3020 C.ar  1 <1>   0.1600 
 15 C        1.3610    -3.6570     0.2490 C.3   1 <1>   0.3890 
 16 C       -0.0900    -4.1060     0.3300 C.2   1 <1>  -0.0400 
 17 O       -0.3440    -5.3830     0.5200 O.3   1 <1>  -0.2800 
 18 C       -1.2490    -3.4150     0.2450 C.2   1 <1>  -0.1500 
 19 C       -1.6610    -5.5720     0.5630 C.2   1 <1>   0.0550 
 20 C       -2.2640    -4.3600     0.3970 C.2   1 <1>  -0.1500 
 21 C       -2.2210    -6.8940     0.7650 C.2   1 <1>   0.7150 
 22 O       -1.6600    -7.6930     1.4960 O.2   1 <1>  -0.5700 
 23 N       -3.4040    -7.2860     0.1540 N.am  1 <1>  -0.6600 
 24 C       -4.1240    -8.5210     0.5750 C.3   1 <1>   0.0600 
 25 C       -3.9350    -6.6520    -1.0840 C.3   1 <1>   0.0600 
 26 H        2.8490     2.4540     0.3560 H     1 <1>   0.0800 
 27 H        1.7920     1.5080     1.4010 H     1 <1>   0.0800 
 28 H       -0.9770     1.7250    -0.9740 H     1 <1>   0.0800 
 29 H       -0.0320     3.0250    -1.6870 H     1 <1>   0.0800 
 30 H        3.8680     1.3100    -1.5910 H     1 <1>   0.1500 
 31 H        1.4980     4.3270     0.4710 H     1 <1>   0.0800 
 32 H        1.0620     3.6580     2.0300 H     1 <1>   0.0800 
 33 H       -0.9320     2.6860     1.1430 H     1 <1>   0.0800 
 34 H       -0.8700     4.1680     0.2100 H     1 <1>   0.0800 
 35 H        0.6380    -1.8600    -0.5780 H     1 <1>   0.4000 
 36 H        5.9470     0.0470    -1.0680 H     1 <1>   0.1500 
 37 H        5.7760    -2.1740    -0.0750 H     1 <1>   0.1500 
 38 H        1.8560    -3.8650     1.1830 H     1 <1>   0.0800 
 39 H        1.8610    -4.2040    -0.5310 H     1 <1>   0.0800 
 40 H       -1.3910    -2.3580     0.0970 H     1 <1>   0.1500 
 41 H       -3.3170    -4.1450     0.3910 H     1 <1>   0.1500 
 42 H       -3.8300    -8.8110     1.5700 H     1 <1>   0.0800 
 43 H       -3.8900    -9.3250    -0.1010 H     1 <1>   0.0800 
 44 H       -5.1850    -8.3480     0.5710 H     1 <1>   0.0800 
 45 H       -3.1860    -6.0360    -1.5500 H     1 <1>   0.0800 
 46 H       -4.7930    -6.0490    -0.8430 H     1 <1>   0.0800 
 47 H       -4.2270    -7.4130    -1.7870 H     1 <1>   0.0800 
@<TRIPOS>BOND
  1   1   2  2   
  2   2   3  am  
  3   2   4  1   
  4   3   5  1   
  5   3   6  1   
  6   4   7  ar  
  7   4   8  ar  
  8   5   9  1   
  9   5  26  1   
 10   5  27  1   
 11   6  10  1   
 12   6  28  1   
 13   6  29  1   
 14   7  11  ar  
 15   7  12  1   
 16   8  13  ar  
 17   8  30  1   
 18   9  10  1   
 19   9  31  1   
 20   9  32  1   
 21  10  33  1   
 22  10  34  1   
 23  11  14  ar  
 24  12  15  1   
 25  12  35  1   
 26  13  14  ar  
 27  13  36  1   
 28  14  37  1   
 29  15  16  1   
 30  15  38  1   
 31  15  39  1   
 32  16  17  1   
 33  16  18  2   
 34  17  19  1   
 35  18  20  1   
 36  18  40  1   
 37  19  20  2   
 38  19  21  1   
 39  20  41  1   
 40  21  22  2   
 41  21  23  am  
 42  23  24  1   
 43  23  25  1   
 44  24  42  1   
 45  24  43  1   
 46  24  44  1   
 47  25  45  1   
 48  25  46  1   
 49  25  47  1   
@<TRIPOS>SUBSTRUCTURE
  1 ****  12 GROUP 4 **** **** 0

# MOE 2024.06 (io_trps.svl 2023.06)
