@<TRIPOS>MOLECULE
NONAME
59 61 1 0 0 
SMALL
USER_CHARGES


@<TRIPOS>ATOM
  1 O       -0.3560    -0.6970    -0.9650 O.2   1 <1>  -0.5700 
  2 C       -0.9760     0.3460    -0.9090 C.2   1 <1>   0.5690 
  3 N       -2.3440     0.3040    -1.1280 N.am  1 <1>  -0.6600 
  4 C       -0.1910     1.6580    -0.5760 C.3   1 <1>   0.3410 
  5 C       -3.0090    -0.9980    -1.4040 C.3   1 <1>   0.1400 
  6 C       -3.3210     1.3570    -0.7260 C.3   1 <1>   0.1400 
  7 O       -0.7940     2.2470     0.5810 O.3   1 <1>  -0.3630 
  8 C        1.2890     1.3720    -0.2430 C.3   1 <1>  -0.2400 
  9 C       -0.2440     2.6300    -1.7710 C.3   1 <1>  -0.2400 
 10 C       -3.6440    -1.5010    -0.0890 C.3   1 <1>   0.4230 
 11 C       -3.9770     0.9100     0.5880 C.3   1 <1>  -0.1600 
 12 C       -0.3800     3.4320     1.0890 C.ar  1 <1>   0.0820 
 13 N       -4.1570    -2.9330    -0.1550 N.4   1 <1>  -0.9590 
 14 C       -4.6720    -0.4820     0.4920 C.3   1 <1>   0.0000 
 15 C       -0.9280     4.6190     0.6270 C.ar  1 <1>  -0.1500 
 16 C        0.5540     3.4500     2.1120 C.ar  1 <1>  -0.1500 
 17 C       -5.1150    -3.2900     0.9420 C.3   1 <1>   0.3430 
 18 C       -4.7120    -3.3620    -1.4820 C.3   1 <1>   0.2630 
 19 C       -5.0840    -0.9360     1.9240 C.3   1 <1>  -0.1600 
 20 C       -5.9220    -0.3980    -0.4300 C.3   1 <1>   0.1200 
 21 C       -0.5190     5.8300     1.1600 C.ar  1 <1>  -0.1440 
 22 C        0.9630     4.6570     2.6480 C.ar  1 <1>  -0.1500 
 23 C       -4.8650    -2.4390     2.1870 C.3   1 <1>  -0.1600 
 24 O       -6.7630     0.6400    -0.0660 O.3   1 <1>  -0.6800 
 25 C        0.4300     5.8430     2.1710 C.ar  1 <1>  -0.1500 
 26 C       -1.1080     7.1330     0.6500 C.3   1 <1>  -0.0970 
 27 H       -3.7450    -0.8540    -2.1720 H     1 <1>   0.0800 
 28 H       -2.2920    -1.7160    -1.7620 H     1 <1>   0.0800 
 29 H       -2.8490     2.3110    -0.5890 H     1 <1>   0.0800 
 30 H       -4.0630     1.4780    -1.4960 H     1 <1>   0.0800 
 31 H        1.7590     0.8670    -1.0680 H     1 <1>   0.0800 
 32 H        1.3580     0.7360     0.6210 H     1 <1>   0.0800 
 33 H        1.8320     2.2820    -0.0650 H     1 <1>   0.0800 
 34 H        0.1590     2.1450    -2.6420 H     1 <1>   0.0800 
 35 H        0.3500     3.5060    -1.5820 H     1 <1>   0.0800 
 36 H       -1.2510     2.9230    -1.9940 H     1 <1>   0.0800 
 37 H       -2.8310    -1.5100     0.6180 H     1 <1>   0.0800 
 38 H       -3.2020     0.8850     1.3350 H     1 <1>   0.0800 
 39 H       -4.6740     1.6670     0.9010 H     1 <1>   0.0800 
 40 H       -3.3140    -3.5060     0.0090 H     1 <1>   0.4500 
 41 H       -1.6730     4.5920    -0.1460 H     1 <1>   0.1500 
 42 H        0.9550     2.5260     2.4850 H     1 <1>   0.1500 
 43 H       -6.1270    -3.1210     0.6120 H     1 <1>   0.0800 
 44 H       -5.0170    -4.3360     1.1890 H     1 <1>   0.0800 
 45 H       -5.5750    -2.7710    -1.7400 H     1 <1>   0.0800 
 46 H       -5.0050    -4.3990    -1.4460 H     1 <1>   0.0800 
 47 H       -3.9700    -3.2490    -2.2570 H     1 <1>   0.0800 
 48 H       -4.5230    -0.3970     2.6680 H     1 <1>   0.0800 
 49 H       -6.1180    -0.6980     2.1040 H     1 <1>   0.0800 
 50 H       -6.5000    -1.3030    -0.3950 H     1 <1>   0.0800 
 51 H       -5.6460    -0.2130    -1.4530 H     1 <1>   0.0800 
 52 H        1.6940     4.6760     3.4390 H     1 <1>   0.1500 
 53 H       -5.5270    -2.7590     2.9740 H     1 <1>   0.0800 
 54 H       -3.8600    -2.6110     2.5350 H     1 <1>   0.0800 
 55 H       -7.0940     0.5460     0.8490 H     1 <1>   0.4000 
 56 H        0.7540     6.7780     2.5940 H     1 <1>   0.1500 
 57 H       -0.3690     7.9140     0.6770 H     1 <1>   0.0800 
 58 H       -1.9400     7.4210     1.2670 H     1 <1>   0.0800 
 59 H       -1.4490     7.0240    -0.3640 H     1 <1>   0.0800 
@<TRIPOS>BOND
  1   1   2  2   
  2   2   3  am  
  3   2   4  1   
  4   3   5  1   
  5   3   6  1   
  6   4   7  1   
  7   4   8  1   
  8   4   9  1   
  9   5  10  1   
 10   5  27  1   
 11   5  28  1   
 12   6  11  1   
 13   6  29  1   
 14   6  30  1   
 15   7  12  1   
 16   8  31  1   
 17   8  32  1   
 18   8  33  1   
 19   9  34  1   
 20   9  35  1   
 21   9  36  1   
 22  10  13  1   
 23  10  14  1   
 24  10  37  1   
 25  11  14  1   
 26  11  38  1   
 27  11  39  1   
 28  12  15  ar  
 29  12  16  ar  
 30  13  17  1   
 31  13  18  1   
 32  13  40  1   
 33  14  19  1   
 34  14  20  1   
 35  15  21  ar  
 36  15  41  1   
 37  16  22  ar  
 38  16  42  1   
 39  17  23  1   
 40  17  43  1   
 41  17  44  1   
 42  18  45  1   
 43  18  46  1   
 44  18  47  1   
 45  19  23  1   
 46  19  48  1   
 47  19  49  1   
 48  20  24  1   
 49  20  50  1   
 50  20  51  1   
 51  21  25  ar  
 52  21  26  1   
 53  22  25  ar  
 54  22  52  1   
 55  23  53  1   
 56  23  54  1   
 57  24  55  1   
 58  25  56  1   
 59  26  57  1   
 60  26  58  1   
 61  26  59  1   
@<TRIPOS>SUBSTRUCTURE
  1 ****   6 GROUP 4 **** **** 0

# MOE 2024.06 (io_trps.svl 2023.06)
