@<TRIPOS>MOLECULE
NONAME
50 52 1 0 0 
SMALL
USER_CHARGES


@<TRIPOS>ATOM
  1 S       -0.0400    -0.8950     0.8420 S.o2  1 <1>   1.5760 
  2 O       -1.1920    -0.5040     1.6190 O.2   1 <1>  -0.6500 
  3 O        0.6630    -2.1320     1.0820 O.2   1 <1>  -0.6500 
  4 N        1.0670     0.3750     0.8360 N.am  1 <1>  -0.8490 
  5 N       -0.5230    -0.7960    -0.7500 N.am  1 <1>  -0.9140 
  6 C        2.2480     0.0760     0.0140 C.3   1 <1>   0.1960 
  7 C        1.4180     0.7510     2.2080 C.3   1 <1>   0.1960 
  8 C       -1.3220    -1.8900    -1.3110 C.3   1 <1>   0.2760 
  9 C        2.4080     1.1720    -1.0350 C.3   1 <1>  -0.2400 
 10 C        2.1210     2.1070     2.2490 C.3   1 <1>  -0.2400 
 11 C       -2.4760    -2.4180    -0.4710 C.3   1 <1>  -0.0800 
 12 C       -0.5650    -3.1710    -1.6350 C.3   1 <1>   0.1200 
 13 C       -2.7180    -3.7960    -1.0910 C.3   1 <1>   0.1200 
 14 C       -3.7020    -1.4900    -0.4510 C.3   1 <1>  -0.0170 
 15 O       -1.5600    -4.1370    -1.7980 O.3   1 <1>  -0.5600 
 16 C       -4.7890    -2.0500     0.4610 C.ar  1 <1>  -0.1430 
 17 C       -5.9170    -2.7720     0.0010 C.ar  1 <1>   0.0000 
 18 C       -4.6710    -1.8540     1.8060 C.ar  1 <1>  -0.1500 
 19 C       -6.8310    -3.2460     0.9760 C.ar  1 <1>   0.3100 
 20 C       -6.2000    -3.0560    -1.3560 C.ar  1 <1>  -0.1500 
 21 C       -5.6370    -2.3600     2.6830 C.ar  1 <1>   0.1600 
 22 N       -6.6790    -3.0310     2.3070 N.ar  1 <1>  -0.6200 
 23 C       -7.9560    -3.9740     0.5590 C.ar  1 <1>  -0.1500 
 24 C       -7.3070    -3.7680    -1.7290 C.ar  1 <1>  -0.1500 
 25 C       -8.1980    -4.2360    -0.7620 C.ar  1 <1>  -0.1500 
 26 H       -1.0980     0.0400    -0.7290 H     1 <1>   0.4200 
 27 H        3.1360     0.0080     0.6200 H     1 <1>   0.0800 
 28 H        2.1380    -0.8660    -0.4980 H     1 <1>   0.0800 
 29 H        0.5200     0.8350     2.7970 H     1 <1>   0.0800 
 30 H        2.0360    -0.0110     2.6560 H     1 <1>   0.0800 
 31 H       -1.7200    -1.5400    -2.2490 H     1 <1>   0.0800 
 32 H        2.5400     2.1320    -0.5710 H     1 <1>   0.0800 
 33 H        1.5390     1.2020    -1.6680 H     1 <1>   0.0800 
 34 H        3.2670     0.9660    -1.6450 H     1 <1>   0.0800 
 35 H        1.5250     2.8460     1.7450 H     1 <1>   0.0800 
 36 H        3.0940     2.0550     1.7970 H     1 <1>   0.0800 
 37 H        2.2470     2.4120     3.2720 H     1 <1>   0.0800 
 38 H       -2.1580    -2.6080     0.5370 H     1 <1>   0.0800 
 39 H        0.0660    -3.4900    -0.8260 H     1 <1>   0.0800 
 40 H        0.0000    -3.0910    -2.5460 H     1 <1>   0.0800 
 41 H       -3.5300    -3.7850    -1.7950 H     1 <1>   0.0800 
 42 H       -2.9020    -4.5450    -0.3380 H     1 <1>   0.0800 
 43 H       -4.0670    -1.3140    -1.4450 H     1 <1>   0.0800 
 44 H       -3.4010    -0.5330    -0.0610 H     1 <1>   0.0800 
 45 H       -3.8390    -1.3140     2.2240 H     1 <1>   0.1500 
 46 H       -5.5370    -2.7070    -2.1230 H     1 <1>   0.1500 
 47 H       -5.5010    -2.1800     3.7360 H     1 <1>   0.1500 
 48 H       -8.6280    -4.3220     1.3220 H     1 <1>   0.1500 
 49 H       -7.5070    -3.9770    -2.7660 H     1 <1>   0.1500 
 50 H       -9.0650    -4.7970    -1.0660 H     1 <1>   0.1500 
@<TRIPOS>BOND
  1   1   2  2   
  2   1   3  2   
  3   1   4  am  
  4   1   5  am  
  5   4   6  1   
  6   4   7  1   
  7   5   8  1   
  8   5  26  1   
  9   6   9  1   
 10   6  27  1   
 11   6  28  1   
 12   7  10  1   
 13   7  29  1   
 14   7  30  1   
 15   8  11  1   
 16   8  12  1   
 17   8  31  1   
 18   9  32  1   
 19   9  33  1   
 20   9  34  1   
 21  10  35  1   
 22  10  36  1   
 23  10  37  1   
 24  11  13  1   
 25  11  14  1   
 26  11  38  1   
 27  12  15  1   
 28  12  39  1   
 29  12  40  1   
 30  13  15  1   
 31  13  41  1   
 32  13  42  1   
 33  14  16  1   
 34  14  43  1   
 35  14  44  1   
 36  16  17  ar  
 37  16  18  ar  
 38  17  19  ar  
 39  17  20  ar  
 40  18  21  ar  
 41  18  45  1   
 42  19  22  ar  
 43  19  23  ar  
 44  20  24  ar  
 45  20  46  1   
 46  21  22  ar  
 47  21  47  1   
 48  23  25  ar  
 49  23  48  1   
 50  24  25  ar  
 51  24  49  1   
 52  25  50  1   
@<TRIPOS>SUBSTRUCTURE
  1 ****  11 GROUP 4 **** **** 0

# MOE 2024.06 (io_trps.svl 2023.06)
