@<TRIPOS>MOLECULE
NONAME
49 52 1 0 0 
SMALL
USER_CHARGES


@<TRIPOS>ATOM
  1 O        0.5190     0.1930     0.2340 O.2   1 <1>  -0.5700 
  2 C        1.5820    -0.3910     0.3480 C.2   1 <1>   0.7160 
  3 N        2.6270     0.2890     0.9710 N.am  1 <1>  -0.6600 
  4 C        1.7040    -1.7420    -0.1890 C.2   1 <1>   0.2030 
  5 C        3.8280    -0.4030     1.5270 C.3   1 <1>   0.1400 
  6 C        2.5140     1.7430     1.2800 C.3   1 <1>   0.1400 
  7 N        2.7970    -2.3930    -0.4700 N.2   1 <1>  -0.4100 
  8 C        0.6290    -2.5570    -0.5130 C.2   1 <1>  -0.1500 
  9 C        4.9810    -0.4290     0.5030 C.3   1 <1>   0.3430 
 10 C        3.8120     2.4980     0.9700 C.3   1 <1>  -0.1600 
 11 O        2.5150    -3.5800    -0.9490 O.3   1 <1>  -0.0190 
 12 C        1.2040    -3.6710    -0.9730 C.2   1 <1>  -0.0400 
 13 N        5.5630     0.9190     0.1690 N.4   1 <1>  -0.9590 
 14 C        4.5610     1.9530    -0.2480 C.3   1 <1>   0.3430 
 15 C        0.5710    -4.9460    -1.4900 C.3   1 <1>  -0.0600 
 16 C        6.6150     0.7610    -0.8730 C.3   1 <1>   0.4860 
 17 C        7.4270     2.0390    -0.9330 C.ar  1 <1>  -0.1430 
 18 C        8.3180     2.3480     0.0920 C.ar  1 <1>  -0.1500 
 19 C        7.2770     2.9080    -2.0120 C.ar  1 <1>  -0.1500 
 20 C        9.0290     3.5300     0.0240 C.ar  1 <1>  -0.1430 
 21 C        7.9960     4.0910    -2.0680 C.ar  1 <1>  -0.1500 
 22 C        8.8640     4.3820    -1.0350 C.ar  1 <1>   0.0820 
 23 C       10.0430     4.1240     0.9580 C.3   1 <1>  -0.0170 
 24 O        9.6250     5.4830    -0.9480 O.3   1 <1>  -0.3620 
 25 C       10.4160     5.4300     0.2320 C.3   1 <1>   0.1200 
 26 H        3.5680    -1.4140     1.7890 H     1 <1>   0.0800 
 27 H        4.1480     0.0790     2.4340 H     1 <1>   0.0800 
 28 H        2.2470     1.8710     2.3160 H     1 <1>   0.0800 
 29 H        1.7230     2.1780     0.6900 H     1 <1>   0.0800 
 30 H       -0.4100    -2.3020    -0.4030 H     1 <1>   0.1500 
 31 H        4.6210    -0.8940    -0.3990 H     1 <1>   0.0800 
 32 H        5.7610    -1.0610     0.8950 H     1 <1>   0.0800 
 33 H        4.4500     2.5200     1.8350 H     1 <1>   0.0800 
 34 H        3.5400     3.5190     0.7670 H     1 <1>   0.0800 
 35 H        6.0430     1.2960     0.9930 H     1 <1>   0.4500 
 36 H        5.0760     2.7790    -0.7130 H     1 <1>   0.0800 
 37 H        3.8660     1.5450    -0.9650 H     1 <1>   0.0800 
 38 H       -0.5000    -4.8740    -1.4520 H     1 <1>   0.0800 
 39 H        0.8860    -5.7800    -0.8890 H     1 <1>   0.0800 
 40 H        0.8730    -5.1170    -2.5080 H     1 <1>   0.0800 
 41 H        6.1660     0.5580    -1.8320 H     1 <1>   0.0800 
 42 H        7.2690    -0.0580    -0.6220 H     1 <1>   0.0800 
 43 H        8.4710     1.6900     0.9300 H     1 <1>   0.1500 
 44 H        6.6040     2.6780    -2.8210 H     1 <1>   0.1500 
 45 H        7.8990     4.7790    -2.8890 H     1 <1>   0.1500 
 46 H       10.9030     3.4870     1.0640 H     1 <1>   0.0800 
 47 H        9.6180     4.3320     1.9230 H     1 <1>   0.0800 
 48 H       11.4510     5.4390    -0.0610 H     1 <1>   0.0800 
 49 H       10.1900     6.2970     0.8270 H     1 <1>   0.0800 
@<TRIPOS>BOND
  1   1   2  2   
  2   2   3  am  
  3   2   4  1   
  4   3   5  1   
  5   3   6  1   
  6   4   7  2   
  7   4   8  1   
  8   5   9  1   
  9   5  26  1   
 10   5  27  1   
 11   6  10  1   
 12   6  28  1   
 13   6  29  1   
 14   7  11  1   
 15   8  12  2   
 16   8  30  1   
 17   9  13  1   
 18   9  31  1   
 19   9  32  1   
 20  10  14  1   
 21  10  33  1   
 22  10  34  1   
 23  11  12  1   
 24  12  15  1   
 25  13  14  1   
 26  13  16  1   
 27  13  35  1   
 28  14  36  1   
 29  14  37  1   
 30  15  38  1   
 31  15  39  1   
 32  15  40  1   
 33  16  17  1   
 34  16  41  1   
 35  16  42  1   
 36  17  18  ar  
 37  17  19  ar  
 38  18  20  ar  
 39  18  43  1   
 40  19  21  ar  
 41  19  44  1   
 42  20  22  ar  
 43  20  23  1   
 44  21  22  ar  
 45  21  45  1   
 46  22  24  1   
 47  23  25  1   
 48  23  46  1   
 49  23  47  1   
 50  24  25  1   
 51  25  48  1   
 52  25  49  1   
@<TRIPOS>SUBSTRUCTURE
  1 ****  13 GROUP 4 **** **** 0

# MOE 2024.06 (io_trps.svl 2023.06)
