@<TRIPOS>MOLECULE
NONAME
49 51 1 0 0 
SMALL
USER_CHARGES


@<TRIPOS>ATOM
  1 O       -1.7250     0.7380    -1.0740 O.2   1 <1>  -0.5700 
  2 C       -1.1450     1.6860    -0.6110 C.2   1 <1>   0.5690 
  3 N       -1.7990     2.5850     0.1580 N.am  1 <1>  -0.7300 
  4 C        0.3430     1.9000    -0.9210 C.3   1 <1>   0.1810 
  5 C       -1.1280     3.7350     0.8040 C.3   1 <1>   0.3640 
  6 O        0.9720     2.8420    -0.0730 O.3   1 <1>  -0.5600 
  7 C       -2.0300     4.9620     0.7240 C.ar  1 <1>  -0.1440 
  8 C        0.2330     4.0350     0.1320 C.3   1 <1>   0.2610 
  9 C       -2.6010     5.3540    -0.4800 C.ar  1 <1>  -0.1500 
 10 C       -2.2610     5.7250     1.8580 C.ar  1 <1>  -0.1500 
 11 C        1.0360     5.0700     0.9390 C.2   1 <1>   0.5690 
 12 C       -3.3730     6.5000    -0.5740 C.ar  1 <1>   0.0830 
 13 C       -3.0210     6.8770     1.7810 C.ar  1 <1>  -0.1500 
 14 O        0.8200     5.1800     2.1290 O.2   1 <1>  -0.5700 
 15 N        1.9340     5.9100     0.3220 N.am  1 <1>  -0.6600 
 16 O       -3.8730     6.7570    -1.8160 O.3   1 <1>  -0.3620 
 17 C       -3.5640     7.2870     0.5720 C.ar  1 <1>   0.0830 
 18 C        2.5550     7.0220     1.0840 C.3   1 <1>   0.3200 
 19 C        2.2770     5.8730    -1.1270 C.3   1 <1>   0.0600 
 20 C       -5.0340     7.5360    -1.9940 C.3   1 <1>   0.0400 
 21 O       -4.2520     8.4540     0.5500 O.3   1 <1>  -0.3630 
 22 C        1.6060     8.2020     1.0750 C.2   1 <1>  -0.3320 
 23 C       -3.4830     9.6220     0.7470 C.3   1 <1>   0.0400 
 24 N        0.3730     8.1340     1.6170 N.pl3 1 <1>   0.3000 
 25 C        1.7500     9.4540     0.5900 C.2   1 <1>  -0.1500 
 26 N       -0.2840     9.3080     1.5040 N.2   1 <1>  -0.7070 
 27 C        0.5490    10.0890     0.8860 C.2   1 <1>   0.1390 
 28 H       -2.7910     2.4460     0.3560 H     1 <1>   0.3700 
 29 H        0.4470     2.2390    -1.9350 H     1 <1>   0.0800 
 30 H        0.8650     0.9670    -0.8150 H     1 <1>   0.0800 
 31 H       -0.9600     3.4820     1.8380 H     1 <1>   0.0800 
 32 H        0.0340     4.4570    -0.8350 H     1 <1>   0.0800 
 33 H       -2.4530     4.7720    -1.3710 H     1 <1>   0.1500 
 34 H       -1.8410     5.4350     2.8070 H     1 <1>   0.1500 
 35 H       -3.1900     7.4690     2.6630 H     1 <1>   0.1500 
 36 H        2.7480     6.7150     2.0980 H     1 <1>   0.0800 
 37 H        3.4960     7.2980     0.6390 H     1 <1>   0.0800 
 38 H        3.3200     6.0990    -1.2650 H     1 <1>   0.0800 
 39 H        1.6880     6.6030    -1.6560 H     1 <1>   0.0800 
 40 H        2.0950     4.8970    -1.5430 H     1 <1>   0.0800 
 41 H       -5.4030     7.3650    -2.9880 H     1 <1>   0.0800 
 42 H       -4.7790     8.5730    -1.8730 H     1 <1>   0.0800 
 43 H       -5.7720     7.2370    -1.2700 H     1 <1>   0.0800 
 44 H       -4.1180    10.4750     0.5990 H     1 <1>   0.0800 
 45 H       -2.6760     9.6320     0.0350 H     1 <1>   0.0800 
 46 H       -3.0900     9.6260     1.7480 H     1 <1>   0.0800 
 47 H       -0.0320     7.2940     2.0570 H     1 <1>   0.2700 
 48 H        2.5890     9.8980     0.0850 H     1 <1>   0.1500 
 49 H        0.3250    11.1120     0.6360 H     1 <1>   0.1500 
@<TRIPOS>BOND
  1   1   2  2   
  2   2   3  am  
  3   2   4  1   
  4   3   5  1   
  5   3  28  1   
  6   4   6  1   
  7   4  29  1   
  8   4  30  1   
  9   5   7  1   
 10   5   8  1   
 11   5  31  1   
 12   6   8  1   
 13   7   9  ar  
 14   7  10  ar  
 15   8  11  1   
 16   8  32  1   
 17   9  12  ar  
 18   9  33  1   
 19  10  13  ar  
 20  10  34  1   
 21  11  14  2   
 22  11  15  am  
 23  12  16  1   
 24  12  17  ar  
 25  13  17  ar  
 26  13  35  1   
 27  15  18  1   
 28  15  19  1   
 29  16  20  1   
 30  17  21  1   
 31  18  22  1   
 32  18  36  1   
 33  18  37  1   
 34  19  38  1   
 35  19  39  1   
 36  19  40  1   
 37  20  41  1   
 38  20  42  1   
 39  20  43  1   
 40  21  23  1   
 41  22  24  1   
 42  22  25  2   
 43  23  44  1   
 44  23  45  1   
 45  23  46  1   
 46  24  26  1   
 47  24  47  1   
 48  25  27  1   
 49  25  48  1   
 50  26  27  2   
 51  27  49  1   
@<TRIPOS>SUBSTRUCTURE
  1 ****   7 GROUP 4 **** **** 0

# MOE 2024.06 (io_trps.svl 2023.06)
