@<TRIPOS>MOLECULE
NONAME
46 47 1 0 0 
SMALL
USER_CHARGES


@<TRIPOS>ATOM
  1 S        0.6610     0.2030     0.5460 S.o2  1 <1>   1.3330 
  2 O       -0.1170    -0.2730     1.6630 O.2   1 <1>  -0.6500 
  3 O        2.0090     0.6810     0.7550 O.2   1 <1>  -0.6500 
  4 N        0.6620    -0.9580    -0.6880 N.am  1 <1>  -0.8490 
  5 C       -0.2270     1.5740    -0.1940 C.3   1 <1>  -0.0550 
  6 C        1.8710    -1.7900    -0.6750 C.3   1 <1>   0.1160 
  7 C       -0.5260    -1.8210    -0.6770 C.3   1 <1>   0.1160 
  8 C       -0.4430     2.7520     0.7820 C.3   1 <1>  -0.0800 
  9 C       -1.2040     3.8960     0.1100 C.3   1 <1>   0.2000 
 10 C        0.8870     3.3840     1.2420 C.3   1 <1>   0.3430 
 11 O       -1.9160     4.5710     1.0930 O.3   1 <1>  -0.6800 
 12 C       -0.0910     4.8240    -0.3750 C.3   1 <1>   0.3430 
 13 N        0.8990     4.7870     0.7360 N.4   1 <1>  -0.9590 
 14 C        2.2710     5.2810     0.4110 C.3   1 <1>   0.3430 
 15 C        2.2720     6.7670     0.0480 C.3   1 <1>  -0.0170 
 16 C        3.7010     7.2050    -0.2120 C.ar  1 <1>  -0.1440 
 17 C        4.2760     7.0020    -1.4580 C.ar  1 <1>  -0.1500 
 18 C        4.4460     7.8020     0.7930 C.ar  1 <1>  -0.1500 
 19 C        5.5850     7.3860    -1.6930 C.ar  1 <1>  -0.1500 
 20 C        5.7550     8.1880     0.5570 C.ar  1 <1>  -0.1500 
 21 C        6.3250     7.9790    -0.6860 C.ar  1 <1>  -0.1500 
 22 H        0.3110     1.9060    -1.0610 H     1 <1>   0.0800 
 23 H       -1.1850     1.2180    -0.5220 H     1 <1>   0.0800 
 24 H        1.8460    -2.5000    -1.4840 H     1 <1>   0.0800 
 25 H        1.9510    -2.3220     0.2590 H     1 <1>   0.0800 
 26 H        2.7470    -1.1740    -0.7970 H     1 <1>   0.0800 
 27 H       -0.5130    -2.4810    -1.5280 H     1 <1>   0.0800 
 28 H       -1.4220    -1.2260    -0.7240 H     1 <1>   0.0800 
 29 H       -0.5530    -2.4140     0.2240 H     1 <1>   0.0800 
 30 H       -0.9850     2.3800     1.6360 H     1 <1>   0.0800 
 31 H       -1.8810     3.5960    -0.6730 H     1 <1>   0.0800 
 32 H        1.7250     2.8470     0.8310 H     1 <1>   0.0800 
 33 H        0.9630     3.3700     2.3180 H     1 <1>   0.0800 
 34 H       -2.7240     4.0790     1.3580 H     1 <1>   0.4000 
 35 H       -0.4640     5.8190    -0.5550 H     1 <1>   0.0800 
 36 H        0.3480     4.4300    -1.2760 H     1 <1>   0.0800 
 37 H        0.4830     5.3640     1.4860 H     1 <1>   0.4500 
 38 H        2.9160     5.1380     1.2640 H     1 <1>   0.0800 
 39 H        2.6820     4.7150    -0.4090 H     1 <1>   0.0800 
 40 H        1.6870     6.9440    -0.8360 H     1 <1>   0.0800 
 41 H        1.8610     7.3450     0.8560 H     1 <1>   0.0800 
 42 H        3.7180     6.5470    -2.2570 H     1 <1>   0.1500 
 43 H        4.0220     7.9780     1.7670 H     1 <1>   0.1500 
 44 H        6.0290     7.2270    -2.6610 H     1 <1>   0.1500 
 45 H        6.3310     8.6520     1.3380 H     1 <1>   0.1500 
 46 H        7.3420     8.2790    -0.8700 H     1 <1>   0.1500 
@<TRIPOS>BOND
  1   1   2  2   
  2   1   3  2   
  3   1   4  am  
  4   1   5  1   
  5   4   6  1   
  6   4   7  1   
  7   5   8  1   
  8   5  22  1   
  9   5  23  1   
 10   6  24  1   
 11   6  25  1   
 12   6  26  1   
 13   7  27  1   
 14   7  28  1   
 15   7  29  1   
 16   8   9  1   
 17   8  10  1   
 18   8  30  1   
 19   9  11  1   
 20   9  12  1   
 21   9  31  1   
 22  10  13  1   
 23  10  32  1   
 24  10  33  1   
 25  11  34  1   
 26  12  13  1   
 27  12  35  1   
 28  12  36  1   
 29  13  14  1   
 30  13  37  1   
 31  14  15  1   
 32  14  38  1   
 33  14  39  1   
 34  15  16  1   
 35  15  40  1   
 36  15  41  1   
 37  16  17  ar  
 38  16  18  ar  
 39  17  19  ar  
 40  17  42  1   
 41  18  20  ar  
 42  18  43  1   
 43  19  21  ar  
 44  19  44  1   
 45  20  21  ar  
 46  20  45  1   
 47  21  46  1   
@<TRIPOS>SUBSTRUCTURE
  1 ****  13 GROUP 4 **** **** 0

# MOE 2024.06 (io_trps.svl 2023.06)
