@<TRIPOS>MOLECULE
NONAME
52 54 1 0 0 
SMALL
USER_CHARGES


@<TRIPOS>ATOM
  1 O       -2.0650     0.1200     1.9250 O.2   1 <1>  -0.5700 
  2 C       -2.1500     0.6020     0.8120 C.2   1 <1>   0.7160 
  3 N       -2.5730    -0.1760    -0.2410 N.am  1 <1>  -0.6600 
  4 C       -1.8300     1.9930     0.6080 C.2   1 <1>  -0.0860 
  5 C       -2.6570    -1.6680    -0.0850 C.3   1 <1>   0.3640 
  6 C       -3.1960     0.4600    -1.4430 C.3   1 <1>   0.1400 
  7 C       -0.8960     2.5660    -0.2010 C.2   1 <1>  -0.0400 
  8 C       -2.4590     3.0860     1.2370 C.2   1 <1>  -0.1500 
  9 C       -1.3070    -2.2920    -0.4530 C.ar  1 <1>  -0.1440 
 10 C       -3.8000    -2.3550    -0.8940 C.3   1 <1>   0.2000 
 11 C       -3.9230    -0.5340    -2.3590 C.3   1 <1>   0.1200 
 12 O       -0.9420     3.8730    -0.1210 O.3   1 <1>  -0.2800 
 13 C        0.1410     1.9360    -1.1070 C.3   1 <1>  -0.0600 
 14 C       -1.8760     4.1970     0.7460 C.2   1 <1>  -0.0400 
 15 C       -0.7420    -3.2280     0.4030 C.ar  1 <1>  -0.1500 
 16 C       -0.6320    -1.9610    -1.6220 C.ar  1 <1>  -0.1500 
 17 O       -4.6230    -1.4540    -1.5890 O.3   1 <1>  -0.5600 
 18 C       -4.7170    -3.1950     0.0040 C.3   1 <1>   0.1200 
 19 C       -2.1200     5.6610     1.0360 C.3   1 <1>  -0.0600 
 20 C        0.4670    -3.8320     0.1010 C.ar  1 <1>   0.0830 
 21 C        0.5850    -2.5460    -1.9250 C.ar  1 <1>  -0.1500 
 22 O       -4.0040    -4.2290     0.6050 O.3   1 <1>  -0.6800 
 23 O        0.9320    -4.7660     0.9660 O.3   1 <1>  -0.3630 
 24 C        1.1510    -3.4690    -1.0640 C.ar  1 <1>   0.0830 
 25 C        0.9800    -6.0920     0.4870 C.3   1 <1>   0.0400 
 26 O        2.3620    -3.9770    -1.4010 O.3   1 <1>  -0.3630 
 27 C        3.4340    -3.6700    -0.5370 C.3   1 <1>   0.0400 
 28 H       -2.8340    -1.8870     0.9540 H     1 <1>   0.0800 
 29 H       -3.9100     1.1950    -1.1120 H     1 <1>   0.0800 
 30 H       -2.4420     0.9750    -2.0120 H     1 <1>   0.0800 
 31 H       -3.2450     2.9990     1.9650 H     1 <1>   0.1500 
 32 H       -3.3690    -3.0080    -1.6330 H     1 <1>   0.0800 
 33 H       -3.2330    -1.0600    -2.9950 H     1 <1>   0.0800 
 34 H       -4.6300    -0.0130    -2.9790 H     1 <1>   0.0800 
 35 H        0.1050     0.8640    -1.0350 H     1 <1>   0.0800 
 36 H        1.1200     2.2670    -0.8140 H     1 <1>   0.0800 
 37 H       -0.0360     2.2310    -2.1250 H     1 <1>   0.0800 
 38 H       -1.2410    -3.5050     1.3150 H     1 <1>   0.1500 
 39 H       -1.0440    -1.2410    -2.3030 H     1 <1>   0.1500 
 40 H       -5.5160    -3.6290    -0.5710 H     1 <1>   0.0800 
 41 H       -5.1300    -2.5820     0.7870 H     1 <1>   0.0800 
 42 H       -2.9050     5.7700     1.7620 H     1 <1>   0.0800 
 43 H       -2.4040     6.1670     0.1310 H     1 <1>   0.0800 
 44 H       -1.2210     6.1080     1.4190 H     1 <1>   0.0800 
 45 H        1.1080    -2.2840    -2.8270 H     1 <1>   0.1500 
 46 H       -3.7410    -4.9040    -0.0520 H     1 <1>   0.4000 
 47 H        1.2840    -6.7300     1.2970 H     1 <1>   0.0800 
 48 H        1.6910    -6.1560    -0.3170 H     1 <1>   0.0800 
 49 H        0.0000    -6.3720     0.1440 H     1 <1>   0.0800 
 50 H        4.3430    -4.0190    -0.9910 H     1 <1>   0.0800 
 51 H        3.2840    -4.1610     0.4070 H     1 <1>   0.0800 
 52 H        3.4740    -2.6030    -0.4000 H     1 <1>   0.0800 
@<TRIPOS>BOND
  1   1   2  2   
  2   2   3  am  
  3   2   4  1   
  4   3   5  1   
  5   3   6  1   
  6   4   7  2   
  7   4   8  1   
  8   5   9  1   
  9   5  10  1   
 10   5  28  1   
 11   6  11  1   
 12   6  29  1   
 13   6  30  1   
 14   7  12  1   
 15   7  13  1   
 16   8  14  2   
 17   8  31  1   
 18   9  15  ar  
 19   9  16  ar  
 20  10  17  1   
 21  10  18  1   
 22  10  32  1   
 23  11  17  1   
 24  11  33  1   
 25  11  34  1   
 26  12  14  1   
 27  13  35  1   
 28  13  36  1   
 29  13  37  1   
 30  14  19  1   
 31  15  20  ar  
 32  15  38  1   
 33  16  21  ar  
 34  16  39  1   
 35  18  22  1   
 36  18  40  1   
 37  18  41  1   
 38  19  42  1   
 39  19  43  1   
 40  19  44  1   
 41  20  23  1   
 42  20  24  ar  
 43  21  24  ar  
 44  21  45  1   
 45  22  46  1   
 46  23  25  1   
 47  24  26  1   
 48  25  47  1   
 49  25  48  1   
 50  25  49  1   
 51  26  27  1   
 52  27  50  1   
 53  27  51  1   
 54  27  52  1   
@<TRIPOS>SUBSTRUCTURE
  1 ****   9 GROUP 4 **** **** 0

# MOE 2024.06 (io_trps.svl 2023.06)
