@<TRIPOS>MOLECULE
NONAME
52 54 1 0 0 
SMALL
USER_CHARGES


@<TRIPOS>ATOM
  1 N        0.3280    -1.5460     1.1290 N.ar  1 <1>  -0.6200 
  2 C        0.5700    -0.3170     0.6890 C.ar  1 <1>   0.7710 
  3 C        0.6350    -2.5460     0.3390 C.ar  1 <1>   0.4100 
  4 N        1.1200    -0.0850    -0.5160 N.ar  1 <1>  -0.1790 
  5 N        0.2420     0.7400     1.4710 N.pl3 1 <1>  -0.8380 
  6 N        0.3150    -3.7600     0.8120 N.pl3 1 <1>  -0.8690 
  7 C        1.2320    -2.3520    -0.9210 C.ar  1 <1>  -0.1500 
  8 C        1.4680    -1.0920    -1.3520 C.ar  1 <1>   0.2170 
  9 C        0.4600     2.1890     1.2120 C.3   1 <1>   0.2090 
 10 C       -0.4020     0.5550     2.8030 C.3   1 <1>   0.2090 
 11 C        0.1960    -5.0220     0.0530 C.3   1 <1>   0.4690 
 12 C        2.0900    -0.7660    -2.7030 C.3   1 <1>  -0.0170 
 13 C        0.1740     2.8770     2.5390 C.3   1 <1>  -0.1600 
 14 C       -0.8070     1.9530     3.2480 C.3   1 <1>  -0.1600 
 15 C       -0.6550    -4.8250    -1.2000 C.2   1 <1>   0.0060 
 16 C       -0.3650    -6.0980     0.9770 C.3   1 <1>  -0.2400 
 17 C        3.4480    -0.0650    -2.5620 C.3   1 <1>  -0.2400 
 18 N       -0.2240    -5.1260    -2.3800 N.2   1 <1>  -0.3380 
 19 N       -1.8920    -4.3020    -1.2530 N.pl3 1 <1>   0.0480 
 20 N       -1.1830    -4.8090    -3.2460 N.2   1 <1>  -0.3380 
 21 C       -2.1600    -4.3300    -2.5590 C.2   1 <1>   0.0360 
 22 C       -2.7730    -3.7590    -0.1920 C.3   1 <1>   0.0960 
 23 C       -3.0030    -2.2550    -0.3920 C.3   1 <1>  -0.1600 
 24 C       -3.7490    -1.6440     0.7990 C.3   1 <1>  -0.2400 
 25 H        1.2620     0.8860    -0.7580 H     1 <1>   0.4570 
 26 H        0.0120    -3.8170     1.7870 H     1 <1>   0.4000 
 27 H        1.4890    -3.2050    -1.5220 H     1 <1>   0.1500 
 28 H       -0.2430     2.5330     0.4700 H     1 <1>   0.0800 
 29 H        1.4690     2.3920     0.8930 H     1 <1>   0.0800 
 30 H        0.3150     0.1370     3.4900 H     1 <1>   0.0800 
 31 H       -1.2590    -0.0970     2.7400 H     1 <1>   0.0800 
 32 H        1.1830    -5.3270    -0.2550 H     1 <1>   0.0800 
 33 H        1.4180    -0.1480    -3.2740 H     1 <1>   0.0800 
 34 H        2.2290    -1.6790    -3.2590 H     1 <1>   0.0800 
 35 H       -0.2240     3.8680     2.4020 H     1 <1>   0.0800 
 36 H        1.0870     2.9450     3.1070 H     1 <1>   0.0800 
 37 H       -0.7700     2.0570     4.3180 H     1 <1>   0.0800 
 38 H       -1.8100     2.1520     2.9130 H     1 <1>   0.0800 
 39 H       -1.3390    -5.8390     1.3410 H     1 <1>   0.0800 
 40 H        0.3000    -6.2550     1.8060 H     1 <1>   0.0800 
 41 H       -0.4430    -7.0220     0.4310 H     1 <1>   0.0800 
 42 H        3.3520     0.8900    -2.0770 H     1 <1>   0.0800 
 43 H        3.8760     0.0950    -3.5360 H     1 <1>   0.0800 
 44 H        4.1300    -0.6770    -1.9960 H     1 <1>   0.0800 
 45 H       -3.0890    -3.9850    -2.9780 H     1 <1>   0.1500 
 46 H       -2.3200    -3.9240     0.7670 H     1 <1>   0.0800 
 47 H       -3.7110    -4.2850    -0.2170 H     1 <1>   0.0800 
 48 H       -3.5780    -2.0910    -1.2870 H     1 <1>   0.0800 
 49 H       -2.0560    -1.7560    -0.4980 H     1 <1>   0.0800 
 50 H       -4.7080    -2.1140     0.9280 H     1 <1>   0.0800 
 51 H       -3.9060    -0.5920     0.6360 H     1 <1>   0.0800 
 52 H       -3.1790    -1.7660     1.7040 H     1 <1>   0.0800 
@<TRIPOS>BOND
  1   1   2  ar  
  2   1   3  ar  
  3   2   4  ar  
  4   2   5  1   
  5   3   6  1   
  6   3   7  ar  
  7   4   8  ar  
  8   4  25  1   
  9   5   9  1   
 10   5  10  1   
 11   6  11  1   
 12   6  26  1   
 13   7   8  ar  
 14   7  27  1   
 15   8  12  1   
 16   9  13  1   
 17   9  28  1   
 18   9  29  1   
 19  10  14  1   
 20  10  30  1   
 21  10  31  1   
 22  11  15  1   
 23  11  16  1   
 24  11  32  1   
 25  12  17  1   
 26  12  33  1   
 27  12  34  1   
 28  13  14  1   
 29  13  35  1   
 30  13  36  1   
 31  14  37  1   
 32  14  38  1   
 33  15  18  2   
 34  15  19  1   
 35  16  39  1   
 36  16  40  1   
 37  16  41  1   
 38  17  42  1   
 39  17  43  1   
 40  17  44  1   
 41  18  20  1   
 42  19  21  1   
 43  19  22  1   
 44  20  21  2   
 45  21  45  1   
 46  22  23  1   
 47  22  46  1   
 48  22  47  1   
 49  23  24  1   
 50  23  48  1   
 51  23  49  1   
 52  24  50  1   
 53  24  51  1   
 54  24  52  1   
@<TRIPOS>SUBSTRUCTURE
  1 ****   3 GROUP 4 **** **** 0

# MOE 2024.06 (io_trps.svl 2023.06)
