@<TRIPOS>MOLECULE
Untitled Document
38 42 1 0 0 
SMALL
USER_CHARGES


@<TRIPOS>ATOM
  1 F       -0.4680    -0.3960     1.3430 F     1 <1>  -0.1900 
  2 C       -1.3350    -1.3280     1.0490 C.ar  1 <1>   0.1900 
  3 C       -0.8640    -2.6260     0.8590 C.ar  1 <1>  -0.1500 
  4 C       -2.6600    -0.9900     0.9350 C.ar  1 <1>  -0.1500 
  5 C       -1.7360    -3.6620     0.5450 C.ar  1 <1>   0.0860 
  6 C       -3.5500    -2.0180     0.6230 C.ar  1 <1>  -0.1520 
  7 C       -1.2550    -5.0100     0.3050 C.2   1 <1>   0.5440 
  8 C       -3.1000    -3.3260     0.4520 C.ar  1 <1>   0.0000 
  9 N       -4.9050    -1.9880     0.4260 N.pl3 1 <1>   0.0330 
 10 O       -0.0650    -5.2410     0.3500 O.2   1 <1>  -0.5700 
 11 N       -2.0390    -6.1090     0.0110 N.am  1 <1>  -0.3680 
 12 C       -4.2450    -4.1060     0.1810 C.2   1 <1>  -0.0860 
 13 C       -5.3140    -3.2600     0.1350 C.2   1 <1>  -0.3320 
 14 N       -3.4030    -6.3940    -0.0830 N.2   1 <1>  -0.5120 
 15 C       -4.3290    -5.5220     0.0060 C.2   1 <1>   0.4750 
 16 C       -6.7390    -3.6650    -0.2060 C.3   1 <1>   0.6830 
 17 C       -5.7820    -5.9990    -0.0470 C.3   1 <1>   0.4040 
 18 N       -6.7710    -5.0530    -0.7180 N.4   1 <1>  -0.9590 
 19 C       -7.6590    -3.7030     1.0110 C.3   1 <1>  -0.1600 
 20 C       -7.2850    -2.7560    -1.3080 C.3   1 <1>  -0.2400 
 21 C       -8.1600    -5.5460    -0.5150 C.3   1 <1>   0.3430 
 22 C       -8.6680    -4.8230     0.7310 C.3   1 <1>  -0.1600 
 23 H        0.1920    -2.8090     0.9550 H     1 <1>   0.1500 
 24 H       -2.9880     0.0240     1.0800 H     1 <1>   0.1500 
 25 H       -5.4720    -1.1310     0.4770 H     1 <1>   0.2700 
 26 H       -1.4210    -6.9200    -0.1190 H     1 <1>   0.3700 
 27 H       -6.0940    -6.1650     0.9700 H     1 <1>   0.0800 
 28 H       -5.7980    -6.9520    -0.5480 H     1 <1>   0.0800 
 29 H       -6.5400    -5.0030    -1.7160 H     1 <1>   0.4500 
 30 H       -7.0840    -3.9420     1.8890 H     1 <1>   0.0800 
 31 H       -8.1410    -2.7550     1.1770 H     1 <1>   0.0800 
 32 H       -7.3300    -1.7410    -0.9580 H     1 <1>   0.0800 
 33 H       -8.2790    -3.0360    -1.6060 H     1 <1>   0.0800 
 34 H       -6.6370    -2.7770    -2.1660 H     1 <1>   0.0800 
 35 H       -8.7720    -5.2710    -1.3600 H     1 <1>   0.0800 
 36 H       -8.1930    -6.6180    -0.3950 H     1 <1>   0.0800 
 37 H       -9.6530    -4.4270     0.5450 H     1 <1>   0.0800 
 38 H       -8.7290    -5.5030     1.5640 H     1 <1>   0.0800 
@<TRIPOS>BOND
  1   1   2  1   
  2   2   3  ar  
  3   2   4  ar  
  4   3   5  ar  
  5   3  23  1   
  6   4   6  ar  
  7   4  24  1   
  8   5   7  1   
  9   5   8  ar  
 10   6   8  ar  
 11   6   9  1   
 12   7  10  2   
 13   7  11  am  
 14   8  12  1   
 15   9  13  1   
 16   9  25  1   
 17  11  14  1   
 18  11  26  1   
 19  12  13  2   
 20  12  15  1   
 21  13  16  1   
 22  14  15  2   
 23  15  17  1   
 24  16  18  1   
 25  16  19  1   
 26  16  20  1   
 27  17  18  1   
 28  17  27  1   
 29  17  28  1   
 30  18  21  1   
 31  18  29  1   
 32  19  22  1   
 33  19  30  1   
 34  19  31  1   
 35  20  32  1   
 36  20  33  1   
 37  20  34  1   
 38  21  22  1   
 39  21  35  1   
 40  21  36  1   
 41  22  37  1   
 42  22  38  1   
@<TRIPOS>SUBSTRUCTURE
  1 ****  12 GROUP 4 **** **** 0

# MOE 2024.06 (io_trps.svl 2023.06)
