@<TRIPOS>MOLECULE
NONAME
48 51 1 0 0 
SMALL
USER_CHARGES


@<TRIPOS>ATOM
  1 O       -0.0380     1.0570     1.3490 O.2   1 <1>  -0.5700 
  2 C       -0.0890     2.2410     1.1310 C.2   1 <1>   0.5690 
  3 N       -1.2130     2.9420     1.3900 N.am  1 <1>  -0.7300 
  4 C        1.1140     2.9590     0.5160 C.3   1 <1>   0.1810 
  5 C       -1.3570     4.3960     1.1300 C.3   1 <1>   0.3640 
  6 O        1.0620     4.3590     0.6740 O.3   1 <1>  -0.5600 
  7 C       -2.6800     4.6210     0.3980 C.ar  1 <1>  -0.1440 
  8 C       -0.1700     4.9640     0.3020 C.3   1 <1>   0.2610 
  9 C       -3.5200     5.6530     0.7920 C.ar  1 <1>  -0.1500 
 10 C       -3.0620     3.8160    -0.6690 C.ar  1 <1>  -0.1500 
 11 C       -0.0660     6.4980     0.4050 C.2   1 <1>   0.5690 
 12 C       -4.7180     5.8770     0.1360 C.ar  1 <1>  -0.1500 
 13 C       -4.2590     4.0390    -1.3270 C.ar  1 <1>  -0.1500 
 14 O       -0.7320     7.0730     1.2390 O.2   1 <1>  -0.5700 
 15 N        0.7600     7.2100    -0.4350 N.am  1 <1>  -0.6600 
 16 C       -5.0880     5.0700    -0.9240 C.ar  1 <1>  -0.1500 
 17 C        0.9160     8.6900    -0.2640 C.3   1 <1>   0.3210 
 18 C        1.6660     6.6050    -1.4650 C.3   1 <1>   0.1400 
 19 C        2.3800     9.0930    -0.3530 C.2   1 <1>  -0.1810 
 20 C        3.1310     6.7720    -1.0480 C.3   1 <1>   0.0210 
 21 C        3.3960     8.2210    -0.7170 C.2   1 <1>   0.1080 
 22 C        3.0020    10.2710    -0.1270 C.2   1 <1>  -0.3320 
 23 N        4.5610     8.7860    -0.7320 N.2   1 <1>  -0.7070 
 24 N        4.3160    10.0570    -0.3600 N.pl3 1 <1>   0.3000 
 25 C        2.4260    11.6070     0.3050 C.3   1 <1>   0.0200 
 26 C        2.8330    11.9190     1.7450 C.3   1 <1>  -0.2400 
 27 H       -2.0210     2.4590     1.7860 H     1 <1>   0.3700 
 28 H        1.1640     2.7360    -0.5330 H     1 <1>   0.0800 
 29 H        2.0140     2.6100     0.9890 H     1 <1>   0.0800 
 30 H       -1.3900     4.8930     2.0850 H     1 <1>   0.0800 
 31 H       -0.3460     4.7220    -0.7290 H     1 <1>   0.0800 
 32 H       -3.2440     6.2950     1.6130 H     1 <1>   0.1500 
 33 H       -2.4330     3.0060    -0.9950 H     1 <1>   0.1500 
 34 H       -5.3600     6.6810     0.4510 H     1 <1>   0.1500 
 35 H       -4.5480     3.4090    -2.1500 H     1 <1>   0.1500 
 36 H       -6.0200     5.2450    -1.4350 H     1 <1>   0.1500 
 37 H        0.3620     9.1910    -1.0380 H     1 <1>   0.0800 
 38 H        0.5290     9.0100     0.6880 H     1 <1>   0.0800 
 39 H        1.4570     5.5620    -1.6150 H     1 <1>   0.0800 
 40 H        1.5080     7.1110    -2.4020 H     1 <1>   0.0800 
 41 H        3.7790     6.4610    -1.8460 H     1 <1>   0.0800 
 42 H        3.3370     6.1670    -0.1840 H     1 <1>   0.0800 
 43 H        5.0660    10.7520    -0.2710 H     1 <1>   0.2700 
 44 H        2.7720    12.3850    -0.3540 H     1 <1>   0.0800 
 45 H        1.3520    11.5740     0.2420 H     1 <1>   0.0800 
 46 H        3.9020    11.9950     1.8290 H     1 <1>   0.0800 
 47 H        2.4900    11.1380     2.4010 H     1 <1>   0.0800 
 48 H        2.3950    12.8500     2.0600 H     1 <1>   0.0800 
@<TRIPOS>BOND
  1   1   2  2   
  2   2   3  am  
  3   2   4  1   
  4   3   5  1   
  5   3  27  1   
  6   4   6  1   
  7   4  28  1   
  8   4  29  1   
  9   5   7  1   
 10   5   8  1   
 11   5  30  1   
 12   6   8  1   
 13   7   9  ar  
 14   7  10  ar  
 15   8  11  1   
 16   8  31  1   
 17   9  12  ar  
 18   9  32  1   
 19  10  13  ar  
 20  10  33  1   
 21  11  14  2   
 22  11  15  am  
 23  12  16  ar  
 24  12  34  1   
 25  13  16  ar  
 26  13  35  1   
 27  15  17  1   
 28  15  18  1   
 29  16  36  1   
 30  17  19  1   
 31  17  37  1   
 32  17  38  1   
 33  18  20  1   
 34  18  39  1   
 35  18  40  1   
 36  19  21  1   
 37  19  22  2   
 38  20  21  1   
 39  20  41  1   
 40  20  42  1   
 41  21  23  2   
 42  22  24  1   
 43  22  25  1   
 44  23  24  1   
 45  24  43  1   
 46  25  26  1   
 47  25  44  1   
 48  25  45  1   
 49  26  46  1   
 50  26  47  1   
 51  26  48  1   
@<TRIPOS>SUBSTRUCTURE
  1 ****  11 GROUP 4 **** **** 0

# MOE 2024.06 (io_trps.svl 2023.06)
