@<TRIPOS>MOLECULE
NONAME
54 56 1 0 0 
SMALL
USER_CHARGES


@<TRIPOS>ATOM
  1 O       -1.2220     2.9330     3.5710 O.2   1 <1>  -0.5700 
  2 C       -1.0510     3.8700     2.8350 C.2   1 <1>   0.5690 
  3 N       -2.0080     4.2390     1.9550 N.am  1 <1>  -0.7300 
  4 C        0.2770     4.6350     2.8630 C.3   1 <1>   0.1810 
  5 C       -1.8740     5.3980     1.0400 C.3   1 <1>   0.3640 
  6 O        0.2110     5.8940     2.2280 O.3   1 <1>  -0.5600 
  7 C       -2.3840     5.0090    -0.3450 C.ar  1 <1>  -0.1440 
  8 C       -0.4060     5.8820     0.9490 C.3   1 <1>   0.2610 
  9 C       -3.1390     5.9180    -1.0740 C.ar  1 <1>  -0.1500 
 10 C       -2.0970     3.7700    -0.9070 C.ar  1 <1>  -0.1500 
 11 C       -0.3320     7.2700     0.2870 C.2   1 <1>   0.5690 
 12 C       -3.6010     5.5960    -2.3380 C.ar  1 <1>  -0.1500 
 13 C       -2.5590     3.4470    -2.1710 C.ar  1 <1>  -0.1500 
 14 O       -1.2020     8.0690     0.5590 O.2   1 <1>  -0.5700 
 15 N        0.6780     7.6000    -0.5910 N.am  1 <1>  -0.6600 
 16 C       -3.3120     4.3600    -2.8870 C.ar  1 <1>  -0.1500 
 17 C        0.8380     9.0240    -1.0340 C.3   1 <1>   0.2840 
 18 C        1.5630     6.6070    -1.2600 C.3   1 <1>   0.1400 
 19 C        2.2690     9.5150    -0.8520 C.ar  1 <1>  -0.1430 
 20 C        2.7490     6.2440    -0.3640 C.3   1 <1>  -0.2400 
 21 C        2.7080     9.9750     0.3860 C.ar  1 <1>   0.0830 
 22 C        3.1560     9.5140    -1.9190 C.ar  1 <1>  -0.1500 
 23 O        1.8620    10.0190     1.4350 O.3   1 <1>  -0.3620 
 24 C        4.0120    10.4160     0.5530 C.ar  1 <1>  -0.1500 
 25 C        4.4600     9.9490    -1.7520 C.ar  1 <1>  -0.1500 
 26 C        1.9910     8.9890     2.3840 C.3   1 <1>   0.1200 
 27 C        4.8900    10.3990    -0.5160 C.ar  1 <1>  -0.1500 
 28 C        0.8590     9.1300     3.3960 C.3   1 <1>  -0.2400 
 29 H       -2.8970     3.7380     1.9470 H     1 <1>   0.3700 
 30 H        1.0350     4.0500     2.3760 H     1 <1>   0.0800 
 31 H        0.5690     4.8000     3.8840 H     1 <1>   0.0800 
 32 H       -2.4850     6.1940     1.4320 H     1 <1>   0.0800 
 33 H        0.1310     5.1750     0.3490 H     1 <1>   0.0800 
 34 H       -3.3690     6.8880    -0.6630 H     1 <1>   0.1500 
 35 H       -1.5140     3.0450    -0.3650 H     1 <1>   0.1500 
 36 H       -4.1860     6.3080    -2.8930 H     1 <1>   0.1500 
 37 H       -2.3350     2.4840    -2.5970 H     1 <1>   0.1500 
 38 H       -3.6730     4.1090    -3.8700 H     1 <1>   0.1500 
 39 H        0.5550     9.1000    -2.0690 H     1 <1>   0.0800 
 40 H        0.1830     9.6720    -0.4770 H     1 <1>   0.0800 
 41 H        0.9990     5.7240    -1.5050 H     1 <1>   0.0800 
 42 H        1.9260     7.0140    -2.1880 H     1 <1>   0.0800 
 43 H        2.4190     5.8330     0.5710 H     1 <1>   0.0800 
 44 H        3.3540     7.1100    -0.1700 H     1 <1>   0.0800 
 45 H        3.3620     5.5140    -0.8590 H     1 <1>   0.0800 
 46 H        2.8360     9.1730    -2.8880 H     1 <1>   0.1500 
 47 H        4.3300    10.7760     1.5140 H     1 <1>   0.1500 
 48 H        5.1410     9.9410    -2.5850 H     1 <1>   0.1500 
 49 H        1.9290     8.0440     1.8740 H     1 <1>   0.0800 
 50 H        2.9500     9.0820     2.8620 H     1 <1>   0.0800 
 51 H        5.9020    10.7400    -0.3870 H     1 <1>   0.1500 
 52 H       -0.0900     9.0570     2.8940 H     1 <1>   0.0800 
 53 H        0.9280    10.0750     3.9020 H     1 <1>   0.0800 
 54 H        0.9200     8.3400     4.1210 H     1 <1>   0.0800 
@<TRIPOS>BOND
  1   1   2  2   
  2   2   3  am  
  3   2   4  1   
  4   3   5  1   
  5   3  29  1   
  6   4   6  1   
  7   4  30  1   
  8   4  31  1   
  9   5   7  1   
 10   5   8  1   
 11   5  32  1   
 12   6   8  1   
 13   7   9  ar  
 14   7  10  ar  
 15   8  11  1   
 16   8  33  1   
 17   9  12  ar  
 18   9  34  1   
 19  10  13  ar  
 20  10  35  1   
 21  11  14  2   
 22  11  15  am  
 23  12  16  ar  
 24  12  36  1   
 25  13  16  ar  
 26  13  37  1   
 27  15  17  1   
 28  15  18  1   
 29  16  38  1   
 30  17  19  1   
 31  17  39  1   
 32  17  40  1   
 33  18  20  1   
 34  18  41  1   
 35  18  42  1   
 36  19  21  ar  
 37  19  22  ar  
 38  20  43  1   
 39  20  44  1   
 40  20  45  1   
 41  21  23  1   
 42  21  24  ar  
 43  22  25  ar  
 44  22  46  1   
 45  23  26  1   
 46  24  27  ar  
 47  24  47  1   
 48  25  27  ar  
 49  25  48  1   
 50  26  28  1   
 51  26  49  1   
 52  26  50  1   
 53  27  51  1   
 54  28  52  1   
 55  28  53  1   
 56  28  54  1   
@<TRIPOS>SUBSTRUCTURE
  1 ****  11 GROUP 4 **** **** 0

# MOE 2024.06 (io_trps.svl 2023.06)
