@<TRIPOS>MOLECULE
NONAME
43 44 1 0 0 
SMALL
USER_CHARGES


@<TRIPOS>ATOM
  1 S        0.1080    -0.1010    -0.0160 S.3   1 <1>  -0.0800 
  2 C       -1.4500    -0.7830    -0.3470 C.2   1 <1>   0.4420 
  3 C       -0.6250     1.4600    -0.1640 C.2   1 <1>   0.1980 
  4 N       -2.3460     0.1150    -0.5290 N.2   1 <1>  -0.3380 
  5 N       -1.5380    -2.1620    -0.3620 N.am  1 <1>  -0.4940 
  6 N       -1.8680     1.3910    -0.4240 N.2   1 <1>  -0.3380 
  7 C        0.2620     2.6750     0.0240 C.3   1 <1>   0.0200 
  8 C       -2.6310    -2.9360    -0.6660 C.2   1 <1>   0.5690 
  9 C       -0.5230     3.9740    -0.1440 C.3   1 <1>   0.1200 
 10 O       -3.6710    -2.4740    -1.0710 O.2   1 <1>  -0.5700 
 11 C       -2.5880    -4.4820    -0.5140 C.3   1 <1>   0.4840 
 12 O        0.3550     5.0360     0.0440 O.3   1 <1>  -0.5600 
 13 N       -3.9800    -5.0660    -0.4680 N.4   1 <1>  -0.9590 
 14 C       -1.7710    -4.9520     0.7010 C.3   1 <1>  -0.2400 
 15 C       -0.2380     6.2840    -0.0840 C.3   1 <1>   0.1200 
 16 C       -4.7620    -4.8040     0.7650 C.3   1 <1>   0.3430 
 17 C       -4.1130    -6.5100    -0.7760 C.3   1 <1>   0.3430 
 18 C        0.8420     7.3320     0.1470 C.3   1 <1>  -0.2400 
 19 C       -5.9620    -5.7260     0.6270 C.3   1 <1>  -0.1600 
 20 C       -5.4940    -6.8910    -0.2510 C.3   1 <1>  -0.1600 
 21 H       -0.6710    -2.6260    -0.1020 H     1 <1>   0.3700 
 22 H        1.0540     2.6460    -0.7010 H     1 <1>   0.0800 
 23 H        0.6890     2.6470     1.0100 H     1 <1>   0.0800 
 24 H       -1.3100     4.0380     0.5890 H     1 <1>   0.0800 
 25 H       -0.9400     4.0370    -1.1360 H     1 <1>   0.0800 
 26 H       -2.1060    -4.8580    -1.4010 H     1 <1>   0.0800 
 27 H       -4.4930    -4.5380    -1.1960 H     1 <1>   0.4500 
 28 H       -2.1150    -4.4830     1.6050 H     1 <1>   0.0800 
 29 H       -0.7360    -4.6930     0.5680 H     1 <1>   0.0800 
 30 H       -1.8200    -6.0200     0.8120 H     1 <1>   0.0800 
 31 H       -1.0200     6.3750     0.6520 H     1 <1>   0.0800 
 32 H       -0.6510     6.3740    -1.0750 H     1 <1>   0.0800 
 33 H       -5.0570    -3.7680     0.8390 H     1 <1>   0.0800 
 34 H       -4.1930    -5.0840     1.6370 H     1 <1>   0.0800 
 35 H       -3.3620    -7.0740    -0.2480 H     1 <1>   0.0800 
 36 H       -4.0270    -6.6980    -1.8350 H     1 <1>   0.0800 
 37 H        1.2560     7.2230     1.1340 H     1 <1>   0.0800 
 38 H        0.4210     8.3160     0.0570 H     1 <1>   0.0800 
 39 H        1.6240     7.2230    -0.5830 H     1 <1>   0.0800 
 40 H       -6.7640    -5.1930     0.1440 H     1 <1>   0.0800 
 41 H       -6.3070    -6.0570     1.5920 H     1 <1>   0.0800 
 42 H       -5.4280    -7.8050     0.3140 H     1 <1>   0.0800 
 43 H       -6.1750    -7.0480    -1.0700 H     1 <1>   0.0800 
@<TRIPOS>BOND
  1   1   2  1   
  2   1   3  1   
  3   2   4  2   
  4   2   5  1   
  5   3   6  2   
  6   3   7  1   
  7   4   6  1   
  8   5   8  am  
  9   5  21  1   
 10   7   9  1   
 11   7  22  1   
 12   7  23  1   
 13   8  10  2   
 14   8  11  1   
 15   9  12  1   
 16   9  24  1   
 17   9  25  1   
 18  11  13  1   
 19  11  14  1   
 20  11  26  1   
 21  12  15  1   
 22  13  16  1   
 23  13  17  1   
 24  13  27  1   
 25  14  28  1   
 26  14  29  1   
 27  14  30  1   
 28  15  18  1   
 29  15  31  1   
 30  15  32  1   
 31  16  19  1   
 32  16  33  1   
 33  16  34  1   
 34  17  20  1   
 35  17  35  1   
 36  17  36  1   
 37  18  37  1   
 38  18  38  1   
 39  18  39  1   
 40  19  20  1   
 41  19  40  1   
 42  19  41  1   
 43  20  42  1   
 44  20  43  1   
@<TRIPOS>SUBSTRUCTURE
  1 ****   2 GROUP 4 **** **** 0

# MOE 2024.06 (io_trps.svl 2023.06)
