@<TRIPOS>MOLECULE
NONAME
42 45 1 0 0 
SMALL
USER_CHARGES


@<TRIPOS>ATOM
  1 O        3.2070    -1.9600     1.4990 O.2   1 <1>  -0.5700 
  2 C        2.2290    -2.1010     0.7820 C.2   1 <1>   0.5440 
  3 N        1.9240    -1.0590    -0.0750 N.am  1 <1>  -0.6600 
  4 C        1.4710    -3.3530     0.8550 C.ar  1 <1>   0.3960 
  5 C        2.6970     0.2030    -0.1060 C.3   1 <1>   0.1400 
  6 C        0.8910    -1.0710    -1.1340 C.3   1 <1>   0.1400 
  7 N        0.1460    -3.3850     0.6160 N.ar  1 <1>  -0.6200 
  8 C        2.1740    -4.5150     1.1920 C.ar  1 <1>   0.1600 
  9 C        1.9570     1.0930    -1.0980 C.3   1 <1>  -0.1600 
 10 C        1.2310     0.1200    -2.0220 C.3   1 <1>  -0.1600 
 11 C       -0.3830    -4.5830     0.7280 C.ar  1 <1>   0.4100 
 12 N        1.6560    -5.7320     1.2980 N.ar  1 <1>  -0.6200 
 13 N       -1.7310    -4.5910     0.4980 N.pl3 1 <1>  -0.8690 
 14 C        0.3630    -5.7280     1.0530 C.ar  1 <1>   0.1600 
 15 C       -2.6390    -5.2710     1.4620 C.3   1 <1>   0.3900 
 16 C       -2.9710    -6.6890     1.0170 C.2   1 <1>   0.1080 
 17 N       -3.1820    -7.6590     1.8340 N.2   1 <1>  -0.4100 
 18 C       -3.0930    -7.1240    -0.2970 C.2   1 <1>  -0.1500 
 19 O       -3.4390    -8.7010     1.0940 O.3   1 <1>  -0.0190 
 20 C       -3.4010    -8.4340    -0.1930 C.2   1 <1>   0.1400 
 21 C       -3.6610    -9.4430    -1.1830 C.2   1 <1>   0.1400 
 22 O       -3.9700   -10.6830    -0.8220 O.3   1 <1>  -0.2800 
 23 C       -3.6560    -9.3750    -2.5430 C.2   1 <1>  -0.1500 
 24 C       -4.1630   -11.4020    -1.9080 C.2   1 <1>  -0.0100 
 25 C       -3.9820   -10.6490    -3.0120 C.2   1 <1>  -0.1500 
 26 H        3.6950    -0.0060    -0.4520 H     1 <1>   0.0800 
 27 H        2.7420     0.6470     0.8740 H     1 <1>   0.0800 
 28 H       -0.0760    -0.9350    -0.6800 H     1 <1>   0.0800 
 29 H        0.9080    -1.9950    -1.6870 H     1 <1>   0.0800 
 30 H        3.2300    -4.4260     1.3830 H     1 <1>   0.1500 
 31 H        2.6290     1.7430    -1.6300 H     1 <1>   0.0800 
 32 H        1.2410     1.6920    -0.5620 H     1 <1>   0.0800 
 33 H        0.3510     0.5520    -2.4660 H     1 <1>   0.0800 
 34 H        1.8950    -0.2060    -2.8040 H     1 <1>   0.0800 
 35 H       -2.0470    -3.6420     0.2800 H     1 <1>   0.4000 
 36 H       -0.1540    -6.6700     1.1060 H     1 <1>   0.1500 
 37 H       -3.5540    -4.7110     1.5450 H     1 <1>   0.0800 
 38 H       -2.1800    -5.3030     2.4360 H     1 <1>   0.0800 
 39 H       -2.9640    -6.5250    -1.1790 H     1 <1>   0.1500 
 40 H       -3.4450    -8.5200    -3.1590 H     1 <1>   0.1500 
 41 H       -4.4250   -12.4410    -1.8030 H     1 <1>   0.1500 
 42 H       -4.0660   -10.9400    -4.0450 H     1 <1>   0.1500 
@<TRIPOS>BOND
  1   1   2  2   
  2   2   3  am  
  3   2   4  1   
  4   3   5  1   
  5   3   6  1   
  6   4   7  ar  
  7   4   8  ar  
  8   5   9  1   
  9   5  26  1   
 10   5  27  1   
 11   6  10  1   
 12   6  28  1   
 13   6  29  1   
 14   7  11  ar  
 15   8  12  ar  
 16   8  30  1   
 17   9  10  1   
 18   9  31  1   
 19   9  32  1   
 20  10  33  1   
 21  10  34  1   
 22  11  13  1   
 23  11  14  ar  
 24  12  14  ar  
 25  13  15  1   
 26  13  35  1   
 27  14  36  1   
 28  15  16  1   
 29  15  37  1   
 30  15  38  1   
 31  16  17  2   
 32  16  18  1   
 33  17  19  1   
 34  18  20  2   
 35  18  39  1   
 36  19  20  1   
 37  20  21  1   
 38  21  22  1   
 39  21  23  2   
 40  22  24  1   
 41  23  25  1   
 42  23  40  1   
 43  24  25  2   
 44  24  41  1   
 45  25  42  1   
@<TRIPOS>SUBSTRUCTURE
  1 ****  11 GROUP 4 **** **** 0

# MOE 2024.06 (io_trps.svl 2023.06)
