@<TRIPOS>MOLECULE
NONAME
55 58 1 0 0 
SMALL
USER_CHARGES


@<TRIPOS>ATOM
  1 S        3.2480    -1.5230    -2.2600 S.3   1 <1>  -0.0800 
  2 C        2.6800    -1.4890    -0.6120 C.2   1 <1>  -0.1400 
  3 C        4.8830    -1.3440    -1.6720 C.2   1 <1>   0.2280 
  4 C        3.7400    -1.3450     0.2020 C.2   1 <1>   0.0460 
  5 C        1.1830    -1.6120    -0.3790 C.3   1 <1>   0.3200 
  6 N        4.9840    -1.2790    -0.4060 N.2   1 <1>  -0.5650 
  7 C        3.7180    -1.2420     1.7120 C.3   1 <1>  -0.0590 
  8 N        0.8480    -2.9440     0.2160 N.am  1 <1>  -0.6600 
  9 C        0.2590    -3.0080     1.4550 C.2   1 <1>   0.5690 
 10 C        1.2120    -4.1240    -0.6400 C.3   1 <1>   0.1400 
 11 O        0.0250    -2.0040     2.0830 O.2   1 <1>  -0.5700 
 12 C       -0.1220    -4.3080     2.1390 C.3   1 <1>  -0.0990 
 13 C        1.8330    -5.3480     0.0920 C.3   1 <1>   0.2800 
 14 C       -0.3260    -5.5130     1.2250 C.3   1 <1>   0.1200 
 15 O        0.8950    -6.0740     0.8420 O.3   1 <1>  -0.5600 
 16 C        2.3460    -6.3390    -0.9780 C.3   1 <1>  -0.1600 
 17 C        2.9660    -4.9610     1.0740 C.3   1 <1>  -0.1600 
 18 C        3.5980    -7.0970    -0.5360 C.3   1 <1>   0.1400 
 19 C        4.3160    -4.8340     0.3740 C.3   1 <1>   0.1400 
 20 N        4.7040    -6.1250    -0.2680 N.am  1 <1>  -0.6600 
 21 C        6.0220    -6.5000    -0.4440 C.2   1 <1>   0.5440 
 22 O        6.2670    -7.6490    -0.7610 O.2   1 <1>  -0.5700 
 23 C        7.1270    -5.5840    -0.2420 C.ar  1 <1>   0.0860 
 24 C        8.2350    -5.9870     0.5010 C.ar  1 <1>   0.1600 
 25 C        7.1570    -4.2940    -0.7560 C.ar  1 <1>  -0.1500 
 26 N        9.2940    -5.2440     0.7870 N.ar  1 <1>  -0.6200 
 27 C        8.2460    -3.5030    -0.4680 C.ar  1 <1>  -0.1500 
 28 C        9.2790    -4.0140     0.3020 C.ar  1 <1>   0.1670 
 29 C       10.4830    -3.1590     0.6320 C.3   1 <1>  -0.0970 
 30 H        5.6670    -1.3060    -2.4090 H     1 <1>   0.1500 
 31 H        0.6550    -1.4970    -1.3100 H     1 <1>   0.0800 
 32 H        0.8710    -0.8090     0.2660 H     1 <1>   0.0800 
 33 H        2.7140    -1.3130     2.0870 H     1 <1>   0.0800 
 34 H        4.1340    -0.2980     2.0140 H     1 <1>   0.0800 
 35 H        4.3080    -2.0310     2.1400 H     1 <1>   0.0800 
 36 H        1.9350    -3.8010    -1.3650 H     1 <1>   0.0800 
 37 H        0.3510    -4.4370    -1.2030 H     1 <1>   0.0800 
 38 H       -1.0510    -4.1280     2.6470 H     1 <1>   0.0800 
 39 H        0.6070    -4.5420     2.8910 H     1 <1>   0.0800 
 40 H       -0.9090    -5.2680     0.3550 H     1 <1>   0.0800 
 41 H       -0.8530    -6.2780     1.7680 H     1 <1>   0.0800 
 42 H        2.6090    -5.8220    -1.8830 H     1 <1>   0.0800 
 43 H        1.5700    -7.0390    -1.2310 H     1 <1>   0.0800 
 44 H        3.0590    -5.7140     1.8360 H     1 <1>   0.0800 
 45 H        2.7550    -4.0360     1.5710 H     1 <1>   0.0800 
 46 H        3.8920    -7.7860    -1.3100 H     1 <1>   0.0800 
 47 H        3.3940    -7.6630     0.3580 H     1 <1>   0.0800 
 48 H        5.0610    -4.5440     1.0970 H     1 <1>   0.0800 
 49 H        4.2580    -4.0680    -0.3790 H     1 <1>   0.0800 
 50 H        8.2340    -6.9940     0.8830 H     1 <1>   0.1500 
 51 H        6.3490    -3.9250    -1.3610 H     1 <1>   0.1500 
 52 H        8.2910    -2.4940    -0.8370 H     1 <1>   0.1500 
 53 H       10.5750    -3.0680     1.6990 H     1 <1>   0.0800 
 54 H       10.3920    -2.1770     0.2050 H     1 <1>   0.0800 
 55 H       11.3700    -3.6260     0.2470 H     1 <1>   0.0800 
@<TRIPOS>BOND
  1   1   2  1   
  2   1   3  1   
  3   2   4  2   
  4   2   5  1   
  5   3   6  2   
  6   3  30  1   
  7   4   6  1   
  8   4   7  1   
  9   5   8  1   
 10   5  31  1   
 11   5  32  1   
 12   7  33  1   
 13   7  34  1   
 14   7  35  1   
 15   8   9  am  
 16   8  10  1   
 17   9  11  2   
 18   9  12  1   
 19  10  13  1   
 20  10  36  1   
 21  10  37  1   
 22  12  14  1   
 23  12  38  1   
 24  12  39  1   
 25  13  15  1   
 26  13  16  1   
 27  13  17  1   
 28  14  15  1   
 29  14  40  1   
 30  14  41  1   
 31  16  18  1   
 32  16  42  1   
 33  16  43  1   
 34  17  19  1   
 35  17  44  1   
 36  17  45  1   
 37  18  20  1   
 38  18  46  1   
 39  18  47  1   
 40  19  20  1   
 41  19  48  1   
 42  19  49  1   
 43  20  21  am  
 44  21  22  2   
 45  21  23  1   
 46  23  24  ar  
 47  23  25  ar  
 48  24  26  ar  
 49  24  50  1   
 50  25  27  ar  
 51  25  51  1   
 52  26  28  ar  
 53  27  28  ar  
 54  27  52  1   
 55  28  29  1   
 56  29  53  1   
 57  29  54  1   
 58  29  55  1   
@<TRIPOS>SUBSTRUCTURE
  1 ****  19 GROUP 4 **** **** 0

# MOE 2024.06 (io_trps.svl 2023.06)
