@<TRIPOS>MOLECULE
NONAME
48 49 1 0 0 
SMALL
USER_CHARGES


@<TRIPOS>ATOM
  1 S       -0.2740     0.7260     0.3120 S.3   1 <1>  -0.3310 
  2 C        0.1130     2.4410     0.0280 C.ar  1 <1>   0.7720 
  3 C       -0.9960     0.0010    -1.2340 C.3   1 <1>  -0.0100 
  4 N        0.6320     3.1040     1.0060 N.ar  1 <1>  -0.6200 
  5 N       -0.1610     2.9440    -1.1930 N.ar  1 <1>  -0.1790 
  6 C        0.9150     4.3940     0.7800 C.ar  1 <1>   0.4100 
  7 C        0.1110     4.2280    -1.4670 C.ar  1 <1>   0.4610 
  8 N        1.4350     5.0100     1.8580 N.pl3 1 <1>  -0.8690 
  9 C        0.6730     4.9740    -0.4530 C.ar  1 <1>  -0.1500 
 10 N       -0.1690     4.7330    -2.6870 N.pl3 1 <1>  -0.9000 
 11 C        1.8190     6.4170     2.1110 C.3   1 <1>   0.2890 
 12 C        0.6080     7.3470     1.9300 C.3   1 <1>  -0.1600 
 13 C        3.0460     6.7870     1.2640 C.3   1 <1>  -0.1600 
 14 C        1.0180     8.8180     1.9600 C.3   1 <1>   0.1400 
 15 C        3.3560     8.2820     1.3510 C.3   1 <1>   0.1400 
 16 N        2.1220     9.0200     0.9880 N.am  1 <1>  -0.6600 
 17 C        1.8980     9.6470    -0.2140 C.2   1 <1>   0.5690 
 18 O        0.7780     9.8940    -0.5950 O.2   1 <1>  -0.5700 
 19 C        3.0470    10.0270    -1.1370 C.3   1 <1>  -0.0990 
 20 C        3.9380    11.1540    -0.5760 C.3   1 <1>  -0.0800 
 21 C        3.1460    12.4550    -0.3980 C.3   1 <1>  -0.2400 
 22 C        5.1310    11.3980    -1.5080 C.3   1 <1>  -0.2400 
 23 H       -1.2140    -1.0330    -1.0250 H     1 <1>   0.0800 
 24 H       -0.2670     0.0690    -2.0220 H     1 <1>   0.0800 
 25 H       -1.9050     0.5250    -1.4710 H     1 <1>   0.0800 
 26 H       -0.5720     2.3430    -1.8910 H     1 <1>   0.4570 
 27 H        1.5500     4.4080     2.6800 H     1 <1>   0.4000 
 28 H        0.9140     6.0020    -0.6340 H     1 <1>   0.1500 
 29 H        0.0060     5.7260    -2.9050 H     1 <1>   0.4000 
 30 H       -0.5860     4.2470    -3.4890 H     1 <1>   0.4000 
 31 H        2.1180     6.4930     3.1440 H     1 <1>   0.0800 
 32 H       -0.1000     7.1650     2.7180 H     1 <1>   0.0800 
 33 H        0.1100     7.1750     0.9980 H     1 <1>   0.0800 
 34 H        2.8900     6.5400     0.2320 H     1 <1>   0.0800 
 35 H        3.8970     6.2300     1.6120 H     1 <1>   0.0800 
 36 H        1.3570     9.0930     2.9450 H     1 <1>   0.0800 
 37 H        0.1740     9.4420     1.7140 H     1 <1>   0.0800 
 38 H        4.1720     8.5260     0.6960 H     1 <1>   0.0800 
 39 H        3.6460     8.5460     2.3540 H     1 <1>   0.0800 
 40 H        2.6320    10.3480    -2.0760 H     1 <1>   0.0800 
 41 H        3.6340     9.1520    -1.3410 H     1 <1>   0.0800 
 42 H        4.3190    10.8580     0.3860 H     1 <1>   0.0800 
 43 H        2.7320    12.7800    -1.3360 H     1 <1>   0.0800 
 44 H        3.7830    13.2330    -0.0160 H     1 <1>   0.0800 
 45 H        2.3370    12.3150     0.2990 H     1 <1>   0.0800 
 46 H        4.7940    11.7060    -2.4830 H     1 <1>   0.0800 
 47 H        5.7170    10.5030    -1.6140 H     1 <1>   0.0800 
 48 H        5.7650    12.1690    -1.1070 H     1 <1>   0.0800 
@<TRIPOS>BOND
  1   1   2  1   
  2   1   3  1   
  3   2   4  ar  
  4   2   5  ar  
  5   3  23  1   
  6   3  24  1   
  7   3  25  1   
  8   4   6  ar  
  9   5   7  ar  
 10   5  26  1   
 11   6   8  1   
 12   6   9  ar  
 13   7   9  ar  
 14   7  10  1   
 15   8  11  1   
 16   8  27  1   
 17   9  28  1   
 18  10  29  1   
 19  10  30  1   
 20  11  12  1   
 21  11  13  1   
 22  11  31  1   
 23  12  14  1   
 24  12  32  1   
 25  12  33  1   
 26  13  15  1   
 27  13  34  1   
 28  13  35  1   
 29  14  16  1   
 30  14  36  1   
 31  14  37  1   
 32  15  16  1   
 33  15  38  1   
 34  15  39  1   
 35  16  17  am  
 36  17  18  2   
 37  17  19  1   
 38  19  20  1   
 39  19  40  1   
 40  19  41  1   
 41  20  21  1   
 42  20  22  1   
 43  20  42  1   
 44  21  43  1   
 45  21  44  1   
 46  21  45  1   
 47  22  46  1   
 48  22  47  1   
 49  22  48  1   
@<TRIPOS>SUBSTRUCTURE
  1 ****   9 GROUP 4 **** **** 0

# MOE 2024.06 (io_trps.svl 2023.06)
