@<TRIPOS>MOLECULE
NONAME
29 29 1 0 0 
SMALL
USER_CHARGES


@<TRIPOS>ATOM
  1 S        4.3990     0.2110     1.2080 S.o2  1 <1>   1.3330 
  2 O        4.6130    -0.7420     2.2740 O.2   1 <1>  -0.6500 
  3 O        4.3340     1.6260     1.4710 O.2   1 <1>  -0.6500 
  4 N        5.6390    -0.1120     0.0920 N.am  1 <1>  -0.8490 
  5 C        2.9110    -0.2050     0.3190 C.3   1 <1>  -0.1350 
  6 C        6.9010     0.6780     0.2040 C.3   1 <1>   0.3560 
  7 C        5.8250    -1.5690    -0.1390 C.3   1 <1>   0.1960 
  8 C        8.1090    -0.1370    -0.3540 C.3   1 <1>   0.3430 
  9 C        6.7340     1.9330    -0.6560 C.3   1 <1>  -0.2400 
 10 C        7.2730     1.0780     1.6490 C.3   1 <1>  -0.2400 
 11 C        7.0040    -2.1530     0.6680 C.3   1 <1>   0.3430 
 12 N        8.3060    -1.4570     0.3590 N.4   1 <1>  -0.9060 
 13 H        2.0550    -0.0130     0.9380 H     1 <1>   0.0800 
 14 H        2.9000    -1.2390     0.0400 H     1 <1>   0.0800 
 15 H        2.8300     0.3970    -0.5640 H     1 <1>   0.0800 
 16 H        6.0030    -1.7370    -1.1880 H     1 <1>   0.0800 
 17 H        4.9320    -2.1130     0.1130 H     1 <1>   0.0800 
 18 H        9.0040     0.4590    -0.2760 H     1 <1>   0.0800 
 19 H        7.9290    -0.3150    -1.4010 H     1 <1>   0.0800 
 20 H        6.4980     1.6700    -1.6710 H     1 <1>   0.0800 
 21 H        7.6360     2.5190    -0.6550 H     1 <1>   0.0800 
 22 H        5.9440     2.5560    -0.2740 H     1 <1>   0.0800 
 23 H        7.1840     0.2520     2.3290 H     1 <1>   0.0800 
 24 H        6.6630     1.8860     2.0100 H     1 <1>   0.0800 
 25 H        8.2840     1.4410     1.6870 H     1 <1>   0.0800 
 26 H        7.0930    -3.2080     0.4660 H     1 <1>   0.0800 
 27 H        6.7710    -2.0390     1.7160 H     1 <1>   0.0800 
 28 H        8.7880    -1.2820     1.2500 H     1 <1>   0.4500 
 29 H        8.9180    -2.0670    -0.1980 H     1 <1>   0.4500 
@<TRIPOS>BOND
  1   1   2  2   
  2   1   3  2   
  3   1   4  am  
  4   1   5  1   
  5   4   6  1   
  6   4   7  1   
  7   5  13  1   
  8   5  14  1   
  9   5  15  1   
 10   6   8  1   
 11   6   9  1   
 12   6  10  1   
 13   7  11  1   
 14   7  16  1   
 15   7  17  1   
 16   8  12  1   
 17   8  18  1   
 18   8  19  1   
 19   9  20  1   
 20   9  21  1   
 21   9  22  1   
 22  10  23  1   
 23  10  24  1   
 24  10  25  1   
 25  11  12  1   
 26  11  26  1   
 27  11  27  1   
 28  12  28  1   
 29  12  29  1   
@<TRIPOS>SUBSTRUCTURE
  1 ****   4 GROUP 4 **** **** 0

# MOE 2024.06 (io_trps.svl 2023.06)
