@<TRIPOS>MOLECULE
NONAME
69 72 1 0 0 
SMALL
USER_CHARGES


@<TRIPOS>ATOM
  1 O       -0.8700     0.5400    -2.8550 O.2   1 <1>  -0.5700 
  2 C       -1.6820     1.1720    -2.2240 C.2   1 <1>   0.5690 
  3 N       -2.7280     0.5650    -1.5680 N.am  1 <1>  -0.6600 
  4 C       -1.4530     2.6760    -2.1740 C.3   1 <1>  -0.0990 
  5 C       -2.9510    -0.9180    -1.7090 C.3   1 <1>   0.1400 
  6 C       -3.8250     1.2810    -0.8550 C.3   1 <1>   0.1400 
  7 C       -0.6320     3.1190    -0.9430 C.3   1 <1>  -0.0800 
  8 C       -3.1570    -1.6120    -0.3410 C.3   1 <1>   0.0000 
  9 C       -4.0730     0.6430     0.5120 C.3   1 <1>  -0.1600 
 10 C       -0.4370     4.6450    -0.9580 C.3   1 <1>  -0.1600 
 11 C        0.7390     2.4150    -0.8980 C.3   1 <1>  -0.1600 
 12 C       -4.3190    -0.8580     0.3590 C.3   1 <1>   0.2000 
 13 C       -3.6370    -3.0680    -0.5670 C.3   1 <1>   0.1200 
 14 C       -1.8480    -1.5620     0.5100 C.3   1 <1>  -0.0160 
 15 C        0.4810     5.1270     0.1660 C.3   1 <1>   0.3430 
 16 C        1.6360     2.9430     0.2190 C.3   1 <1>   0.3430 
 17 O       -4.5870    -1.3820     1.6120 O.3   1 <1>  -0.6800 
 18 O       -2.8420    -3.7350    -1.4890 O.3   1 <1>  -0.6800 
 19 C       -0.7520    -2.5370     0.0920 C.ar  1 <1>  -0.1430 
 20 N        1.7890     4.4160     0.0810 N.4   1 <1>  -0.9590 
 21 C        0.1250    -2.2270    -0.9360 C.ar  1 <1>  -0.1500 
 22 C       -0.6250    -3.7570     0.7420 C.ar  1 <1>  -0.1500 
 23 C        2.7800     4.9590     1.0500 C.3   1 <1>   0.4860 
 24 C        1.1030    -3.1270    -1.3200 C.ar  1 <1>  -0.1500 
 25 C        0.3530    -4.6580     0.3600 C.ar  1 <1>  -0.1500 
 26 C        3.0640     6.4030     0.6880 C.ar  1 <1>  -0.1430 
 27 C        1.2170    -4.3440    -0.6730 C.ar  1 <1>  -0.1500 
 28 C        2.5560     7.4320     1.4690 C.ar  1 <1>  -0.1500 
 29 C        3.8270     6.7080    -0.4310 C.ar  1 <1>  -0.1500 
 30 C        2.7970     8.7510     1.1260 C.ar  1 <1>  -0.1500 
 31 C        4.0670     8.0280    -0.7710 C.ar  1 <1>  -0.1500 
 32 C        3.5500     9.0490     0.0050 C.ar  1 <1>  -0.1500 
 33 H       -0.9200     2.9480    -3.0690 H     1 <1>   0.0800 
 34 H       -2.3920     3.1920    -2.2180 H     1 <1>   0.0800 
 35 H       -3.8240    -1.0720    -2.3200 H     1 <1>   0.0800 
 36 H       -2.1290    -1.3780    -2.2290 H     1 <1>   0.0800 
 37 H       -3.5920     2.3190    -0.7110 H     1 <1>   0.0800 
 38 H       -4.7200     1.2190    -1.4510 H     1 <1>   0.0800 
 39 H       -1.1810     2.8510    -0.0550 H     1 <1>   0.0800 
 40 H       -4.9420     1.1010     0.9520 H     1 <1>   0.0800 
 41 H       -3.2300     0.8340     1.1500 H     1 <1>   0.0800 
 42 H       -1.3920     5.1310    -0.8540 H     1 <1>   0.0800 
 43 H       -0.0220     4.9580    -1.9010 H     1 <1>   0.0800 
 44 H        1.2450     2.5290    -1.8410 H     1 <1>   0.0800 
 45 H        0.6000     1.3590    -0.7420 H     1 <1>   0.0800 
 46 H       -5.2170    -0.9940    -0.2230 H     1 <1>   0.0800 
 47 H       -4.6410    -3.0820    -0.9540 H     1 <1>   0.0800 
 48 H       -3.6230    -3.6240     0.3550 H     1 <1>   0.0800 
 49 H       -1.4370    -0.5690     0.4910 H     1 <1>   0.0800 
 50 H       -2.0800    -1.7740     1.5370 H     1 <1>   0.0800 
 51 H        0.0200     4.9340     1.1210 H     1 <1>   0.0800 
 52 H        0.6300     6.1920     0.0700 H     1 <1>   0.0800 
 53 H        2.5990     2.4600     0.1600 H     1 <1>   0.0800 
 54 H        1.1960     2.7080     1.1750 H     1 <1>   0.0800 
 55 H       -3.8790    -1.1530     2.2430 H     1 <1>   0.4000 
 56 H       -1.9020    -3.7200    -1.1920 H     1 <1>   0.4000 
 57 H        2.1660     4.6130    -0.8550 H     1 <1>   0.4500 
 58 H        0.0520    -1.2870    -1.4510 H     1 <1>   0.1500 
 59 H       -1.2900    -4.0170     1.5460 H     1 <1>   0.1500 
 60 H        2.3950     4.8990     2.0540 H     1 <1>   0.0800 
 61 H        3.6970     4.3960     0.9990 H     1 <1>   0.0800 
 62 H        1.7720    -2.8810    -2.1270 H     1 <1>   0.1500 
 63 H        0.4420    -5.6040     0.8660 H     1 <1>   0.1500 
 64 H        1.9770    -5.0450    -0.9740 H     1 <1>   0.1500 
 65 H        1.9710     7.2260     2.3500 H     1 <1>   0.1500 
 66 H        4.2480     5.9330    -1.0480 H     1 <1>   0.1500 
 67 H        2.4030     9.5500     1.7320 H     1 <1>   0.1500 
 68 H        4.6590     8.2660    -1.6390 H     1 <1>   0.1500 
 69 H        3.7390    10.0760    -0.2600 H     1 <1>   0.1500 
@<TRIPOS>BOND
  1   1   2  2   
  2   2   3  am  
  3   2   4  1   
  4   3   5  1   
  5   3   6  1   
  6   4   7  1   
  7   4  33  1   
  8   4  34  1   
  9   5   8  1   
 10   5  35  1   
 11   5  36  1   
 12   6   9  1   
 13   6  37  1   
 14   6  38  1   
 15   7  10  1   
 16   7  11  1   
 17   7  39  1   
 18   8  12  1   
 19   8  13  1   
 20   8  14  1   
 21   9  12  1   
 22   9  40  1   
 23   9  41  1   
 24  10  15  1   
 25  10  42  1   
 26  10  43  1   
 27  11  16  1   
 28  11  44  1   
 29  11  45  1   
 30  12  17  1   
 31  12  46  1   
 32  13  18  1   
 33  13  47  1   
 34  13  48  1   
 35  14  19  1   
 36  14  49  1   
 37  14  50  1   
 38  15  20  1   
 39  15  51  1   
 40  15  52  1   
 41  16  20  1   
 42  16  53  1   
 43  16  54  1   
 44  17  55  1   
 45  18  56  1   
 46  19  21  ar  
 47  19  22  ar  
 48  20  23  1   
 49  20  57  1   
 50  21  24  ar  
 51  21  58  1   
 52  22  25  ar  
 53  22  59  1   
 54  23  26  1   
 55  23  60  1   
 56  23  61  1   
 57  24  27  ar  
 58  24  62  1   
 59  25  27  ar  
 60  25  63  1   
 61  26  28  ar  
 62  26  29  ar  
 63  27  64  1   
 64  28  30  ar  
 65  28  65  1   
 66  29  31  ar  
 67  29  66  1   
 68  30  32  ar  
 69  30  67  1   
 70  31  32  ar  
 71  31  68  1   
 72  32  69  1   
@<TRIPOS>SUBSTRUCTURE
  1 ****  11 GROUP 4 **** **** 0

# MOE 2024.06 (io_trps.svl 2023.06)
