@<TRIPOS>MOLECULE
NONAME
51 53 1 0 0 
SMALL
USER_CHARGES


@<TRIPOS>ATOM
  1 O        2.7410    -2.3080     2.7640 O.2   1 <1>  -0.5700 
  2 C        2.7170    -2.4960     1.5620 C.2   1 <1>   0.5440 
  3 N        3.4410    -1.6480     0.7550 N.am  1 <1>  -0.6600 
  4 C        1.9480    -3.5930     1.0220 C.ar  1 <1>   0.0860 
  5 C        3.7250    -0.2460     1.1660 C.3   1 <1>   0.1400 
  6 C        3.5660    -1.7570    -0.7200 C.3   1 <1>   0.1400 
  7 C        0.7830    -3.3790     0.2740 C.ar  1 <1>   0.0830 
  8 C        2.3530    -4.9060     1.2560 C.ar  1 <1>  -0.1500 
  9 C        3.3730     0.5820    -0.0720 C.3   1 <1>   0.4240 
 10 C        3.8460    -0.3320    -1.2030 C.3   1 <1>  -0.1600 
 11 O        0.3880    -2.0960     0.0610 O.3   1 <1>  -0.3630 
 12 C        0.0680    -4.4660    -0.2270 C.ar  1 <1>  -0.1500 
 13 C        1.6410    -5.9790     0.7570 C.ar  1 <1>  -0.1500 
 14 O        1.9930     0.6310    -0.1530 O.3   1 <1>  -0.6800 
 15 C        3.9190     2.0170    -0.0580 C.ar  1 <1>  -0.1430 
 16 C       -0.8950    -1.7870    -0.4540 C.3   1 <1>   0.1200 
 17 C        0.4970    -5.7580     0.0120 C.ar  1 <1>  -0.1500 
 18 C        3.7500     2.8000     1.0780 C.ar  1 <1>  -0.1500 
 19 C        4.5770     2.5730    -1.1510 C.ar  1 <1>  -0.1500 
 20 C       -1.0800    -0.2730    -0.4680 C.3   1 <1>   0.1200 
 21 C        4.2430     4.0930     1.1320 C.ar  1 <1>  -0.1500 
 22 C        5.0710     3.8650    -1.0990 C.ar  1 <1>  -0.1500 
 23 O       -2.3690     0.0000    -0.9160 O.3   1 <1>  -0.5600 
 24 C        4.9070     4.6260     0.0430 C.ar  1 <1>  -0.1500 
 25 C       -2.6580     1.3560    -0.9820 C.3   1 <1>   0.1200 
 26 C       -4.0860     1.4970    -1.4930 C.3   1 <1>  -0.2400 
 27 H        4.7710    -0.1490     1.3940 H     1 <1>   0.0800 
 28 H        3.1420     0.0510     2.0210 H     1 <1>   0.0800 
 29 H        2.6500    -2.1200    -1.1530 H     1 <1>   0.0800 
 30 H        4.3720    -2.4230    -0.9800 H     1 <1>   0.0800 
 31 H        3.2390    -5.0760     1.8450 H     1 <1>   0.1500 
 32 H        3.3610    -0.1110    -2.1370 H     1 <1>   0.0800 
 33 H        4.9080    -0.2260    -1.3290 H     1 <1>   0.0800 
 34 H       -0.8250    -4.3310    -0.8080 H     1 <1>   0.1500 
 35 H        1.9730    -6.9860     0.9500 H     1 <1>   0.1500 
 36 H        1.6660    -0.2640     0.0820 H     1 <1>   0.4000 
 37 H       -1.6330    -2.2430     0.1830 H     1 <1>   0.0800 
 38 H       -0.9640    -2.1720    -1.4560 H     1 <1>   0.0800 
 39 H       -0.0590    -6.5940    -0.3770 H     1 <1>   0.1500 
 40 H        3.2240     2.4100     1.9310 H     1 <1>   0.1500 
 41 H        4.7120     2.0140    -2.0590 H     1 <1>   0.1500 
 42 H       -0.3800     0.1840    -1.1440 H     1 <1>   0.0800 
 43 H       -0.9670     0.1280     0.5250 H     1 <1>   0.0800 
 44 H        4.1050     4.6830     2.0210 H     1 <1>   0.1500 
 45 H        5.5810     4.2800    -1.9510 H     1 <1>   0.1500 
 46 H        5.2920     5.6300     0.0840 H     1 <1>   0.1500 
 47 H       -1.9640     1.8290    -1.6570 H     1 <1>   0.0800 
 48 H       -2.5620     1.7810     0.0030 H     1 <1>   0.0800 
 49 H       -4.1730     1.0580    -2.4700 H     1 <1>   0.0800 
 50 H       -4.3490     2.5370    -1.5580 H     1 <1>   0.0800 
 51 H       -4.7680     1.0100    -0.8190 H     1 <1>   0.0800 
@<TRIPOS>BOND
  1   1   2  2   
  2   2   3  am  
  3   2   4  1   
  4   3   5  1   
  5   3   6  1   
  6   4   7  ar  
  7   4   8  ar  
  8   5   9  1   
  9   5  27  1   
 10   5  28  1   
 11   6  10  1   
 12   6  29  1   
 13   6  30  1   
 14   7  11  1   
 15   7  12  ar  
 16   8  13  ar  
 17   8  31  1   
 18   9  10  1   
 19   9  14  1   
 20   9  15  1   
 21  10  32  1   
 22  10  33  1   
 23  11  16  1   
 24  12  17  ar  
 25  12  34  1   
 26  13  17  ar  
 27  13  35  1   
 28  14  36  1   
 29  15  18  ar  
 30  15  19  ar  
 31  16  20  1   
 32  16  37  1   
 33  16  38  1   
 34  17  39  1   
 35  18  21  ar  
 36  18  40  1   
 37  19  22  ar  
 38  19  41  1   
 39  20  23  1   
 40  20  42  1   
 41  20  43  1   
 42  21  24  ar  
 43  21  44  1   
 44  22  24  ar  
 45  22  45  1   
 46  23  25  1   
 47  24  46  1   
 48  25  26  1   
 49  25  47  1   
 50  25  48  1   
 51  26  49  1   
 52  26  50  1   
 53  26  51  1   
@<TRIPOS>SUBSTRUCTURE
  1 ****  14 GROUP 4 **** **** 0

# MOE 2024.06 (io_trps.svl 2023.06)
