@<TRIPOS>MOLECULE
NONAME
41 42 1 0 0 
SMALL
USER_CHARGES


@<TRIPOS>ATOM
  1 CL      -2.4310    -0.7590    -1.4900 Cl    1 <1>  -0.1770 
  2 C       -2.4860     0.3980    -0.1800 C.ar  1 <1>   0.1770 
  3 C       -2.7030    -0.0380     1.1270 C.ar  1 <1>   0.0860 
  4 C       -2.2990     1.7290    -0.4900 C.ar  1 <1>  -0.1500 
  5 C       -2.9240    -1.4250     1.4570 C.2   1 <1>   0.5440 
  6 C       -2.6920     0.9380     2.1240 C.ar  1 <1>  -0.1500 
  7 C       -2.3100     2.6960     0.5110 C.ar  1 <1>   0.1170 
  8 O       -2.1250    -1.9960     2.1740 O.2   1 <1>  -0.5700 
  9 N       -4.0350    -2.1160     1.0190 N.am  1 <1>  -0.6600 
 10 C       -2.5010     2.2730     1.8230 C.ar  1 <1>  -0.1500 
 11 N       -2.1220     4.0580     0.2570 N.am  1 <1>  -0.5470 
 12 C       -4.1510    -3.5970     1.2550 C.3   1 <1>   0.1400 
 13 C       -5.2100    -1.4360     0.3860 C.3   1 <1>   0.1400 
 14 C       -2.3460     4.7850    -0.8780 C.2   1 <1>   0.5690 
 15 C       -4.9660    -4.2650     0.1370 C.3   1 <1>   0.2000 
 16 C       -6.4930    -2.2420     0.6100 C.3   1 <1>  -0.1600 
 17 O       -2.8080     4.3250    -1.8910 O.2   1 <1>  -0.5700 
 18 C       -2.0020     6.2530    -0.8420 C.3   1 <1>  -0.1790 
 19 O       -4.2950    -4.0320    -1.0530 O.3   1 <1>  -0.6800 
 20 C       -6.4060    -3.6940     0.0700 C.3   1 <1>  -0.0800 
 21 C       -7.0140    -3.8380    -1.3390 C.3   1 <1>   0.1200 
 22 O       -8.3690    -3.5420    -1.3010 O.3   1 <1>  -0.6800 
 23 H       -2.1370     2.0070    -1.5150 H     1 <1>   0.1500 
 24 H       -2.8340     0.6290     3.1470 H     1 <1>   0.1500 
 25 H       -2.5020     2.9970     2.6190 H     1 <1>   0.1500 
 26 H       -1.8060     4.6070     1.0550 H     1 <1>   0.3700 
 27 H       -3.1730    -4.0460     1.2980 H     1 <1>   0.0800 
 28 H       -4.6310    -3.7630     2.2040 H     1 <1>   0.0800 
 29 H       -5.3330    -0.4510     0.8050 H     1 <1>   0.0800 
 30 H       -5.0380    -1.3330    -0.6720 H     1 <1>   0.0800 
 31 H       -5.0000    -5.3320     0.2780 H     1 <1>   0.0800 
 32 H       -6.6850    -2.2680     1.6680 H     1 <1>   0.0800 
 33 H       -7.3190    -1.7180     0.1600 H     1 <1>   0.0800 
 34 H       -0.9670     6.3810    -0.5870 H     1 <1>   0.0800 
 35 H       -2.6190     6.7550    -0.1200 H     1 <1>   0.0800 
 36 H       -2.1770     6.6890    -1.8090 H     1 <1>   0.0800 
 37 H       -3.8540    -3.1580    -0.9820 H     1 <1>   0.4000 
 38 H       -6.9990    -4.3040     0.7290 H     1 <1>   0.0800 
 39 H       -6.8980    -4.8420    -1.7100 H     1 <1>   0.0800 
 40 H       -6.5450    -3.1560    -2.0280 H     1 <1>   0.0800 
 41 H       -8.8540    -4.2110    -0.7810 H     1 <1>   0.4000 
@<TRIPOS>BOND
  1   1   2  1   
  2   2   3  ar  
  3   2   4  ar  
  4   3   5  1   
  5   3   6  ar  
  6   4   7  ar  
  7   4  23  1   
  8   5   8  2   
  9   5   9  am  
 10   6  10  ar  
 11   6  24  1   
 12   7  10  ar  
 13   7  11  1   
 14   9  12  1   
 15   9  13  1   
 16  10  25  1   
 17  11  14  am  
 18  11  26  1   
 19  12  15  1   
 20  12  27  1   
 21  12  28  1   
 22  13  16  1   
 23  13  29  1   
 24  13  30  1   
 25  14  17  2   
 26  14  18  1   
 27  15  19  1   
 28  15  20  1   
 29  15  31  1   
 30  16  20  1   
 31  16  32  1   
 32  16  33  1   
 33  18  34  1   
 34  18  35  1   
 35  18  36  1   
 36  19  37  1   
 37  20  21  1   
 38  20  38  1   
 39  21  22  1   
 40  21  39  1   
 41  21  40  1   
 42  22  41  1   
@<TRIPOS>SUBSTRUCTURE
  1 ****   3 GROUP 4 **** **** 0

# MOE 2024.06 (io_trps.svl 2023.06)
