@<TRIPOS>MOLECULE
NONAME
63 65 1 0 0 
SMALL
USER_CHARGES


@<TRIPOS>ATOM
  1 O        3.4290     2.2350    -3.5520 O.3   1 <1>  -0.6800 
  2 C        2.9470     1.2770    -2.6760 C.3   1 <1>   0.1200 
  3 C        4.1240     0.8260    -1.8040 C.3   1 <1>   0.3430 
  4 N        3.7000    -0.0540    -0.6750 N.4   1 <1>  -0.9590 
  5 C        4.6450    -0.0430     0.4720 C.3   1 <1>   0.4860 
  6 C        3.2880    -1.4300    -1.0570 C.3   1 <1>   0.5230 
  7 C        4.7090     1.3740     1.0270 C.ar  1 <1>  -0.1430 
  8 C        2.0990    -1.7940    -0.1760 C.2   1 <1>   0.0070 
  9 C        5.8130     2.2140     0.8700 C.ar  1 <1>  -0.1430 
 10 C        3.5900     1.8220     1.7130 C.ar  1 <1>  -0.1500 
 11 N        1.4650    -0.9230     0.5490 N.2   1 <1>  -0.5650 
 12 N        1.5940    -3.0480    -0.0760 N.pl3 1 <1>   0.0330 
 13 C        5.7580     3.5110     1.3880 C.ar  1 <1>  -0.1430 
 14 C        7.0610     1.6910     0.1530 C.3   1 <1>  -0.0970 
 15 C        3.5410     3.0980     2.2350 C.ar  1 <1>  -0.1430 
 16 C        0.5000    -1.6430     1.1530 C.2   1 <1>   0.0770 
 17 C        0.5660    -2.9390     0.7820 C.2   1 <1>  -0.3020 
 18 C        4.6260     3.9330     2.0700 C.ar  1 <1>  -0.1500 
 19 C        6.8890     4.5220     1.2540 C.3   1 <1>   0.4860 
 20 C        2.3120     3.5710     2.9930 C.3   1 <1>  -0.0970 
 21 N        6.9060     5.0810    -0.1320 N.4   1 <1>  -0.9590 
 22 C        8.0770     5.9630    -0.4080 C.3   1 <1>   0.4230 
 23 C        5.6110     5.7680    -0.4310 C.3   1 <1>   0.3430 
 24 C        8.0560     6.3950    -1.8820 C.3   1 <1>  -0.1600 
 25 C        9.3880     5.2320    -0.1140 C.3   1 <1>  -0.2400 
 26 C        5.5550     6.1780    -1.9010 C.3   1 <1>  -0.1600 
 27 C        6.7390     7.0740    -2.2740 C.3   1 <1>  -0.1600 
 28 H        2.7270     2.5430    -4.1670 H     1 <1>   0.4000 
 29 H        2.5460     0.4630    -3.2540 H     1 <1>   0.0800 
 30 H        2.1750     1.7320    -2.0790 H     1 <1>   0.0800 
 31 H        4.5780     1.7170    -1.4040 H     1 <1>   0.0800 
 32 H        4.8520     0.3200    -2.4160 H     1 <1>   0.0800 
 33 H        2.8250     0.3270    -0.2650 H     1 <1>   0.4500 
 34 H        5.6180    -0.3820     0.1620 H     1 <1>   0.0800 
 35 H        4.2840    -0.7010     1.2470 H     1 <1>   0.0800 
 36 H        4.0980    -2.1250    -0.9150 H     1 <1>   0.0800 
 37 H        2.9780    -1.4560    -2.0880 H     1 <1>   0.0800 
 38 H        2.7400     1.1730     1.8570 H     1 <1>   0.1500 
 39 H        1.8990    -3.9100    -0.5420 H     1 <1>   0.2700 
 40 H        7.3510     0.7390     0.5620 H     1 <1>   0.0800 
 41 H        7.9100     2.3370     0.2670 H     1 <1>   0.0800 
 42 H        6.8710     1.5730    -0.8990 H     1 <1>   0.0800 
 43 H       -0.2050    -1.1900     1.8330 H     1 <1>   0.1500 
 44 H       -0.0540    -3.7680     1.0790 H     1 <1>   0.1500 
 45 H        4.5780     4.9240     2.4920 H     1 <1>   0.1500 
 46 H        7.8200     4.0320     1.4790 H     1 <1>   0.0800 
 47 H        6.7520     5.3180     1.9690 H     1 <1>   0.0800 
 48 H        1.4350     3.0370     2.6700 H     1 <1>   0.0800 
 49 H        2.1450     4.6200     2.8300 H     1 <1>   0.0800 
 50 H        2.4460     3.4020     4.0470 H     1 <1>   0.0800 
 51 H        6.9690     4.2870    -0.7740 H     1 <1>   0.4500 
 52 H        8.0170     6.8450     0.2110 H     1 <1>   0.0800 
 53 H        5.5100     6.6440     0.1900 H     1 <1>   0.0800 
 54 H        4.7820     5.1100    -0.2230 H     1 <1>   0.0800 
 55 H        8.2210     5.5390    -2.5140 H     1 <1>   0.0800 
 56 H        8.8640     7.0830    -2.0610 H     1 <1>   0.0800 
 57 H        9.4430     4.2990    -0.6460 H     1 <1>   0.0800 
 58 H        9.5210     5.0640     0.9390 H     1 <1>   0.0800 
 59 H       10.2160     5.8420    -0.4340 H     1 <1>   0.0800 
 60 H        4.6360     6.7090    -2.0840 H     1 <1>   0.0800 
 61 H        5.5450     5.2980    -2.5210 H     1 <1>   0.0800 
 62 H        6.7290     7.2720    -3.3330 H     1 <1>   0.0800 
 63 H        6.6530     8.0190    -1.7630 H     1 <1>   0.0800 
@<TRIPOS>BOND
  1   1   2  1   
  2   1  28  1   
  3   2   3  1   
  4   2  29  1   
  5   2  30  1   
  6   3   4  1   
  7   3  31  1   
  8   3  32  1   
  9   4   5  1   
 10   4   6  1   
 11   4  33  1   
 12   5   7  1   
 13   5  34  1   
 14   5  35  1   
 15   6   8  1   
 16   6  36  1   
 17   6  37  1   
 18   7   9  ar  
 19   7  10  ar  
 20   8  11  2   
 21   8  12  1   
 22   9  13  ar  
 23   9  14  1   
 24  10  15  ar  
 25  10  38  1   
 26  11  16  1   
 27  12  17  1   
 28  12  39  1   
 29  13  18  ar  
 30  13  19  1   
 31  14  40  1   
 32  14  41  1   
 33  14  42  1   
 34  15  18  ar  
 35  15  20  1   
 36  16  17  2   
 37  16  43  1   
 38  17  44  1   
 39  18  45  1   
 40  19  21  1   
 41  19  46  1   
 42  19  47  1   
 43  20  48  1   
 44  20  49  1   
 45  20  50  1   
 46  21  22  1   
 47  21  23  1   
 48  21  51  1   
 49  22  24  1   
 50  22  25  1   
 51  22  52  1   
 52  23  26  1   
 53  23  53  1   
 54  23  54  1   
 55  24  27  1   
 56  24  55  1   
 57  24  56  1   
 58  25  57  1   
 59  25  58  1   
 60  25  59  1   
 61  26  27  1   
 62  26  60  1   
 63  26  61  1   
 64  27  62  1   
 65  27  63  1   
@<TRIPOS>SUBSTRUCTURE
  1 ****   7 GROUP 4 **** **** 0

# MOE 2024.06 (io_trps.svl 2023.06)
