@<TRIPOS>MOLECULE
NONAME
44 46 1 0 0 
SMALL
USER_CHARGES


@<TRIPOS>ATOM
  1 CL      -3.6710    -1.3240    -4.0760 Cl    1 <1>  -0.1770 
  2 C       -3.2640    -1.6700    -2.4150 C.ar  1 <1>   0.1770 
  3 C       -3.5940    -2.8990    -1.8810 C.ar  1 <1>  -0.1500 
  4 C       -2.6210    -0.7060    -1.6600 C.ar  1 <1>  -0.1500 
  5 C       -3.2810    -3.1750    -0.5600 C.ar  1 <1>   0.0830 
  6 C       -2.3000    -0.9830    -0.3410 C.ar  1 <1>  -0.1500 
  7 O       -3.6450    -4.3920    -0.0920 O.3   1 <1>  -0.3630 
  8 C       -2.6270    -2.2120     0.2090 C.ar  1 <1>  -0.1500 
  9 C       -3.5750    -4.7010     1.2930 C.3   1 <1>   0.1810 
 10 C       -4.2470    -6.0370     1.6120 C.2   1 <1>   0.5690 
 11 O       -3.5620    -6.8580     2.1790 O.2   1 <1>  -0.5700 
 12 N       -5.5700    -6.2920     1.3100 N.am  1 <1>  -0.6600 
 13 C       -6.4640    -5.2800     0.6650 C.3   1 <1>   0.2200 
 14 C       -6.1420    -7.6440     1.6050 C.3   1 <1>   0.0600 
 15 C       -6.7120    -5.5780    -0.8090 C.3   1 <1>  -0.1600 
 16 C       -7.8630    -5.1840     1.2700 C.3   1 <1>  -0.1600 
 17 C       -7.9510    -4.7460    -1.1620 C.3   1 <1>  -0.0800 
 18 C       -8.7040    -4.5160     0.1730 C.3   1 <1>  -0.0800 
 19 C       -8.7810    -5.3650    -2.3040 C.3   1 <1>   0.1400 
 20 C      -10.1720    -4.9890     0.1640 C.3   1 <1>  -0.0990 
 21 N      -10.1520    -4.8150    -2.2780 N.am  1 <1>  -0.7300 
 22 C      -10.8440    -4.6140    -1.1380 C.2   1 <1>   0.5690 
 23 O      -11.9590    -4.1610    -1.1480 O.2   1 <1>  -0.5700 
 24 H       -4.0890    -3.6350    -2.4850 H     1 <1>   0.1500 
 25 H       -2.3750     0.2430    -2.1020 H     1 <1>   0.1500 
 26 H       -1.7960    -0.2410     0.2550 H     1 <1>   0.1500 
 27 H       -2.3600    -2.4010     1.2310 H     1 <1>   0.1500 
 28 H       -2.5370    -4.7500     1.5700 H     1 <1>   0.0800 
 29 H       -4.0610    -3.9200     1.8470 H     1 <1>   0.0800 
 30 H       -6.0280    -4.3000     0.7340 H     1 <1>   0.0800 
 31 H       -6.8160    -7.9510     0.8260 H     1 <1>   0.0800 
 32 H       -6.6690    -7.6150     2.5410 H     1 <1>   0.0800 
 33 H       -5.3590    -8.3800     1.6760 H     1 <1>   0.0800 
 34 H       -5.8650    -5.3040    -1.4120 H     1 <1>   0.0800 
 35 H       -6.9200    -6.6240    -0.9420 H     1 <1>   0.0800 
 36 H       -8.2600    -6.1600     1.4760 H     1 <1>   0.0800 
 37 H       -7.8600    -4.6030     2.1750 H     1 <1>   0.0800 
 38 H       -7.6080    -3.7830    -1.5040 H     1 <1>   0.0800 
 39 H       -8.7090    -3.4530     0.3520 H     1 <1>   0.0800 
 40 H       -8.8440    -6.4340    -2.1840 H     1 <1>   0.0800 
 41 H       -8.3180    -5.1540    -3.2530 H     1 <1>   0.0800 
 42 H      -10.7080    -4.5520     0.9860 H     1 <1>   0.0800 
 43 H      -10.2250    -6.0580     0.2560 H     1 <1>   0.0800 
 44 H      -10.6150    -4.5890    -3.1610 H     1 <1>   0.3700 
@<TRIPOS>BOND
  1   1   2  1   
  2   2   3  ar  
  3   2   4  ar  
  4   3   5  ar  
  5   3  24  1   
  6   4   6  ar  
  7   4  25  1   
  8   5   7  1   
  9   5   8  ar  
 10   6   8  ar  
 11   6  26  1   
 12   7   9  1   
 13   8  27  1   
 14   9  10  1   
 15   9  28  1   
 16   9  29  1   
 17  10  11  2   
 18  10  12  am  
 19  12  13  1   
 20  12  14  1   
 21  13  15  1   
 22  13  16  1   
 23  13  30  1   
 24  14  31  1   
 25  14  32  1   
 26  14  33  1   
 27  15  17  1   
 28  15  34  1   
 29  15  35  1   
 30  16  18  1   
 31  16  36  1   
 32  16  37  1   
 33  17  18  1   
 34  17  19  1   
 35  17  38  1   
 36  18  20  1   
 37  18  39  1   
 38  19  21  1   
 39  19  40  1   
 40  19  41  1   
 41  20  22  1   
 42  20  42  1   
 43  20  43  1   
 44  21  22  am  
 45  21  44  1   
 46  22  23  2   
@<TRIPOS>SUBSTRUCTURE
  1 ****  13 GROUP 4 **** **** 0

# MOE 2024.06 (io_trps.svl 2023.06)
