@<TRIPOS>MOLECULE
NONAME
47 49 1 0 0 
SMALL
USER_CHARGES


@<TRIPOS>ATOM
  1 O        2.9770    -0.5180     1.7420 O.2   1 <1>  -0.5700 
  2 C        2.0910    -0.8870     1.0050 C.2   1 <1>   0.5690 
  3 N        1.3910    -0.0110     0.2430 N.am  1 <1>  -0.7300 
  4 C        1.7660    -2.3800     0.8870 C.3   1 <1>   0.1710 
  5 C        1.5680     1.4580     0.2090 C.3   1 <1>   0.3200 
  6 N        0.3930    -2.6700     0.3800 N.3   1 <1>  -0.8100 
  7 C        2.8510     1.8300    -0.5090 C.2   1 <1>   0.0060 
  8 C        0.2840    -4.0860    -0.0460 C.3   1 <1>   0.1100 
  9 C       -0.6260    -2.3960     1.4260 C.3   1 <1>   0.1100 
 10 N        2.9570     2.6090    -1.5270 N.2   1 <1>  -0.3380 
 11 N        4.0450     1.3650    -0.1290 N.pl3 1 <1>   0.0330 
 12 C       -1.1280    -4.4380    -0.5540 C.3   1 <1>   0.2090 
 13 C       -2.0570    -2.7140     0.9490 C.3   1 <1>   0.2090 
 14 N        4.2590     2.6640    -1.8480 N.2   1 <1>  -0.3380 
 15 C        4.8870     1.9150    -1.0020 C.2   1 <1>   0.2700 
 16 N       -2.1580    -4.1230     0.4750 N.pl3 1 <1>  -0.8380 
 17 N        6.2510     1.7220    -1.0110 N.pl3 1 <1>  -0.8840 
 18 C       -3.4430    -4.5890     0.2210 C.ar  1 <1>   0.1000 
 19 C       -4.1960    -4.1140    -0.8480 C.ar  1 <1>  -0.1500 
 20 C       -3.9960    -5.5520     1.0510 C.ar  1 <1>  -0.1500 
 21 C       -5.4750    -4.5880    -1.0860 C.ar  1 <1>  -0.1440 
 22 C       -5.2710    -6.0330     0.8220 C.ar  1 <1>  -0.1500 
 23 C       -6.0100    -5.5520    -0.2460 C.ar  1 <1>  -0.1500 
 24 C       -6.2940    -4.0690    -2.2540 C.3   1 <1>  -0.0970 
 25 H        0.6930    -0.4160    -0.3900 H     1 <1>   0.3700 
 26 H        1.9080    -2.8440     1.8470 H     1 <1>   0.0800 
 27 H        2.4870    -2.8010     0.2100 H     1 <1>   0.0800 
 28 H        1.6030     1.8360     1.2160 H     1 <1>   0.0800 
 29 H        0.7310     1.9090    -0.2950 H     1 <1>   0.0800 
 30 H        0.5210    -4.7360     0.7790 H     1 <1>   0.0800 
 31 H        0.9890    -4.2760    -0.8360 H     1 <1>   0.0800 
 32 H       -0.5840    -1.3600     1.7140 H     1 <1>   0.0800 
 33 H       -0.4230    -2.9920     2.3000 H     1 <1>   0.0800 
 34 H        4.2310     0.6920     0.6210 H     1 <1>   0.2700 
 35 H       -1.1740    -5.4870    -0.7900 H     1 <1>   0.0800 
 36 H       -1.3310    -3.8820    -1.4530 H     1 <1>   0.0800 
 37 H       -2.3240    -2.0440     0.1510 H     1 <1>   0.0800 
 38 H       -2.7480    -2.5640     1.7600 H     1 <1>   0.0800 
 39 H        6.6850     2.2500    -1.7730 H     1 <1>   0.4000 
 40 H        6.7180     1.9320    -0.1270 H     1 <1>   0.4000 
 41 H       -3.7670    -3.3680    -1.4890 H     1 <1>   0.1500 
 42 H       -3.4120    -5.9170     1.8750 H     1 <1>   0.1500 
 43 H       -5.6890    -6.7810     1.4730 H     1 <1>   0.1500 
 44 H       -7.0020    -5.9300    -0.4200 H     1 <1>   0.1500 
 45 H       -5.7850    -3.2630    -2.7510 H     1 <1>   0.0800 
 46 H       -7.2440    -3.7090    -1.9030 H     1 <1>   0.0800 
 47 H       -6.4600    -4.8600    -2.9620 H     1 <1>   0.0800 
@<TRIPOS>BOND
  1   1   2  2   
  2   2   3  am  
  3   2   4  1   
  4   3   5  1   
  5   3  25  1   
  6   4   6  1   
  7   4  26  1   
  8   4  27  1   
  9   5   7  1   
 10   5  28  1   
 11   5  29  1   
 12   6   8  1   
 13   6   9  1   
 14   7  10  2   
 15   7  11  1   
 16   8  12  1   
 17   8  30  1   
 18   8  31  1   
 19   9  13  1   
 20   9  32  1   
 21   9  33  1   
 22  10  14  1   
 23  11  15  1   
 24  11  34  1   
 25  12  16  1   
 26  12  35  1   
 27  12  36  1   
 28  13  16  1   
 29  13  37  1   
 30  13  38  1   
 31  14  15  2   
 32  15  17  1   
 33  16  18  1   
 34  17  39  1   
 35  17  40  1   
 36  18  19  ar  
 37  18  20  ar  
 38  19  21  ar  
 39  19  41  1   
 40  20  22  ar  
 41  20  42  1   
 42  21  23  ar  
 43  21  24  1   
 44  22  23  ar  
 45  22  43  1   
 46  23  44  1   
 47  24  45  1   
 48  24  46  1   
 49  24  47  1   
@<TRIPOS>SUBSTRUCTURE
  1 ****   6 GROUP 4 **** **** 0

# MOE 2024.06 (io_trps.svl 2023.06)
