@<TRIPOS>MOLECULE
NONAME
51 53 1 0 0 
SMALL
USER_CHARGES


@<TRIPOS>ATOM
  1 O       -0.1530    -0.1720     0.9120 O.2   1 <1>  -0.5700 
  2 C       -1.0940     0.5610     0.6930 C.2   1 <1>   0.5690 
  3 N       -2.2600     0.0220     0.1900 N.am  1 <1>  -0.6600 
  4 C       -0.9270     2.0900     1.0040 C.3   1 <1>   0.3410 
  5 C       -3.5170     0.7370    -0.1570 C.3   1 <1>   0.1400 
  6 C       -2.3800    -1.4200    -0.1360 C.3   1 <1>   0.1400 
  7 O       -1.4120     2.9180    -0.0310 O.3   1 <1>  -0.5600 
  8 C        0.5380     2.4890     1.2800 C.3   1 <1>  -0.2400 
  9 C       -1.7430     2.4830     2.2440 C.3   1 <1>  -0.2400 
 10 C       -4.3940    -0.3110    -0.8420 C.3   1 <1>   0.2000 
 11 C       -3.8740    -1.6610    -0.3560 C.3   1 <1>  -0.0800 
 12 C       -0.8380     2.7770    -1.2960 C.3   1 <1>   0.1200 
 13 O       -5.7300    -0.1660    -0.5000 O.3   1 <1>  -0.6800 
 14 C       -4.1820    -2.8060    -1.3360 C.3   1 <1>  -0.0170 
 15 C       -1.6250     3.6630    -2.2540 C.3   1 <1>  -0.2400 
 16 C       -3.6250    -4.1260    -0.8320 C.ar  1 <1>   0.1670 
 17 N       -2.4040    -4.4210    -1.1570 N.ar  1 <1>  -0.6200 
 18 C       -4.4400    -4.9500    -0.0400 C.ar  1 <1>  -0.1500 
 19 C       -1.8900    -5.5880    -0.6930 C.ar  1 <1>   0.3100 
 20 C       -3.9520    -6.1300     0.4340 C.ar  1 <1>  -0.1500 
 21 C       -2.6310    -6.4820     0.1100 C.ar  1 <1>   0.0000 
 22 C       -0.5660    -5.9240    -1.0190 C.ar  1 <1>  -0.1500 
 23 C       -2.0220    -7.6730     0.5510 C.ar  1 <1>  -0.1500 
 24 C        0.0090    -7.0870    -0.5800 C.ar  1 <1>  -0.1500 
 25 C       -0.7290    -7.9710     0.2140 C.ar  1 <1>  -0.1500 
 26 H       -3.9890     1.0900     0.7410 H     1 <1>   0.0800 
 27 H       -3.3260     1.5560    -0.8250 H     1 <1>   0.0800 
 28 H       -1.8200    -1.6230    -1.0330 H     1 <1>   0.0800 
 29 H       -1.9940    -2.0320     0.6630 H     1 <1>   0.0800 
 30 H        0.8770     2.0250     2.1890 H     1 <1>   0.0800 
 31 H        0.6270     3.5550     1.3860 H     1 <1>   0.0800 
 32 H        1.1840     2.1480     0.4920 H     1 <1>   0.0800 
 33 H       -1.4370     1.8890     3.0860 H     1 <1>   0.0800 
 34 H       -2.7900     2.3230     2.0820 H     1 <1>   0.0800 
 35 H       -1.5860     3.5200     2.4800 H     1 <1>   0.0800 
 36 H       -4.3040    -0.2180    -1.9110 H     1 <1>   0.0800 
 37 H       -4.3020    -1.8880     0.6040 H     1 <1>   0.0800 
 38 H        0.1880     3.0980    -1.2600 H     1 <1>   0.0800 
 39 H       -0.8910     1.7470    -1.6070 H     1 <1>   0.0800 
 40 H       -5.8420    -0.2430     0.4670 H     1 <1>   0.4000 
 41 H       -3.7520    -2.5900    -2.2980 H     1 <1>   0.0800 
 42 H       -5.2460    -2.8900    -1.4690 H     1 <1>   0.0800 
 43 H       -1.5700     4.6880    -1.9340 H     1 <1>   0.0800 
 44 H       -2.6530     3.3530    -2.2900 H     1 <1>   0.0800 
 45 H       -1.2090     3.5880    -3.2420 H     1 <1>   0.0800 
 46 H       -5.4430    -4.6380     0.1850 H     1 <1>   0.1500 
 47 H       -4.5450    -6.7880     1.0430 H     1 <1>   0.1500 
 48 H       -0.0160    -5.2300    -1.6280 H     1 <1>   0.1500 
 49 H       -2.5940    -8.3480     1.1620 H     1 <1>   0.1500 
 50 H        1.0250    -7.3320    -0.8370 H     1 <1>   0.1500 
 51 H       -0.2650    -8.8820     0.5530 H     1 <1>   0.1500 
@<TRIPOS>BOND
  1   1   2  2   
  2   2   3  am  
  3   2   4  1   
  4   3   5  1   
  5   3   6  1   
  6   4   7  1   
  7   4   8  1   
  8   4   9  1   
  9   5  10  1   
 10   5  26  1   
 11   5  27  1   
 12   6  11  1   
 13   6  28  1   
 14   6  29  1   
 15   7  12  1   
 16   8  30  1   
 17   8  31  1   
 18   8  32  1   
 19   9  33  1   
 20   9  34  1   
 21   9  35  1   
 22  10  11  1   
 23  10  13  1   
 24  10  36  1   
 25  11  14  1   
 26  11  37  1   
 27  12  15  1   
 28  12  38  1   
 29  12  39  1   
 30  13  40  1   
 31  14  16  1   
 32  14  41  1   
 33  14  42  1   
 34  15  43  1   
 35  15  44  1   
 36  15  45  1   
 37  16  17  ar  
 38  16  18  ar  
 39  17  19  ar  
 40  18  20  ar  
 41  18  46  1   
 42  19  21  ar  
 43  19  22  ar  
 44  20  21  ar  
 45  20  47  1   
 46  21  23  ar  
 47  22  24  ar  
 48  22  48  1   
 49  23  25  ar  
 50  23  49  1   
 51  24  25  ar  
 52  24  50  1   
 53  25  51  1   
@<TRIPOS>SUBSTRUCTURE
  1 ****   6 GROUP 4 **** **** 0

# MOE 2024.06 (io_trps.svl 2023.06)
