@<TRIPOS>MOLECULE
NONAME
50 52 1 0 0 
SMALL
USER_CHARGES


@<TRIPOS>ATOM
  1 O       -2.2510     0.5670     2.4390 O.2   1 <1>  -0.5700 
  2 C       -2.0430     0.9910     1.3190 C.2   1 <1>   0.5440 
  3 N       -2.1420     0.1410     0.2420 N.am  1 <1>  -0.6600 
  4 C       -1.7180     2.3930     1.1370 C.ar  1 <1>   0.0860 
  5 C       -2.3070    -1.3440     0.4350 C.3   1 <1>   0.3640 
  6 C       -2.4240     0.6670    -1.1330 C.3   1 <1>   0.1400 
  7 C       -0.5580     2.7900     0.4740 C.ar  1 <1>  -0.1500 
  8 C       -2.5620     3.3910     1.6190 C.ar  1 <1>  -0.1500 
  9 C       -1.0380    -2.1250     0.0510 C.ar  1 <1>  -0.1430 
 10 C       -3.5520    -1.9000    -0.3280 C.3   1 <1>   0.2000 
 11 C       -2.9730    -0.4130    -2.0760 C.3   1 <1>   0.1200 
 12 C       -0.2490     4.1260     0.2690 C.ar  1 <1>  -0.1440 
 13 C       -2.2700     4.7280     1.4250 C.ar  1 <1>  -0.1500 
 14 C        0.0240    -1.5850    -0.6690 C.ar  1 <1>  -0.1500 
 15 C       -0.9490    -3.4490     0.4610 C.ar  1 <1>  -0.1500 
 16 O       -3.9790    -1.1210    -1.4250 O.3   1 <1>  -0.5600 
 17 C       -4.7570    -2.0420     0.6100 C.3   1 <1>   0.1200 
 18 C       -1.1200     5.0930     0.7490 C.ar  1 <1>  -0.1500 
 19 C        1.0320     4.5080    -0.4690 C.3   1 <1>   0.0630 
 20 C        1.1300    -2.3550    -0.9860 C.ar  1 <1>  -0.1500 
 21 C        0.1560    -4.2210     0.1450 C.ar  1 <1>  -0.1500 
 22 O       -4.5880    -3.1500     1.4380 O.3   1 <1>  -0.6800 
 23 C        1.9540     5.3410     0.4290 C.3   1 <1>  -0.2400 
 24 C        0.7110     5.2580    -1.7650 C.3   1 <1>  -0.2400 
 25 C        1.1960    -3.6750    -0.5820 C.ar  1 <1>  -0.1500 
 26 H       -2.4580    -1.5490     1.4800 H     1 <1>   0.0800 
 27 H       -3.1510     1.4580    -1.0630 H     1 <1>   0.0800 
 28 H       -1.5260     1.0820    -1.5550 H     1 <1>   0.0800 
 29 H        0.1100     2.0240     0.1210 H     1 <1>   0.1500 
 30 H       -3.4520     3.1040     2.1510 H     1 <1>   0.1500 
 31 H       -3.3210    -2.8720    -0.7250 H     1 <1>   0.0800 
 32 H       -2.2020    -1.1000    -2.3820 H     1 <1>   0.0800 
 33 H       -3.3990     0.0400    -2.9530 H     1 <1>   0.0800 
 34 H       -2.9360     5.4840     1.8020 H     1 <1>   0.1500 
 35 H        0.0110    -0.5610    -0.9860 H     1 <1>   0.1500 
 36 H       -1.7450    -3.8900     1.0380 H     1 <1>   0.1500 
 37 H       -5.6630    -2.1820     0.0470 H     1 <1>   0.0800 
 38 H       -4.8480    -1.1690     1.2330 H     1 <1>   0.0800 
 39 H       -0.9050     6.1380     0.6040 H     1 <1>   0.1500 
 40 H        1.5620     3.6090    -0.7330 H     1 <1>   0.0800 
 41 H        1.9420    -1.9240    -1.5460 H     1 <1>   0.1500 
 42 H        0.2060    -5.2460     0.4700 H     1 <1>   0.1500 
 43 H       -4.8120    -3.9730     0.9600 H     1 <1>   0.4000 
 44 H        1.4980     6.2810     0.6820 H     1 <1>   0.0800 
 45 H        2.8850     5.5360    -0.0720 H     1 <1>   0.0800 
 46 H        2.1600     4.8040     1.3380 H     1 <1>   0.0800 
 47 H        0.2210     6.1920    -1.5560 H     1 <1>   0.0800 
 48 H        0.0630     4.6620    -2.3830 H     1 <1>   0.0800 
 49 H        1.6150     5.4600    -2.3120 H     1 <1>   0.0800 
 50 H        2.0550    -4.2740    -0.8290 H     1 <1>   0.1500 
@<TRIPOS>BOND
  1   1   2  2   
  2   2   3  am  
  3   2   4  1   
  4   3   5  1   
  5   3   6  1   
  6   4   7  ar  
  7   4   8  ar  
  8   5   9  1   
  9   5  10  1   
 10   5  26  1   
 11   6  11  1   
 12   6  27  1   
 13   6  28  1   
 14   7  12  ar  
 15   7  29  1   
 16   8  13  ar  
 17   8  30  1   
 18   9  14  ar  
 19   9  15  ar  
 20  10  16  1   
 21  10  17  1   
 22  10  31  1   
 23  11  16  1   
 24  11  32  1   
 25  11  33  1   
 26  12  18  ar  
 27  12  19  1   
 28  13  18  ar  
 29  13  34  1   
 30  14  20  ar  
 31  14  35  1   
 32  15  21  ar  
 33  15  36  1   
 34  17  22  1   
 35  17  37  1   
 36  17  38  1   
 37  18  39  1   
 38  19  23  1   
 39  19  24  1   
 40  19  40  1   
 41  20  25  ar  
 42  20  41  1   
 43  21  25  ar  
 44  21  42  1   
 45  22  43  1   
 46  23  44  1   
 47  23  45  1   
 48  23  46  1   
 49  24  47  1   
 50  24  48  1   
 51  24  49  1   
 52  25  50  1   
@<TRIPOS>SUBSTRUCTURE
  1 ****   3 GROUP 4 **** **** 0

# MOE 2024.06 (io_trps.svl 2023.06)
