@<TRIPOS>MOLECULE
NONAME
57 59 1 0 0 
SMALL
USER_CHARGES


@<TRIPOS>ATOM
  1 O        1.5580     0.5710     0.6430 O.3   1 <1>  -0.6800 
  2 C        1.7410    -0.2840    -0.4410 C.3   1 <1>   0.2000 
  3 C        2.8520    -1.2820    -0.0960 C.3   1 <1>  -0.0800 
  4 C        2.3130     0.5270    -1.6090 C.3   1 <1>   0.3430 
  5 C        4.0780    -0.8240    -0.9030 C.3   1 <1>   0.3430 
  6 C        2.4710    -2.7350    -0.4340 C.3   1 <1>   0.0210 
  7 N        3.7990     0.5590    -1.3980 N.4   1 <1>  -0.9590 
  8 C        3.6020    -3.6930    -0.1080 C.2   1 <1>   0.1080 
  9 C        4.2560     1.5610    -0.3500 C.3   1 <1>   0.3430 
 10 N        4.7900    -3.5860    -0.6210 N.2   1 <1>  -0.7070 
 11 C        3.4970    -4.7770     0.7560 C.2   1 <1>  -0.1500 
 12 C        4.4070     3.0710    -0.7650 C.3   1 <1>   0.5030 
 13 N        5.4790    -4.6240    -0.0990 N.pl3 1 <1>   0.3000 
 14 C        4.7170    -5.3520     0.7420 C.2   1 <1>  -0.3320 
 15 N        4.8230     3.9350     0.3950 N.4   1 <1>  -0.9590 
 16 C        3.0980     3.6580    -1.3150 C.3   1 <1>  -0.2400 
 17 C        5.4660     3.2040    -1.8700 C.3   1 <1>  -0.2400 
 18 C        5.2070    -6.5790     1.4890 C.3   1 <1>  -0.0600 
 19 C        6.2050     3.6740     0.9310 C.3   1 <1>   0.3430 
 20 C        3.8250     3.9770     1.5230 C.3   1 <1>   0.3430 
 21 C        6.6090     4.7800     1.9060 C.3   1 <1>  -0.1600 
 22 C        4.1890     5.0880     2.5070 C.3   1 <1>  -0.1600 
 23 C        5.6080     4.9200     3.0570 C.3   1 <1>  -0.1600 
 24 H        1.0060     0.1380     1.3330 H     1 <1>   0.4000 
 25 H        0.7950    -0.7380    -0.6880 H     1 <1>   0.0800 
 26 H        3.0910    -1.2410     0.9540 H     1 <1>   0.0800 
 27 H        1.8670     1.5050    -1.6510 H     1 <1>   0.0800 
 28 H        2.0980     0.0060    -2.5270 H     1 <1>   0.0800 
 29 H        4.2050    -1.4860    -1.7470 H     1 <1>   0.0800 
 30 H        4.9760    -0.8740    -0.3080 H     1 <1>   0.0800 
 31 H        2.2370    -2.8340    -1.4800 H     1 <1>   0.0800 
 32 H        1.6000    -3.0240     0.1280 H     1 <1>   0.0800 
 33 H        4.2960     0.6930    -2.2910 H     1 <1>   0.4500 
 34 H        3.5840     1.5130     0.4880 H     1 <1>   0.0800 
 35 H        5.2210     1.2420     0.0050 H     1 <1>   0.0800 
 36 H        2.6230    -5.0790     1.3060 H     1 <1>   0.1500 
 37 H        6.4610    -4.8180    -0.3360 H     1 <1>   0.2700 
 38 H        4.8550     4.8960     0.0280 H     1 <1>   0.4500 
 39 H        2.8710     3.2420    -2.2790 H     1 <1>   0.0800 
 40 H        3.1800     4.7230    -1.4470 H     1 <1>   0.0800 
 41 H        2.2640     3.4480    -0.6690 H     1 <1>   0.0800 
 42 H        5.1180     2.7520    -2.7820 H     1 <1>   0.0800 
 43 H        6.3840     2.7090    -1.6080 H     1 <1>   0.0800 
 44 H        5.6700     4.2390    -2.0850 H     1 <1>   0.0800 
 45 H        4.4160    -6.9860     2.0930 H     1 <1>   0.0800 
 46 H        6.0300    -6.3220     2.1330 H     1 <1>   0.0800 
 47 H        5.5290    -7.3350     0.7940 H     1 <1>   0.0800 
 48 H        6.2320     2.7250     1.4410 H     1 <1>   0.0800 
 49 H        6.9250     3.6520     0.1290 H     1 <1>   0.0800 
 50 H        2.8330     4.1680     1.1480 H     1 <1>   0.0800 
 51 H        3.8140     3.0320     2.0430 H     1 <1>   0.0800 
 52 H        7.5820     4.5550     2.3090 H     1 <1>   0.0800 
 53 H        6.6940     5.7140     1.3760 H     1 <1>   0.0800 
 54 H        4.0920     6.0450     2.0220 H     1 <1>   0.0800 
 55 H        3.4890     5.0750     3.3260 H     1 <1>   0.0800 
 56 H        5.8680     5.7700     3.6670 H     1 <1>   0.0800 
 57 H        5.6530     4.0440     3.6840 H     1 <1>   0.0800 
@<TRIPOS>BOND
  1   1   2  1   
  2   1  24  1   
  3   2   3  1   
  4   2   4  1   
  5   2  25  1   
  6   3   5  1   
  7   3   6  1   
  8   3  26  1   
  9   4   7  1   
 10   4  27  1   
 11   4  28  1   
 12   5   7  1   
 13   5  29  1   
 14   5  30  1   
 15   6   8  1   
 16   6  31  1   
 17   6  32  1   
 18   7   9  1   
 19   7  33  1   
 20   8  10  2   
 21   8  11  1   
 22   9  12  1   
 23   9  34  1   
 24   9  35  1   
 25  10  13  1   
 26  11  14  2   
 27  11  36  1   
 28  12  15  1   
 29  12  16  1   
 30  12  17  1   
 31  13  14  1   
 32  13  37  1   
 33  14  18  1   
 34  15  19  1   
 35  15  20  1   
 36  15  38  1   
 37  16  39  1   
 38  16  40  1   
 39  16  41  1   
 40  17  42  1   
 41  17  43  1   
 42  17  44  1   
 43  18  45  1   
 44  18  46  1   
 45  18  47  1   
 46  19  21  1   
 47  19  48  1   
 48  19  49  1   
 49  20  22  1   
 50  20  50  1   
 51  20  51  1   
 52  21  23  1   
 53  21  52  1   
 54  21  53  1   
 55  22  23  1   
 56  22  54  1   
 57  22  55  1   
 58  23  56  1   
 59  23  57  1   
@<TRIPOS>SUBSTRUCTURE
  1 ****   9 GROUP 4 **** **** 0

# MOE 2024.06 (io_trps.svl 2023.06)
