@<TRIPOS>MOLECULE
NONAME
43 45 1 0 0 
SMALL
USER_CHARGES


@<TRIPOS>ATOM
  1 S        0.0940    -0.4380    -0.6210 S.o2  1 <1>   1.5760 
  2 O        1.2870    -1.2390    -0.7780 O.2   1 <1>  -0.6500 
  3 O       -0.8120    -0.2610    -1.7320 O.2   1 <1>  -0.6500 
  4 N       -0.7780    -1.0220     0.7020 N.am  1 <1>  -0.8490 
  5 N        0.5460     1.0820    -0.0330 N.am  1 <1>  -0.8490 
  6 C       -1.0390    -2.4720     0.6100 C.3   1 <1>   0.1960 
  7 C       -2.0460    -0.3000     0.9460 C.3   1 <1>   0.1960 
  8 C        1.0690     1.9360    -1.1000 C.3   1 <1>   0.1160 
  9 C        1.5190     0.9900     1.0590 C.3   1 <1>   0.1160 
 10 C       -2.2070    -2.8270    -0.3400 C.3   1 <1>   0.3440 
 11 C       -3.2290    -0.7510     0.0480 C.3   1 <1>   0.2950 
 12 O       -3.3610    -2.1420     0.0660 O.3   1 <1>  -0.5600 
 13 C       -2.4680    -4.3300    -0.3230 C.ar  1 <1>  -0.1440 
 14 C       -4.5550    -0.1640     0.5420 C.3   1 <1>  -0.1950 
 15 C       -1.8210    -5.1450    -1.2410 C.ar  1 <1>  -0.1500 
 16 C       -3.3290    -4.9090     0.6010 C.ar  1 <1>  -0.1500 
 17 C       -5.7280    -0.0250    -0.3760 C.3   1 <1>  -0.2000 
 18 C       -5.0020     1.1980     0.1100 C.3   1 <1>  -0.2000 
 19 C       -2.0280    -6.5130    -1.2360 C.ar  1 <1>  -0.1500 
 20 C       -3.5370    -6.2770     0.6080 C.ar  1 <1>  -0.1500 
 21 C       -2.8860    -7.0810    -0.3110 C.ar  1 <1>  -0.1500 
 22 H       -0.1500    -2.9900     0.2930 H     1 <1>   0.0800 
 23 H       -1.2850    -2.8430     1.5890 H     1 <1>   0.0800 
 24 H       -2.3300    -0.4610     1.9710 H     1 <1>   0.0800 
 25 H       -1.8970     0.7590     0.8260 H     1 <1>   0.0800 
 26 H        1.3190     2.9080    -0.7090 H     1 <1>   0.0800 
 27 H        0.3230     2.0630    -1.8670 H     1 <1>   0.0800 
 28 H        1.9480     1.4940    -1.5400 H     1 <1>   0.0800 
 29 H        1.7360     1.9710     1.4450 H     1 <1>   0.0800 
 30 H        2.4340     0.5360     0.7160 H     1 <1>   0.0800 
 31 H        1.1190     0.3920     1.8610 H     1 <1>   0.0800 
 32 H       -1.9780    -2.5250    -1.3480 H     1 <1>   0.0800 
 33 H       -3.0740    -0.4430    -0.9710 H     1 <1>   0.0800 
 34 H       -4.7660    -0.4470     1.5590 H     1 <1>   0.1000 
 35 H       -1.1510    -4.7180    -1.9680 H     1 <1>   0.1500 
 36 H       -3.8440    -4.2920     1.3170 H     1 <1>   0.1500 
 37 H       -5.6160    -0.3290    -1.4030 H     1 <1>   0.1000 
 38 H       -6.7080    -0.2430     0.0120 H     1 <1>   0.1000 
 39 H       -5.4920     1.8360     0.8250 H     1 <1>   0.1000 
 40 H       -4.4110     1.7520    -0.6000 H     1 <1>   0.1000 
 41 H       -1.5210    -7.1360    -1.9520 H     1 <1>   0.1500 
 42 H       -4.2070    -6.7150     1.3260 H     1 <1>   0.1500 
 43 H       -3.0480    -8.1450    -0.3070 H     1 <1>   0.1500 
@<TRIPOS>BOND
  1   1   2  2   
  2   1   3  2   
  3   1   4  am  
  4   1   5  am  
  5   4   6  1   
  6   4   7  1   
  7   5   8  1   
  8   5   9  1   
  9   6  10  1   
 10   6  22  1   
 11   6  23  1   
 12   7  11  1   
 13   7  24  1   
 14   7  25  1   
 15   8  26  1   
 16   8  27  1   
 17   8  28  1   
 18   9  29  1   
 19   9  30  1   
 20   9  31  1   
 21  10  12  1   
 22  10  13  1   
 23  10  32  1   
 24  11  12  1   
 25  11  14  1   
 26  11  33  1   
 27  13  15  ar  
 28  13  16  ar  
 29  14  17  1   
 30  14  18  1   
 31  14  34  1   
 32  15  19  ar  
 33  15  35  1   
 34  16  20  ar  
 35  16  36  1   
 36  17  18  1   
 37  17  37  1   
 38  17  38  1   
 39  18  39  1   
 40  18  40  1   
 41  19  21  ar  
 42  19  41  1   
 43  20  21  ar  
 44  20  42  1   
 45  21  43  1   
@<TRIPOS>SUBSTRUCTURE
  1 ****  10 GROUP 4 **** **** 0

# MOE 2024.06 (io_trps.svl 2023.06)
