@<TRIPOS>MOLECULE
NONAME
42 44 1 0 0 
SMALL
USER_CHARGES


@<TRIPOS>ATOM
  1 O       -0.0600     0.0120     0.2750 O.2   1 <1>  -0.5700 
  2 C        1.0210    -0.5350     0.4170 C.2   1 <1>   0.7160 
  3 N        2.1600     0.2320     0.5160 N.am  1 <1>  -0.4940 
  4 C        1.1350    -1.9560     0.4690 C.2   1 <1>  -0.0860 
  5 C        2.3460     1.6350     0.5560 C.2   1 <1>  -0.0880 
  6 C        0.2800    -2.9350     0.0240 C.2   1 <1>  -0.0680 
  7 C        2.1940    -2.7030     1.0120 C.2   1 <1>   0.1390 
  8 N        1.5530     2.5690     1.1530 N.pl3 1 <1>   0.3140 
  9 C        3.3930     2.3110     0.0240 C.2   1 <1>  -0.1810 
 10 N        0.8450    -4.1200     0.2990 N.pl3 1 <1>   0.6010 
 11 N       -0.9320    -3.1400    -0.6050 N.pl3 1 <1>  -0.5530 
 12 N        2.0470    -3.9890     0.9140 N.2   1 <1>  -0.7070 
 13 N        2.0700     3.8090     1.0190 N.2   1 <1>  -0.7070 
 14 C        0.3320     2.3770     1.9460 C.3   1 <1>   0.0160 
 15 C        3.1620     3.6470     0.3420 C.2   1 <1>   0.1080 
 16 C        4.5670     1.7460    -0.7600 C.3   1 <1>   0.0210 
 17 C       -0.0060    -5.1110    -0.1510 C.2   1 <1>  -0.1810 
 18 C       -1.0860    -4.5140    -0.6990 C.2   1 <1>  -0.0500 
 19 C       -1.8840    -2.0950    -1.0420 C.3   1 <1>   0.1290 
 20 C        4.0470     4.8230    -0.0330 C.3   1 <1>   0.0210 
 21 C        5.7200     1.3930     0.1810 C.3   1 <1>  -0.2400 
 22 C        3.6510     5.4000    -1.3950 C.3   1 <1>  -0.2400 
 23 H        3.0190    -0.2890     0.3560 H     1 <1>   0.3700 
 24 H        3.0600    -2.2630     1.4780 H     1 <1>   0.1500 
 25 H        0.4000     1.4560     2.4920 H     1 <1>   0.0800 
 26 H       -0.5130     2.3500     1.2840 H     1 <1>   0.0800 
 27 H        0.2250     3.1960     2.6320 H     1 <1>   0.0800 
 28 H        4.8960     2.4650    -1.4890 H     1 <1>   0.0800 
 29 H        4.2520     0.8670    -1.2940 H     1 <1>   0.0800 
 30 H        0.2530    -6.1430    -0.0300 H     1 <1>   0.1500 
 31 H       -1.9570    -4.9620    -1.1500 H     1 <1>   0.1500 
 32 H       -1.3820    -1.4000    -1.6910 H     1 <1>   0.0800 
 33 H       -2.2540    -1.5650    -0.1820 H     1 <1>   0.0800 
 34 H       -2.7080    -2.5430    -1.5680 H     1 <1>   0.0800 
 35 H        5.0750     4.5130    -0.0490 H     1 <1>   0.0800 
 36 H        3.9440     5.5840     0.7210 H     1 <1>   0.0800 
 37 H        6.0550     2.2720     0.7030 H     1 <1>   0.0800 
 38 H        6.5440     0.9870    -0.3780 H     1 <1>   0.0800 
 39 H        5.4010     0.6670     0.9070 H     1 <1>   0.0800 
 40 H        3.7480     4.6530    -2.1610 H     1 <1>   0.0800 
 41 H        4.2760     6.2390    -1.6400 H     1 <1>   0.0800 
 42 H        2.6260     5.7280    -1.3640 H     1 <1>   0.0800 
@<TRIPOS>BOND
  1   1   2  2   
  2   2   3  am  
  3   2   4  1   
  4   3   5  1   
  5   3  23  1   
  6   4   6  2   
  7   4   7  1   
  8   5   8  1   
  9   5   9  2   
 10   6  10  1   
 11   6  11  1   
 12   7  12  2   
 13   7  24  1   
 14   8  13  1   
 15   8  14  1   
 16   9  15  1   
 17   9  16  1   
 18  10  12  1   
 19  10  17  1   
 20  11  18  1   
 21  11  19  1   
 22  13  15  2   
 23  14  25  1   
 24  14  26  1   
 25  14  27  1   
 26  15  20  1   
 27  16  21  1   
 28  16  28  1   
 29  16  29  1   
 30  17  18  2   
 31  17  30  1   
 32  18  31  1   
 33  19  32  1   
 34  19  33  1   
 35  19  34  1   
 36  20  22  1   
 37  20  35  1   
 38  20  36  1   
 39  21  37  1   
 40  21  38  1   
 41  21  39  1   
 42  22  40  1   
 43  22  41  1   
 44  22  42  1   
@<TRIPOS>SUBSTRUCTURE
  1 ****   3 GROUP 4 **** **** 0

# MOE 2024.06 (io_trps.svl 2023.06)
