@<TRIPOS>MOLECULE
NONAME
52 53 1 0 0 
SMALL
USER_CHARGES


@<TRIPOS>ATOM
  1 O       -3.1280     0.7010    -1.7320 O.2   1 <1>  -0.5700 
  2 C       -2.6600     1.2280    -0.7390 C.2   1 <1>   0.5440 
  3 N       -2.8860     0.5620     0.4330 N.am  1 <1>  -0.6600 
  4 C       -2.0440     2.5430    -0.8110 C.ar  1 <1>   0.0860 
  5 C       -2.3300    -0.8080     0.6230 C.3   1 <1>   0.3210 
  6 C       -3.6730     1.1670     1.5480 C.3   1 <1>   0.1400 
  7 C       -1.0490     2.9900     0.0770 C.ar  1 <1>   0.0830 
  8 C       -2.4540     3.4270    -1.8130 C.ar  1 <1>  -0.1500 
  9 C       -3.4020    -1.8930     0.5430 C.2   1 <1>   0.0460 
 10 C       -5.1610     0.7720     1.4530 C.3   1 <1>   0.3430 
 11 O       -0.5990     2.1290     1.0260 O.3   1 <1>  -0.3630 
 12 C       -0.5340     4.2800    -0.0270 C.ar  1 <1>  -0.1500 
 13 C       -1.9380     4.7010    -1.9160 C.ar  1 <1>  -0.1500 
 14 N       -4.1840    -2.1920     1.6040 N.2   1 <1>  -0.5650 
 15 C       -3.6880    -2.7060    -0.5020 C.2   1 <1>  -0.3320 
 16 N       -5.6010     0.6600     0.0250 N.4   1 <1>  -0.9590 
 17 C        0.5370     2.3860     1.8250 C.3   1 <1>   0.0400 
 18 C       -0.9800     5.1420    -1.0200 C.ar  1 <1>   0.0830 
 19 C       -4.8860    -3.2000     1.2000 C.2   1 <1>   0.0360 
 20 N       -4.6360    -3.5590    -0.0750 N.pl3 1 <1>   0.0330 
 21 C       -3.1040    -2.7630    -1.9060 C.3   1 <1>  -0.0600 
 22 C       -5.9650     1.9660    -0.5930 C.3   1 <1>   0.2630 
 23 C       -6.6580    -0.3700    -0.1420 C.3   1 <1>   0.2630 
 24 O       -0.5350     6.4070    -1.1840 O.3   1 <1>  -0.3630 
 25 C        0.4730     6.9620    -0.3670 C.3   1 <1>   0.0400 
 26 H       -1.8370    -0.8660     1.5770 H     1 <1>   0.0800 
 27 H       -1.5880    -0.9930    -0.1330 H     1 <1>   0.0800 
 28 H       -3.5890     2.2390     1.5030 H     1 <1>   0.0800 
 29 H       -3.2720     0.8500     2.4950 H     1 <1>   0.0800 
 30 H       -3.1900     3.1060    -2.5310 H     1 <1>   0.1500 
 31 H       -5.7700     1.4810     1.9870 H     1 <1>   0.0800 
 32 H       -5.2790    -0.1820     1.9360 H     1 <1>   0.0800 
 33 H        0.2120     4.6200     0.6600 H     1 <1>   0.1500 
 34 H       -2.2680     5.3680    -2.6940 H     1 <1>   0.1500 
 35 H       -4.7450     0.3070    -0.4690 H     1 <1>   0.4500 
 36 H        0.7320     1.5120     2.4200 H     1 <1>   0.0800 
 37 H        0.3330     3.2240     2.4670 H     1 <1>   0.0800 
 38 H        1.3780     2.5850     1.1840 H     1 <1>   0.0800 
 39 H       -5.6050    -3.7240     1.8090 H     1 <1>   0.1500 
 40 H       -5.0530    -4.3380    -0.5940 H     1 <1>   0.2700 
 41 H       -2.3950    -1.9690    -2.0590 H     1 <1>   0.0800 
 42 H       -3.8840    -2.6570    -2.6390 H     1 <1>   0.0800 
 43 H       -2.6030    -3.7010    -2.0630 H     1 <1>   0.0800 
 44 H       -6.8350     2.3800    -0.1110 H     1 <1>   0.0800 
 45 H       -6.1750     1.8320    -1.6410 H     1 <1>   0.0800 
 46 H       -5.1470     2.6620    -0.4970 H     1 <1>   0.0800 
 47 H       -7.5570    -0.0730     0.3720 H     1 <1>   0.0800 
 48 H       -6.3190    -1.3090     0.2640 H     1 <1>   0.0800 
 49 H       -6.8790    -0.5090    -1.1870 H     1 <1>   0.0800 
 50 H        0.6590     7.9660    -0.7030 H     1 <1>   0.0800 
 51 H        1.3670     6.3730    -0.4660 H     1 <1>   0.0800 
 52 H        0.1290     6.9760     0.6520 H     1 <1>   0.0800 
@<TRIPOS>BOND
  1   1   2  2   
  2   2   3  am  
  3   2   4  1   
  4   3   5  1   
  5   3   6  1   
  6   4   7  ar  
  7   4   8  ar  
  8   5   9  1   
  9   5  26  1   
 10   5  27  1   
 11   6  10  1   
 12   6  28  1   
 13   6  29  1   
 14   7  11  1   
 15   7  12  ar  
 16   8  13  ar  
 17   8  30  1   
 18   9  14  1   
 19   9  15  2   
 20  10  16  1   
 21  10  31  1   
 22  10  32  1   
 23  11  17  1   
 24  12  18  ar  
 25  12  33  1   
 26  13  18  ar  
 27  13  34  1   
 28  14  19  2   
 29  15  20  1   
 30  15  21  1   
 31  16  22  1   
 32  16  23  1   
 33  16  35  1   
 34  17  36  1   
 35  17  37  1   
 36  17  38  1   
 37  18  24  1   
 38  19  20  1   
 39  19  39  1   
 40  20  40  1   
 41  21  41  1   
 42  21  42  1   
 43  21  43  1   
 44  22  44  1   
 45  22  45  1   
 46  22  46  1   
 47  23  47  1   
 48  23  48  1   
 49  23  49  1   
 50  24  25  1   
 51  25  50  1   
 52  25  51  1   
 53  25  52  1   
@<TRIPOS>SUBSTRUCTURE
  1 ****   2 GROUP 4 **** **** 0

# MOE 2024.06 (io_trps.svl 2023.06)
