@<TRIPOS>MOLECULE
NONAME
49 51 1 0 0 
SMALL
USER_CHARGES


@<TRIPOS>ATOM
  1 O        3.4960    -1.9590    -1.6910 O.2   1 <1>  -0.5700 
  2 C        2.9720    -1.4570    -0.7200 C.2   1 <1>   0.5690 
  3 N        3.7800    -0.9980     0.2990 N.am  1 <1>  -0.6600 
  4 C        1.4280    -1.3160    -0.7150 C.3   1 <1>   0.2610 
  5 C        5.1690    -1.5210     0.4120 C.3   1 <1>   0.1400 
  6 C        3.3850     0.0550     1.2700 C.3   1 <1>   0.1400 
  7 O        0.8660    -1.2760     0.5750 O.3   1 <1>  -0.5600 
  8 C        0.6940    -2.4550    -1.4190 C.3   1 <1>  -0.1600 
  9 C        6.0940    -0.7790    -0.5670 C.3   1 <1>   0.3430 
 10 C        4.4450     1.1610     1.3430 C.3   1 <1>  -0.1600 
 11 C       -0.3770    -1.9090     0.6290 C.3   1 <1>   0.1200 
 12 C       -0.6760    -2.4130    -0.7770 C.3   1 <1>  -0.1600 
 13 N        6.3310     0.6740    -0.2330 N.4   1 <1>  -0.9590 
 14 C        5.0810     1.4790    -0.0140 C.3   1 <1>   0.3430 
 15 C        7.1790     1.2830    -1.2960 C.3   1 <1>   0.4860 
 16 C        7.6370     2.6540    -0.8460 C.ar  1 <1>  -0.1440 
 17 C        7.0770     3.7870    -1.4160 C.ar  1 <1>   0.1600 
 18 C        8.6030     2.8090     0.1320 C.ar  1 <1>  -0.1500 
 19 N        7.3710     5.0240    -1.0740 N.ar  1 <1>  -0.6200 
 20 C        8.9310     4.1000     0.4880 C.ar  1 <1>  -0.1500 
 21 C        8.2910     5.1710    -0.1340 C.ar  1 <1>   0.3930 
 22 O        8.5620     6.4550     0.1750 O.3   1 <1>  -0.3630 
 23 C        9.6020     6.8370     1.0480 C.3   1 <1>   0.0400 
 24 H        1.1700    -0.3880    -1.1920 H     1 <1>   0.0800 
 25 H        5.1630    -2.5670     0.1520 H     1 <1>   0.0800 
 26 H        5.5290    -1.4420     1.4220 H     1 <1>   0.0800 
 27 H        3.2260    -0.3860     2.2400 H     1 <1>   0.0800 
 28 H        2.4560     0.5030     0.9590 H     1 <1>   0.0800 
 29 H        1.1820    -3.3890    -1.1990 H     1 <1>   0.0800 
 30 H        0.6620    -2.3160    -2.4860 H     1 <1>   0.0800 
 31 H        5.6590    -0.8610    -1.5510 H     1 <1>   0.0800 
 32 H        7.0400    -1.2950    -0.5900 H     1 <1>   0.0800 
 33 H        5.1950     0.9170     2.0730 H     1 <1>   0.0800 
 34 H        3.9500     2.0470     1.6990 H     1 <1>   0.0800 
 35 H       -1.1160    -1.2060     0.9740 H     1 <1>   0.0800 
 36 H       -0.2970    -2.7270     1.3240 H     1 <1>   0.0800 
 37 H       -1.1580    -3.3750    -0.7650 H     1 <1>   0.0800 
 38 H       -1.3100    -1.7060    -1.2830 H     1 <1>   0.0800 
 39 H        6.8680     0.7280     0.6400 H     1 <1>   0.4500 
 40 H        5.3270     2.5290    -0.0180 H     1 <1>   0.0800 
 41 H        4.3720     1.3000    -0.8070 H     1 <1>   0.0800 
 42 H        6.6210     1.3620    -2.2160 H     1 <1>   0.0800 
 43 H        8.0450     0.6670    -1.4790 H     1 <1>   0.0800 
 44 H        6.3380     3.6830    -2.1930 H     1 <1>   0.1500 
 45 H        9.0930     1.9740     0.6030 H     1 <1>   0.1500 
 46 H        9.6760     4.2650     1.2420 H     1 <1>   0.1500 
 47 H        9.6350     7.9120     1.0740 H     1 <1>   0.0800 
 48 H       10.5340     6.4550     0.6720 H     1 <1>   0.0800 
 49 H        9.3940     6.4570     2.0320 H     1 <1>   0.0800 
@<TRIPOS>BOND
  1   1   2  2   
  2   2   3  am  
  3   2   4  1   
  4   3   5  1   
  5   3   6  1   
  6   4   7  1   
  7   4   8  1   
  8   4  24  1   
  9   5   9  1   
 10   5  25  1   
 11   5  26  1   
 12   6  10  1   
 13   6  27  1   
 14   6  28  1   
 15   7  11  1   
 16   8  12  1   
 17   8  29  1   
 18   8  30  1   
 19   9  13  1   
 20   9  31  1   
 21   9  32  1   
 22  10  14  1   
 23  10  33  1   
 24  10  34  1   
 25  11  12  1   
 26  11  35  1   
 27  11  36  1   
 28  12  37  1   
 29  12  38  1   
 30  13  14  1   
 31  13  15  1   
 32  13  39  1   
 33  14  40  1   
 34  14  41  1   
 35  15  16  1   
 36  15  42  1   
 37  15  43  1   
 38  16  17  ar  
 39  16  18  ar  
 40  17  19  ar  
 41  17  44  1   
 42  18  20  ar  
 43  18  45  1   
 44  19  21  ar  
 45  20  21  ar  
 46  20  46  1   
 47  21  22  1   
 48  22  23  1   
 49  23  47  1   
 50  23  48  1   
 51  23  49  1   
@<TRIPOS>SUBSTRUCTURE
  1 ****  14 GROUP 4 **** **** 0

# MOE 2024.06 (io_trps.svl 2023.06)
