@<TRIPOS>MOLECULE
NONAME
46 49 1 0 0 
SMALL
USER_CHARGES


@<TRIPOS>ATOM
  1 O       -0.5530     0.2770    -0.1140 O.2   1 <1>  -0.5700 
  2 C        0.4460    -0.3700    -0.3330 C.2   1 <1>   0.5690 
  3 N        1.6860     0.1730    -0.4580 N.am  1 <1>  -0.4930 
  4 C        0.2980    -1.8830    -0.4680 C.3   1 <1>  -0.0190 
  5 C        2.1570     1.4890    -0.2300 C.2   1 <1>   0.0630 
  6 C        0.9740    -2.7050     0.6540 C.3   1 <1>   0.0580 
  7 C        0.9070    -2.4990    -1.7650 C.3   1 <1>  -0.1600 
  8 C        3.3880     1.7590     0.3800 C.2   1 <1>   0.3720 
  9 C        1.6330     2.7030    -0.5090 C.2   1 <1>  -0.3320 
 10 C        2.4680    -2.4310     0.6130 C.2   1 <1>  -0.2880 
 11 C        0.9910    -4.0800    -0.0110 C.3   1 <1>  -0.1600 
 12 C        1.7970    -3.6360    -1.2290 C.3   1 <1>   0.0580 
 13 N        3.6180     3.0290     0.4960 N.2   1 <1>  -0.7070 
 14 N        4.2860     0.7660     0.8170 N.pl3 1 <1>  -0.8210 
 15 N        2.5260     3.6140    -0.0450 N.pl3 1 <1>   0.3140 
 16 C        0.3280     3.0630    -1.2040 C.3   1 <1>  -0.0600 
 17 C        2.9480    -2.9680    -0.5040 C.2   1 <1>  -0.2880 
 18 C        4.5810     0.8840     2.2710 C.3   1 <1>   0.2090 
 19 C        5.5750     0.8080     0.0780 C.3   1 <1>   0.2090 
 20 C        2.4020     5.0760    -0.0880 C.3   1 <1>   0.0160 
 21 C        6.0730     1.1640     2.3880 C.3   1 <1>  -0.1600 
 22 C        6.6600     0.5730     1.1180 C.3   1 <1>  -0.1600 
 23 H        2.4490    -0.5100    -0.4110 H     1 <1>   0.3700 
 24 H       -0.7550    -2.1040    -0.4520 H     1 <1>   0.0800 
 25 H        0.5130    -2.6690     1.6270 H     1 <1>   0.0800 
 26 H        0.1260    -2.8930    -2.3920 H     1 <1>   0.0800 
 27 H        1.4870    -1.7900    -2.3310 H     1 <1>   0.0800 
 28 H        2.9510    -1.8630     1.3930 H     1 <1>   0.1500 
 29 H        1.5180    -4.8100     0.5800 H     1 <1>   0.0800 
 30 H        0.0090    -4.4450    -0.2620 H     1 <1>   0.0800 
 31 H        2.0660    -4.4180    -1.9190 H     1 <1>   0.0800 
 32 H       -0.0720     2.2050    -1.7130 H     1 <1>   0.0800 
 33 H        0.4870     3.8360    -1.9330 H     1 <1>   0.0800 
 34 H       -0.3940     3.3960    -0.4800 H     1 <1>   0.0800 
 35 H        3.9430    -2.9760    -0.9170 H     1 <1>   0.1500 
 36 H        4.0020     1.6660     2.7360 H     1 <1>   0.0800 
 37 H        4.3420    -0.0530     2.7440 H     1 <1>   0.0800 
 38 H        5.5930     0.0490    -0.6840 H     1 <1>   0.0800 
 39 H        5.7120     1.7740    -0.3810 H     1 <1>   0.0800 
 40 H        1.4530     5.3610     0.3250 H     1 <1>   0.0800 
 41 H        2.4760     5.4040    -1.1070 H     1 <1>   0.0800 
 42 H        3.1930     5.5130     0.4920 H     1 <1>   0.0800 
 43 H        6.2200     2.2300     2.3980 H     1 <1>   0.0800 
 44 H        6.4940     0.7380     3.2800 H     1 <1>   0.0800 
 45 H        6.8090    -0.4860     1.2360 H     1 <1>   0.0800 
 46 H        7.5880     1.0370     0.8370 H     1 <1>   0.0800 
@<TRIPOS>BOND
  1   1   2  2   
  2   2   3  am  
  3   2   4  1   
  4   3   5  1   
  5   3  23  1   
  6   4   6  1   
  7   4   7  1   
  8   4  24  1   
  9   5   8  1   
 10   5   9  2   
 11   6  10  1   
 12   6  11  1   
 13   6  25  1   
 14   7  12  1   
 15   7  26  1   
 16   7  27  1   
 17   8  13  2   
 18   8  14  1   
 19   9  15  1   
 20   9  16  1   
 21  10  17  2   
 22  10  28  1   
 23  11  12  1   
 24  11  29  1   
 25  11  30  1   
 26  12  17  1   
 27  12  31  1   
 28  13  15  1   
 29  14  18  1   
 30  14  19  1   
 31  15  20  1   
 32  16  32  1   
 33  16  33  1   
 34  16  34  1   
 35  17  35  1   
 36  18  21  1   
 37  18  36  1   
 38  18  37  1   
 39  19  22  1   
 40  19  38  1   
 41  19  39  1   
 42  20  40  1   
 43  20  41  1   
 44  20  42  1   
 45  21  22  1   
 46  21  43  1   
 47  21  44  1   
 48  22  45  1   
 49  22  46  1   
@<TRIPOS>SUBSTRUCTURE
  1 ****   3 GROUP 4 **** **** 0

# MOE 2024.06 (io_trps.svl 2023.06)
