@<TRIPOS>MOLECULE
NONAME
55 60 1 0 0 
SMALL
USER_CHARGES


@<TRIPOS>ATOM
  1 O       -0.4950     0.2330     1.0690 O.2   1 <1>  -0.5700 
  2 C       -1.5420     0.8430     0.8990 C.2   1 <1>   0.7160 
  3 N       -2.7070     0.0870     0.9130 N.am  1 <1>  -0.6600 
  4 C       -1.5190     2.2930     0.6780 C.2   1 <1>   0.2030 
  5 C       -4.0040     0.6000     0.3800 C.3   1 <1>   0.1400 
  6 C       -2.6920    -1.3040     1.4550 C.3   1 <1>   0.1400 
  7 N       -2.5090     3.1420     0.9300 N.2   1 <1>  -0.7070 
  8 C       -0.4210     3.0080     0.1620 C.2   1 <1>  -0.1810 
  9 C       -4.7840    -0.5450    -0.2600 C.3   1 <1>  -0.1600 
 10 C       -4.0900    -1.7350     1.8970 C.3   1 <1>  -0.1600 
 11 N       -2.0540     4.3540     0.5830 N.pl3 1 <1>   0.3000 
 12 C       -0.8000     4.2950     0.1060 C.2   1 <1>  -0.3320 
 13 C        0.9510     2.5270    -0.2850 C.3   1 <1>   0.0210 
 14 C       -5.1260    -1.6400     0.7640 C.3   1 <1>   0.4600 
 15 C        0.0430     5.4520    -0.3960 C.3   1 <1>   0.0200 
 16 C        1.9140     3.7170    -0.4610 C.3   1 <1>  -0.1600 
 17 O       -6.3360    -1.2990     1.4030 O.3   1 <1>  -0.5600 
 18 C       -5.2800    -2.9950     0.0750 C.2   1 <1>  -0.3320 
 19 C        1.2480     4.9050    -1.1820 C.3   1 <1>  -0.1600 
 20 C       -7.5500    -1.6270     0.7680 C.3   1 <1>   0.1200 
 21 N       -4.2950    -3.7000    -0.5590 N.pl3 1 <1>   0.0330 
 22 C       -6.4340    -3.6870     0.0080 C.2   1 <1>  -0.1810 
 23 C       -7.7050    -3.1480     0.6130 C.3   1 <1>   0.0210 
 24 C       -4.8440    -4.8680    -1.0300 C.ar  1 <1>  -0.1520 
 25 C       -6.1930    -4.8920    -0.6850 C.ar  1 <1>   0.0000 
 26 C       -4.2680    -5.9250    -1.7390 C.ar  1 <1>  -0.1500 
 27 C       -6.9820    -5.9860    -1.0510 C.ar  1 <1>  -0.1500 
 28 C       -5.0570    -6.9960    -2.0940 C.ar  1 <1>  -0.1500 
 29 C       -6.4140    -7.0270    -1.7490 C.ar  1 <1>  -0.1500 
 30 H       -3.8230     1.3580    -0.3630 H     1 <1>   0.0800 
 31 H       -4.5730     1.0390     1.1830 H     1 <1>   0.0800 
 32 H       -2.0230    -1.3510     2.2990 H     1 <1>   0.0800 
 33 H       -2.3180    -1.9680     0.6970 H     1 <1>   0.0800 
 34 H       -4.1750    -0.9550    -1.0440 H     1 <1>   0.0800 
 35 H       -5.6760    -0.1660    -0.7200 H     1 <1>   0.0800 
 36 H       -4.3840    -1.0960     2.7100 H     1 <1>   0.0800 
 37 H       -4.0560    -2.7410     2.2720 H     1 <1>   0.0800 
 38 H       -2.6190     5.2050     0.6820 H     1 <1>   0.2700 
 39 H        0.8440     2.0020    -1.2180 H     1 <1>   0.0800 
 40 H        1.3620     1.8470     0.4390 H     1 <1>   0.0800 
 41 H        0.3890     6.0240     0.4470 H     1 <1>   0.0800 
 42 H       -0.5400     6.0950    -1.0310 H     1 <1>   0.0800 
 43 H        2.7820     3.3940    -1.0090 H     1 <1>   0.0800 
 44 H        2.2410     4.0420     0.5120 H     1 <1>   0.0800 
 45 H        1.9660     5.6930    -1.3310 H     1 <1>   0.0800 
 46 H        0.9120     4.5770    -2.1510 H     1 <1>   0.0800 
 47 H       -7.5730    -1.1530    -0.1970 H     1 <1>   0.0800 
 48 H       -8.3510    -1.2310     1.3670 H     1 <1>   0.0800 
 49 H       -3.3170    -3.4200    -0.6770 H     1 <1>   0.2700 
 50 H       -8.5420    -3.3650    -0.0250 H     1 <1>   0.0800 
 51 H       -7.8740    -3.6010     1.5730 H     1 <1>   0.0800 
 52 H       -3.2260    -5.8950    -2.0000 H     1 <1>   0.1500 
 53 H       -8.0210    -5.9960    -0.7790 H     1 <1>   0.1500 
 54 H       -4.6370    -7.8220    -2.6400 H     1 <1>   0.1500 
 55 H       -7.0080    -7.8760    -2.0380 H     1 <1>   0.1500 
@<TRIPOS>BOND
  1   1   2  2   
  2   2   3  am  
  3   2   4  1   
  4   3   5  1   
  5   3   6  1   
  6   4   7  2   
  7   4   8  1   
  8   5   9  1   
  9   5  30  1   
 10   5  31  1   
 11   6  10  1   
 12   6  32  1   
 13   6  33  1   
 14   7  11  1   
 15   8  12  2   
 16   8  13  1   
 17   9  14  1   
 18   9  34  1   
 19   9  35  1   
 20  10  14  1   
 21  10  36  1   
 22  10  37  1   
 23  11  12  1   
 24  11  38  1   
 25  12  15  1   
 26  13  16  1   
 27  13  39  1   
 28  13  40  1   
 29  14  17  1   
 30  14  18  1   
 31  15  19  1   
 32  15  41  1   
 33  15  42  1   
 34  16  19  1   
 35  16  43  1   
 36  16  44  1   
 37  17  20  1   
 38  18  21  1   
 39  18  22  2   
 40  19  45  1   
 41  19  46  1   
 42  20  23  1   
 43  20  47  1   
 44  20  48  1   
 45  21  24  1   
 46  21  49  1   
 47  22  23  1   
 48  22  25  1   
 49  23  50  1   
 50  23  51  1   
 51  24  25  ar  
 52  24  26  ar  
 53  25  27  ar  
 54  26  28  ar  
 55  26  52  1   
 56  27  29  ar  
 57  27  53  1   
 58  28  29  ar  
 59  28  54  1   
 60  29  55  1   
@<TRIPOS>SUBSTRUCTURE
  1 ****   9 GROUP 4 **** **** 0

# MOE 2024.06 (io_trps.svl 2023.06)
