@<TRIPOS>MOLECULE
NONAME
47 49 1 0 0 
SMALL
USER_CHARGES


@<TRIPOS>ATOM
  1 O        0.8250     1.4700     0.7790 O.3   1 <1>  -0.0190 
  2 N        1.6390     0.8190     1.5600 N.2   1 <1>  -0.4100 
  3 C        1.4660     2.2790    -0.0200 C.2   1 <1>  -0.0400 
  4 C        2.8220     1.2170     1.2550 C.2   1 <1>   0.1080 
  5 C        2.7770     2.1650     0.2370 C.2   1 <1>  -0.1500 
  6 C        0.7110     3.1500    -1.0040 C.3   1 <1>   0.0200 
  7 C        4.0860     0.7210     1.9200 C.3   1 <1>  -0.0590 
  8 C       -0.1300     4.2210    -0.2830 C.3   1 <1>  -0.0800 
  9 C       -0.7830     5.1700    -1.2850 C.3   1 <1>   0.2000 
 10 C        0.7440     5.1540     0.5650 C.3   1 <1>   0.2090 
 11 O       -1.8490     5.7950    -0.6540 O.3   1 <1>  -0.6800 
 12 C        0.2980     6.2180    -1.5660 C.3   1 <1>   0.2090 
 13 N        1.1240     6.2850    -0.3250 N.pl3 1 <1>  -0.8380 
 14 C        2.4720     6.5290    -0.4660 C.ar  1 <1>   0.4100 
 15 N        3.1640     5.6470    -1.1610 N.ar  1 <1>  -0.6200 
 16 C        3.0740     7.6410     0.1080 C.ar  1 <1>  -0.1430 
 17 C        4.4510     5.8900    -1.2770 C.ar  1 <1>   0.4770 
 18 C        4.4270     7.7720    -0.0890 C.ar  1 <1>   0.1600 
 19 C        2.2250     8.6350     0.9060 C.3   1 <1>  -0.0170 
 20 N        5.1350     6.9010    -0.7810 N.ar  1 <1>  -0.6200 
 21 C        5.2530     4.8910    -2.0750 C.3   1 <1>  -0.0970 
 22 C        2.9880     9.8390     1.4810 C.3   1 <1>  -0.1600 
 23 C        2.0520    10.7730     2.2540 C.3   1 <1>  -0.2400 
 24 H        3.6090     2.6760    -0.2110 H     1 <1>   0.1500 
 25 H        1.4220     3.6150    -1.6630 H     1 <1>   0.0800 
 26 H        0.0700     2.5240    -1.5990 H     1 <1>   0.0800 
 27 H        4.6410     1.5520     2.3130 H     1 <1>   0.0800 
 28 H        4.6910     0.1960     1.2040 H     1 <1>   0.0800 
 29 H        3.8390     0.0540     2.7250 H     1 <1>   0.0800 
 30 H       -0.8650     3.7260     0.3260 H     1 <1>   0.0800 
 31 H       -1.1490     4.6860    -2.1730 H     1 <1>   0.0800 
 32 H        1.6140     4.6600     0.9630 H     1 <1>   0.0800 
 33 H        0.1710     5.5420     1.3890 H     1 <1>   0.0800 
 34 H       -1.4930     6.3820     0.0430 H     1 <1>   0.4000 
 35 H       -0.1320     7.1760    -1.7990 H     1 <1>   0.0800 
 36 H        0.9070     5.8980    -2.3940 H     1 <1>   0.0800 
 37 H        4.9670     8.6050     0.3230 H     1 <1>   0.1500 
 38 H        1.4400     8.9960     0.2640 H     1 <1>   0.0800 
 39 H        1.7570     8.1020     1.7150 H     1 <1>   0.0800 
 40 H        5.7830     5.4010    -2.8570 H     1 <1>   0.0800 
 41 H        4.6100     4.1510    -2.5130 H     1 <1>   0.0800 
 42 H        5.9610     4.4060    -1.4300 H     1 <1>   0.0800 
 43 H        3.7610     9.4920     2.1450 H     1 <1>   0.0800 
 44 H        3.4470    10.3910     0.6780 H     1 <1>   0.0800 
 45 H        1.5930    10.2520     3.0770 H     1 <1>   0.0800 
 46 H        1.2790    11.1520     1.6090 H     1 <1>   0.0800 
 47 H        2.6070    11.6070     2.6470 H     1 <1>   0.0800 
@<TRIPOS>BOND
  1   1   2  1   
  2   1   3  1   
  3   2   4  2   
  4   3   5  2   
  5   3   6  1   
  6   4   5  1   
  7   4   7  1   
  8   5  24  1   
  9   6   8  1   
 10   6  25  1   
 11   6  26  1   
 12   7  27  1   
 13   7  28  1   
 14   7  29  1   
 15   8   9  1   
 16   8  10  1   
 17   8  30  1   
 18   9  11  1   
 19   9  12  1   
 20   9  31  1   
 21  10  13  1   
 22  10  32  1   
 23  10  33  1   
 24  11  34  1   
 25  12  13  1   
 26  12  35  1   
 27  12  36  1   
 28  13  14  1   
 29  14  15  ar  
 30  14  16  ar  
 31  15  17  ar  
 32  16  18  ar  
 33  16  19  1   
 34  17  20  ar  
 35  17  21  1   
 36  18  20  ar  
 37  18  37  1   
 38  19  22  1   
 39  19  38  1   
 40  19  39  1   
 41  21  40  1   
 42  21  41  1   
 43  21  42  1   
 44  22  23  1   
 45  22  43  1   
 46  22  44  1   
 47  23  45  1   
 48  23  46  1   
 49  23  47  1   
@<TRIPOS>SUBSTRUCTURE
  1 ****  14 GROUP 4 **** **** 0

# MOE 2024.06 (io_trps.svl 2023.06)
