@<TRIPOS>MOLECULE
NONAME
54 57 1 0 0 
SMALL
USER_CHARGES


@<TRIPOS>ATOM
  1 O       -2.9850     0.8530    -1.8840 O.2   1 <1>  -0.5700 
  2 C       -2.5670     0.9340    -0.7450 C.2   1 <1>   0.5440 
  3 N       -2.5340    -0.2190     0.0130 N.am  1 <1>  -0.6600 
  4 C       -2.1690     2.2180    -0.2090 C.ar  1 <1>   0.0860 
  5 C       -2.9750    -0.2440     1.4270 C.3   1 <1>   0.1400 
  6 C       -2.4940    -1.5480    -0.6440 C.3   1 <1>   0.1400 
  7 C       -1.0870     2.3310     0.6620 C.ar  1 <1>   0.1600 
  8 C       -2.8380     3.3910    -0.5340 C.ar  1 <1>  -0.1500 
  9 C       -4.4050    -0.7890     1.4600 C.3   1 <1>  -0.1600 
 10 C       -3.9120    -2.1180    -0.6600 C.3   1 <1>  -0.1600 
 11 N       -0.6620     3.4450     1.2360 N.ar  1 <1>  -0.6200 
 12 C       -2.4070     4.5660     0.0410 C.ar  1 <1>  -0.1500 
 13 C       -4.5090    -2.1450     0.7520 C.3   1 <1>   0.4230 
 14 C       -1.3300     4.5400     0.9110 C.ar  1 <1>   0.1600 
 15 N       -5.9400    -2.5020     0.6730 N.4   1 <1>  -0.9060 
 16 C       -6.2460    -3.9060     0.2830 C.3   1 <1>   0.4230 
 17 C       -7.7590    -4.0390     0.1320 C.3   1 <1>  -0.0800 
 18 C       -6.0060    -4.8050     1.4910 C.3   1 <1>   0.1200 
 19 C       -8.2240    -4.3480     1.5690 C.3   1 <1>   0.1200 
 20 C       -8.1380    -5.1620    -0.8540 C.3   1 <1>  -0.0170 
 21 O       -7.0580    -4.4690     2.3300 O.3   1 <1>  -0.5600 
 22 C       -9.6470    -5.2740    -0.9980 C.ar  1 <1>  -0.1430 
 23 C      -10.3740    -4.3790    -1.7580 C.ar  1 <1>  -0.1500 
 24 C      -10.3700    -6.2770    -0.3820 C.ar  1 <1>  -0.1500 
 25 C      -11.7490    -4.5180    -1.8510 C.ar  1 <1>   0.1600 
 26 C      -11.7450    -6.3270    -0.5400 C.ar  1 <1>   0.1600 
 27 N      -12.4500    -5.4670    -1.2550 N.ar  1 <1>  -0.6200 
 28 H       -2.3110    -0.8710     2.0000 H     1 <1>   0.0800 
 29 H       -2.9540     0.7450     1.8540 H     1 <1>   0.0800 
 30 H       -2.1210    -1.4520    -1.6520 H     1 <1>   0.0800 
 31 H       -1.8240    -2.1940    -0.1020 H     1 <1>   0.0800 
 32 H       -0.5390     1.4350     0.9000 H     1 <1>   0.1500 
 33 H       -3.6680     3.3730    -1.2200 H     1 <1>   0.1500 
 34 H       -5.0430    -0.0660     0.9810 H     1 <1>   0.0800 
 35 H       -4.7100    -0.8860     2.4870 H     1 <1>   0.0800 
 36 H       -3.8680    -3.1080    -1.0740 H     1 <1>   0.0800 
 37 H       -4.5060    -1.5000    -1.3110 H     1 <1>   0.0800 
 38 H       -2.8970     5.4970    -0.1820 H     1 <1>   0.1500 
 39 H       -3.9770    -2.8750     1.3420 H     1 <1>   0.0800 
 40 H       -1.0010     5.4640     1.3580 H     1 <1>   0.1500 
 41 H       -6.4110    -1.8430     0.0440 H     1 <1>   0.4500 
 42 H       -6.3630    -2.3920     1.6070 H     1 <1>   0.4500 
 43 H       -5.7040    -4.2110    -0.5970 H     1 <1>   0.0800 
 44 H       -8.2060    -3.1250    -0.2170 H     1 <1>   0.0800 
 45 H       -5.0700    -4.6300     1.9920 H     1 <1>   0.0800 
 46 H       -6.0920    -5.8490     1.2370 H     1 <1>   0.0800 
 47 H       -8.7680    -5.2750     1.6390 H     1 <1>   0.0800 
 48 H       -8.8220    -3.5540     1.9830 H     1 <1>   0.0800 
 49 H       -7.7400    -6.1080    -0.5260 H     1 <1>   0.0800 
 50 H       -7.7180    -4.9550    -1.8240 H     1 <1>   0.0800 
 51 H       -9.8930    -3.5750    -2.2830 H     1 <1>   0.1500 
 52 H       -9.8860    -7.0260     0.2190 H     1 <1>   0.1500 
 53 H      -12.3030    -3.8120    -2.4470 H     1 <1>   0.1500 
 54 H      -12.2940    -7.1140    -0.0510 H     1 <1>   0.1500 
@<TRIPOS>BOND
  1   1   2  2   
  2   2   3  am  
  3   2   4  1   
  4   3   5  1   
  5   3   6  1   
  6   4   7  ar  
  7   4   8  ar  
  8   5   9  1   
  9   5  28  1   
 10   5  29  1   
 11   6  10  1   
 12   6  30  1   
 13   6  31  1   
 14   7  11  ar  
 15   7  32  1   
 16   8  12  ar  
 17   8  33  1   
 18   9  13  1   
 19   9  34  1   
 20   9  35  1   
 21  10  13  1   
 22  10  36  1   
 23  10  37  1   
 24  11  14  ar  
 25  12  14  ar  
 26  12  38  1   
 27  13  15  1   
 28  13  39  1   
 29  14  40  1   
 30  15  16  1   
 31  15  41  1   
 32  15  42  1   
 33  16  17  1   
 34  16  18  1   
 35  16  43  1   
 36  17  19  1   
 37  17  20  1   
 38  17  44  1   
 39  18  21  1   
 40  18  45  1   
 41  18  46  1   
 42  19  21  1   
 43  19  47  1   
 44  19  48  1   
 45  20  22  1   
 46  20  49  1   
 47  20  50  1   
 48  22  23  ar  
 49  22  24  ar  
 50  23  25  ar  
 51  23  51  1   
 52  24  26  ar  
 53  24  52  1   
 54  25  27  ar  
 55  25  53  1   
 56  26  27  ar  
 57  26  54  1   
@<TRIPOS>SUBSTRUCTURE
  1 ****  15 GROUP 4 **** **** 0

# MOE 2024.06 (io_trps.svl 2023.06)
