@<TRIPOS>MOLECULE
NONAME
48 51 1 0 0 
SMALL
USER_CHARGES


@<TRIPOS>ATOM
  1 O        4.5010    -1.5650    -2.0730 O.2   1 <1>  -0.5700 
  2 C        3.5230    -1.5550    -1.3470 C.2   1 <1>   0.7150 
  3 N        3.2290    -0.3790    -0.7170 N.am  1 <1>  -0.6600 
  4 C        2.7800    -2.7510    -1.0750 C.2   1 <1>  -0.2370 
  5 C        3.6470    -0.2640     0.7220 C.3   1 <1>   0.2200 
  6 C        3.1020     0.8610    -1.5440 C.3   1 <1>   0.1400 
  7 N        3.1330    -3.9600    -1.6240 N.pl3 1 <1>   0.0330 
  8 C        1.6710    -2.9560    -0.3020 C.2   1 <1>  -0.1500 
  9 C        2.8810     0.8270     1.4860 C.3   1 <1>   0.1200 
 10 C        5.1800    -0.0480     0.8370 C.3   1 <1>   0.3430 
 11 C        3.9130     2.0700    -1.0370 C.3   1 <1>  -0.0800 
 12 C        2.2630    -4.9230    -1.1890 C.ar  1 <1>  -0.1520 
 13 C        1.3300    -4.3190    -0.3550 C.ar  1 <1>   0.0000 
 14 O        3.5150     2.0630     1.3460 O.3   1 <1>  -0.5600 
 15 N        5.8080     0.4350    -0.4450 N.4   1 <1>  -0.9590 
 16 C        3.2470     2.7490     0.1700 C.3   1 <1>   0.1200 
 17 C        5.4230     1.8340    -0.8180 C.3   1 <1>   0.3430 
 18 C        2.2070    -6.2930    -1.4570 C.ar  1 <1>  -0.1500 
 19 C        0.3160    -5.0880     0.2290 C.ar  1 <1>  -0.1500 
 20 C        7.2880     0.2630    -0.4270 C.3   1 <1>   0.2630 
 21 C        1.2070    -7.0380    -0.8770 C.ar  1 <1>  -0.1500 
 22 C        0.2590    -6.4440    -0.0340 C.ar  1 <1>   0.0830 
 23 O       -0.6840    -7.2820     0.4810 O.3   1 <1>  -0.3630 
 24 C       -1.7080    -6.7840     1.3120 C.3   1 <1>   0.0400 
 25 H        3.4100    -1.1950     1.2080 H     1 <1>   0.0800 
 26 H        3.4080     0.6430    -2.5550 H     1 <1>   0.0800 
 27 H        2.0600     1.1290    -1.5900 H     1 <1>   0.0800 
 28 H        3.9090    -4.1080    -2.2790 H     1 <1>   0.2700 
 29 H        1.1160    -2.2280     0.2610 H     1 <1>   0.1500 
 30 H        2.8950     0.5970     2.5380 H     1 <1>   0.0800 
 31 H        1.8530     0.8950     1.1710 H     1 <1>   0.0800 
 32 H        5.6220    -0.9910     1.1080 H     1 <1>   0.0800 
 33 H        5.3860     0.6450     1.6360 H     1 <1>   0.0800 
 34 H        3.8450     2.8040    -1.8200 H     1 <1>   0.0800 
 35 H        5.4150    -0.1880    -1.1850 H     1 <1>   0.4500 
 36 H        2.1800     2.8330     0.0460 H     1 <1>   0.0800 
 37 H        3.6450     3.7430     0.2950 H     1 <1>   0.0800 
 38 H        5.7740     2.5160    -0.0610 H     1 <1>   0.0800 
 39 H        5.9290     2.0850    -1.7360 H     1 <1>   0.0800 
 40 H        2.9330    -6.7490    -2.1060 H     1 <1>   0.1500 
 41 H       -0.3880    -4.5930     0.8660 H     1 <1>   0.1500 
 42 H        7.7280     0.8800     0.3390 H     1 <1>   0.0800 
 43 H        7.7070     0.5410    -1.3810 H     1 <1>   0.0800 
 44 H        7.5400    -0.7670    -0.2320 H     1 <1>   0.0800 
 45 H        1.1330    -8.0950    -1.0600 H     1 <1>   0.1500 
 46 H       -2.3410    -7.6070     1.5900 H     1 <1>   0.0800 
 47 H       -2.2770    -6.0530     0.7650 H     1 <1>   0.0800 
 48 H       -1.2650    -6.3510     2.1910 H     1 <1>   0.0800 
@<TRIPOS>BOND
  1   1   2  2   
  2   2   3  am  
  3   2   4  1   
  4   3   5  1   
  5   3   6  1   
  6   4   7  1   
  7   4   8  2   
  8   5   9  1   
  9   5  10  1   
 10   5  25  1   
 11   6  11  1   
 12   6  26  1   
 13   6  27  1   
 14   7  12  1   
 15   7  28  1   
 16   8  13  1   
 17   8  29  1   
 18   9  14  1   
 19   9  30  1   
 20   9  31  1   
 21  10  15  1   
 22  10  32  1   
 23  10  33  1   
 24  11  16  1   
 25  11  17  1   
 26  11  34  1   
 27  12  13  ar  
 28  12  18  ar  
 29  13  19  ar  
 30  14  16  1   
 31  15  17  1   
 32  15  20  1   
 33  15  35  1   
 34  16  36  1   
 35  16  37  1   
 36  17  38  1   
 37  17  39  1   
 38  18  21  ar  
 39  18  40  1   
 40  19  22  ar  
 41  19  41  1   
 42  20  42  1   
 43  20  43  1   
 44  20  44  1   
 45  21  22  ar  
 46  21  45  1   
 47  22  23  1   
 48  23  24  1   
 49  24  46  1   
 50  24  47  1   
 51  24  48  1   
@<TRIPOS>SUBSTRUCTURE
  1 ****   4 GROUP 4 **** **** 0

# MOE 2024.06 (io_trps.svl 2023.06)
