@<TRIPOS>MOLECULE
NONAME
55 57 1 0 0 
SMALL
USER_CHARGES


@<TRIPOS>ATOM
  1 O        2.3610    -0.6830    -1.9470 O.2   1 <1>  -0.5700 
  2 C        1.8530    -1.0160    -0.9030 C.2   1 <1>   0.5690 
  3 N        1.5300    -0.1370     0.0820 N.am  1 <1>  -0.7300 
  4 C        1.5460    -2.4970    -0.6640 C.3   1 <1>   0.1710 
  5 C        1.6580     1.3360     0.0740 C.3   1 <1>   0.2200 
  6 N        0.3780    -2.7510     0.2330 N.3   1 <1>  -0.8100 
  7 C        0.7840     1.9070    -1.0540 C.3   1 <1>  -0.1600 
  8 C        3.1480     1.7260    -0.0230 C.3   1 <1>  -0.1600 
  9 C       -0.8910    -2.3310    -0.3770 C.3   1 <1>   0.1100 
 10 C        0.2160    -4.1820     0.5270 C.3   1 <1>   0.1100 
 11 C        0.2440     3.3230    -0.7970 C.3   1 <1>  -0.1600 
 12 C        3.6230     2.6320     1.1230 C.3   1 <1>  -0.1600 
 13 C       -1.9480    -3.0810     0.4230 C.3   1 <1>   0.2000 
 14 C       -1.2970    -4.4420     0.6720 C.3   1 <1>  -0.0800 
 15 C        1.3190     4.4100    -0.6420 C.3   1 <1>  -0.1600 
 16 C        3.3690     4.1320     0.9060 C.3   1 <1>  -0.1600 
 17 O       -2.0760    -2.4480     1.6440 O.3   1 <1>  -0.6800 
 18 C       -1.8080    -5.4930    -0.3300 C.3   1 <1>  -0.0170 
 19 C        1.8910     4.5360     0.7840 C.3   1 <1>  -0.1600 
 20 C       -1.1610    -6.8510    -0.1070 C.ar  1 <1>   0.1670 
 21 N       -0.1570    -7.1700    -0.9090 N.ar  1 <1>  -0.6200 
 22 C       -1.6310    -7.6830     0.9070 C.ar  1 <1>   0.1600 
 23 C        0.3370    -8.3660    -0.6330 C.ar  1 <1>   0.1600 
 24 N       -1.1340    -8.8760     1.1870 N.ar  1 <1>  -0.6200 
 25 C       -0.1350    -9.1900     0.3810 C.ar  1 <1>   0.1600 
 26 H        1.0420    -0.5410     0.8850 H     1 <1>   0.3700 
 27 H        2.4240    -2.9380    -0.2260 H     1 <1>   0.0800 
 28 H        1.3840    -2.9680    -1.6180 H     1 <1>   0.0800 
 29 H        1.2600     1.6840     1.0120 H     1 <1>   0.0800 
 30 H        1.3310     1.8890    -1.9810 H     1 <1>   0.0800 
 31 H       -0.0710     1.2660    -1.1820 H     1 <1>   0.0800 
 32 H        3.7460     0.8320     0.0110 H     1 <1>   0.0800 
 33 H        3.3600     2.1950    -0.9670 H     1 <1>   0.0800 
 34 H       -1.0320    -1.2650    -0.3250 H     1 <1>   0.0800 
 35 H       -0.9300    -2.6460    -1.4060 H     1 <1>   0.0800 
 36 H        0.6260    -4.7720    -0.2760 H     1 <1>   0.0800 
 37 H        0.7390    -4.4300     1.4350 H     1 <1>   0.0800 
 38 H       -0.3680     3.5860    -1.6420 H     1 <1>   0.0800 
 39 H       -0.4030     3.3180     0.0630 H     1 <1>   0.0800 
 40 H        3.1830     2.3130     2.0520 H     1 <1>   0.0800 
 41 H        4.6870     2.5010     1.2240 H     1 <1>   0.0800 
 42 H       -2.9130    -3.1200    -0.0530 H     1 <1>   0.0800 
 43 H       -1.5170    -4.7880     1.6680 H     1 <1>   0.0800 
 44 H        2.0980     4.2660    -1.3690 H     1 <1>   0.0800 
 45 H        0.8520     5.3500    -0.8810 H     1 <1>   0.0800 
 46 H        3.7810     4.6480     1.7560 H     1 <1>   0.0800 
 47 H        3.9170     4.4730     0.0450 H     1 <1>   0.0800 
 48 H       -1.1660    -2.2900     1.9710 H     1 <1>   0.4000 
 49 H       -1.6120    -5.1690    -1.3380 H     1 <1>   0.0800 
 50 H       -2.8740    -5.5960    -0.2260 H     1 <1>   0.0800 
 51 H        1.2960     3.9980     1.5010 H     1 <1>   0.0800 
 52 H        1.8270     5.5750     1.0600 H     1 <1>   0.0800 
 53 H       -2.4520    -7.3450     1.5150 H     1 <1>   0.1500 
 54 H        1.1560    -8.7110    -1.2390 H     1 <1>   0.1500 
 55 H        0.3330   -10.1470     0.5290 H     1 <1>   0.1500 
@<TRIPOS>BOND
  1   1   2  2   
  2   2   3  am  
  3   2   4  1   
  4   3   5  1   
  5   3  26  1   
  6   4   6  1   
  7   4  27  1   
  8   4  28  1   
  9   5   7  1   
 10   5   8  1   
 11   5  29  1   
 12   6   9  1   
 13   6  10  1   
 14   7  11  1   
 15   7  30  1   
 16   7  31  1   
 17   8  12  1   
 18   8  32  1   
 19   8  33  1   
 20   9  13  1   
 21   9  34  1   
 22   9  35  1   
 23  10  14  1   
 24  10  36  1   
 25  10  37  1   
 26  11  15  1   
 27  11  38  1   
 28  11  39  1   
 29  12  16  1   
 30  12  40  1   
 31  12  41  1   
 32  13  14  1   
 33  13  17  1   
 34  13  42  1   
 35  14  18  1   
 36  14  43  1   
 37  15  19  1   
 38  15  44  1   
 39  15  45  1   
 40  16  19  1   
 41  16  46  1   
 42  16  47  1   
 43  17  48  1   
 44  18  20  1   
 45  18  49  1   
 46  18  50  1   
 47  19  51  1   
 48  19  52  1   
 49  20  21  ar  
 50  20  22  ar  
 51  21  23  ar  
 52  22  24  ar  
 53  22  53  1   
 54  23  25  ar  
 55  23  54  1   
 56  24  25  ar  
 57  25  55  1   
@<TRIPOS>SUBSTRUCTURE
  1 ****   6 GROUP 4 **** **** 0

# MOE 2024.06 (io_trps.svl 2023.06)
