@<TRIPOS>MOLECULE
NONAME
54 57 1 0 0 
SMALL
USER_CHARGES


@<TRIPOS>ATOM
  1 O        2.9170    -0.1420    -1.4780 O.2   1 <1>  -0.5700 
  2 C        2.2730    -1.0960    -1.1060 C.2   1 <1>   0.5690 
  3 N        2.1060    -1.4310     0.2120 N.am  1 <1>  -0.4940 
  4 C        1.6230    -1.9780    -2.1590 C.3   1 <1>   0.0820 
  5 C        2.4370    -0.8040     1.4400 C.2   1 <1>  -0.0880 
  6 C        0.2670    -2.5050    -1.7140 C.2   1 <1>   0.0460 
  7 N        3.4970    -0.0010     1.7530 N.pl3 1 <1>   0.3140 
  8 C        1.7090    -0.9190     2.5750 C.2   1 <1>  -0.1500 
  9 N        0.1750    -3.4100    -0.7210 N.2   1 <1>  -0.5650 
 10 C       -0.9620    -2.2120    -2.1650 C.2   1 <1>  -0.0400 
 11 N        3.4400     0.4030     3.0470 N.2   1 <1>  -0.7070 
 12 C        4.6250     0.4310     0.8880 C.3   1 <1>   0.1760 
 13 C        2.3710    -0.1540     3.5230 C.2   1 <1>   0.1390 
 14 C       -1.1020    -3.6280    -0.6140 C.2   1 <1>   0.4250 
 15 O       -1.8090    -2.9160    -1.4730 O.3   1 <1>  -0.2800 
 16 C       -1.4930    -1.2840    -3.2380 C.3   1 <1>  -0.0600 
 17 C        5.9800     0.3180     1.6060 C.3   1 <1>  -0.1600 
 18 C        4.3940     1.8760     0.4250 C.3   1 <1>  -0.1600 
 19 C       -1.7660    -4.5200     0.3150 C.ar  1 <1>   0.0530 
 20 C        7.1050     0.8170     0.7040 C.3   1 <1>   0.3430 
 21 C        5.5350     2.3330    -0.4720 C.3   1 <1>   0.3430 
 22 C       -3.1580    -4.6100     0.3820 C.ar  1 <1>  -0.1500 
 23 C       -1.0320    -5.3260     1.1880 C.ar  1 <1>  -0.1500 
 24 N        6.8250     2.2190     0.2720 N.4   1 <1>  -0.9590 
 25 C       -3.7850    -5.4580     1.2760 C.ar  1 <1>  -0.1500 
 26 C       -1.6530    -6.1760     2.0840 C.ar  1 <1>  -0.1500 
 27 C        7.9550     2.7660    -0.5370 C.3   1 <1>   0.2630 
 28 C       -3.0330    -6.2430     2.1310 C.ar  1 <1>  -0.1500 
 29 H        1.4520    -2.2230     0.3140 H     1 <1>   0.3700 
 30 H        2.2720    -2.8070    -2.3670 H     1 <1>   0.0800 
 31 H        1.5110    -1.4110    -3.0630 H     1 <1>   0.0800 
 32 H        0.8020    -1.4730     2.7350 H     1 <1>   0.1500 
 33 H        4.6630    -0.2270     0.0440 H     1 <1>   0.0800 
 34 H        2.0410    -0.0310     4.5420 H     1 <1>   0.1500 
 35 H       -0.6920    -0.7510    -3.7160 H     1 <1>   0.0800 
 36 H       -2.1700    -0.5730    -2.8000 H     1 <1>   0.0800 
 37 H       -2.0230    -1.8540    -3.9800 H     1 <1>   0.0800 
 38 H        6.1620    -0.7100     1.8630 H     1 <1>   0.0800 
 39 H        5.9780     0.8930     2.5160 H     1 <1>   0.0800 
 40 H        4.3140     2.5320     1.2750 H     1 <1>   0.0800 
 41 H        3.4720     1.9400    -0.1240 H     1 <1>   0.0800 
 42 H        7.1830     0.1770    -0.1610 H     1 <1>   0.0800 
 43 H        8.0390     0.7750     1.2420 H     1 <1>   0.0800 
 44 H        5.3670     3.3560    -0.7710 H     1 <1>   0.0800 
 45 H        5.5610     1.7200    -1.3590 H     1 <1>   0.0800 
 46 H       -3.7600    -4.0070    -0.2750 H     1 <1>   0.1500 
 47 H        0.0430    -5.2850     1.1610 H     1 <1>   0.1500 
 48 H        6.7300     2.7870     1.1280 H     1 <1>   0.4500 
 49 H       -4.8600    -5.5090     1.3080 H     1 <1>   0.1500 
 50 H       -1.0620    -6.7860     2.7460 H     1 <1>   0.1500 
 51 H        8.0780     2.1950    -1.4440 H     1 <1>   0.0800 
 52 H        8.8740     2.7240     0.0250 H     1 <1>   0.0800 
 53 H        7.7630     3.7940    -0.8010 H     1 <1>   0.0800 
 54 H       -3.5190    -6.9040     2.8270 H     1 <1>   0.1500 
@<TRIPOS>BOND
  1   1   2  2   
  2   2   3  am  
  3   2   4  1   
  4   3   5  1   
  5   3  29  1   
  6   4   6  1   
  7   4  30  1   
  8   4  31  1   
  9   5   7  1   
 10   5   8  2   
 11   6   9  1   
 12   6  10  2   
 13   7  11  1   
 14   7  12  1   
 15   8  13  1   
 16   8  32  1   
 17   9  14  2   
 18  10  15  1   
 19  10  16  1   
 20  11  13  2   
 21  12  17  1   
 22  12  18  1   
 23  12  33  1   
 24  13  34  1   
 25  14  15  1   
 26  14  19  1   
 27  16  35  1   
 28  16  36  1   
 29  16  37  1   
 30  17  20  1   
 31  17  38  1   
 32  17  39  1   
 33  18  21  1   
 34  18  40  1   
 35  18  41  1   
 36  19  22  ar  
 37  19  23  ar  
 38  20  24  1   
 39  20  42  1   
 40  20  43  1   
 41  21  24  1   
 42  21  44  1   
 43  21  45  1   
 44  22  25  ar  
 45  22  46  1   
 46  23  26  ar  
 47  23  47  1   
 48  24  27  1   
 49  24  48  1   
 50  25  28  ar  
 51  25  49  1   
 52  26  28  ar  
 53  26  50  1   
 54  27  51  1   
 55  27  52  1   
 56  27  53  1   
 57  28  54  1   
@<TRIPOS>SUBSTRUCTURE
  1 ****   3 GROUP 4 **** **** 0

# MOE 2024.06 (io_trps.svl 2023.06)
