@<TRIPOS>MOLECULE
NONAME
49 51 1 0 0 
SMALL
USER_CHARGES


@<TRIPOS>ATOM
  1 O       -0.6150     0.4470    -1.9610 O.2   1 <1>  -0.5700 
  2 C       -0.0880     1.2970    -1.2790 C.2   1 <1>   0.5690 
  3 N       -0.7030     1.7970    -0.1560 N.am  1 <1>  -0.6600 
  4 C        1.2780     1.7970    -1.7360 C.3   1 <1>   0.0440 
  5 C       -2.0420     1.2990     0.2810 C.3   1 <1>   0.1400 
  6 C       -0.1240     2.8150     0.7660 C.3   1 <1>   0.1400 
  7 C        2.4200     1.5090    -0.7530 C.ar  1 <1>  -0.1440 
  8 C       -3.0620     2.4600     0.3840 C.3   1 <1>   0.0000 
  9 C       -1.0900     3.9970     0.9090 C.3   1 <1>  -0.1600 
 10 C        3.4290     2.4330    -0.4870 C.ar  1 <1>  -0.1430 
 11 C        2.4430     0.2780    -0.1100 C.ar  1 <1>  -0.1500 
 12 C       -4.4520     1.9760     0.8440 C.3   1 <1>   0.2000 
 13 C       -2.4990     3.5440     1.3300 C.3   1 <1>  -0.1600 
 14 C       -3.3780     3.0180    -1.0150 C.3   1 <1>  -0.1600 
 15 C        4.4210     2.1120     0.4270 C.ar  1 <1>  -0.1500 
 16 C        3.4920     3.7920    -1.1710 C.3   1 <1>  -0.0970 
 17 C        3.4360    -0.0390     0.7990 C.ar  1 <1>  -0.1430 
 18 O       -4.3930     0.9630     1.7860 O.3   1 <1>  -0.6800 
 19 C       -5.1890     1.4890    -0.4060 C.3   1 <1>  -0.1600 
 20 C       -4.4250     2.0690    -1.6040 C.3   1 <1>  -0.1600 
 21 C        4.4250     0.8880     1.0690 C.ar  1 <1>  -0.1500 
 22 C        3.4330    -1.3890     1.4930 C.3   1 <1>  -0.0970 
 23 H        1.5170     1.3260    -2.6720 H     1 <1>   0.0800 
 24 H        1.1780     2.8460    -1.9280 H     1 <1>   0.0800 
 25 H       -2.4060     0.5480    -0.3980 H     1 <1>   0.0800 
 26 H       -1.9220     0.8350     1.2440 H     1 <1>   0.0800 
 27 H        0.0380     2.3570     1.7280 H     1 <1>   0.0800 
 28 H        0.8230     3.1760     0.4120 H     1 <1>   0.0800 
 29 H       -0.7010     4.6810     1.6420 H     1 <1>   0.0800 
 30 H       -1.1380     4.5210    -0.0290 H     1 <1>   0.0800 
 31 H        1.6760    -0.4490    -0.3170 H     1 <1>   0.1500 
 32 H       -4.9960     2.7980     1.2800 H     1 <1>   0.0800 
 33 H       -3.1580     4.3940     1.3570 H     1 <1>   0.0800 
 34 H       -2.4510     3.1400     2.3270 H     1 <1>   0.0800 
 35 H       -3.8130     3.9980    -0.9250 H     1 <1>   0.0800 
 36 H       -2.5110     3.0870    -1.6480 H     1 <1>   0.0800 
 37 H        5.2040     2.8150     0.6470 H     1 <1>   0.1500 
 38 H        4.4070     4.3020    -0.9300 H     1 <1>   0.0800 
 39 H        2.6700     4.4060    -0.8520 H     1 <1>   0.0800 
 40 H        3.4520     3.6700    -2.2390 H     1 <1>   0.0800 
 41 H       -4.0700     0.1420     1.3700 H     1 <1>   0.4000 
 42 H       -5.2020     0.4150    -0.4700 H     1 <1>   0.0800 
 43 H       -6.2000     1.8560    -0.3940 H     1 <1>   0.0800 
 44 H       -3.9270     1.2740    -2.1340 H     1 <1>   0.0800 
 45 H       -5.0800     2.5820    -2.2870 H     1 <1>   0.0800 
 46 H        5.2030     0.6600     1.7750 H     1 <1>   0.1500 
 47 H        4.4290    -1.6640     1.7900 H     1 <1>   0.0800 
 48 H        3.0550    -2.1480     0.8310 H     1 <1>   0.0800 
 49 H        2.8080    -1.3460     2.3670 H     1 <1>   0.0800 
@<TRIPOS>BOND
  1   1   2  2   
  2   2   3  am  
  3   2   4  1   
  4   3   5  1   
  5   3   6  1   
  6   4   7  1   
  7   4  23  1   
  8   4  24  1   
  9   5   8  1   
 10   5  25  1   
 11   5  26  1   
 12   6   9  1   
 13   6  27  1   
 14   6  28  1   
 15   7  10  ar  
 16   7  11  ar  
 17   8  12  1   
 18   8  13  1   
 19   8  14  1   
 20   9  13  1   
 21   9  29  1   
 22   9  30  1   
 23  10  15  ar  
 24  10  16  1   
 25  11  17  ar  
 26  11  31  1   
 27  12  18  1   
 28  12  19  1   
 29  12  32  1   
 30  13  33  1   
 31  13  34  1   
 32  14  20  1   
 33  14  35  1   
 34  14  36  1   
 35  15  21  ar  
 36  15  37  1   
 37  16  38  1   
 38  16  39  1   
 39  16  40  1   
 40  17  21  ar  
 41  17  22  1   
 42  18  41  1   
 43  19  20  1   
 44  19  42  1   
 45  19  43  1   
 46  20  44  1   
 47  20  45  1   
 48  21  46  1   
 49  22  47  1   
 50  22  48  1   
 51  22  49  1   
@<TRIPOS>SUBSTRUCTURE
  1 ****   3 GROUP 4 **** **** 0

# MOE 2024.06 (io_trps.svl 2023.06)
