@<TRIPOS>MOLECULE
NONAME
54 55 1 0 0 
SMALL
USER_CHARGES


@<TRIPOS>ATOM
  1 O        0.3860     0.0630    -0.0780 O.co2 1 <1>  -0.9000 
  2 C        1.5480    -0.1680     0.2560 C.2   1 <1>   0.9060 
  3 O        1.9190    -1.2980     0.6020 O.co2 1 <1>  -0.9000 
  4 C        2.6320     0.9150     0.1160 C.3   1 <1>  -0.1060 
  5 C        3.4710     0.4870    -1.1130 C.3   1 <1>   0.2000 
  6 C        3.5640     0.9360     1.3650 C.3   1 <1>  -0.1600 
  7 C        2.0260     2.3370    -0.1420 C.3   1 <1>  -0.1600 
  8 O        3.9810    -0.7960    -0.9080 O.3   1 <1>  -0.6800 
  9 C        4.6900     1.4000    -1.2870 C.3   1 <1>   0.3430 
 10 C        4.8250     1.7720     1.1420 C.3   1 <1>   0.3430 
 11 C        1.2000     2.9290     1.0160 C.3   1 <1>  -0.1600 
 12 N        5.5490     1.2770    -0.0660 N.4   1 <1>  -0.9590 
 13 C        0.5550     4.2540     0.6020 C.3   1 <1>  -0.2400 
 14 C        6.8970     1.8760    -0.2430 C.3   1 <1>   0.4860 
 15 C        6.7760     3.3640    -0.5370 C.ar  1 <1>  -0.1430 
 16 C        6.6830     4.2790     0.5040 C.ar  1 <1>  -0.1500 
 17 C        6.7560     3.8250    -1.8470 C.ar  1 <1>  -0.1500 
 18 C        6.5410     5.6310     0.2490 C.ar  1 <1>   0.0820 
 19 C        6.6070     5.1760    -2.1110 C.ar  1 <1>  -0.1500 
 20 O        6.4720     6.4510     1.3260 O.3   1 <1>  -0.3620 
 21 C        6.4750     6.0830    -1.0730 C.ar  1 <1>   0.0820 
 22 C        7.4740     7.4410     1.4450 C.3   1 <1>   0.0400 
 23 O        6.2840     7.3810    -1.4040 O.3   1 <1>  -0.3630 
 24 C        5.0360     7.9440    -1.0680 C.3   1 <1>   0.1200 
 25 C        5.0010     9.3700    -1.6060 C.3   1 <1>  -0.2400 
 26 H        2.8590     0.4680    -2.0000 H     1 <1>   0.0800 
 27 H        3.8680    -0.0660     1.6140 H     1 <1>   0.0800 
 28 H        3.0320     1.2970     2.2250 H     1 <1>   0.0800 
 29 H        2.7910     3.0500    -0.3820 H     1 <1>   0.0800 
 30 H        1.3790     2.2680    -1.0020 H     1 <1>   0.0800 
 31 H        3.2660    -1.3110    -0.4130 H     1 <1>   0.4000 
 32 H        4.3830     2.4210    -1.4320 H     1 <1>   0.0800 
 33 H        5.2320     1.0800    -2.1600 H     1 <1>   0.0800 
 34 H        5.4580     1.6950     2.0110 H     1 <1>   0.0800 
 35 H        4.5530     2.8060     1.0090 H     1 <1>   0.0800 
 36 H        0.4220     2.2380     1.2990 H     1 <1>   0.0800 
 37 H        1.8170     3.1070     1.8760 H     1 <1>   0.0800 
 38 H        5.6180     0.2490     0.0440 H     1 <1>   0.4500 
 39 H       -0.1060     4.0990    -0.2340 H     1 <1>   0.0800 
 40 H        1.3040     4.9750     0.3280 H     1 <1>   0.0800 
 41 H       -0.0220     4.6500     1.4190 H     1 <1>   0.0800 
 42 H        7.4830     1.7310     0.6500 H     1 <1>   0.0800 
 43 H        7.4060     1.3910    -1.0600 H     1 <1>   0.0800 
 44 H        6.7230     3.9620     1.5310 H     1 <1>   0.1500 
 45 H        6.8550     3.1440    -2.6760 H     1 <1>   0.1500 
 46 H        6.5860     5.5390    -3.1240 H     1 <1>   0.1500 
 47 H        7.3930     7.8850     2.4210 H     1 <1>   0.0800 
 48 H        7.3290     8.1930     0.6920 H     1 <1>   0.0800 
 49 H        8.4380     6.9790     1.3300 H     1 <1>   0.0800 
 50 H        4.2620     7.3450    -1.5170 H     1 <1>   0.0800 
 51 H        4.9240     7.9380     0.0020 H     1 <1>   0.0800 
 52 H        5.1200     9.3650    -2.6750 H     1 <1>   0.0800 
 53 H        5.7860     9.9530    -1.1600 H     1 <1>   0.0800 
 54 H        4.0570     9.8260    -1.3680 H     1 <1>   0.0800 
@<TRIPOS>BOND
  1   1   2  ar  
  2   2   3  ar  
  3   2   4  1   
  4   4   5  1   
  5   4   6  1   
  6   4   7  1   
  7   5   8  1   
  8   5   9  1   
  9   5  26  1   
 10   6  10  1   
 11   6  27  1   
 12   6  28  1   
 13   7  11  1   
 14   7  29  1   
 15   7  30  1   
 16   8  31  1   
 17   9  12  1   
 18   9  32  1   
 19   9  33  1   
 20  10  12  1   
 21  10  34  1   
 22  10  35  1   
 23  11  13  1   
 24  11  36  1   
 25  11  37  1   
 26  12  14  1   
 27  12  38  1   
 28  13  39  1   
 29  13  40  1   
 30  13  41  1   
 31  14  15  1   
 32  14  42  1   
 33  14  43  1   
 34  15  16  ar  
 35  15  17  ar  
 36  16  18  ar  
 37  16  44  1   
 38  17  19  ar  
 39  17  45  1   
 40  18  20  1   
 41  18  21  ar  
 42  19  21  ar  
 43  19  46  1   
 44  20  22  1   
 45  21  23  1   
 46  22  47  1   
 47  22  48  1   
 48  22  49  1   
 49  23  24  1   
 50  24  25  1   
 51  24  50  1   
 52  24  51  1   
 53  25  52  1   
 54  25  53  1   
 55  25  54  1   
@<TRIPOS>SUBSTRUCTURE
  1 ****  10 GROUP 4 **** **** 0

# MOE 2024.06 (io_trps.svl 2023.06)
