@<TRIPOS>MOLECULE
NONAME
48 50 1 0 0 
SMALL
USER_CHARGES


@<TRIPOS>ATOM
  1 CL      -0.2260    -0.5220     0.9410 Cl    1 <1>  -0.1770 
  2 C       -1.8050    -1.2490     0.8190 C.ar  1 <1>   0.1770 
  3 C       -2.8760    -0.4900     0.4210 C.ar  1 <1>  -0.1500 
  4 C       -1.9460    -2.5960     1.1300 C.ar  1 <1>  -0.1500 
  5 C       -4.1570    -1.0610     0.3170 C.ar  1 <1>   0.0000 
  6 C       -3.1880    -3.1790     1.0380 C.ar  1 <1>  -0.1500 
  7 C       -4.3010    -2.4270     0.6350 C.ar  1 <1>   0.3610 
  8 C       -5.3240    -0.3450    -0.0910 C.ar  1 <1>  -0.1440 
  9 N       -5.5530    -3.0070     0.5400 N.ar  1 <1>  -0.1790 
 10 C       -6.5220    -0.9900    -0.1580 C.ar  1 <1>  -0.1500 
 11 C       -5.2290     1.1330    -0.4520 C.3   1 <1>  -0.0970 
 12 C       -6.6600    -2.3640     0.1680 C.ar  1 <1>   0.4610 
 13 N       -7.8320    -3.0290     0.1080 N.pl3 1 <1>  -0.8380 
 14 C       -9.0990    -2.4480    -0.4500 C.3   1 <1>   0.2090 
 15 C       -8.0850    -4.4560     0.4680 C.3   1 <1>   0.2090 
 16 C      -10.1490    -3.5600    -0.3830 C.3   1 <1>   0.2000 
 17 C       -9.6040    -4.5680     0.6250 C.3   1 <1>  -0.0800 
 18 O      -11.3760    -3.0850     0.0540 O.3   1 <1>  -0.6800 
 19 C      -10.2280    -5.9770     0.4900 C.3   1 <1>  -0.0550 
 20 S       -9.6100    -7.0160    -0.8430 S.o2  1 <1>   1.3330 
 21 O       -9.3190    -6.1700    -1.9780 O.2   1 <1>  -0.6500 
 22 O      -10.4650    -8.1690    -0.9880 O.2   1 <1>  -0.6500 
 23 N       -8.1170    -7.5710    -0.2410 N.am  1 <1>  -0.8490 
 24 C       -8.2670    -8.6680     0.7280 C.3   1 <1>   0.1160 
 25 C       -7.2560    -8.0410    -1.3360 C.3   1 <1>   0.1160 
 26 H       -2.7140     0.5480     0.1910 H     1 <1>   0.1500 
 27 H       -1.0770    -3.1550     1.4380 H     1 <1>   0.1500 
 28 H       -3.2960    -4.2220     1.2790 H     1 <1>   0.1500 
 29 H       -5.6480    -3.9950     0.7420 H     1 <1>   0.4570 
 30 H       -7.4030    -0.4580    -0.4630 H     1 <1>   0.1500 
 31 H       -6.1880     1.5270    -0.7390 H     1 <1>   0.0800 
 32 H       -4.5520     1.2730    -1.2770 H     1 <1>   0.0800 
 33 H       -4.8750     1.7020     0.3910 H     1 <1>   0.0800 
 34 H       -9.4060    -1.6040     0.1440 H     1 <1>   0.0800 
 35 H       -8.9530    -2.1450    -1.4740 H     1 <1>   0.0800 
 36 H       -7.7260    -5.0660    -0.3410 H     1 <1>   0.0800 
 37 H       -7.5910    -4.7350     1.3830 H     1 <1>   0.0800 
 38 H      -10.2860    -3.9910    -1.3610 H     1 <1>   0.0800 
 39 H       -9.8350    -4.2050     1.6110 H     1 <1>   0.0800 
 40 H      -11.3090    -2.6730     0.9370 H     1 <1>   0.4000 
 41 H      -11.2860    -5.8520     0.3530 H     1 <1>   0.0800 
 42 H      -10.1020    -6.4980     1.4170 H     1 <1>   0.0800 
 43 H       -7.3040    -8.9520     1.1190 H     1 <1>   0.0800 
 44 H       -8.7160    -9.5300     0.2600 H     1 <1>   0.0800 
 45 H       -8.8890    -8.3650     1.5510 H     1 <1>   0.0800 
 46 H       -6.3160    -8.3980    -0.9500 H     1 <1>   0.0800 
 47 H       -7.0540    -7.2370    -2.0240 H     1 <1>   0.0800 
 48 H       -7.7390    -8.8390    -1.8770 H     1 <1>   0.0800 
@<TRIPOS>BOND
  1   1   2  1   
  2   2   3  ar  
  3   2   4  ar  
  4   3   5  ar  
  5   3  26  1   
  6   4   6  ar  
  7   4  27  1   
  8   5   7  ar  
  9   5   8  ar  
 10   6   7  ar  
 11   6  28  1   
 12   7   9  ar  
 13   8  10  ar  
 14   8  11  1   
 15   9  12  ar  
 16   9  29  1   
 17  10  12  ar  
 18  10  30  1   
 19  11  31  1   
 20  11  32  1   
 21  11  33  1   
 22  12  13  1   
 23  13  14  1   
 24  13  15  1   
 25  14  16  1   
 26  14  34  1   
 27  14  35  1   
 28  15  17  1   
 29  15  36  1   
 30  15  37  1   
 31  16  17  1   
 32  16  18  1   
 33  16  38  1   
 34  17  19  1   
 35  17  39  1   
 36  18  40  1   
 37  19  20  1   
 38  19  41  1   
 39  19  42  1   
 40  20  21  2   
 41  20  22  2   
 42  20  23  am  
 43  23  24  1   
 44  23  25  1   
 45  24  43  1   
 46  24  44  1   
 47  24  45  1   
 48  25  46  1   
 49  25  47  1   
 50  25  48  1   
@<TRIPOS>SUBSTRUCTURE
  1 ****  12 GROUP 4 **** **** 0

# MOE 2024.06 (io_trps.svl 2023.06)
