@<TRIPOS>MOLECULE
NONAME
39 39 1 0 0 
SMALL
USER_CHARGES


@<TRIPOS>ATOM
  1 S        1.0410     1.4610    -0.4950 S.o2  1 <1>   1.0900 
  2 O        2.3900     1.1730    -0.0490 O.2   1 <1>  -0.6500 
  3 O        0.9290     2.5430    -1.4390 O.2   1 <1>  -0.6500 
  4 C        0.1280     1.9070     0.9740 C.3   1 <1>  -0.0550 
  5 C        0.2570    -0.0240    -1.1380 C.3   1 <1>  -0.0550 
  6 C        0.9750     2.7550     1.9290 C.3   1 <1>   0.2090 
  7 C       -1.2190     0.1520    -1.5370 C.3   1 <1>  -0.2400 
  8 N        1.2810     4.0990     1.3740 N.pl3 1 <1>  -0.8690 
  9 C        2.3220     4.5880     0.6800 C.ar  1 <1>   0.7710 
 10 N        2.3620     5.8990     0.5840 N.ar  1 <1>  -0.6200 
 11 N        3.2520     3.7880     0.1300 N.ar  1 <1>  -0.1790 
 12 C        3.3720     6.4400    -0.0740 C.ar  1 <1>   0.4100 
 13 C        4.2700     4.3000    -0.5940 C.ar  1 <1>   0.2110 
 14 N        3.4080     7.7970    -0.1020 N.pl3 1 <1>  -0.8380 
 15 C        4.3580     5.6480    -0.7180 C.ar  1 <1>  -0.1430 
 16 C        2.1660     8.5990    -0.2920 C.3   1 <1>   0.1290 
 17 C        4.5640     8.5820     0.4110 C.3   1 <1>   0.1290 
 18 C        5.4630     6.2700    -1.5700 C.3   1 <1>  -0.0970 
 19 H       -0.1510     1.0140     1.5000 H     1 <1>   0.0800 
 20 H       -0.7720     2.4330     0.7190 H     1 <1>   0.0800 
 21 H        0.3260    -0.8130    -0.4120 H     1 <1>   0.0800 
 22 H        0.7990    -0.3490    -2.0070 H     1 <1>   0.0800 
 23 H        1.8910     2.2410     2.1750 H     1 <1>   0.0800 
 24 H        0.4320     2.8870     2.8510 H     1 <1>   0.0800 
 25 H       -1.8230     0.4110    -0.6860 H     1 <1>   0.0800 
 26 H       -1.5970    -0.7640    -1.9570 H     1 <1>   0.0800 
 27 H       -1.3130     0.9280    -2.2790 H     1 <1>   0.0800 
 28 H        0.6350     4.8400     1.6740 H     1 <1>   0.4000 
 29 H        3.0960     2.7760     0.1830 H     1 <1>   0.4570 
 30 H        4.9650     3.6190    -1.0590 H     1 <1>   0.1500 
 31 H        1.3960     7.9940    -0.7400 H     1 <1>   0.0800 
 32 H        2.3640     9.4360    -0.9380 H     1 <1>   0.0800 
 33 H        1.8140     8.9590     0.6600 H     1 <1>   0.0800 
 34 H        5.3060     7.9270     0.8330 H     1 <1>   0.0800 
 35 H        4.2360     9.2580     1.1810 H     1 <1>   0.0800 
 36 H        5.0050     9.1490    -0.3900 H     1 <1>   0.0800 
 37 H        5.0520     7.0390    -2.2010 H     1 <1>   0.0800 
 38 H        5.9290     5.5360    -2.2020 H     1 <1>   0.0800 
 39 H        6.2200     6.7060    -0.9440 H     1 <1>   0.0800 
@<TRIPOS>BOND
  1   1   2  2   
  2   1   3  2   
  3   1   4  1   
  4   1   5  1   
  5   4   6  1   
  6   4  19  1   
  7   4  20  1   
  8   5   7  1   
  9   5  21  1   
 10   5  22  1   
 11   6   8  1   
 12   6  23  1   
 13   6  24  1   
 14   7  25  1   
 15   7  26  1   
 16   7  27  1   
 17   8   9  1   
 18   8  28  1   
 19   9  10  ar  
 20   9  11  ar  
 21  10  12  ar  
 22  11  13  ar  
 23  11  29  1   
 24  12  14  1   
 25  12  15  ar  
 26  13  15  ar  
 27  13  30  1   
 28  14  16  1   
 29  14  17  1   
 30  15  18  1   
 31  16  31  1   
 32  16  32  1   
 33  16  33  1   
 34  17  34  1   
 35  17  35  1   
 36  17  36  1   
 37  18  37  1   
 38  18  38  1   
 39  18  39  1   
@<TRIPOS>SUBSTRUCTURE
  1 ****   9 GROUP 4 **** **** 0

# MOE 2024.06 (io_trps.svl 2023.06)
