@<TRIPOS>MOLECULE
NONAME
42 44 1 0 0 
SMALL
USER_CHARGES


@<TRIPOS>ATOM
  1 F       -3.7660    -0.9530     1.6210 F     1 <1>  -0.1900 
  2 C       -3.4900     0.0470     0.8210 C.ar  1 <1>   0.1900 
  3 C       -3.2600     1.2930     1.3820 C.ar  1 <1>   0.1900 
  4 C       -3.4420    -0.1560    -0.5590 C.ar  1 <1>   0.0860 
  5 F       -3.3130     1.4310     2.6840 F     1 <1>  -0.1900 
  6 C       -2.9770     2.4020     0.6000 C.ar  1 <1>  -0.1440 
  7 C       -3.6690    -1.4420    -1.1930 C.2   1 <1>   0.5440 
  8 C       -3.1620     0.9740    -1.3340 C.ar  1 <1>  -0.1500 
  9 C       -2.9330     2.2220    -0.7750 C.ar  1 <1>  -0.1500 
 10 C       -2.7250     3.7700     1.2170 C.3   1 <1>  -0.0960 
 11 O       -4.1330    -1.4980    -2.3140 O.2   1 <1>  -0.5700 
 12 N       -3.3670    -2.6170    -0.5700 N.am  1 <1>  -0.7300 
 13 C       -3.5980    -3.9740    -1.1190 C.3   1 <1>   0.2200 
 14 C       -4.8140    -4.6260    -0.4740 C.3   1 <1>  -0.0800 
 15 C       -2.4930    -4.8980    -0.6300 C.3   1 <1>   0.1200 
 16 C       -4.2420    -5.2100     0.8220 C.3   1 <1>   0.1200 
 17 C       -6.0400    -3.7170    -0.2720 C.3   1 <1>  -0.0160 
 18 O       -2.8520    -5.2460     0.6730 O.3   1 <1>  -0.5600 
 19 C       -7.2050    -4.4990     0.3130 C.ar  1 <1>  -0.1430 
 20 C       -8.0210    -5.2860    -0.4740 C.ar  1 <1>  -0.1500 
 21 C       -7.5080    -4.4650     1.6600 C.ar  1 <1>  -0.1500 
 22 C       -9.0660    -5.9850     0.1070 C.ar  1 <1>   0.1600 
 23 C       -8.5770    -5.2020     2.1400 C.ar  1 <1>   0.1600 
 24 N       -9.3620    -5.9640     1.3960 N.ar  1 <1>  -0.6200 
 25 H       -3.1250     0.8660    -2.4060 H     1 <1>   0.1500 
 26 H       -2.7210     3.0570    -1.4220 H     1 <1>   0.1500 
 27 H       -2.5120     4.5030     0.4600 H     1 <1>   0.0800 
 28 H       -1.8880     3.7210     1.8900 H     1 <1>   0.0800 
 29 H       -3.5920     4.0900     1.7680 H     1 <1>   0.0800 
 30 H       -3.0510    -2.6140     0.4050 H     1 <1>   0.3700 
 31 H       -3.6610    -3.9460    -2.1940 H     1 <1>   0.0800 
 32 H       -5.1090    -5.4540    -1.0950 H     1 <1>   0.0800 
 33 H       -1.5250    -4.4280    -0.6290 H     1 <1>   0.0800 
 34 H       -2.4630    -5.8010    -1.2150 H     1 <1>   0.0800 
 35 H       -4.6030    -6.2080     1.0040 H     1 <1>   0.0800 
 36 H       -4.4610    -4.5840     1.6700 H     1 <1>   0.0800 
 37 H       -6.3320    -3.2950    -1.2180 H     1 <1>   0.0800 
 38 H       -5.8000    -2.8990     0.3840 H     1 <1>   0.0800 
 39 H       -7.8530    -5.3610    -1.5330 H     1 <1>   0.1500 
 40 H       -6.9240    -3.8710     2.3400 H     1 <1>   0.1500 
 41 H       -9.6910    -6.5940    -0.5230 H     1 <1>   0.1500 
 42 H       -8.7980    -5.1640     3.1930 H     1 <1>   0.1500 
@<TRIPOS>BOND
  1   1   2  1   
  2   2   3  ar  
  3   2   4  ar  
  4   3   5  1   
  5   3   6  ar  
  6   4   7  1   
  7   4   8  ar  
  8   6   9  ar  
  9   6  10  1   
 10   7  11  2   
 11   7  12  am  
 12   8   9  ar  
 13   8  25  1   
 14   9  26  1   
 15  10  27  1   
 16  10  28  1   
 17  10  29  1   
 18  12  13  1   
 19  12  30  1   
 20  13  14  1   
 21  13  15  1   
 22  13  31  1   
 23  14  16  1   
 24  14  17  1   
 25  14  32  1   
 26  15  18  1   
 27  15  33  1   
 28  15  34  1   
 29  16  18  1   
 30  16  35  1   
 31  16  36  1   
 32  17  19  1   
 33  17  37  1   
 34  17  38  1   
 35  19  20  ar  
 36  19  21  ar  
 37  20  22  ar  
 38  20  39  1   
 39  21  23  ar  
 40  21  40  1   
 41  22  24  ar  
 42  22  41  1   
 43  23  24  ar  
 44  23  42  1   
@<TRIPOS>SUBSTRUCTURE
  1 ****  12 GROUP 4 **** **** 0

# MOE 2024.06 (io_trps.svl 2023.06)
