@<TRIPOS>MOLECULE
NONAME
42 44 1 0 0 
SMALL
USER_CHARGES


@<TRIPOS>ATOM
  1 F       -0.0690    -1.0620     1.2750 F     1 <1>  -0.1900 
  2 C       -0.6950    -2.0720     0.7270 C.ar  1 <1>   0.1900 
  3 C       -0.0710    -2.9220    -0.1930 C.ar  1 <1>   0.0820 
  4 C       -2.0120    -2.2550     1.1020 C.ar  1 <1>  -0.1500 
  5 O        1.2160    -2.8450    -0.6400 O.3   1 <1>  -0.3630 
  6 C       -0.8210    -3.9620    -0.7190 C.ar  1 <1>  -0.1500 
  7 C       -2.7320    -3.3010     0.5570 C.ar  1 <1>  -0.1500 
  8 C        2.1360    -1.8830    -0.1740 C.3   1 <1>   0.0400 
  9 C       -2.1530    -4.1810    -0.3610 C.ar  1 <1>   0.0530 
 10 C       -2.9010    -5.2780    -0.9260 C.2   1 <1>   0.0870 
 11 O       -2.5800    -5.7820    -2.0960 O.3   1 <1>  -0.0190 
 12 C       -3.9730    -5.9810    -0.4870 C.2   1 <1>  -0.2330 
 13 N       -3.3750    -6.7570    -2.4640 N.2   1 <1>  -0.4100 
 14 C       -4.2240    -6.8890    -1.5110 C.2   1 <1>   0.3720 
 15 C       -4.7490    -5.9130     0.6970 C.2   1 <1>   1.0330 
 16 N       -5.2620    -7.8290    -1.5440 N.pl3 1 <1>  -0.8210 
 17 O       -4.6750    -6.7960     1.5710 O.co2 1 <1>  -0.9000 
 18 O       -5.7100    -5.1370     0.7820 O.co2 1 <1>  -0.9000 
 19 C       -5.0870    -8.9790    -0.5900 C.3   1 <1>   0.2090 
 20 C       -6.6380    -7.2370    -1.6730 C.3   1 <1>   0.2090 
 21 C       -6.3130    -9.2590     0.3190 C.3   1 <1>   0.4230 
 22 C       -7.4770    -7.1660    -0.3680 C.3   1 <1>   0.3430 
 23 N       -6.9560    -8.0060     0.7560 N.4   1 <1>  -0.9060 
 24 C       -5.9220   -10.0390     1.5700 C.3   1 <1>  -0.2400 
 25 H       -2.4680    -1.5860     1.8090 H     1 <1>   0.1500 
 26 H       -0.3520    -4.6230    -1.4250 H     1 <1>   0.1500 
 27 H       -3.7610    -3.4310     0.8470 H     1 <1>   0.1500 
 28 H        3.0780    -2.0560    -0.6610 H     1 <1>   0.0800 
 29 H        2.2490    -1.9940     0.8900 H     1 <1>   0.0800 
 30 H        1.7730    -0.9010    -0.4230 H     1 <1>   0.0800 
 31 H       -4.8640    -9.8640    -1.1580 H     1 <1>   0.0800 
 32 H       -4.2280    -8.7900     0.0340 H     1 <1>   0.0800 
 33 H       -6.5590    -6.2410    -2.0770 H     1 <1>   0.0800 
 34 H       -7.1810    -7.8170    -2.3970 H     1 <1>   0.0800 
 35 H       -7.0240    -9.8400    -0.2450 H     1 <1>   0.0800 
 36 H       -8.4860    -7.4570    -0.6000 H     1 <1>   0.0800 
 37 H       -7.5150    -6.1380    -0.0440 H     1 <1>   0.0800 
 38 H       -7.6230    -8.1240     1.5160 H     1 <1>   0.4500 
 39 H       -6.1770    -7.4400     1.1840 H     1 <1>   0.4500 
 40 H       -5.2270    -9.4710     2.1650 H     1 <1>   0.0800 
 41 H       -5.4500   -10.9630     1.2910 H     1 <1>   0.0800 
 42 H       -6.7900   -10.2710     2.1600 H     1 <1>   0.0800 
@<TRIPOS>BOND
  1   1   2  1   
  2   2   3  ar  
  3   2   4  ar  
  4   3   5  1   
  5   3   6  ar  
  6   4   7  ar  
  7   4  25  1   
  8   5   8  1   
  9   6   9  ar  
 10   6  26  1   
 11   7   9  ar  
 12   7  27  1   
 13   8  28  1   
 14   8  29  1   
 15   8  30  1   
 16   9  10  1   
 17  10  11  1   
 18  10  12  2   
 19  11  13  1   
 20  12  14  1   
 21  12  15  1   
 22  13  14  2   
 23  14  16  1   
 24  15  17  ar  
 25  15  18  ar  
 26  16  19  1   
 27  16  20  1   
 28  19  21  1   
 29  19  31  1   
 30  19  32  1   
 31  20  22  1   
 32  20  33  1   
 33  20  34  1   
 34  21  23  1   
 35  21  24  1   
 36  21  35  1   
 37  22  23  1   
 38  22  36  1   
 39  22  37  1   
 40  23  38  1   
 41  23  39  1   
 42  24  40  1   
 43  24  41  1   
 44  24  42  1   
@<TRIPOS>SUBSTRUCTURE
  1 ****  12 GROUP 4 **** **** 0

# MOE 2024.06 (io_trps.svl 2023.06)
