@<TRIPOS>MOLECULE
NONAME
52 54 1 0 0 
SMALL
USER_CHARGES


@<TRIPOS>ATOM
  1 O       -0.8090     0.7950    -1.2570 O.2   1 <1>  -0.5700 
  2 C       -1.9050     1.0480    -0.7920 C.2   1 <1>   0.5440 
  3 N       -2.8710     0.0520    -0.8080 N.am  1 <1>  -0.6600 
  4 C       -2.1290     2.3750    -0.2490 C.ar  1 <1>   0.0860 
  5 C       -4.3410     0.2190    -1.0330 C.3   1 <1>   0.2200 
  6 C       -2.4300    -1.3710    -0.8740 C.3   1 <1>   0.0600 
  7 C       -2.5210     2.5740     1.0740 C.ar  1 <1>  -0.1500 
  8 C       -1.9310     3.5110    -1.0350 C.ar  1 <1>  -0.1500 
  9 C       -4.7370     1.3760    -1.9580 C.3   1 <1>  -0.1600 
 10 C       -5.1050     0.3820     0.2800 C.3   1 <1>  -0.1600 
 11 C       -2.7740     3.8390     1.5680 C.ar  1 <1>  -0.1500 
 12 C       -2.1740     4.7830    -0.5490 C.ar  1 <1>  -0.1500 
 13 C       -5.9530     2.0640    -1.3230 C.3   1 <1>  -0.0800 
 14 C       -6.2290     1.3950     0.0250 C.3   1 <1>  -0.0800 
 15 C       -2.6220     4.9520     0.7580 C.ar  1 <1>   0.0820 
 16 C       -5.7510     3.5510    -1.0070 C.3   1 <1>  -0.1600 
 17 C       -6.3060     2.5320     1.0610 C.3   1 <1>  -0.1600 
 18 O       -2.9210     6.1530     1.2980 O.3   1 <1>  -0.3620 
 19 C       -6.5530     3.8180     0.2680 C.3   1 <1>   0.4230 
 20 C       -2.4690     7.3530     0.7090 C.3   1 <1>   0.0400 
 21 N       -8.0130     3.9770    -0.0350 N.4   1 <1>  -0.9590 
 22 C       -8.2910     5.1160    -0.9680 C.3   1 <1>   0.2630 
 23 C       -8.8330     4.1700     1.2040 C.3   1 <1>   0.2630 
 24 H       -4.7120    -0.6780    -1.5040 H     1 <1>   0.0800 
 25 H       -3.0640    -1.9840    -0.2590 H     1 <1>   0.0800 
 26 H       -1.4170    -1.4690    -0.5210 H     1 <1>   0.0800 
 27 H       -2.4730    -1.7170    -1.8930 H     1 <1>   0.0800 
 28 H       -2.6120     1.7200     1.7210 H     1 <1>   0.1500 
 29 H       -1.5780     3.3790    -2.0440 H     1 <1>   0.1500 
 30 H       -3.9380     2.0670    -2.1300 H     1 <1>   0.0800 
 31 H       -5.0140     0.9720    -2.9160 H     1 <1>   0.0800 
 32 H       -5.5200    -0.5650     0.5780 H     1 <1>   0.0800 
 33 H       -4.4470     0.7070     1.0580 H     1 <1>   0.0800 
 34 H       -3.0800     3.9760     2.5900 H     1 <1>   0.1500 
 35 H       -2.0150     5.6250    -1.1970 H     1 <1>   0.1500 
 36 H       -6.8120     1.9430    -1.9630 H     1 <1>   0.0800 
 37 H       -7.1730     0.8770    -0.0300 H     1 <1>   0.0800 
 38 H       -5.9820     4.1870    -1.8390 H     1 <1>   0.0800 
 39 H       -4.7200     3.7170    -0.7610 H     1 <1>   0.0800 
 40 H       -5.3520     2.6460     1.5430 H     1 <1>   0.0800 
 41 H       -7.0240     2.3290     1.8310 H     1 <1>   0.0800 
 42 H       -6.1780     4.6840     0.7920 H     1 <1>   0.0800 
 43 H       -2.7080     8.1640     1.3730 H     1 <1>   0.0800 
 44 H       -2.9670     7.4940    -0.2330 H     1 <1>   0.0800 
 45 H       -1.4020     7.2950     0.5740 H     1 <1>   0.0800 
 46 H       -8.3050     3.1010    -0.4910 H     1 <1>   0.4500 
 47 H       -7.8960     6.0350    -0.5650 H     1 <1>   0.0800 
 48 H       -9.3540     5.2310    -1.1090 H     1 <1>   0.0800 
 49 H       -7.8440     4.9390    -1.9310 H     1 <1>   0.0800 
 50 H       -8.4890     5.0340     1.7490 H     1 <1>   0.0800 
 51 H       -8.7680     3.3080     1.8460 H     1 <1>   0.0800 
 52 H       -9.8690     4.3170     0.9460 H     1 <1>   0.0800 
@<TRIPOS>BOND
  1   1   2  2   
  2   2   3  am  
  3   2   4  1   
  4   3   5  1   
  5   3   6  1   
  6   4   7  ar  
  7   4   8  ar  
  8   5   9  1   
  9   5  10  1   
 10   5  24  1   
 11   6  25  1   
 12   6  26  1   
 13   6  27  1   
 14   7  11  ar  
 15   7  28  1   
 16   8  12  ar  
 17   8  29  1   
 18   9  13  1   
 19   9  30  1   
 20   9  31  1   
 21  10  14  1   
 22  10  32  1   
 23  10  33  1   
 24  11  15  ar  
 25  11  34  1   
 26  12  15  ar  
 27  12  35  1   
 28  13  14  1   
 29  13  16  1   
 30  13  36  1   
 31  14  17  1   
 32  14  37  1   
 33  15  18  1   
 34  16  19  1   
 35  16  38  1   
 36  16  39  1   
 37  17  19  1   
 38  17  40  1   
 39  17  41  1   
 40  18  20  1   
 41  19  21  1   
 42  19  42  1   
 43  20  43  1   
 44  20  44  1   
 45  20  45  1   
 46  21  22  1   
 47  21  23  1   
 48  21  46  1   
 49  22  47  1   
 50  22  48  1   
 51  22  49  1   
 52  23  50  1   
 53  23  51  1   
 54  23  52  1   
@<TRIPOS>SUBSTRUCTURE
  1 ****  16 GROUP 4 **** **** 0

# MOE 2024.06 (io_trps.svl 2023.06)
