@<TRIPOS>MOLECULE
NONAME
55 56 1 0 0 
SMALL
USER_CHARGES


@<TRIPOS>ATOM
  1 N        0.1420     0.3380    -1.0520 N.3   1 <1>  -0.8100 
  2 C        0.1250    -1.1390    -0.9950 C.3   1 <1>   0.1100 
  3 C       -1.2220     0.8790    -1.2590 C.3   1 <1>   0.1100 
  4 C        1.0720     0.8050    -2.1010 C.3   1 <1>   0.2540 
  5 C       -0.8350    -1.6570     0.0960 C.3   1 <1>   0.3430 
  6 C       -2.2040     0.3870    -0.1770 C.3   1 <1>   0.3430 
  7 C        1.2950     2.3070    -1.9950 C.ar  1 <1>  -0.1440 
  8 N       -2.2230    -1.1100    -0.0840 N.4   1 <1>  -0.9590 
  9 C        2.0530     2.8240    -0.9570 C.ar  1 <1>  -0.1500 
 10 C        0.7590     3.1670    -2.9390 C.ar  1 <1>  -0.1500 
 11 C       -3.1250    -1.5880     0.9830 C.3   1 <1>   0.4810 
 12 C        2.2880     4.1890    -0.8500 C.ar  1 <1>  -0.1430 
 13 C        0.9810     4.5280    -2.8440 C.ar  1 <1>  -0.1500 
 14 C       -3.4660    -3.0570     0.7510 C.2   1 <1>  -0.2760 
 15 C        1.7420     5.0380    -1.8080 C.ar  1 <1>  -0.1500 
 16 C        3.1350     4.6810     0.3180 C.3   1 <1>   0.5660 
 17 C       -3.2340    -3.7880    -0.3500 C.2   1 <1>  -0.3000 
 18 C       -4.1610    -3.6760     1.9580 C.3   1 <1>  -0.1020 
 19 N        2.2250     4.9150     1.4750 N.4   1 <1>  -0.9590 
 20 C        4.0030     5.9020    -0.0020 C.3   1 <1>  -0.2400 
 21 C        1.3030     6.0820     1.2960 C.3   1 <1>   0.2630 
 22 C        2.9640     5.0030     2.7710 C.3   1 <1>   0.2630 
 23 H        1.1170    -1.4960    -0.7740 H     1 <1>   0.0800 
 24 H       -0.1660    -1.5440    -1.9490 H     1 <1>   0.0800 
 25 H       -1.5880     0.5950    -2.2320 H     1 <1>   0.0800 
 26 H       -1.1910     1.9540    -1.2220 H     1 <1>   0.0800 
 27 H        0.6910     0.5520    -3.0760 H     1 <1>   0.0800 
 28 H        2.0230     0.3130    -1.9830 H     1 <1>   0.0800 
 29 H       -0.4490    -1.3580     1.0560 H     1 <1>   0.0800 
 30 H       -0.8570    -2.7340     0.0690 H     1 <1>   0.0800 
 31 H       -3.1920     0.7540    -0.4020 H     1 <1>   0.0800 
 32 H       -1.9000     0.8040     0.7690 H     1 <1>   0.0800 
 33 H       -2.6010    -1.4870    -0.9590 H     1 <1>   0.4500 
 34 H        2.4620     2.1380    -0.2350 H     1 <1>   0.1500 
 35 H        0.1720     2.7850    -3.7570 H     1 <1>   0.1500 
 36 H       -4.0380    -1.0140     0.9850 H     1 <1>   0.0800 
 37 H       -2.6480    -1.4690     1.9430 H     1 <1>   0.0800 
 38 H        0.5650     5.1900    -3.5850 H     1 <1>   0.1500 
 39 H        1.8990     6.1010    -1.7750 H     1 <1>   0.1500 
 40 H        3.8060     3.8760     0.5740 H     1 <1>   0.0800 
 41 H       -3.5120    -4.8270    -0.4360 H     1 <1>   0.1500 
 42 H       -2.7650    -3.4560    -1.2580 H     1 <1>   0.1500 
 43 H       -5.0790    -3.1580     2.1730 H     1 <1>   0.0800 
 44 H       -3.5260    -3.6330     2.8260 H     1 <1>   0.0800 
 45 H       -4.4000    -4.7100     1.7740 H     1 <1>   0.0800 
 46 H        1.6330     4.0730     1.4920 H     1 <1>   0.4500 
 47 H        3.4220     6.7730    -0.2350 H     1 <1>   0.0800 
 48 H        4.6150     5.6770    -0.8580 H     1 <1>   0.0800 
 49 H        4.6630     6.1240     0.8160 H     1 <1>   0.0800 
 50 H        1.8610     7.0020     1.2570 H     1 <1>   0.0800 
 51 H        0.6080     6.1380     2.1190 H     1 <1>   0.0800 
 52 H        0.7400     5.9780     0.3830 H     1 <1>   0.0800 
 53 H        3.5910     5.8800     2.7870 H     1 <1>   0.0800 
 54 H        3.5860     4.1330     2.9090 H     1 <1>   0.0800 
 55 H        2.2700     5.0620     3.5930 H     1 <1>   0.0800 
@<TRIPOS>BOND
  1   1   2  1   
  2   1   3  1   
  3   1   4  1   
  4   2   5  1   
  5   2  23  1   
  6   2  24  1   
  7   3   6  1   
  8   3  25  1   
  9   3  26  1   
 10   4   7  1   
 11   4  27  1   
 12   4  28  1   
 13   5   8  1   
 14   5  29  1   
 15   5  30  1   
 16   6   8  1   
 17   6  31  1   
 18   6  32  1   
 19   7   9  ar  
 20   7  10  ar  
 21   8  11  1   
 22   8  33  1   
 23   9  12  ar  
 24   9  34  1   
 25  10  13  ar  
 26  10  35  1   
 27  11  14  1   
 28  11  36  1   
 29  11  37  1   
 30  12  15  ar  
 31  12  16  1   
 32  13  15  ar  
 33  13  38  1   
 34  14  17  2   
 35  14  18  1   
 36  15  39  1   
 37  16  19  1   
 38  16  20  1   
 39  16  40  1   
 40  17  41  1   
 41  17  42  1   
 42  18  43  1   
 43  18  44  1   
 44  18  45  1   
 45  19  21  1   
 46  19  22  1   
 47  19  46  1   
 48  20  47  1   
 49  20  48  1   
 50  20  49  1   
 51  21  50  1   
 52  21  51  1   
 53  21  52  1   
 54  22  53  1   
 55  22  54  1   
 56  22  55  1   
@<TRIPOS>SUBSTRUCTURE
  1 ****   1 GROUP 4 **** **** 0

# MOE 2024.06 (io_trps.svl 2023.06)
