@<TRIPOS>MOLECULE
NONAME
52 55 1 0 0 
SMALL
USER_CHARGES


@<TRIPOS>ATOM
  1 O       -0.5540    -2.3820     2.5860 O.2   1 <1>  -0.5700 
  2 C       -0.3890    -2.9380     1.5250 C.2   1 <1>   0.6900 
  3 N       -1.3760    -3.2550     0.6370 N.am  1 <1>  -0.4200 
  4 N        0.8190    -3.3280     1.0680 N.am  1 <1>  -0.7300 
  5 C       -0.8410    -3.9060    -0.4330 C.2   1 <1>   0.5690 
  6 C       -2.8270    -3.0900     0.9120 C.3   1 <1>   0.2010 
  7 C        0.6610    -4.0470    -0.2200 C.3   1 <1>   0.2010 
  8 O       -1.4370    -4.2990    -1.4050 O.2   1 <1>  -0.5700 
  9 C       -3.5540    -4.4320     1.0340 C.2   1 <1>   0.5690 
 10 O       -3.3590    -5.0720     2.0410 O.2   1 <1>  -0.5700 
 11 N       -4.4130    -4.8900     0.0620 N.am  1 <1>  -0.6600 
 12 C       -5.0780    -6.2260     0.1900 C.3   1 <1>   0.1400 
 13 C       -4.7170    -4.1940    -1.2210 C.3   1 <1>   0.1400 
 14 C       -6.5760    -6.1100     0.5160 C.3   1 <1>   0.1400 
 15 C       -5.9160    -3.2460    -1.0770 C.3   1 <1>  -0.1600 
 16 N       -7.3110    -5.2160    -0.4420 N.am  1 <1>  -0.6600 
 17 C       -7.0640    -3.7670    -0.2020 C.3   1 <1>   0.1400 
 18 C       -8.1820    -5.6230    -1.4260 C.2   1 <1>   0.5690 
 19 O       -8.7500    -4.8200    -2.1300 O.2   1 <1>  -0.5700 
 20 C       -8.4390    -7.0900    -1.7250 C.3   1 <1>   0.1570 
 21 N       -9.1890    -7.7520    -0.6380 N.pl3 1 <1>   0.0480 
 22 C       -8.8290    -8.9160     0.0060 C.ar  1 <1>  -0.1520 
 23 C      -10.3180    -7.2750    -0.0330 C.2   1 <1>  -0.3020 
 24 C       -9.7420    -9.1490     1.0300 C.ar  1 <1>   0.0000 
 25 C       -7.7670    -9.8020    -0.2090 C.ar  1 <1>  -0.1500 
 26 C      -10.6790    -8.0970     0.9800 C.2   1 <1>  -0.1500 
 27 C       -9.5930   -10.2650     1.8590 C.ar  1 <1>  -0.1500 
 28 C       -7.6310   -10.8980     0.6130 C.ar  1 <1>  -0.1500 
 29 C       -8.5440   -11.1290     1.6480 C.ar  1 <1>  -0.1500 
 30 H        1.6380    -3.3820     1.6750 H     1 <1>   0.3700 
 31 H       -3.2610    -2.4860     0.1420 H     1 <1>   0.0800 
 32 H       -2.9510    -2.5660     1.8430 H     1 <1>   0.0800 
 33 H        0.9370    -5.0820    -0.1260 H     1 <1>   0.0800 
 34 H        1.2090    -3.5620    -1.0070 H     1 <1>   0.0800 
 35 H       -4.6040    -6.8030     0.9660 H     1 <1>   0.0800 
 36 H       -4.9540    -6.7760    -0.7260 H     1 <1>   0.0800 
 37 H       -4.9450    -4.9300    -1.9720 H     1 <1>   0.0800 
 38 H       -3.8580    -3.6510    -1.5740 H     1 <1>   0.0800 
 39 H       -6.6830    -5.7240     1.5150 H     1 <1>   0.0800 
 40 H       -6.9980    -7.0950     0.5250 H     1 <1>   0.0800 
 41 H       -6.3030    -3.0420    -2.0590 H     1 <1>   0.0800 
 42 H       -5.5830    -2.3070    -0.6760 H     1 <1>   0.0800 
 43 H       -7.9600    -3.2040    -0.4080 H     1 <1>   0.0800 
 44 H       -6.8210    -3.6150     0.8360 H     1 <1>   0.0800 
 45 H       -7.5010    -7.5860    -1.8740 H     1 <1>   0.0800 
 46 H       -9.0140    -7.1700    -2.6280 H     1 <1>   0.0800 
 47 H      -10.8000    -6.3690    -0.3600 H     1 <1>   0.1500 
 48 H       -7.0660    -9.6340    -1.0060 H     1 <1>   0.1500 
 49 H      -11.5160    -8.0030     1.6480 H     1 <1>   0.1500 
 50 H      -10.3040   -10.4290     2.6480 H     1 <1>   0.1500 
 51 H       -6.8210   -11.5910     0.4670 H     1 <1>   0.1500 
 52 H       -8.4150   -11.9910     2.2780 H     1 <1>   0.1500 
@<TRIPOS>BOND
  1   1   2  2   
  2   2   3  am  
  3   2   4  am  
  4   3   5  am  
  5   3   6  1   
  6   4   7  1   
  7   4  30  1   
  8   5   7  1   
  9   5   8  2   
 10   6   9  1   
 11   6  31  1   
 12   6  32  1   
 13   7  33  1   
 14   7  34  1   
 15   9  10  2   
 16   9  11  am  
 17  11  12  1   
 18  11  13  1   
 19  12  14  1   
 20  12  35  1   
 21  12  36  1   
 22  13  15  1   
 23  13  37  1   
 24  13  38  1   
 25  14  16  1   
 26  14  39  1   
 27  14  40  1   
 28  15  17  1   
 29  15  41  1   
 30  15  42  1   
 31  16  17  1   
 32  16  18  am  
 33  17  43  1   
 34  17  44  1   
 35  18  19  2   
 36  18  20  1   
 37  20  21  1   
 38  20  45  1   
 39  20  46  1   
 40  21  22  1   
 41  21  23  1   
 42  22  24  ar  
 43  22  25  ar  
 44  23  26  2   
 45  23  47  1   
 46  24  26  1   
 47  24  27  ar  
 48  25  28  ar  
 49  25  48  1   
 50  26  49  1   
 51  27  29  ar  
 52  27  50  1   
 53  28  29  ar  
 54  28  51  1   
 55  29  52  1   
@<TRIPOS>SUBSTRUCTURE
  1 ****  12 GROUP 4 **** **** 0

# MOE 2024.06 (io_trps.svl 2023.06)
