@<TRIPOS>MOLECULE
NONAME
42 43 1 0 0 
SMALL
USER_CHARGES


@<TRIPOS>ATOM
  1 S       -0.8610     0.7390     1.4220 S.o2  1 <1>   1.4470 
  2 O       -1.4680     1.9590     1.9110 O.2   1 <1>  -0.6500 
  3 O       -0.9010    -0.4560     2.2380 O.2   1 <1>  -0.6500 
  4 N       -1.5660     0.3890    -0.0810 N.am  1 <1>  -0.8490 
  5 C        0.8580     1.1050     0.9730 C.ar  1 <1>  -0.0090 
  6 C       -1.0840    -0.8630    -0.7030 C.3   1 <1>   0.1960 
  7 C       -3.0330     0.5700    -0.1360 C.3   1 <1>   0.1960 
  8 C        1.1610     2.1550     0.1150 C.ar  1 <1>  -0.1500 
  9 C        1.9150     0.3460     1.4610 C.ar  1 <1>  -0.1500 
 10 C       -1.7710    -2.1540    -0.1970 C.3   1 <1>   0.2000 
 11 C       -3.8200    -0.7140    -0.4410 C.3   1 <1>  -0.1600 
 12 C        2.4670     2.4360    -0.2450 C.ar  1 <1>  -0.1500 
 13 C        3.2240     0.6220     1.1050 C.ar  1 <1>  -0.1500 
 14 O       -1.7790    -3.0300    -1.2660 O.3   1 <1>  -0.6800 
 15 C       -3.2130    -1.9170     0.3020 C.3   1 <1>  -0.1860 
 16 C        3.5130     1.6710     0.2470 C.ar  1 <1>  -0.1430 
 17 C       -4.1370    -3.1300     0.3130 C.2   1 <1>   0.9060 
 18 C        4.9620     1.9660    -0.1370 C.3   1 <1>   0.0640 
 19 O       -5.1880    -3.0470     0.9530 O.co2 1 <1>  -0.9000 
 20 O       -3.8360    -4.1540    -0.3180 O.co2 1 <1>  -0.9000 
 21 C        5.3780     3.3630     0.3340 C.3   1 <1>  -0.2400 
 22 C        5.1690     1.8170    -1.6480 C.3   1 <1>  -0.2400 
 23 H       -1.2720    -0.7820    -1.7600 H     1 <1>   0.0800 
 24 H       -0.0200    -0.9580    -0.5750 H     1 <1>   0.0800 
 25 H       -3.3890     0.9570     0.8050 H     1 <1>   0.0800 
 26 H       -3.2630     1.3070    -0.8860 H     1 <1>   0.0800 
 27 H        0.3580     2.7570    -0.2760 H     1 <1>   0.1500 
 28 H        1.7110    -0.4750     2.1280 H     1 <1>   0.1500 
 29 H       -1.1930    -2.6140     0.5860 H     1 <1>   0.0800 
 30 H       -4.8430    -0.5790    -0.1360 H     1 <1>   0.0800 
 31 H       -3.8240    -0.9070    -1.5000 H     1 <1>   0.0800 
 32 H        2.6630     3.2580    -0.9110 H     1 <1>   0.1500 
 33 H        4.0160     0.0130     1.5030 H     1 <1>   0.1500 
 34 H       -2.5310    -3.6790    -1.0740 H     1 <1>   0.4000 
 35 H       -3.1380    -1.6320     1.3340 H     1 <1>   0.0800 
 36 H        5.6020     1.2520     0.3530 H     1 <1>   0.0800 
 37 H        4.8020     4.1230    -0.1630 H     1 <1>   0.0800 
 38 H        6.4190     3.5310     0.1280 H     1 <1>   0.0800 
 39 H        5.2190     3.4530     1.3940 H     1 <1>   0.0800 
 40 H        4.5880     2.5420    -2.1880 H     1 <1>   0.0800 
 41 H        4.8680     0.8340    -1.9620 H     1 <1>   0.0800 
 42 H        6.2060     1.9540    -1.8960 H     1 <1>   0.0800 
@<TRIPOS>BOND
  1   1   2  2   
  2   1   3  2   
  3   1   4  am  
  4   1   5  1   
  5   4   6  1   
  6   4   7  1   
  7   5   8  ar  
  8   5   9  ar  
  9   6  10  1   
 10   6  23  1   
 11   6  24  1   
 12   7  11  1   
 13   7  25  1   
 14   7  26  1   
 15   8  12  ar  
 16   8  27  1   
 17   9  13  ar  
 18   9  28  1   
 19  10  14  1   
 20  10  15  1   
 21  10  29  1   
 22  11  15  1   
 23  11  30  1   
 24  11  31  1   
 25  12  16  ar  
 26  12  32  1   
 27  13  16  ar  
 28  13  33  1   
 29  14  34  1   
 30  15  17  1   
 31  15  35  1   
 32  16  18  1   
 33  17  19  ar  
 34  17  20  ar  
 35  18  21  1   
 36  18  22  1   
 37  18  36  1   
 38  21  37  1   
 39  21  38  1   
 40  21  39  1   
 41  22  40  1   
 42  22  41  1   
 43  22  42  1   
@<TRIPOS>SUBSTRUCTURE
  1 ****   4 GROUP 4 **** **** 0

# MOE 2024.06 (io_trps.svl 2023.06)
