@<TRIPOS>MOLECULE
NONAME
54 55 1 0 0 
SMALL
USER_CHARGES


@<TRIPOS>ATOM
  1 O       -0.8490     0.1480     2.4050 O.2   1 <1>  -0.5700 
  2 C       -1.3890     0.4970     1.3810 C.2   1 <1>   0.5690 
  3 N       -2.1010    -0.3830     0.6080 N.am  1 <1>  -0.6600 
  4 C       -1.2430     1.9580     0.9860 C.3   1 <1>  -0.0990 
  5 C       -2.1190    -1.8310     0.9770 C.3   1 <1>   0.3640 
  6 C       -2.9820    -0.0330    -0.5450 C.3   1 <1>   0.1400 
  7 C       -0.3010     2.1390    -0.2200 C.3   1 <1>  -0.1600 
  8 C       -0.8320    -2.4970     0.4880 C.ar  1 <1>  -0.1440 
  9 C       -3.3830    -2.5580     0.4490 C.3   1 <1>   0.2000 
 10 C       -4.4180    -0.5740    -0.3530 C.3   1 <1>   0.1200 
 11 C       -0.0610     3.6120    -0.5950 C.3   1 <1>  -0.0800 
 12 C       -0.5900    -2.7310    -0.8580 C.ar  1 <1>  -0.1500 
 13 C        0.1330    -2.8730     1.4070 C.ar  1 <1>  -0.1500 
 14 O       -4.5000    -1.7000     0.4850 O.3   1 <1>  -0.5600 
 15 C       -3.6910    -3.8170     1.2720 C.3   1 <1>   0.1200 
 16 C       -1.3400     4.3010    -1.0890 C.3   1 <1>  -0.2400 
 17 C        1.0140     3.6960    -1.6850 C.3   1 <1>  -0.2400 
 18 C        0.5720    -3.3430    -1.2960 C.ar  1 <1>   0.0830 
 19 C        1.3050    -3.4780     0.9930 C.ar  1 <1>  -0.1500 
 20 O       -4.9360    -4.3060     0.9110 O.3   1 <1>  -0.6800 
 21 O        0.6320    -3.5080    -2.6510 O.3   1 <1>  -0.3630 
 22 C        1.5490    -3.7210    -0.3570 C.ar  1 <1>   0.0830 
 23 C        1.5360    -4.3920    -3.2750 C.3   1 <1>   0.0400 
 24 O        2.7160    -4.3020    -0.7650 O.3   1 <1>  -0.3630 
 25 C        3.8120    -4.4730     0.1060 C.3   1 <1>   0.0400 
 26 H       -2.2150     2.3670     0.7940 H     1 <1>   0.0800 
 27 H       -0.8360     2.4910     1.8270 H     1 <1>   0.0800 
 28 H       -2.1470    -1.8930     2.0520 H     1 <1>   0.0800 
 29 H       -3.0280     1.0280    -0.7020 H     1 <1>   0.0800 
 30 H       -2.5630    -0.4630    -1.4370 H     1 <1>   0.0800 
 31 H       -0.6890     1.6100    -1.0720 H     1 <1>   0.0800 
 32 H        0.6430     1.6860     0.0310 H     1 <1>   0.0800 
 33 H       -3.2390    -2.8590    -0.5730 H     1 <1>   0.0800 
 34 H       -4.8420    -0.8350    -1.3070 H     1 <1>   0.0800 
 35 H       -5.0340     0.1890     0.0880 H     1 <1>   0.0800 
 36 H        0.3020     4.1380     0.2730 H     1 <1>   0.0800 
 37 H       -1.3060    -2.4360    -1.6010 H     1 <1>   0.1500 
 38 H       -0.0190    -2.6820     2.4570 H     1 <1>   0.1500 
 39 H       -3.7180    -3.5830     2.3230 H     1 <1>   0.0800 
 40 H       -2.9570    -4.5850     1.0980 H     1 <1>   0.0800 
 41 H       -1.7620     3.7670    -1.9220 H     1 <1>   0.0800 
 42 H       -1.1200     5.3050    -1.4060 H     1 <1>   0.0800 
 43 H       -2.0730     4.3610    -0.3060 H     1 <1>   0.0800 
 44 H        0.6940     3.1830    -2.5750 H     1 <1>   0.0800 
 45 H        1.9300     3.2470    -1.3420 H     1 <1>   0.0800 
 46 H        1.2170     4.7220    -1.9330 H     1 <1>   0.0800 
 47 H        2.0170    -3.7490     1.7480 H     1 <1>   0.1500 
 48 H       -5.5380    -3.5360     0.8160 H     1 <1>   0.4000 
 49 H        1.2500    -4.4910    -4.3060 H     1 <1>   0.0800 
 50 H        1.4850    -5.3480    -2.7840 H     1 <1>   0.0800 
 51 H        2.5260    -3.9790    -3.2090 H     1 <1>   0.0800 
 52 H        4.6390    -4.8500    -0.4680 H     1 <1>   0.0800 
 53 H        3.5450    -5.1830     0.8690 H     1 <1>   0.0800 
 54 H        4.0700    -3.5210     0.5350 H     1 <1>   0.0800 
@<TRIPOS>BOND
  1   1   2  2   
  2   2   3  am  
  3   2   4  1   
  4   3   5  1   
  5   3   6  1   
  6   4   7  1   
  7   4  26  1   
  8   4  27  1   
  9   5   8  1   
 10   5   9  1   
 11   5  28  1   
 12   6  10  1   
 13   6  29  1   
 14   6  30  1   
 15   7  11  1   
 16   7  31  1   
 17   7  32  1   
 18   8  12  ar  
 19   8  13  ar  
 20   9  14  1   
 21   9  15  1   
 22   9  33  1   
 23  10  14  1   
 24  10  34  1   
 25  10  35  1   
 26  11  16  1   
 27  11  17  1   
 28  11  36  1   
 29  12  18  ar  
 30  12  37  1   
 31  13  19  ar  
 32  13  38  1   
 33  15  20  1   
 34  15  39  1   
 35  15  40  1   
 36  16  41  1   
 37  16  42  1   
 38  16  43  1   
 39  17  44  1   
 40  17  45  1   
 41  17  46  1   
 42  18  21  1   
 43  18  22  ar  
 44  19  22  ar  
 45  19  47  1   
 46  20  48  1   
 47  21  23  1   
 48  22  24  1   
 49  23  49  1   
 50  23  50  1   
 51  23  51  1   
 52  24  25  1   
 53  25  52  1   
 54  25  53  1   
 55  25  54  1   
@<TRIPOS>SUBSTRUCTURE
  1 ****   8 GROUP 4 **** **** 0

# MOE 2024.06 (io_trps.svl 2023.06)
