@<TRIPOS>MOLECULE
NONAME
48 50 1 0 0 
SMALL
USER_CHARGES


@<TRIPOS>ATOM
  1 O       -2.7350    -1.9830     0.3560 O.3   1 <1>  -0.5600 
  2 C       -2.6550    -1.0690     1.4080 C.3   1 <1>   0.1200 
  3 C       -2.0040    -1.6340    -0.7810 C.3   1 <1>   0.1200 
  4 C       -3.3440     0.2770     1.0910 C.3   1 <1>   0.4230 
  5 C       -2.7800    -0.6100    -1.6300 C.3   1 <1>  -0.0800 
  6 N       -2.5090     1.1560     0.1920 N.4   1 <1>  -0.9590 
  7 C       -4.8170     0.0660     0.6460 C.3   1 <1>   0.1100 
  8 C       -4.2640    -0.9620    -1.7460 C.3   1 <1>   0.1100 
  9 C       -2.6070     0.8660    -1.2710 C.3   1 <1>   0.3430 
 10 C       -2.8360     2.5980     0.4160 C.3   1 <1>   0.2630 
 11 N       -5.1740    -0.3160    -0.7620 N.3   1 <1>  -0.8100 
 12 C       -6.5190    -0.9490    -0.8170 C.3   1 <1>   0.2780 
 13 C       -6.5660    -2.3570    -0.1940 C.2   1 <1>   0.1820 
 14 N       -5.4630    -3.0410     0.2700 N.pl3 1 <1>  -0.7000 
 15 C       -7.6320    -3.1660     0.0100 C.2   1 <1>   0.1820 
 16 C       -5.8560    -4.2150     0.7230 C.cat 1 <1>   0.6560 
 17 N       -7.1660    -4.3190     0.5850 N.pl3 1 <1>  -0.7000 
 18 C       -9.1050    -2.9740    -0.2910 C.3   1 <1>  -0.0720 
 19 C       -4.9350    -5.2740     1.3080 C.3   1 <1>  -0.0160 
 20 C       -3.8000    -5.6720     0.3500 C.3   1 <1>  -0.2400 
 21 H       -3.1500    -1.5240     2.2490 H     1 <1>   0.0800 
 22 H       -1.6220    -0.9280     1.6770 H     1 <1>   0.0800 
 23 H       -1.0260    -1.2790    -0.5000 H     1 <1>   0.0800 
 24 H       -1.8750    -2.5390    -1.3510 H     1 <1>   0.0800 
 25 H       -3.3970     0.7800     2.0430 H     1 <1>   0.0800 
 26 H       -2.3810    -0.7090    -2.6240 H     1 <1>   0.0800 
 27 H       -1.5280     1.0110     0.4620 H     1 <1>   0.4500 
 28 H       -5.3400     0.9830     0.8580 H     1 <1>   0.0800 
 29 H       -5.2340    -0.6570     1.3250 H     1 <1>   0.0800 
 30 H       -4.3640    -2.0330    -1.7320 H     1 <1>   0.0800 
 31 H       -4.5940    -0.6520    -2.7240 H     1 <1>   0.0800 
 32 H       -3.4470     1.4020    -1.6830 H     1 <1>   0.0800 
 33 H       -1.7200     1.2400    -1.7570 H     1 <1>   0.0800 
 34 H       -3.8550     2.7990     0.1280 H     1 <1>   0.0800 
 35 H       -2.1840     3.2260    -0.1710 H     1 <1>   0.0800 
 36 H       -2.7130     2.8570     1.4550 H     1 <1>   0.0800 
 37 H       -7.2280    -0.3170    -0.3090 H     1 <1>   0.0800 
 38 H       -6.8350    -1.0140    -1.8450 H     1 <1>   0.0800 
 39 H       -4.4890    -2.6890     0.2360 H     1 <1>   0.4500 
 40 H       -7.7370    -5.1280     0.8500 H     1 <1>   0.4500 
 41 H       -9.2820    -2.0150    -0.7430 H     1 <1>   0.0800 
 42 H       -9.6780    -3.0350     0.6170 H     1 <1>   0.0800 
 43 H       -9.4450    -3.7370    -0.9680 H     1 <1>   0.0800 
 44 H       -4.5140    -4.8970     2.2220 H     1 <1>   0.0800 
 45 H       -5.5130    -6.1480     1.5490 H     1 <1>   0.0800 
 46 H       -3.1660    -4.8290     0.1360 H     1 <1>   0.0800 
 47 H       -4.2000    -6.0490    -0.5760 H     1 <1>   0.0800 
 48 H       -3.1950    -6.4430     0.7960 H     1 <1>   0.0800 
@<TRIPOS>BOND
  1   1   2  1   
  2   1   3  1   
  3   2   4  1   
  4   2  21  1   
  5   2  22  1   
  6   3   5  1   
  7   3  23  1   
  8   3  24  1   
  9   4   6  1   
 10   4   7  1   
 11   4  25  1   
 12   5   8  1   
 13   5   9  1   
 14   5  26  1   
 15   6   9  1   
 16   6  10  1   
 17   6  27  1   
 18   7  11  1   
 19   7  28  1   
 20   7  29  1   
 21   8  11  1   
 22   8  30  1   
 23   8  31  1   
 24   9  32  1   
 25   9  33  1   
 26  10  34  1   
 27  10  35  1   
 28  10  36  1   
 29  11  12  1   
 30  12  13  1   
 31  12  37  1   
 32  12  38  1   
 33  13  14  1   
 34  13  15  2   
 35  14  16  ar  
 36  14  39  1   
 37  15  17  1   
 38  15  18  1   
 39  16  17  ar  
 40  16  19  1   
 41  17  40  1   
 42  18  41  1   
 43  18  42  1   
 44  18  43  1   
 45  19  20  1   
 46  19  44  1   
 47  19  45  1   
 48  20  46  1   
 49  20  47  1   
 50  20  48  1   
@<TRIPOS>SUBSTRUCTURE
  1 ****  14 GROUP 4 **** **** 0

# MOE 2024.06 (io_trps.svl 2023.06)
