@<TRIPOS>MOLECULE
NONAME
55 57 1 0 0 
SMALL
USER_CHARGES


@<TRIPOS>ATOM
  1 F       -1.3500    -2.1260    -1.3320 F     1 <1>  -0.1900 
  2 C       -1.4330    -2.0220    -0.0300 C.ar  1 <1>   0.1900 
  3 C       -2.6830    -2.0360     0.5840 C.ar  1 <1>  -0.1440 
  4 C       -0.2500    -1.8930     0.6700 C.ar  1 <1>  -0.1500 
  5 C       -2.7280    -1.8840     1.9680 C.ar  1 <1>  -0.1500 
  6 C       -3.9460    -2.2190    -0.2620 C.3   1 <1>  -0.0160 
  7 C       -0.3420    -1.7630     2.0390 C.ar  1 <1>   0.1900 
  8 C       -1.5570    -1.7510     2.7010 C.ar  1 <1>  -0.1500 
  9 C       -5.1460    -2.8180     0.4890 C.3   1 <1>  -0.0990 
 10 F        0.7560    -1.6440     2.7350 F     1 <1>  -0.1900 
 11 C       -6.1550    -3.3970    -0.4920 C.2   1 <1>   0.5690 
 12 O       -6.8570    -2.5960    -1.0620 O.2   1 <1>  -0.5700 
 13 N       -6.2690    -4.7430    -0.7430 N.am  1 <1>  -0.6600 
 14 C       -5.5410    -5.8120     0.0380 C.3   1 <1>   0.3640 
 15 C       -7.3010    -5.1820    -1.7320 C.3   1 <1>   0.1400 
 16 C       -4.0350    -5.7030    -0.2200 C.ar  1 <1>  -0.1430 
 17 C       -5.9810    -7.2910    -0.2160 C.3   1 <1>   0.2000 
 18 C       -7.1680    -6.6500    -2.1300 C.3   1 <1>   0.1200 
 19 C       -3.1500    -5.7070     0.8480 C.ar  1 <1>  -0.1500 
 20 C       -3.5230    -5.5960    -1.5030 C.ar  1 <1>  -0.1500 
 21 O       -7.1490    -7.4260    -0.9790 O.3   1 <1>  -0.5600 
 22 C       -6.2330    -8.0570     1.0920 C.3   1 <1>   0.1200 
 23 C       -1.7820    -5.5950     0.6680 C.ar  1 <1>   0.0830 
 24 C       -2.1590    -5.4860    -1.7080 C.ar  1 <1>  -0.1500 
 25 O       -5.1290    -7.9920     1.9380 O.3   1 <1>  -0.6800 
 26 O       -1.0740    -5.6080     1.8360 O.3   1 <1>  -0.3630 
 27 C       -1.2680    -5.4790    -0.6360 C.ar  1 <1>   0.0830 
 28 C        0.3250    -5.4570     1.9050 C.3   1 <1>   0.0400 
 29 O        0.0760    -5.3600    -0.8470 O.3   1 <1>  -0.3630 
 30 C        0.6090    -4.9780    -2.0960 C.3   1 <1>   0.0400 
 31 H        0.6990    -1.8950     0.1700 H     1 <1>   0.1500 
 32 H       -3.6660    -1.8690     2.4940 H     1 <1>   0.1500 
 33 H       -4.2310    -1.2720    -0.6860 H     1 <1>   0.0800 
 34 H       -3.7110    -2.8720    -1.0830 H     1 <1>   0.0800 
 35 H       -1.5820    -1.6420     3.7700 H     1 <1>   0.1500 
 36 H       -5.6310    -2.0410     1.0520 H     1 <1>   0.0800 
 37 H       -4.8210    -3.5580     1.1880 H     1 <1>   0.0800 
 38 H       -5.7150    -5.6070     1.0800 H     1 <1>   0.0800 
 39 H       -8.2770    -5.0230    -1.3060 H     1 <1>   0.0800 
 40 H       -7.2300    -4.5710    -2.6150 H     1 <1>   0.0800 
 41 H       -5.2050    -7.8020    -0.7580 H     1 <1>   0.0800 
 42 H       -6.2710    -6.8270    -2.6980 H     1 <1>   0.0800 
 43 H       -8.0180    -6.9520    -2.7170 H     1 <1>   0.0800 
 44 H       -3.5180    -5.7940     1.8560 H     1 <1>   0.1500 
 45 H       -4.1860    -5.5870    -2.3500 H     1 <1>   0.1500 
 46 H       -6.4390    -9.0930     0.8870 H     1 <1>   0.0800 
 47 H       -7.0680    -7.6230     1.6150 H     1 <1>   0.0800 
 48 H       -1.8130    -5.4050    -2.7200 H     1 <1>   0.1500 
 49 H       -4.3680    -8.4840     1.5680 H     1 <1>   0.4000 
 50 H        0.6120    -5.4700     2.9410 H     1 <1>   0.0800 
 51 H        0.5970    -4.5160     1.4630 H     1 <1>   0.0800 
 52 H        0.7890    -6.2750     1.3850 H     1 <1>   0.0800 
 53 H        1.6680    -4.8340    -1.9770 H     1 <1>   0.0800 
 54 H        0.1490    -4.0570    -2.4070 H     1 <1>   0.0800 
 55 H        0.4270    -5.7620    -2.8090 H     1 <1>   0.0800 
@<TRIPOS>BOND
  1   1   2  1   
  2   2   3  ar  
  3   2   4  ar  
  4   3   5  ar  
  5   3   6  1   
  6   4   7  ar  
  7   4  31  1   
  8   5   8  ar  
  9   5  32  1   
 10   6   9  1   
 11   6  33  1   
 12   6  34  1   
 13   7   8  ar  
 14   7  10  1   
 15   8  35  1   
 16   9  11  1   
 17   9  36  1   
 18   9  37  1   
 19  11  12  2   
 20  11  13  am  
 21  13  14  1   
 22  13  15  1   
 23  14  16  1   
 24  14  17  1   
 25  14  38  1   
 26  15  18  1   
 27  15  39  1   
 28  15  40  1   
 29  16  19  ar  
 30  16  20  ar  
 31  17  21  1   
 32  17  22  1   
 33  17  41  1   
 34  18  21  1   
 35  18  42  1   
 36  18  43  1   
 37  19  23  ar  
 38  19  44  1   
 39  20  24  ar  
 40  20  45  1   
 41  22  25  1   
 42  22  46  1   
 43  22  47  1   
 44  23  26  1   
 45  23  27  ar  
 46  24  27  ar  
 47  24  48  1   
 48  25  49  1   
 49  26  28  1   
 50  27  29  1   
 51  28  50  1   
 52  28  51  1   
 53  28  52  1   
 54  29  30  1   
 55  30  53  1   
 56  30  54  1   
 57  30  55  1   
@<TRIPOS>SUBSTRUCTURE
  1 ****  19 GROUP 4 **** **** 0

# MOE 2024.06 (io_trps.svl 2023.06)
