@<TRIPOS>MOLECULE
NONAME
30 32 1 0 0 
SMALL
USER_CHARGES


@<TRIPOS>ATOM
  1 O        0.3700     0.1870    -0.3480 O.2   1 <1>  -0.5700 
  2 C        0.8740     1.2700    -0.1590 C.2   1 <1>   0.5690 
  3 N        2.0920     1.3370     0.4320 N.am  1 <1>  -0.7300 
  4 C        0.1450     2.5790    -0.5790 C.3   1 <1>   0.5210 
  5 C        2.8710     2.5850     0.5850 C.3   1 <1>   0.2200 
  6 N        1.0070     3.7700    -0.7160 N.3   1 <1>  -0.8100 
  7 N       -0.8730     3.0260     0.3730 N.3   1 <1>  -0.6300 
  8 C        2.0250     3.8850     0.3670 C.3   1 <1>   0.1900 
  9 C        4.0750     2.5340    -0.3600 C.3   1 <1>  -0.1600 
 10 C        0.0400     4.8520    -0.7160 C.3   1 <1>   0.3800 
 11 N       -0.9040     4.4810     0.3120 N.3   1 <1>  -0.6300 
 12 C        2.9340     5.0970     0.0440 C.3   1 <1>  -0.1600 
 13 C        5.0490     3.6980    -0.0940 C.3   1 <1>  -0.1600 
 14 C        4.3740     4.9230     0.5480 C.3   1 <1>  -0.1600 
 15 H        2.5590     0.4540     0.6370 H     1 <1>   0.3700 
 16 H       -0.3390     2.3990    -1.5230 H     1 <1>   0.0800 
 17 H        3.2500     2.6070     1.5930 H     1 <1>   0.0800 
 18 H       -0.5520     2.7080     1.2960 H     1 <1>   0.3600 
 19 H        1.5290     4.0800     1.3020 H     1 <1>   0.0800 
 20 H        3.7120     2.6030    -1.3720 H     1 <1>   0.0800 
 21 H        4.5990     1.6010    -0.2530 H     1 <1>   0.0800 
 22 H       -0.4670     4.8810    -1.6670 H     1 <1>   0.0800 
 23 H        0.4840     5.8130    -0.5200 H     1 <1>   0.0800 
 24 H       -0.5500     4.8720     1.1940 H     1 <1>   0.3600 
 25 H        2.5140     5.9850     0.4810 H     1 <1>   0.0800 
 26 H        2.9770     5.2370    -1.0230 H     1 <1>   0.0800 
 27 H        5.4990     3.9860    -1.0300 H     1 <1>   0.0800 
 28 H        5.8430     3.3660     0.5530 H     1 <1>   0.0800 
 29 H        4.3610     4.8090     1.6190 H     1 <1>   0.0800 
 30 H        4.9490     5.8060     0.3260 H     1 <1>   0.0800 
@<TRIPOS>BOND
  1   1   2  2   
  2   2   3  am  
  3   2   4  1   
  4   3   5  1   
  5   3  15  1   
  6   4   6  1   
  7   4   7  1   
  8   4  16  1   
  9   5   8  1   
 10   5   9  1   
 11   5  17  1   
 12   6   8  1   
 13   6  10  1   
 14   7  11  1   
 15   7  18  1   
 16   8  12  1   
 17   8  19  1   
 18   9  13  1   
 19   9  20  1   
 20   9  21  1   
 21  10  11  1   
 22  10  22  1   
 23  10  23  1   
 24  11  24  1   
 25  12  14  1   
 26  12  25  1   
 27  12  26  1   
 28  13  14  1   
 29  13  27  1   
 30  13  28  1   
 31  14  29  1   
 32  14  30  1   
@<TRIPOS>SUBSTRUCTURE
  1 ****   8 GROUP 4 **** **** 0

# MOE 2024.06 (io_trps.svl 2023.06)
