@<TRIPOS>MOLECULE
NONAME
47 49 1 0 0 
SMALL
USER_CHARGES


@<TRIPOS>ATOM
  1 S       -1.4950    -1.5050     1.8060 S.3   1 <1>  -0.0800 
  2 C       -1.5880     0.1600     1.2790 C.2   1 <1>   0.1980 
  3 C       -2.3820    -1.9720     0.3860 C.2   1 <1>  -0.1100 
  4 N       -2.2050     0.3310     0.1800 N.2   1 <1>  -0.5650 
  5 C       -0.9430     1.2030     2.1590 C.3   1 <1>  -0.0600 
  6 C       -2.6610    -0.8730    -0.3350 C.2   1 <1>   0.0460 
  7 C       -3.4220    -0.8020    -1.6490 C.3   1 <1>   0.0820 
  8 C       -4.0530    -2.1250    -2.0550 C.2   1 <1>   0.5690 
  9 O       -3.5990    -2.6750    -3.0320 O.2   1 <1>  -0.5700 
 10 N       -5.1000    -2.6700    -1.3510 N.am  1 <1>  -0.6600 
 11 C       -5.6660    -4.0020    -1.7670 C.3   1 <1>   0.1400 
 12 C       -5.7320    -2.0400    -0.1410 C.3   1 <1>   0.1400 
 13 C       -6.4000    -4.6700    -0.5980 C.3   1 <1>   0.2000 
 14 C       -7.2370    -2.3070    -0.1630 C.3   1 <1>  -0.1600 
 15 O       -6.8360    -5.9380    -0.9460 O.3   1 <1>  -0.6800 
 16 C       -7.5810    -3.8270    -0.0560 C.3   1 <1>  -0.1060 
 17 C       -7.7050    -4.3160     1.3900 C.2   1 <1>   0.9060 
 18 C       -8.9080    -4.0910    -0.8300 C.3   1 <1>  -0.0170 
 19 O       -7.3580    -3.5910     2.3280 O.co2 1 <1>  -0.9000 
 20 O       -8.0690    -5.4880     1.5730 O.co2 1 <1>  -0.9000 
 21 C      -10.0390    -3.1160    -0.5040 C.ar  1 <1>  -0.1440 
 22 C      -10.6640    -3.1570     0.7320 C.ar  1 <1>  -0.1500 
 23 C      -10.4560    -2.1830    -1.4420 C.ar  1 <1>  -0.1500 
 24 C      -11.6880    -2.2740     1.0300 C.ar  1 <1>  -0.1500 
 25 C      -11.4810    -1.3000    -1.1470 C.ar  1 <1>  -0.1500 
 26 C      -12.0980    -1.3440     0.0910 C.ar  1 <1>  -0.1500 
 27 H       -2.6020    -3.0150     0.2450 H     1 <1>   0.1500 
 28 H       -1.0760     2.1770     1.7240 H     1 <1>   0.0800 
 29 H        0.1070     1.0010     2.2530 H     1 <1>   0.0800 
 30 H       -1.3970     1.1900     3.1330 H     1 <1>   0.0800 
 31 H       -2.7390    -0.4940    -2.4180 H     1 <1>   0.0800 
 32 H       -4.1870    -0.0540    -1.5830 H     1 <1>   0.0800 
 33 H       -6.3480    -3.8530    -2.5830 H     1 <1>   0.0800 
 34 H       -4.8670    -4.6460    -2.0930 H     1 <1>   0.0800 
 35 H       -5.3060    -2.4600     0.7560 H     1 <1>   0.0800 
 36 H       -5.5670    -0.9790    -0.1250 H     1 <1>   0.0800 
 37 H       -5.6740    -4.8120     0.1870 H     1 <1>   0.0800 
 38 H       -7.7100    -1.7710     0.6420 H     1 <1>   0.0800 
 39 H       -7.6190    -1.8970    -1.0790 H     1 <1>   0.0800 
 40 H       -7.3370    -6.2690    -0.1550 H     1 <1>   0.4000 
 41 H       -8.7060    -4.0470    -1.8850 H     1 <1>   0.0800 
 42 H       -9.2630    -5.0860    -0.6280 H     1 <1>   0.0800 
 43 H      -10.3510    -3.8770     1.4710 H     1 <1>   0.1500 
 44 H       -9.9810    -2.1400    -2.4060 H     1 <1>   0.1500 
 45 H      -12.1580    -2.3160     1.9970 H     1 <1>   0.1500 
 46 H      -11.7970    -0.5790    -1.8800 H     1 <1>   0.1500 
 47 H      -12.8920    -0.6590     0.3250 H     1 <1>   0.1500 
@<TRIPOS>BOND
  1   1   2  1   
  2   1   3  1   
  3   2   4  2   
  4   2   5  1   
  5   3   6  2   
  6   3  27  1   
  7   4   6  1   
  8   5  28  1   
  9   5  29  1   
 10   5  30  1   
 11   6   7  1   
 12   7   8  1   
 13   7  31  1   
 14   7  32  1   
 15   8   9  2   
 16   8  10  am  
 17  10  11  1   
 18  10  12  1   
 19  11  13  1   
 20  11  33  1   
 21  11  34  1   
 22  12  14  1   
 23  12  35  1   
 24  12  36  1   
 25  13  15  1   
 26  13  16  1   
 27  13  37  1   
 28  14  16  1   
 29  14  38  1   
 30  14  39  1   
 31  15  40  1   
 32  16  17  1   
 33  16  18  1   
 34  17  19  ar  
 35  17  20  ar  
 36  18  21  1   
 37  18  41  1   
 38  18  42  1   
 39  21  22  ar  
 40  21  23  ar  
 41  22  24  ar  
 42  22  43  1   
 43  23  25  ar  
 44  23  44  1   
 45  24  26  ar  
 46  24  45  1   
 47  25  26  ar  
 48  25  46  1   
 49  26  47  1   
@<TRIPOS>SUBSTRUCTURE
  1 ****  12 GROUP 4 **** **** 0

# MOE 2024.06 (io_trps.svl 2023.06)
