@<TRIPOS>MOLECULE
NONAME
57 59 1 0 0 
SMALL
USER_CHARGES


@<TRIPOS>ATOM
  1 S        3.6410    -1.4170     1.9230 S.3   1 <1>  -0.4600 
  2 C        2.7750     0.1920     1.8400 C.3   1 <1>   0.1310 
  3 C        2.3220    -2.5800     2.3600 C.3   1 <1>  -0.0100 
  4 C        3.7450     1.3440     1.5920 C.2   1 <1>   0.5690 
  5 O        3.9170     2.1230     2.4940 O.2   1 <1>  -0.5700 
  6 N        4.4250     1.5550     0.4340 N.am  1 <1>  -0.7300 
  7 C        4.5880     0.8580    -0.8660 C.3   1 <1>   0.3000 
  8 C        5.6990    -0.2340    -0.7890 C.3   1 <1>   0.2000 
  9 C        5.0540     1.9480    -1.8540 C.3   1 <1>  -0.1600 
 10 C        3.2360     0.3010    -1.3380 C.3   1 <1>  -0.2400 
 11 O        5.8100    -0.8700    -2.0400 O.3   1 <1>  -0.6800 
 12 C        7.0740     0.3740    -0.3300 C.3   1 <1>   0.2800 
 13 C        6.5740     2.1910    -1.8440 C.3   1 <1>   0.1200 
 14 O        7.1450     1.7510    -0.6480 O.3   1 <1>  -0.5600 
 15 C        8.2970    -0.3020    -0.9990 C.3   1 <1>  -0.1600 
 16 C        7.2160     0.3160     1.2160 C.3   1 <1>  -0.1600 
 17 C        9.5950     0.0310    -0.2660 C.3   1 <1>   0.1400 
 18 C        8.2040    -0.7410     1.7170 C.3   1 <1>   0.1400 
 19 N        9.5530    -0.5160     1.1200 N.am  1 <1>  -0.6600 
 20 C       10.6960    -0.8470     1.8150 C.2   1 <1>   0.5440 
 21 O       10.6040    -1.4630     2.8600 O.2   1 <1>  -0.5700 
 22 C       12.0030    -0.4750     1.3170 C.ar  1 <1>   0.0860 
 23 C       12.8970    -1.4170     0.7960 C.ar  1 <1>   0.1670 
 24 C       12.4060     0.8530     1.3310 C.ar  1 <1>  -0.1500 
 25 N       14.0930    -1.1310     0.3040 N.ar  1 <1>  -0.6200 
 26 C       12.5200    -2.8890     0.7630 C.3   1 <1>  -0.0970 
 27 C       13.6500     1.1610     0.8290 C.ar  1 <1>  -0.1500 
 28 C       14.4450     0.1440     0.3330 C.ar  1 <1>   0.1600 
 29 H        2.0280     0.1360     1.0740 H     1 <1>   0.0800 
 30 H        2.2960     0.3300     2.7920 H     1 <1>   0.0800 
 31 H        2.7600    -3.5610     2.4250 H     1 <1>   0.0800 
 32 H        1.5760    -2.5460     1.5870 H     1 <1>   0.0800 
 33 H        1.9140    -2.2810     3.3090 H     1 <1>   0.0800 
 34 H        5.1300     2.2920     0.5280 H     1 <1>   0.3700 
 35 H        5.4050    -1.0080    -0.1050 H     1 <1>   0.0800 
 36 H        4.5370     2.8710    -1.6560 H     1 <1>   0.0800 
 37 H        4.7910     1.6710    -2.8590 H     1 <1>   0.0800 
 38 H        3.2910     0.0060    -2.3700 H     1 <1>   0.0800 
 39 H        2.4630     1.0410    -1.2410 H     1 <1>   0.0800 
 40 H        2.9760    -0.5820    -0.7860 H     1 <1>   0.0800 
 41 H        6.1550    -0.2440    -2.7020 H     1 <1>   0.4000 
 42 H        6.7830     3.2430    -1.9370 H     1 <1>   0.0800 
 43 H        7.0530     1.6790    -2.6590 H     1 <1>   0.0800 
 44 H        8.1750    -1.3710    -0.9910 H     1 <1>   0.0800 
 45 H        8.3810    -0.0020    -2.0260 H     1 <1>   0.0800 
 46 H        7.5440     1.2680     1.5930 H     1 <1>   0.0800 
 47 H        6.2710     0.1080     1.6790 H     1 <1>   0.0800 
 48 H        9.7240     1.1000    -0.2210 H     1 <1>   0.0800 
 49 H       10.4260    -0.3930    -0.8030 H     1 <1>   0.0800 
 50 H        7.8610    -1.7260     1.4520 H     1 <1>   0.0800 
 51 H        8.2660    -0.6880     2.7920 H     1 <1>   0.0800 
 52 H       11.7550     1.6130     1.7280 H     1 <1>   0.1500 
 53 H       11.5450    -3.0180     0.3310 H     1 <1>   0.0800 
 54 H       12.5150    -3.2810     1.7640 H     1 <1>   0.0800 
 55 H       13.2280    -3.4480     0.1790 H     1 <1>   0.0800 
 56 H       14.0060     2.1750     0.8220 H     1 <1>   0.1500 
 57 H       15.4180     0.3880    -0.0590 H     1 <1>   0.1500 
@<TRIPOS>BOND
  1   1   2  1   
  2   1   3  1   
  3   2   4  1   
  4   2  29  1   
  5   2  30  1   
  6   3  31  1   
  7   3  32  1   
  8   3  33  1   
  9   4   5  2   
 10   4   6  am  
 11   6   7  1   
 12   6  34  1   
 13   7   8  1   
 14   7   9  1   
 15   7  10  1   
 16   8  11  1   
 17   8  12  1   
 18   8  35  1   
 19   9  13  1   
 20   9  36  1   
 21   9  37  1   
 22  10  38  1   
 23  10  39  1   
 24  10  40  1   
 25  11  41  1   
 26  12  14  1   
 27  12  15  1   
 28  12  16  1   
 29  13  14  1   
 30  13  42  1   
 31  13  43  1   
 32  15  17  1   
 33  15  44  1   
 34  15  45  1   
 35  16  18  1   
 36  16  46  1   
 37  16  47  1   
 38  17  19  1   
 39  17  48  1   
 40  17  49  1   
 41  18  19  1   
 42  18  50  1   
 43  18  51  1   
 44  19  20  am  
 45  20  21  2   
 46  20  22  1   
 47  22  23  ar  
 48  22  24  ar  
 49  23  25  ar  
 50  23  26  1   
 51  24  27  ar  
 52  24  52  1   
 53  25  28  ar  
 54  26  53  1   
 55  26  54  1   
 56  26  55  1   
 57  27  28  ar  
 58  27  56  1   
 59  28  57  1   
@<TRIPOS>SUBSTRUCTURE
  1 ****  16 GROUP 4 **** **** 0

# MOE 2024.06 (io_trps.svl 2023.06)
