@<TRIPOS>MOLECULE
NONAME
51 52 1 0 0 
SMALL
USER_CHARGES


@<TRIPOS>ATOM
  1 O        0.2720    -0.3520     1.2160 O.2   1 <1>  -0.5700 
  2 C        1.2230    -0.8490     0.6450 C.2   1 <1>   0.5440 
  3 N        2.2110    -0.0520     0.1140 N.am  1 <1>  -0.4940 
  4 C        1.3130    -2.2910     0.5070 C.ar  1 <1>   0.0860 
  5 C        2.4450     1.3430     0.1900 C.2   1 <1>  -0.0880 
  6 C        0.1610    -3.0640     0.3830 C.ar  1 <1>  -0.1500 
  7 C        2.5400    -2.9590     0.4950 C.ar  1 <1>  -0.1500 
  8 N        1.5250     2.3500     0.1780 N.pl3 1 <1>   0.3140 
  9 C        3.6580     1.9430     0.2590 C.2   1 <1>  -0.1810 
 10 C        0.2010    -4.4430     0.2320 C.ar  1 <1>   0.1170 
 11 C        2.6030    -4.3320     0.3460 C.ar  1 <1>  -0.1500 
 12 N        2.1200     3.5610     0.2310 N.2   1 <1>  -0.7070 
 13 C        0.0670     2.2710     0.0170 C.3   1 <1>   0.0160 
 14 C        3.3890     3.3090     0.2840 C.2   1 <1>   0.1080 
 15 C        5.0350     1.3020     0.3060 C.3   1 <1>  -0.0590 
 16 N       -1.0080    -5.1450     0.1230 N.am  1 <1>  -0.5470 
 17 C        1.4420    -5.0690     0.2150 C.ar  1 <1>  -0.1500 
 18 C        4.4210     4.4200     0.3590 C.3   1 <1>   0.0210 
 19 C       -1.2870    -6.3590    -0.4470 C.2   1 <1>   0.5690 
 20 C        4.8860     4.8400    -1.0390 C.3   1 <1>  -0.2400 
 21 O       -0.4600    -7.0270    -1.0190 O.2   1 <1>  -0.5700 
 22 C       -2.7300    -6.8690    -0.3600 C.3   1 <1>  -0.0190 
 23 C       -2.7730    -8.2810     0.2620 C.3   1 <1>  -0.1600 
 24 C       -3.4000    -6.8280    -1.7460 C.3   1 <1>  -0.2400 
 25 C       -4.1930    -8.7750     0.5740 C.3   1 <1>  -0.2400 
 26 H        2.9550    -0.5640    -0.3550 H     1 <1>   0.3700 
 27 H       -0.7920    -2.5660     0.4020 H     1 <1>   0.1500 
 28 H        3.4560    -2.4080     0.6140 H     1 <1>   0.1500 
 29 H        3.5560    -4.8340     0.3360 H     1 <1>   0.1500 
 30 H       -0.1770     1.4490    -0.6280 H     1 <1>   0.0800 
 31 H       -0.2900     3.1870    -0.4130 H     1 <1>   0.0800 
 32 H       -0.3810     2.1270     0.9810 H     1 <1>   0.0800 
 33 H        4.9590     0.2310     0.2940 H     1 <1>   0.0800 
 34 H        5.5420     1.5980     1.2060 H     1 <1>   0.0800 
 35 H        5.6140     1.6180    -0.5430 H     1 <1>   0.0800 
 36 H       -1.8180    -4.6540     0.4960 H     1 <1>   0.3700 
 37 H        1.5060    -6.1370     0.1040 H     1 <1>   0.1500 
 38 H        5.2610     4.0950     0.9440 H     1 <1>   0.0800 
 39 H        3.9790     5.2640     0.8580 H     1 <1>   0.0800 
 40 H        5.3360     4.0080    -1.5490 H     1 <1>   0.0800 
 41 H        5.6020     5.6390    -0.9690 H     1 <1>   0.0800 
 42 H        4.0410     5.1790    -1.6130 H     1 <1>   0.0800 
 43 H       -3.2760    -6.2090     0.2900 H     1 <1>   0.0800 
 44 H       -2.2080    -8.2710     1.1780 H     1 <1>   0.0800 
 45 H       -2.2900    -8.9800    -0.4020 H     1 <1>   0.0800 
 46 H       -2.9250    -7.5310    -2.4080 H     1 <1>   0.0800 
 47 H       -3.3050    -5.8450    -2.1740 H     1 <1>   0.0800 
 48 H       -4.4460    -7.0650    -1.6790 H     1 <1>   0.0800 
 49 H       -4.7090    -8.0740     1.2060 H     1 <1>   0.0800 
 50 H       -4.1430    -9.7210     1.0850 H     1 <1>   0.0800 
 51 H       -4.7590    -8.9160    -0.3290 H     1 <1>   0.0800 
@<TRIPOS>BOND
  1   1   2  2   
  2   2   3  am  
  3   2   4  1   
  4   3   5  1   
  5   3  26  1   
  6   4   6  ar  
  7   4   7  ar  
  8   5   8  1   
  9   5   9  2   
 10   6  10  ar  
 11   6  27  1   
 12   7  11  ar  
 13   7  28  1   
 14   8  12  1   
 15   8  13  1   
 16   9  14  1   
 17   9  15  1   
 18  10  16  1   
 19  10  17  ar  
 20  11  17  ar  
 21  11  29  1   
 22  12  14  2   
 23  13  30  1   
 24  13  31  1   
 25  13  32  1   
 26  14  18  1   
 27  15  33  1   
 28  15  34  1   
 29  15  35  1   
 30  16  19  am  
 31  16  36  1   
 32  17  37  1   
 33  18  20  1   
 34  18  38  1   
 35  18  39  1   
 36  19  21  2   
 37  19  22  1   
 38  20  40  1   
 39  20  41  1   
 40  20  42  1   
 41  22  23  1   
 42  22  24  1   
 43  22  43  1   
 44  23  25  1   
 45  23  44  1   
 46  23  45  1   
 47  24  46  1   
 48  24  47  1   
 49  24  48  1   
 50  25  49  1   
 51  25  50  1   
 52  25  51  1   
@<TRIPOS>SUBSTRUCTURE
  1 ****   4 GROUP 4 **** **** 0

# MOE 2024.06 (io_trps.svl 2023.06)
