@<TRIPOS>MOLECULE
NONAME
56 61 1 0 0 
SMALL
USER_CHARGES


@<TRIPOS>ATOM
  1 O       -1.0530     5.4730     1.9580 O.2   1 <1>  -0.5700 
  2 C       -0.7690     4.5300     1.2480 C.2   1 <1>   0.5440 
  3 N       -1.7810     3.7360     0.7480 N.am  1 <1>  -0.6600 
  4 C        0.6200     4.2830     0.9600 C.ar  1 <1>   0.0860 
  5 C       -3.2270     4.0920     0.9300 C.3   1 <1>   0.1400 
  6 C       -1.5830     2.4450     0.0300 C.3   1 <1>   0.1400 
  7 C        1.1220     4.2430    -0.3250 C.ar  1 <1>   0.1600 
  8 C        1.5470     4.0820     1.9620 C.ar  1 <1>   0.1600 
  9 C       -3.9340     4.2100    -0.4340 C.3   1 <1>   0.1440 
 10 C       -2.2380     2.5300    -1.3540 C.3   1 <1>  -0.1600 
 11 N        2.3860     3.9990    -0.6000 N.ar  1 <1>  -0.6200 
 12 N        2.8190     3.8360     1.7270 N.ar  1 <1>  -0.6200 
 13 C       -5.4030     4.5110    -0.1950 C.ar  1 <1>   0.1670 
 14 C       -3.7260     2.9140    -1.2500 C.3   1 <1>  -0.1600 
 15 C       -3.4580     5.4710    -1.2070 C.3   1 <1>  -0.1600 
 16 C        3.1720     3.8110     0.4510 C.ar  1 <1>   0.5880 
 17 N       -6.2970     3.6520     0.2330 N.ar  1 <1>  -0.6200 
 18 C       -5.6990     5.8100    -0.4700 C.ar  1 <1>  -0.1430 
 19 C       -4.4850     6.5810    -0.9260 C.3   1 <1>  -0.0170 
 20 C        4.6390     3.5260     0.1580 C.3   1 <1>  -0.0680 
 21 C       -7.5430     4.1260     0.3750 C.ar  1 <1>   0.6200 
 22 C       -6.9950     6.2210    -0.2960 C.ar  1 <1>   0.1600 
 23 C        5.7280     4.3650     0.7640 C.3   1 <1>  -0.2000 
 24 C        5.4550     4.4460    -0.7050 C.3   1 <1>  -0.2000 
 25 N       -7.9210     5.3880     0.1220 N.ar  1 <1>  -0.6200 
 26 C       -8.5650     3.1980     0.8410 C.ar  1 <1>   0.0000 
 27 C       -9.9090     3.3500     0.4870 C.ar  1 <1>  -0.1500 
 28 C       -8.2510     2.1120     1.6630 C.ar  1 <1>  -0.1500 
 29 C      -10.8830     2.4710     0.9260 C.ar  1 <1>  -0.1500 
 30 C       -9.2180     1.2280     2.1060 C.ar  1 <1>  -0.1500 
 31 C      -10.5390     1.4060     1.7380 C.ar  1 <1>  -0.1500 
 32 H       -3.3320     5.0180     1.4690 H     1 <1>   0.0800 
 33 H       -3.7040     3.3230     1.5120 H     1 <1>   0.0800 
 34 H       -2.0490     1.6580     0.6000 H     1 <1>   0.0800 
 35 H       -0.5400     2.2020    -0.0680 H     1 <1>   0.0800 
 36 H        0.4540     4.4170    -1.1510 H     1 <1>   0.1500 
 37 H        1.2200     4.1250     2.9880 H     1 <1>   0.1500 
 38 H       -2.1500     1.5760    -1.8440 H     1 <1>   0.0800 
 39 H       -1.7110     3.2510    -1.9530 H     1 <1>   0.0800 
 40 H       -4.1530     3.0210    -2.2320 H     1 <1>   0.0800 
 41 H       -4.2520     2.1120    -0.7620 H     1 <1>   0.0800 
 42 H       -3.4660     5.2690    -2.2640 H     1 <1>   0.0800 
 43 H       -2.4650     5.7770    -0.9290 H     1 <1>   0.0800 
 44 H       -4.6890     7.1650    -1.8070 H     1 <1>   0.0800 
 45 H       -4.1430     7.2210    -0.1310 H     1 <1>   0.0800 
 46 H        4.8220     2.4710     0.0680 H     1 <1>   0.1000 
 47 H       -7.2770     7.2390    -0.5000 H     1 <1>   0.1500 
 48 H        6.6220     3.8730     1.1060 H     1 <1>   0.1000 
 49 H        5.4460     5.1920     1.3930 H     1 <1>   0.1000 
 50 H        4.9830     5.3300    -1.0990 H     1 <1>   0.1000 
 51 H        6.1570     4.0110    -1.3940 H     1 <1>   0.1000 
 52 H      -10.1960     4.1720    -0.1450 H     1 <1>   0.1500 
 53 H       -7.2290     1.9570     1.9620 H     1 <1>   0.1500 
 54 H      -11.9090     2.6160     0.6360 H     1 <1>   0.1500 
 55 H       -8.9430     0.4020     2.7380 H     1 <1>   0.1500 
 56 H      -11.2940     0.7210     2.0810 H     1 <1>   0.1500 
@<TRIPOS>BOND
  1   1   2  2   
  2   2   3  am  
  3   2   4  1   
  4   3   5  1   
  5   3   6  1   
  6   4   7  ar  
  7   4   8  ar  
  8   5   9  1   
  9   5  32  1   
 10   5  33  1   
 11   6  10  1   
 12   6  34  1   
 13   6  35  1   
 14   7  11  ar  
 15   7  36  1   
 16   8  12  ar  
 17   8  37  1   
 18   9  13  1   
 19   9  14  1   
 20   9  15  1   
 21  10  14  1   
 22  10  38  1   
 23  10  39  1   
 24  11  16  ar  
 25  12  16  ar  
 26  13  17  ar  
 27  13  18  ar  
 28  14  40  1   
 29  14  41  1   
 30  15  19  1   
 31  15  42  1   
 32  15  43  1   
 33  16  20  1   
 34  17  21  ar  
 35  18  19  1   
 36  18  22  ar  
 37  19  44  1   
 38  19  45  1   
 39  20  23  1   
 40  20  24  1   
 41  20  46  1   
 42  21  25  ar  
 43  21  26  1   
 44  22  25  ar  
 45  22  47  1   
 46  23  24  1   
 47  23  48  1   
 48  23  49  1   
 49  24  50  1   
 50  24  51  1   
 51  26  27  ar  
 52  26  28  ar  
 53  27  29  ar  
 54  27  52  1   
 55  28  30  ar  
 56  28  53  1   
 57  29  31  ar  
 58  29  54  1   
 59  30  31  ar  
 60  30  55  1   
 61  31  56  1   
@<TRIPOS>SUBSTRUCTURE
  1 ****   5 GROUP 4 **** **** 0

# MOE 2024.06 (io_trps.svl 2023.06)
