@<TRIPOS>MOLECULE
NONAME
49 51 1 0 0 
SMALL
USER_CHARGES


@<TRIPOS>ATOM
  1 O        1.9120    -3.3010     3.6640 O.2   1 <1>  -0.5700 
  2 C        2.5400    -3.5930     2.6810 C.2   1 <1>   0.5690 
  3 N        2.5440    -4.8500     2.1930 N.am  1 <1>  -0.7300 
  4 C        3.3740    -2.5580     1.9590 C.3   1 <1>  -0.0990 
  5 C        3.3090    -5.2660     1.0020 C.3   1 <1>   0.1400 
  6 C        3.2400    -2.7070     0.4300 C.3   1 <1>  -0.0800 
  7 C        3.2230    -4.1710    -0.0810 C.3   1 <1>  -0.0800 
  8 C        4.3520    -1.9860    -0.3440 C.3   1 <1>  -0.1600 
  9 C        4.3470    -4.2690    -1.1240 C.3   1 <1>  -0.1600 
 10 C        4.5530    -2.8320    -1.5970 C.3   1 <1>   0.4230 
 11 N        5.8600    -2.5970    -2.2630 N.4   1 <1>  -0.9590 
 12 C        7.0710    -2.8270    -1.4250 C.3   1 <1>   0.5230 
 13 C        5.9690    -3.2310    -3.6060 C.3   1 <1>   0.2630 
 14 C        7.7040    -1.4650    -1.1670 C.2   1 <1>   0.0060 
 15 N        7.2540    -0.3640    -1.6950 N.2   1 <1>  -0.5650 
 16 N        8.7840    -1.2830    -0.3640 N.pl3 1 <1>   0.0480 
 17 C        8.0800     0.5830    -1.2160 C.2   1 <1>   0.0770 
 18 C        9.0140     0.0420    -0.4080 C.2   1 <1>  -0.3020 
 19 C        9.5990    -2.2650     0.3900 C.3   1 <1>   0.0960 
 20 C        8.9250    -2.6800     1.7010 C.3   1 <1>   0.1200 
 21 O        7.7490    -3.3790     1.4270 O.3   1 <1>  -0.5600 
 22 C        7.1060    -3.8380     2.5770 C.3   1 <1>   0.0400 
 23 H        1.9980    -5.5510     2.7020 H     1 <1>   0.3700 
 24 H        3.0630    -1.5750     2.2630 H     1 <1>   0.0800 
 25 H        4.3920    -2.6950     2.2690 H     1 <1>   0.0800 
 26 H        4.3310    -5.4280     1.2990 H     1 <1>   0.0800 
 27 H        2.9140    -6.1930     0.6220 H     1 <1>   0.0800 
 28 H        2.2940    -2.2680     0.1520 H     1 <1>   0.0800 
 29 H        2.2860    -4.3140    -0.5940 H     1 <1>   0.0800 
 30 H        5.2430    -1.9600     0.2560 H     1 <1>   0.0800 
 31 H        4.0650    -0.9790    -0.5900 H     1 <1>   0.0800 
 32 H        4.0640    -4.9170    -1.9340 H     1 <1>   0.0800 
 33 H        5.2360    -4.6470    -0.6540 H     1 <1>   0.0800 
 34 H        3.7570    -2.5880    -2.2840 H     1 <1>   0.0800 
 35 H        5.9330    -1.5650    -2.3930 H     1 <1>   0.4500 
 36 H        6.7950    -3.2880    -0.4960 H     1 <1>   0.0800 
 37 H        7.7740    -3.4630    -1.9350 H     1 <1>   0.0800 
 38 H        5.9630    -4.3050    -3.5160 H     1 <1>   0.0800 
 39 H        6.8850    -2.9260    -4.0870 H     1 <1>   0.0800 
 40 H        5.1420    -2.9290    -4.2270 H     1 <1>   0.0800 
 41 H        7.9620     1.6230    -1.4820 H     1 <1>   0.1500 
 42 H        9.8140     0.5270     0.1240 H     1 <1>   0.1500 
 43 H        9.7810    -3.1300    -0.2190 H     1 <1>   0.0800 
 44 H       10.5480    -1.8120     0.6140 H     1 <1>   0.0800 
 45 H        8.6900    -1.8110     2.2950 H     1 <1>   0.0800 
 46 H        9.5840    -3.3250     2.2590 H     1 <1>   0.0800 
 47 H        6.2200    -4.3710     2.2830 H     1 <1>   0.0800 
 48 H        6.8350    -2.9980     3.1950 H     1 <1>   0.0800 
 49 H        7.7620    -4.5020     3.1140 H     1 <1>   0.0800 
@<TRIPOS>BOND
  1   1   2  2   
  2   2   3  am  
  3   2   4  1   
  4   3   5  1   
  5   3  23  1   
  6   4   6  1   
  7   4  24  1   
  8   4  25  1   
  9   5   7  1   
 10   5  26  1   
 11   5  27  1   
 12   6   7  1   
 13   6   8  1   
 14   6  28  1   
 15   7   9  1   
 16   7  29  1   
 17   8  10  1   
 18   8  30  1   
 19   8  31  1   
 20   9  10  1   
 21   9  32  1   
 22   9  33  1   
 23  10  11  1   
 24  10  34  1   
 25  11  12  1   
 26  11  13  1   
 27  11  35  1   
 28  12  14  1   
 29  12  36  1   
 30  12  37  1   
 31  13  38  1   
 32  13  39  1   
 33  13  40  1   
 34  14  15  2   
 35  14  16  1   
 36  15  17  1   
 37  16  18  1   
 38  16  19  1   
 39  17  18  2   
 40  17  41  1   
 41  18  42  1   
 42  19  20  1   
 43  19  43  1   
 44  19  44  1   
 45  20  21  1   
 46  20  45  1   
 47  20  46  1   
 48  21  22  1   
 49  22  47  1   
 50  22  48  1   
 51  22  49  1   
@<TRIPOS>SUBSTRUCTURE
  1 ****   8 GROUP 4 **** **** 0

# MOE 2024.06 (io_trps.svl 2023.06)
