@<TRIPOS>MOLECULE
NONAME
56 59 1 0 0 
SMALL
USER_CHARGES


@<TRIPOS>ATOM
  1 O        2.7160    -0.7170    -2.8010 O.2   1 <1>  -0.5700 
  2 C        3.0570    -1.2120    -1.7520 C.2   1 <1>   0.5690 
  3 N        3.7160    -0.4610    -0.8020 N.am  1 <1>  -0.6600 
  4 C        2.6360    -2.6660    -1.4800 C.3   1 <1>   0.1710 
  5 C        3.7370     1.0240    -0.9120 C.3   1 <1>   0.1400 
  6 C        3.9550    -0.9270     0.5930 C.3   1 <1>   0.1400 
  7 N        1.6850    -2.8040    -0.3370 N.3   1 <1>  -0.8100 
  8 C        2.6130     1.6030    -0.0290 C.3   1 <1>   0.3430 
  9 C        2.8430    -0.3740     1.5070 C.3   1 <1>   0.3430 
 10 C        0.4310    -2.0800    -0.5810 C.3   1 <1>   0.1100 
 11 C        1.2610    -4.1970    -0.1180 C.3   1 <1>   0.1100 
 12 N        2.6950     1.1280     1.4060 N.4   1 <1>  -0.9590 
 13 C       -0.5090    -2.6370     0.4770 C.3   1 <1>   0.2000 
 14 C       -0.1630    -4.1290     0.4760 C.3   1 <1>  -0.0800 
 15 C        1.4890     1.5650     2.1740 C.3   1 <1>   0.2630 
 16 O       -0.1130    -2.1150     1.6990 O.3   1 <1>  -0.6800 
 17 C       -1.1760    -4.9390    -0.3560 C.3   1 <1>  -0.0170 
 18 C       -0.8330    -6.4190    -0.3710 C.ar  1 <1>   0.1670 
 19 N       -0.1700    -6.8720    -1.3900 N.ar  1 <1>  -0.6200 
 20 C       -1.2380    -7.2180     0.7100 C.ar  1 <1>  -0.1500 
 21 C        0.1460    -8.1930    -1.4040 C.ar  1 <1>   0.3100 
 22 C       -0.9330    -8.5450     0.7240 C.ar  1 <1>  -0.1500 
 23 C       -0.2150    -9.0740    -0.3610 C.ar  1 <1>   0.0000 
 24 C        0.8620    -8.7080    -2.4960 C.ar  1 <1>  -0.1500 
 25 C        0.1560   -10.4300    -0.4510 C.ar  1 <1>  -0.1500 
 26 C        1.2140   -10.0300    -2.5640 C.ar  1 <1>  -0.1500 
 27 C        0.8560   -10.9000    -1.5290 C.ar  1 <1>  -0.1500 
 28 H        3.5200    -3.2460    -1.2830 H     1 <1>   0.0800 
 29 H        2.1840    -3.0580    -2.3750 H     1 <1>   0.0800 
 30 H        4.6950     1.4000    -0.5960 H     1 <1>   0.0800 
 31 H        3.5880     1.3330    -1.9330 H     1 <1>   0.0800 
 32 H        3.9680    -2.0010     0.6460 H     1 <1>   0.0800 
 33 H        4.9160    -0.5790     0.9290 H     1 <1>   0.0800 
 34 H        1.6710     1.2970    -0.4550 H     1 <1>   0.0800 
 35 H        2.6550     2.6790    -0.0630 H     1 <1>   0.0800 
 36 H        3.0480    -0.6560     2.5260 H     1 <1>   0.0800 
 37 H        1.9170    -0.8430     1.2190 H     1 <1>   0.0800 
 38 H        0.5490    -1.0140    -0.4910 H     1 <1>   0.0800 
 39 H        0.0520    -2.3130    -1.5630 H     1 <1>   0.0800 
 40 H        1.2520    -4.7280    -1.0560 H     1 <1>   0.0800 
 41 H        1.9410    -4.6970     0.5510 H     1 <1>   0.0800 
 42 H        3.5320     1.5540     1.8280 H     1 <1>   0.4500 
 43 H       -1.5470    -2.4060     0.3090 H     1 <1>   0.0800 
 44 H       -0.1680    -4.5220     1.4790 H     1 <1>   0.0800 
 45 H        0.6020     1.1040     1.7680 H     1 <1>   0.0800 
 46 H        1.3770     2.6360     2.1230 H     1 <1>   0.0800 
 47 H        1.5790     1.2780     3.2090 H     1 <1>   0.0800 
 48 H        0.7610    -2.5120     1.8820 H     1 <1>   0.4000 
 49 H       -1.1980    -4.5740    -1.3690 H     1 <1>   0.0800 
 50 H       -2.1630    -4.8140     0.0520 H     1 <1>   0.0800 
 51 H       -1.7870    -6.7710     1.5190 H     1 <1>   0.1500 
 52 H       -1.2260    -9.1890     1.5340 H     1 <1>   0.1500 
 53 H        1.1260    -8.0240    -3.2810 H     1 <1>   0.1500 
 54 H       -0.1220   -11.0940     0.3480 H     1 <1>   0.1500 
 55 H        1.7640   -10.4120    -3.4070 H     1 <1>   0.1500 
 56 H        1.1390   -11.9370    -1.5960 H     1 <1>   0.1500 
@<TRIPOS>BOND
  1   1   2  2   
  2   2   3  am  
  3   2   4  1   
  4   3   5  1   
  5   3   6  1   
  6   4   7  1   
  7   4  28  1   
  8   4  29  1   
  9   5   8  1   
 10   5  30  1   
 11   5  31  1   
 12   6   9  1   
 13   6  32  1   
 14   6  33  1   
 15   7  10  1   
 16   7  11  1   
 17   8  12  1   
 18   8  34  1   
 19   8  35  1   
 20   9  12  1   
 21   9  36  1   
 22   9  37  1   
 23  10  13  1   
 24  10  38  1   
 25  10  39  1   
 26  11  14  1   
 27  11  40  1   
 28  11  41  1   
 29  12  15  1   
 30  12  42  1   
 31  13  14  1   
 32  13  16  1   
 33  13  43  1   
 34  14  17  1   
 35  14  44  1   
 36  15  45  1   
 37  15  46  1   
 38  15  47  1   
 39  16  48  1   
 40  17  18  1   
 41  17  49  1   
 42  17  50  1   
 43  18  19  ar  
 44  18  20  ar  
 45  19  21  ar  
 46  20  22  ar  
 47  20  51  1   
 48  21  23  ar  
 49  21  24  ar  
 50  22  23  ar  
 51  22  52  1   
 52  23  25  ar  
 53  24  26  ar  
 54  24  53  1   
 55  25  27  ar  
 56  25  54  1   
 57  26  27  ar  
 58  26  55  1   
 59  27  56  1   
@<TRIPOS>SUBSTRUCTURE
  1 ****  11 GROUP 4 **** **** 0

# MOE 2024.06 (io_trps.svl 2023.06)
