@<TRIPOS>MOLECULE
NONAME
54 58 1 0 0 
SMALL
USER_CHARGES


@<TRIPOS>ATOM
  1 O        0.5890     1.3560    -0.8400 O.3   1 <1>  -0.3630 
  2 C       -0.1890     2.3080    -0.2570 C.ar  1 <1>   0.0830 
  3 C        0.3600    -0.0130    -0.5880 C.3   1 <1>   0.0400 
  4 C       -0.1090     3.5770    -0.7810 C.ar  1 <1>  -0.1500 
  5 C       -1.0440     2.0440     0.8310 C.ar  1 <1>  -0.1500 
  6 C       -0.8740     4.6050    -0.2230 C.ar  1 <1>   0.0000 
  7 C       -1.8070     3.0480     1.3810 C.ar  1 <1>  -0.1500 
  8 C       -1.7180     4.3360     0.8510 C.ar  1 <1>  -0.1520 
  9 C       -1.0070     5.9830    -0.4810 C.2   1 <1>  -0.1810 
 10 N       -2.3540     5.5000     1.2180 N.pl3 1 <1>   0.0330 
 11 C       -1.8900     6.4960     0.4060 C.2   1 <1>  -0.3320 
 12 C       -0.2970     6.8340    -1.5090 C.3   1 <1>   0.3900 
 13 C       -2.2560     7.9800     0.4720 C.3   1 <1>   0.0200 
 14 N       -0.1370     8.1540    -0.8340 N.pl3 1 <1>  -0.8380 
 15 C       -1.4690     8.7990    -0.5860 C.3   1 <1>   0.2090 
 16 C        0.8710     8.4160     0.0230 C.ar  1 <1>   0.7710 
 17 N        1.2100     9.6730     0.2510 N.ar  1 <1>  -0.6200 
 18 N        1.4570     7.3840     0.6590 N.ar  1 <1>  -0.1790 
 19 C        2.2120     9.9090     1.0780 C.ar  1 <1>   0.4100 
 20 C        2.4640     7.5810     1.5390 C.ar  1 <1>   0.2110 
 21 N        2.5990    11.2000     1.2530 N.pl3 1 <1>  -0.8380 
 22 C        2.8590     8.8570     1.7590 C.ar  1 <1>  -0.1500 
 23 C        4.0200    11.6220     1.4940 C.3   1 <1>   0.2090 
 24 C        1.6890    12.3570     0.9800 C.3   1 <1>   0.2090 
 25 C        4.5500    12.4350     0.2990 C.3   1 <1>   0.2000 
 26 C        2.1920    13.1340    -0.2410 C.3   1 <1>  -0.1600 
 27 O        5.8080    12.9290     0.5970 O.3   1 <1>  -0.6800 
 28 C        3.6410    13.6160    -0.0550 C.3   1 <1>  -0.1600 
 29 H        0.9990    -0.5830    -1.2380 H     1 <1>   0.0800 
 30 H       -0.6710    -0.2400    -0.7980 H     1 <1>   0.0800 
 31 H        0.6020    -0.2260     0.4380 H     1 <1>   0.0800 
 32 H        0.5340     3.7680    -1.6190 H     1 <1>   0.1500 
 33 H       -1.1090     1.0550     1.2450 H     1 <1>   0.1500 
 34 H       -2.4650     2.8490     2.2100 H     1 <1>   0.1500 
 35 H       -3.0570     5.5800     1.9620 H     1 <1>   0.2700 
 36 H       -0.8950     6.9320    -2.3990 H     1 <1>   0.0800 
 37 H        0.6590     6.4170    -1.7760 H     1 <1>   0.0800 
 38 H       -2.0190     8.3610     1.4500 H     1 <1>   0.0800 
 39 H       -3.3120     8.1150     0.3150 H     1 <1>   0.0800 
 40 H       -1.3480     9.8170    -0.2530 H     1 <1>   0.0800 
 41 H       -2.0240     8.8210    -1.5090 H     1 <1>   0.0800 
 42 H        1.0060     6.4800     0.5090 H     1 <1>   0.4570 
 43 H        2.9030     6.7310     2.0380 H     1 <1>   0.1500 
 44 H        3.6410     9.0850     2.4570 H     1 <1>   0.1500 
 45 H        4.6600    10.7700     1.6250 H     1 <1>   0.0800 
 46 H        4.0550    12.2240     2.3860 H     1 <1>   0.0800 
 47 H        1.6750    13.0030     1.8420 H     1 <1>   0.0800 
 48 H        0.6800    12.0240     0.8090 H     1 <1>   0.0800 
 49 H        4.6550    11.7800    -0.5490 H     1 <1>   0.0800 
 50 H        1.5500    13.9800    -0.4110 H     1 <1>   0.0800 
 51 H        2.1260    12.4950    -1.1050 H     1 <1>   0.0800 
 52 H        5.7380    13.7140     1.1730 H     1 <1>   0.4000 
 53 H        3.9850    14.0760    -0.9650 H     1 <1>   0.0800 
 54 H        3.6640    14.3450     0.7350 H     1 <1>   0.0800 
@<TRIPOS>BOND
  1   1   2  1   
  2   1   3  1   
  3   2   4  ar  
  4   2   5  ar  
  5   3  29  1   
  6   3  30  1   
  7   3  31  1   
  8   4   6  ar  
  9   4  32  1   
 10   5   7  ar  
 11   5  33  1   
 12   6   8  ar  
 13   6   9  1   
 14   7   8  ar  
 15   7  34  1   
 16   8  10  1   
 17   9  11  2   
 18   9  12  1   
 19  10  11  1   
 20  10  35  1   
 21  11  13  1   
 22  12  14  1   
 23  12  36  1   
 24  12  37  1   
 25  13  15  1   
 26  13  38  1   
 27  13  39  1   
 28  14  15  1   
 29  14  16  1   
 30  15  40  1   
 31  15  41  1   
 32  16  17  ar  
 33  16  18  ar  
 34  17  19  ar  
 35  18  20  ar  
 36  18  42  1   
 37  19  21  1   
 38  19  22  ar  
 39  20  22  ar  
 40  20  43  1   
 41  21  23  1   
 42  21  24  1   
 43  22  44  1   
 44  23  25  1   
 45  23  45  1   
 46  23  46  1   
 47  24  26  1   
 48  24  47  1   
 49  24  48  1   
 50  25  27  1   
 51  25  28  1   
 52  25  49  1   
 53  26  28  1   
 54  26  50  1   
 55  26  51  1   
 56  27  52  1   
 57  28  53  1   
 58  28  54  1   
@<TRIPOS>SUBSTRUCTURE
  1 ****  18 GROUP 4 **** **** 0

# MOE 2024.06 (io_trps.svl 2023.06)
