@<TRIPOS>MOLECULE
NONAME
54 55 1 0 0 
SMALL
USER_CHARGES


@<TRIPOS>ATOM
  1 O       -0.9660     0.3240     2.6220 O.2   1 <1>  -0.5700 
  2 C       -1.4140     0.7730     1.5940 C.2   1 <1>   0.5690 
  3 N       -2.4200     0.1080     0.9260 N.am  1 <1>  -0.6600 
  4 C       -0.8080     2.0950     1.1120 C.3   1 <1>   0.1810 
  5 C       -3.0180    -1.1070     1.5900 C.3   1 <1>   0.3210 
  6 C       -3.1000     0.6240    -0.3030 C.3   1 <1>   0.1400 
  7 O       -1.8020     3.0020     0.6500 O.3   1 <1>  -0.3630 
  8 C       -3.9050    -1.9690     0.6860 C.2   1 <1>   0.0460 
  9 C       -4.3560     1.4170     0.1020 C.3   1 <1>   0.3430 
 10 C       -1.4280     4.2820     0.4590 C.ar  1 <1>   0.0820 
 11 N       -5.1670    -1.5950     0.3690 N.2   1 <1>  -0.5650 
 12 C       -3.6030    -3.1610     0.1180 C.2   1 <1>  -0.3320 
 13 N       -4.9620     2.1880    -1.0330 N.4   1 <1>  -0.9590 
 14 C       -0.7560     4.6940    -0.6950 C.ar  1 <1>  -0.1430 
 15 C       -1.7720     5.1890     1.4460 C.ar  1 <1>  -0.1500 
 16 C       -5.6050    -2.5690    -0.3610 C.2   1 <1>   0.0360 
 17 N       -4.7020    -3.5510    -0.5530 N.pl3 1 <1>   0.0330 
 18 C       -2.3350    -3.9990     0.1600 C.3   1 <1>  -0.0600 
 19 C       -4.1530     3.4080    -1.3530 C.3   1 <1>   0.2630 
 20 C       -6.3630     2.5660    -0.6810 C.3   1 <1>   0.2630 
 21 C       -0.4200     6.0390    -0.8260 C.ar  1 <1>  -0.1430 
 22 C       -0.3820     3.7080    -1.8010 C.3   1 <1>  -0.0970 
 23 C       -1.4420     6.5210     1.3030 C.ar  1 <1>  -0.1500 
 24 C       -0.7680     6.9400     0.1710 C.ar  1 <1>  -0.1500 
 25 C        0.3350     6.5710    -2.0380 C.3   1 <1>  -0.0970 
 26 H       -0.1110     1.9060     0.3180 H     1 <1>   0.0800 
 27 H       -0.2860     2.5620     1.9290 H     1 <1>   0.0800 
 28 H       -3.6030    -0.7880     2.4350 H     1 <1>   0.0800 
 29 H       -2.2210    -1.7200     1.9720 H     1 <1>   0.0800 
 30 H       -3.3650    -0.1900    -0.9530 H     1 <1>   0.0800 
 31 H       -2.4220     1.2460    -0.8520 H     1 <1>   0.0800 
 32 H       -4.0910     2.1010     0.8920 H     1 <1>   0.0800 
 33 H       -5.0820     0.7260     0.4940 H     1 <1>   0.0800 
 34 H       -4.9960     1.5640    -1.8540 H     1 <1>   0.4500 
 35 H       -2.2920     4.8530     2.3250 H     1 <1>   0.1500 
 36 H       -6.5950    -2.6190    -0.7830 H     1 <1>   0.1500 
 37 H       -4.8340    -4.4170    -1.0860 H     1 <1>   0.2700 
 38 H       -1.5580    -3.4940     0.7050 H     1 <1>   0.0800 
 39 H       -1.9790    -4.1850    -0.8380 H     1 <1>   0.0800 
 40 H       -2.5300    -4.9410     0.6410 H     1 <1>   0.0800 
 41 H       -4.0850     4.0510    -0.4890 H     1 <1>   0.0800 
 42 H       -4.6050     3.9600    -2.1600 H     1 <1>   0.0800 
 43 H       -3.1530     3.1330    -1.6430 H     1 <1>   0.0800 
 44 H       -6.3710     3.2080     0.1850 H     1 <1>   0.0800 
 45 H       -6.9420     1.6840    -0.4600 H     1 <1>   0.0800 
 46 H       -6.8280     3.0870    -1.5020 H     1 <1>   0.0800 
 47 H       -0.9100     2.7790    -1.7100 H     1 <1>   0.0800 
 48 H        0.6730     3.5050    -1.7600 H     1 <1>   0.0800 
 49 H       -0.6160     4.1180    -2.7660 H     1 <1>   0.0800 
 50 H       -1.7030     7.2320     2.0680 H     1 <1>   0.1500 
 51 H       -0.5130     7.9810     0.0750 H     1 <1>   0.1500 
 52 H        1.2220     5.9880    -2.2120 H     1 <1>   0.0800 
 53 H        0.6380     7.5920    -1.8880 H     1 <1>   0.0800 
 54 H       -0.2900     6.5310    -2.9110 H     1 <1>   0.0800 
@<TRIPOS>BOND
  1   1   2  2   
  2   2   3  am  
  3   2   4  1   
  4   3   5  1   
  5   3   6  1   
  6   4   7  1   
  7   4  26  1   
  8   4  27  1   
  9   5   8  1   
 10   5  28  1   
 11   5  29  1   
 12   6   9  1   
 13   6  30  1   
 14   6  31  1   
 15   7  10  1   
 16   8  11  1   
 17   8  12  2   
 18   9  13  1   
 19   9  32  1   
 20   9  33  1   
 21  10  14  ar  
 22  10  15  ar  
 23  11  16  2   
 24  12  17  1   
 25  12  18  1   
 26  13  19  1   
 27  13  20  1   
 28  13  34  1   
 29  14  21  ar  
 30  14  22  1   
 31  15  23  ar  
 32  15  35  1   
 33  16  17  1   
 34  16  36  1   
 35  17  37  1   
 36  18  38  1   
 37  18  39  1   
 38  18  40  1   
 39  19  41  1   
 40  19  42  1   
 41  19  43  1   
 42  20  44  1   
 43  20  45  1   
 44  20  46  1   
 45  21  24  ar  
 46  21  25  1   
 47  22  47  1   
 48  22  48  1   
 49  22  49  1   
 50  23  24  ar  
 51  23  50  1   
 52  24  51  1   
 53  25  52  1   
 54  25  53  1   
 55  25  54  1   
@<TRIPOS>SUBSTRUCTURE
  1 ****   6 GROUP 4 **** **** 0

# MOE 2024.06 (io_trps.svl 2023.06)
