@<TRIPOS>MOLECULE
NONAME
41 42 1 0 0 
SMALL
USER_CHARGES


@<TRIPOS>ATOM
  1 S       -0.2880     0.0860    -0.3690 S.o2  1 <1>   1.0900 
  2 O       -0.3790     0.2030    -1.8020 O.2   1 <1>  -0.6500 
  3 O       -1.2070     0.8090     0.4740 O.2   1 <1>  -0.6500 
  4 C        1.3170     0.7230     0.0380 C.3   1 <1>  -0.0550 
  5 C       -0.2570    -1.6350     0.1000 C.3   1 <1>  -0.1350 
  6 C        1.2800     2.2010    -0.3270 C.3   1 <1>   0.3430 
  7 N        2.5910     2.8790    -0.0870 N.4   1 <1>  -0.9590 
  8 C        2.4010     4.3580    -0.0950 C.3   1 <1>   0.3430 
  9 C        3.6320     2.4810    -1.0810 C.3   1 <1>   0.3430 
 10 C        3.6990     5.0390     0.3290 C.3   1 <1>  -0.1600 
 11 C        4.9720     3.0990    -0.6880 C.3   1 <1>  -0.1600 
 12 C        4.8900     4.6360    -0.5690 C.3   1 <1>  -0.0800 
 13 C        6.2270     5.2470    -0.0890 C.3   1 <1>   0.3800 
 14 O        6.5250     4.7480     1.1660 O.3   1 <1>  -0.6800 
 15 C        6.1730     6.7630     0.0060 C.2   1 <1>  -0.1400 
 16 S        6.1320     7.6450    -1.5150 S.3   1 <1>  -0.0800 
 17 C        6.1430     7.6230     1.0440 C.2   1 <1>  -0.1500 
 18 C        6.0750     9.1840    -0.6770 C.2   1 <1>  -0.1100 
 19 C        6.0880     8.9990     0.6550 C.2   1 <1>  -0.1500 
 20 H        2.0660     0.2100    -0.5320 H     1 <1>   0.0800 
 21 H        1.5060     0.6080     1.0880 H     1 <1>   0.0800 
 22 H       -1.2040    -2.0890    -0.1210 H     1 <1>   0.0800 
 23 H       -0.0740    -1.7400     1.1520 H     1 <1>   0.0800 
 24 H        0.5020    -2.1650    -0.4410 H     1 <1>   0.0800 
 25 H        0.5130     2.6760     0.2660 H     1 <1>   0.0800 
 26 H        0.9990     2.3070    -1.3640 H     1 <1>   0.0800 
 27 H        2.9420     2.6410     0.8510 H     1 <1>   0.4500 
 28 H        1.6140     4.6360     0.5890 H     1 <1>   0.0800 
 29 H        2.1240     4.6890    -1.0840 H     1 <1>   0.0800 
 30 H        3.3490     2.8210    -2.0650 H     1 <1>   0.0800 
 31 H        3.7330     1.4080    -1.1090 H     1 <1>   0.0800 
 32 H        3.9050     4.7940     1.3570 H     1 <1>   0.0800 
 33 H        3.5550     6.1040     0.2800 H     1 <1>   0.0800 
 34 H        5.7070     2.8390    -1.4300 H     1 <1>   0.0800 
 35 H        5.2930     2.6670     0.2440 H     1 <1>   0.0800 
 36 H        4.7020     5.0280    -1.5540 H     1 <1>   0.0800 
 37 H        7.0290     4.9610    -0.7490 H     1 <1>   0.0800 
 38 H        7.3030     5.2280     1.5130 H     1 <1>   0.4000 
 39 H        6.1530     7.3520     2.0860 H     1 <1>   0.1500 
 40 H        6.0390    10.0760    -1.2780 H     1 <1>   0.1500 
 41 H        6.0610     9.7820     1.3940 H     1 <1>   0.1500 
@<TRIPOS>BOND
  1   1   2  2   
  2   1   3  2   
  3   1   4  1   
  4   1   5  1   
  5   4   6  1   
  6   4  20  1   
  7   4  21  1   
  8   5  22  1   
  9   5  23  1   
 10   5  24  1   
 11   6   7  1   
 12   6  25  1   
 13   6  26  1   
 14   7   8  1   
 15   7   9  1   
 16   7  27  1   
 17   8  10  1   
 18   8  28  1   
 19   8  29  1   
 20   9  11  1   
 21   9  30  1   
 22   9  31  1   
 23  10  12  1   
 24  10  32  1   
 25  10  33  1   
 26  11  12  1   
 27  11  34  1   
 28  11  35  1   
 29  12  13  1   
 30  12  36  1   
 31  13  14  1   
 32  13  15  1   
 33  13  37  1   
 34  14  38  1   
 35  15  16  1   
 36  15  17  2   
 37  16  18  1   
 38  17  19  1   
 39  17  39  1   
 40  18  19  2   
 41  18  40  1   
 42  19  41  1   
@<TRIPOS>SUBSTRUCTURE
  1 ****   8 GROUP 4 **** **** 0

# MOE 2024.06 (io_trps.svl 2023.06)
