@<TRIPOS>MOLECULE
NONAME
50 53 1 0 0 
SMALL
USER_CHARGES


@<TRIPOS>ATOM
  1 S        0.6010    -0.6420     1.3190 S.3   1 <1>  -0.0800 
  2 C        0.3750    -1.0480    -0.3730 C.2   1 <1>  -0.0450 
  3 C        0.7540     1.0430     0.9020 C.2   1 <1>   0.1980 
  4 C        0.4390     0.1170    -1.0640 C.2   1 <1>   0.0460 
  5 C        0.1730    -2.4300    -0.7280 C.2   1 <1>   0.7150 
  6 N        0.6500     1.2740    -0.3450 N.2   1 <1>  -0.5650 
  7 C        0.9890     2.0140     2.0480 C.3   1 <1>   0.0200 
  8 C        0.3070     0.3120    -2.5620 C.3   1 <1>  -0.0590 
  9 O       -0.0420    -2.7730    -1.8750 O.2   1 <1>  -0.5700 
 10 N        0.2010    -3.3990     0.2300 N.am  1 <1>  -0.7300 
 11 C        1.1120     3.4720     1.5860 C.3   1 <1>  -0.2400 
 12 C       -0.0480    -4.8380    -0.0030 C.3   1 <1>   0.2200 
 13 C       -1.5280    -5.1220     0.1850 C.3   1 <1>  -0.0800 
 14 C        0.5740    -5.6630     1.1180 C.3   1 <1>   0.1200 
 15 C       -1.6310    -5.3160     1.7010 C.3   1 <1>   0.1200 
 16 C       -1.9650    -6.3750    -0.5990 C.3   1 <1>  -0.0170 
 17 O       -0.3580    -5.6730     2.1580 O.3   1 <1>  -0.5600 
 18 C       -3.4700    -6.6000    -0.5010 C.ar  1 <1>  -0.1430 
 19 C       -4.4010    -5.8190    -1.2280 C.ar  1 <1>   0.0000 
 20 C       -3.9650    -7.5810     0.3070 C.ar  1 <1>  -0.1500 
 21 C       -5.7770    -6.1020    -1.0480 C.ar  1 <1>   0.3100 
 22 C       -4.0500    -4.7800    -2.1220 C.ar  1 <1>  -0.1500 
 23 C       -5.3470    -7.7820     0.4080 C.ar  1 <1>   0.1600 
 24 N       -6.2320    -7.0830    -0.2290 N.ar  1 <1>  -0.6200 
 25 C       -6.7250    -5.3380    -1.7480 C.ar  1 <1>  -0.1500 
 26 C       -5.0000    -4.0550    -2.7890 C.ar  1 <1>  -0.1500 
 27 C       -6.3550    -4.3340    -2.6010 C.ar  1 <1>  -0.1500 
 28 H        0.1710     1.9300     2.7410 H     1 <1>   0.0800 
 29 H        1.8910     1.7280     2.5590 H     1 <1>   0.0800 
 30 H        0.1580    -0.6180    -3.0760 H     1 <1>   0.0800 
 31 H        1.1990     0.7740    -2.9430 H     1 <1>   0.0800 
 32 H       -0.5290     0.9560    -2.7660 H     1 <1>   0.0800 
 33 H        0.2790    -3.1230     1.2110 H     1 <1>   0.3700 
 34 H        0.2100     3.7770     1.0840 H     1 <1>   0.0800 
 35 H        1.9350     3.5740     0.9020 H     1 <1>   0.0800 
 36 H        1.2760     4.1190     2.4290 H     1 <1>   0.0800 
 37 H        0.3220    -5.1250    -0.9730 H     1 <1>   0.0800 
 38 H       -2.1260    -4.2850    -0.1290 H     1 <1>   0.0800 
 39 H        1.5050    -5.2540     1.4690 H     1 <1>   0.0800 
 40 H        0.7200    -6.6810     0.8040 H     1 <1>   0.0800 
 41 H       -2.3330    -6.0800     1.9830 H     1 <1>   0.0800 
 42 H       -1.9000    -4.3910     2.1820 H     1 <1>   0.0800 
 43 H       -1.4460    -7.2390    -0.2210 H     1 <1>   0.0800 
 44 H       -1.6920    -6.2760    -1.6350 H     1 <1>   0.0800 
 45 H       -3.3190    -8.2180     0.8840 H     1 <1>   0.1500 
 46 H       -3.0140    -4.5470    -2.2880 H     1 <1>   0.1500 
 47 H       -5.6950    -8.5660     1.0580 H     1 <1>   0.1500 
 48 H       -7.7610    -5.5720    -1.5890 H     1 <1>   0.1500 
 49 H       -4.7160    -3.2660    -3.4640 H     1 <1>   0.1500 
 50 H       -7.0930    -3.7570    -3.1310 H     1 <1>   0.1500 
@<TRIPOS>BOND
  1   1   2  1   
  2   1   3  1   
  3   2   4  2   
  4   2   5  1   
  5   3   6  2   
  6   3   7  1   
  7   4   6  1   
  8   4   8  1   
  9   5   9  2   
 10   5  10  am  
 11   7  11  1   
 12   7  28  1   
 13   7  29  1   
 14   8  30  1   
 15   8  31  1   
 16   8  32  1   
 17  10  12  1   
 18  10  33  1   
 19  11  34  1   
 20  11  35  1   
 21  11  36  1   
 22  12  13  1   
 23  12  14  1   
 24  12  37  1   
 25  13  15  1   
 26  13  16  1   
 27  13  38  1   
 28  14  17  1   
 29  14  39  1   
 30  14  40  1   
 31  15  17  1   
 32  15  41  1   
 33  15  42  1   
 34  16  18  1   
 35  16  43  1   
 36  16  44  1   
 37  18  19  ar  
 38  18  20  ar  
 39  19  21  ar  
 40  19  22  ar  
 41  20  23  ar  
 42  20  45  1   
 43  21  24  ar  
 44  21  25  ar  
 45  22  26  ar  
 46  22  46  1   
 47  23  24  ar  
 48  23  47  1   
 49  25  27  ar  
 50  25  48  1   
 51  26  27  ar  
 52  26  49  1   
 53  27  50  1   
@<TRIPOS>SUBSTRUCTURE
  1 ****  13 GROUP 4 **** **** 0

# MOE 2024.06 (io_trps.svl 2023.06)
