@<TRIPOS>MOLECULE
NONAME
49 52 1 0 0 
SMALL
USER_CHARGES


@<TRIPOS>ATOM
  1 S        1.5010    -1.3100     2.8530 S.3   1 <1>  -0.0800 
  2 C        0.9820    -0.9530     1.2160 C.2   1 <1>   0.3250 
  3 C        1.0940    -2.9730     2.6130 C.2   1 <1>  -0.1100 
  4 N        0.5640    -1.9970     0.5950 N.2   1 <1>  -0.5650 
  5 C        1.0570     0.4080     0.7350 C.ar  1 <1>   0.0530 
  6 C        0.5980    -3.1640     1.3710 C.2   1 <1>   0.1410 
  7 C        1.2880     0.6650    -0.6150 C.ar  1 <1>  -0.1500 
  8 C        0.8810     1.5100     1.5700 C.ar  1 <1>  -0.1500 
  9 C        0.1430    -4.4680     0.8800 C.2   1 <1>   0.7160 
 10 C        1.3270     1.9550    -1.1130 C.ar  1 <1>  -0.1500 
 11 C        0.9220     2.8020     1.0790 C.ar  1 <1>  -0.1500 
 12 O        0.6490    -5.4570     1.3840 O.2   1 <1>  -0.5700 
 13 N       -0.8260    -4.6850    -0.0960 N.am  1 <1>  -0.6600 
 14 C        1.1410     3.0470    -0.2720 C.ar  1 <1>  -0.1430 
 15 C       -2.0090    -3.8330    -0.4300 C.3   1 <1>   0.2200 
 16 C       -0.8290    -5.9810    -0.8390 C.3   1 <1>   0.0600 
 17 C        1.1830     4.4900    -0.8050 C.3   1 <1>   1.1640 
 18 C       -2.5980    -2.9990     0.7120 C.3   1 <1>  -0.1600 
 19 C       -1.7160    -2.8780    -1.5800 C.3   1 <1>  -0.1600 
 20 F        1.0050     4.5720    -2.1180 F     1 <1>  -0.3400 
 21 F        0.2570     5.2650    -0.2530 F     1 <1>  -0.3400 
 22 F        2.3490     5.0710    -0.5530 F     1 <1>  -0.3400 
 23 C       -3.1690    -1.7270     0.0660 C.3   1 <1>  -0.0800 
 24 C       -2.6900    -1.7070    -1.4060 C.3   1 <1>  -0.0800 
 25 C       -2.8290    -0.4590     0.8740 C.3   1 <1>   0.1400 
 26 C       -2.0860    -0.3650    -1.8770 C.3   1 <1>  -0.0990 
 27 N       -3.1150     0.7350     0.0550 N.am  1 <1>  -0.7300 
 28 C       -2.7840     0.8220    -1.2490 C.2   1 <1>   0.5690 
 29 O       -3.0140     1.8130    -1.8930 O.2   1 <1>  -0.5700 
 30 H        1.2580    -3.6650     3.4190 H     1 <1>   0.1500 
 31 H        1.4350    -0.1660    -1.2830 H     1 <1>   0.1500 
 32 H        0.7000     1.3610     2.6200 H     1 <1>   0.1500 
 33 H        1.5030     2.1000    -2.1660 H     1 <1>   0.1500 
 34 H        0.7780     3.6260     1.7600 H     1 <1>   0.1500 
 35 H       -2.8060    -4.4800    -0.7600 H     1 <1>   0.0800 
 36 H       -1.0490    -5.8100    -1.8780 H     1 <1>   0.0800 
 37 H       -1.5700    -6.6380    -0.4190 H     1 <1>   0.0800 
 38 H        0.1340    -6.4590    -0.7740 H     1 <1>   0.0800 
 39 H       -3.3770    -3.5520     1.2050 H     1 <1>   0.0800 
 40 H       -1.8680    -2.7360     1.4480 H     1 <1>   0.0800 
 41 H       -0.6990    -2.5400    -1.5260 H     1 <1>   0.0800 
 42 H       -1.8620    -3.3620    -2.5290 H     1 <1>   0.0800 
 43 H       -4.2420    -1.8140     0.0550 H     1 <1>   0.0800 
 44 H       -3.5570    -1.9030    -2.0160 H     1 <1>   0.0800 
 45 H       -1.7850    -0.4520     1.1340 H     1 <1>   0.0800 
 46 H       -3.4110    -0.4300     1.7790 H     1 <1>   0.0800 
 47 H       -2.1400    -0.2900    -2.9470 H     1 <1>   0.0800 
 48 H       -1.0560    -0.3050    -1.5910 H     1 <1>   0.0800 
 49 H       -3.5430     1.5520     0.4930 H     1 <1>   0.3700 
@<TRIPOS>BOND
  1   1   2  1   
  2   1   3  1   
  3   2   4  2   
  4   2   5  1   
  5   3   6  2   
  6   3  30  1   
  7   4   6  1   
  8   5   7  ar  
  9   5   8  ar  
 10   6   9  1   
 11   7  10  ar  
 12   7  31  1   
 13   8  11  ar  
 14   8  32  1   
 15   9  12  2   
 16   9  13  am  
 17  10  14  ar  
 18  10  33  1   
 19  11  14  ar  
 20  11  34  1   
 21  13  15  1   
 22  13  16  1   
 23  14  17  1   
 24  15  18  1   
 25  15  19  1   
 26  15  35  1   
 27  16  36  1   
 28  16  37  1   
 29  16  38  1   
 30  17  20  1   
 31  17  21  1   
 32  17  22  1   
 33  18  23  1   
 34  18  39  1   
 35  18  40  1   
 36  19  24  1   
 37  19  41  1   
 38  19  42  1   
 39  23  24  1   
 40  23  25  1   
 41  23  43  1   
 42  24  26  1   
 43  24  44  1   
 44  25  27  1   
 45  25  45  1   
 46  25  46  1   
 47  26  28  1   
 48  26  47  1   
 49  26  48  1   
 50  27  28  am  
 51  27  49  1   
 52  28  29  2   
@<TRIPOS>SUBSTRUCTURE
  1 ****   5 GROUP 4 **** **** 0

# MOE 2024.06 (io_trps.svl 2023.06)
