@<TRIPOS>MOLECULE
NONAME
51 54 1 0 0 
SMALL
USER_CHARGES


@<TRIPOS>ATOM
  1 O       -0.7320    -0.8170    -2.0870 O.2   1 <1>  -0.5700 
  2 C       -1.5610    -1.0930    -1.2520 C.2   1 <1>   0.5690 
  3 N       -1.8030    -0.2910    -0.1750 N.am  1 <1>  -0.6600 
  4 C       -2.3340    -2.3790    -1.4310 C.3   1 <1>  -0.0190 
  5 C       -2.8940    -0.5880     0.7970 C.3   1 <1>   0.2200 
  6 C       -1.0380     0.9670     0.0600 C.3   1 <1>   0.0600 
  7 C       -2.0590    -3.3430    -0.2600 C.3   1 <1>   0.1200 
  8 C       -3.8050    -2.0960    -1.8010 C.3   1 <1>   0.1400 
  9 C       -2.6190    -1.8990     1.5790 C.3   1 <1>   0.1200 
 10 C       -4.2780    -0.4870     0.1130 C.3   1 <1>   0.1400 
 11 O       -2.8350    -3.0920     0.8700 O.3   1 <1>  -0.5600 
 12 N       -4.6880    -1.7090    -0.6540 N.am  1 <1>  -0.6600 
 13 C       -5.7270    -2.4780    -0.1830 C.2   1 <1>   0.5690 
 14 O       -6.4890    -2.0590     0.6590 O.2   1 <1>  -0.5700 
 15 C       -5.9460    -3.8920    -0.7140 C.3   1 <1>  -0.0990 
 16 C       -6.9330    -4.7360     0.1130 C.3   1 <1>  -0.1600 
 17 C       -7.0770    -6.1580    -0.4460 C.3   1 <1>   0.0210 
 18 C       -8.0450    -7.0060     0.3620 C.2   1 <1>  -0.1810 
 19 C       -8.3610    -8.3460     0.0370 C.ar  1 <1>   0.0000 
 20 C       -8.7500    -6.6820     1.4740 C.2   1 <1>  -0.3020 
 21 C       -9.2700    -8.7830     0.9960 C.ar  1 <1>  -0.1520 
 22 C       -7.9600    -9.2220    -0.9780 C.ar  1 <1>  -0.1500 
 23 N       -9.4980    -7.7520     1.8700 N.pl3 1 <1>   0.0330 
 24 C       -9.7870   -10.0800     0.9610 C.ar  1 <1>  -0.1500 
 25 C       -8.4690   -10.4990    -1.0140 C.ar  1 <1>  -0.1500 
 26 C       -9.3830   -10.9290    -0.0440 C.ar  1 <1>  -0.1500 
 27 H       -1.9010    -2.8470    -2.2960 H     1 <1>   0.0800 
 28 H       -2.8740     0.1990     1.5300 H     1 <1>   0.0800 
 29 H       -0.5790     0.9390     1.0320 H     1 <1>   0.0800 
 30 H       -1.7010     1.8130     0.0020 H     1 <1>   0.0800 
 31 H       -0.2640     1.0890    -0.6790 H     1 <1>   0.0800 
 32 H       -1.0210    -3.3110     0.0240 H     1 <1>   0.0800 
 33 H       -2.2910    -4.3460    -0.5690 H     1 <1>   0.0800 
 34 H       -4.2000    -2.9640    -2.2940 H     1 <1>   0.0800 
 35 H       -3.8280    -1.2990    -2.5250 H     1 <1>   0.0800 
 36 H       -3.2830    -1.9330     2.4240 H     1 <1>   0.0800 
 37 H       -1.6090    -1.9040     1.9500 H     1 <1>   0.0800 
 38 H       -4.2880     0.3620    -0.5470 H     1 <1>   0.0800 
 39 H       -5.0010    -0.2860     0.8830 H     1 <1>   0.0800 
 40 H       -6.3040    -3.8190    -1.7240 H     1 <1>   0.0800 
 41 H       -4.9970    -4.3960    -0.7170 H     1 <1>   0.0800 
 42 H       -6.5840    -4.7880     1.1310 H     1 <1>   0.0800 
 43 H       -7.8970    -4.2570     0.1170 H     1 <1>   0.0800 
 44 H       -6.1170    -6.6430    -0.4450 H     1 <1>   0.0800 
 45 H       -7.4290    -6.1100    -1.4610 H     1 <1>   0.0800 
 46 H       -8.7660    -5.7510     2.0120 H     1 <1>   0.1500 
 47 H       -7.2590    -8.8810    -1.7160 H     1 <1>   0.1500 
 48 H      -10.1240    -7.7890     2.6800 H     1 <1>   0.2700 
 49 H      -10.4880   -10.4010     1.7100 H     1 <1>   0.1500 
 50 H       -8.1690   -11.1830    -1.7890 H     1 <1>   0.1500 
 51 H       -9.7660   -11.9330    -0.0940 H     1 <1>   0.1500 
@<TRIPOS>BOND
  1   1   2  2   
  2   2   3  am  
  3   2   4  1   
  4   3   5  1   
  5   3   6  1   
  6   4   7  1   
  7   4   8  1   
  8   4  27  1   
  9   5   9  1   
 10   5  10  1   
 11   5  28  1   
 12   6  29  1   
 13   6  30  1   
 14   6  31  1   
 15   7  11  1   
 16   7  32  1   
 17   7  33  1   
 18   8  12  1   
 19   8  34  1   
 20   8  35  1   
 21   9  11  1   
 22   9  36  1   
 23   9  37  1   
 24  10  12  1   
 25  10  38  1   
 26  10  39  1   
 27  12  13  am  
 28  13  14  2   
 29  13  15  1   
 30  15  16  1   
 31  15  40  1   
 32  15  41  1   
 33  16  17  1   
 34  16  42  1   
 35  16  43  1   
 36  17  18  1   
 37  17  44  1   
 38  17  45  1   
 39  18  19  1   
 40  18  20  2   
 41  19  21  ar  
 42  19  22  ar  
 43  20  23  1   
 44  20  46  1   
 45  21  23  1   
 46  21  24  ar  
 47  22  25  ar  
 48  22  47  1   
 49  23  48  1   
 50  24  26  ar  
 51  24  49  1   
 52  25  26  ar  
 53  25  50  1   
 54  26  51  1   
@<TRIPOS>SUBSTRUCTURE
  1 ****  15 GROUP 4 **** **** 0

# MOE 2024.06 (io_trps.svl 2023.06)
