@<TRIPOS>MOLECULE
NONAME
47 49 1 0 0 
SMALL
USER_CHARGES


@<TRIPOS>ATOM
  1 O       -2.1810     1.9630    -2.1010 O.2   1 <1>  -0.5700 
  2 C       -2.1870     1.9560    -0.8840 C.2   1 <1>   0.5440 
  3 N       -3.1870     1.2680    -0.2210 N.am  1 <1>  -0.6600 
  4 C       -1.1310     2.6520    -0.1700 C.ar  1 <1>   0.0860 
  5 C       -4.4470     0.8970    -0.9420 C.3   1 <1>   0.2200 
  6 C       -2.8250     0.4220     0.9580 C.3   1 <1>   0.0600 
  7 C        0.1580     2.7490    -0.6750 C.ar  1 <1>  -0.1500 
  8 C       -1.3210     3.2780     1.0550 C.ar  1 <1>  -0.1500 
  9 C       -5.1210     2.1050    -1.5910 C.3   1 <1>  -0.1600 
 10 C       -5.5490     0.3670    -0.0220 C.3   1 <1>  -0.1600 
 11 C        1.1410     3.4120     0.0330 C.ar  1 <1>   0.1600 
 12 C       -0.2710     3.9180     1.6860 C.ar  1 <1>   0.1600 
 13 C       -6.5780     1.6840    -1.8160 C.3   1 <1>  -0.0800 
 14 C       -6.8590     0.5720    -0.7960 C.3   1 <1>  -0.0800 
 15 N        0.9580     3.9950     1.2060 N.ar  1 <1>  -0.6200 
 16 C       -7.5880     2.8030    -1.5410 C.3   1 <1>  -0.1600 
 17 C       -8.0220     1.0640     0.0760 C.3   1 <1>  -0.1600 
 18 C       -8.0070     2.5810    -0.0890 C.3   1 <1>   0.4230 
 19 N       -9.3000     3.2260     0.2950 N.4   1 <1>  -0.9590 
 20 C      -10.4840     2.8380    -0.5420 C.3   1 <1>   0.2630 
 21 C       -9.1570     4.7150     0.3180 C.3   1 <1>   0.2630 
 22 H       -4.2220     0.1640    -1.7000 H     1 <1>   0.0800 
 23 H       -3.3840     0.7350     1.8220 H     1 <1>   0.0800 
 24 H       -1.7750     0.5000     1.1800 H     1 <1>   0.0800 
 25 H       -3.0410    -0.6110     0.7490 H     1 <1>   0.0800 
 26 H        0.3870     2.3040    -1.6270 H     1 <1>   0.1500 
 27 H       -2.2920     3.2690     1.5130 H     1 <1>   0.1500 
 28 H       -5.0610     2.9420    -0.9170 H     1 <1>   0.0800 
 29 H       -4.6530     2.3650    -2.5240 H     1 <1>   0.0800 
 30 H       -5.4000    -0.6720     0.2140 H     1 <1>   0.0800 
 31 H       -5.5610     0.9480     0.8830 H     1 <1>   0.0800 
 32 H        2.1320     3.4680    -0.3870 H     1 <1>   0.1500 
 33 H       -0.4480     4.3930     2.6360 H     1 <1>   0.1500 
 34 H       -6.6880     1.3040    -2.8200 H     1 <1>   0.0800 
 35 H       -7.1220    -0.3410    -1.3060 H     1 <1>   0.0800 
 36 H       -8.4170     2.6690    -2.2110 H     1 <1>   0.0800 
 37 H       -7.1560     3.7760    -1.6970 H     1 <1>   0.0800 
 38 H       -7.9070     0.7690     1.1040 H     1 <1>   0.0800 
 39 H       -8.9280     0.6400    -0.3150 H     1 <1>   0.0800 
 40 H       -7.2180     2.9650     0.5390 H     1 <1>   0.0800 
 41 H       -9.4940     2.9190     1.2600 H     1 <1>   0.4500 
 42 H      -10.3460     3.1570    -1.5620 H     1 <1>   0.0800 
 43 H      -11.3780     3.3020    -0.1590 H     1 <1>   0.0800 
 44 H      -10.6250     1.7700    -0.5300 H     1 <1>   0.0800 
 45 H       -8.9550     5.0870    -0.6740 H     1 <1>   0.0800 
 46 H       -8.3450     5.0040     0.9650 H     1 <1>   0.0800 
 47 H      -10.0630     5.1740     0.6790 H     1 <1>   0.0800 
@<TRIPOS>BOND
  1   1   2  2   
  2   2   3  am  
  3   2   4  1   
  4   3   5  1   
  5   3   6  1   
  6   4   7  ar  
  7   4   8  ar  
  8   5   9  1   
  9   5  10  1   
 10   5  22  1   
 11   6  23  1   
 12   6  24  1   
 13   6  25  1   
 14   7  11  ar  
 15   7  26  1   
 16   8  12  ar  
 17   8  27  1   
 18   9  13  1   
 19   9  28  1   
 20   9  29  1   
 21  10  14  1   
 22  10  30  1   
 23  10  31  1   
 24  11  15  ar  
 25  11  32  1   
 26  12  15  ar  
 27  12  33  1   
 28  13  14  1   
 29  13  16  1   
 30  13  34  1   
 31  14  17  1   
 32  14  35  1   
 33  16  18  1   
 34  16  36  1   
 35  16  37  1   
 36  17  18  1   
 37  17  38  1   
 38  17  39  1   
 39  18  19  1   
 40  18  40  1   
 41  19  20  1   
 42  19  21  1   
 43  19  41  1   
 44  20  42  1   
 45  20  43  1   
 46  20  44  1   
 47  21  45  1   
 48  21  46  1   
 49  21  47  1   
@<TRIPOS>SUBSTRUCTURE
  1 ****   9 GROUP 4 **** **** 0

# MOE 2024.06 (io_trps.svl 2023.06)
