@<TRIPOS>MOLECULE
NONAME
47 49 1 0 0 
SMALL
USER_CHARGES


@<TRIPOS>ATOM
  1 S        0.8180     0.0270    -1.6050 S.o2  1 <1>   1.5010 
  2 O        1.9720    -0.8490    -1.6580 O.2   1 <1>  -0.6500 
  3 O        0.3150     0.6070    -2.8270 O.2   1 <1>  -0.6500 
  4 N        1.3680     1.3280    -0.6630 N.am  1 <1>  -0.8490 
  5 C       -0.5090    -0.6860    -0.6230 C.2   1 <1>  -0.0630 
  6 C        1.8200     0.9750     0.7130 C.3   1 <1>   0.2760 
  7 C        2.1100     2.3310    -1.4490 C.3   1 <1>   0.1960 
  8 C       -1.6620    -0.0220    -0.2160 C.2   1 <1>   0.1080 
  9 C       -0.6460    -1.9250    -0.0850 C.2   1 <1>  -0.3020 
 10 C        1.7750     2.1910     1.6530 C.3   1 <1>   0.1200 
 11 C        3.2090     0.2820     0.8030 C.3   1 <1>   0.3430 
 12 C        3.3700     2.9210    -0.7960 C.3   1 <1>  -0.0800 
 13 N       -2.4270    -0.7630     0.5200 N.2   1 <1>  -0.7070 
 14 C       -2.0390     1.4040    -0.5630 C.3   1 <1>  -0.0590 
 15 N       -1.8090    -1.9510     0.5890 N.pl3 1 <1>   0.3140 
 16 O        2.9560     2.9290     1.5740 O.3   1 <1>  -0.5600 
 17 N        4.0940     0.4940    -0.3930 N.4   1 <1>  -0.9590 
 18 C        3.0680     3.7490     0.4610 C.3   1 <1>   0.1200 
 19 C        4.5190     1.9170    -0.5840 C.3   1 <1>   0.3430 
 20 C       -2.3960    -3.0940     1.3190 C.3   1 <1>   0.0960 
 21 C        5.2710    -0.4200    -0.3480 C.3   1 <1>   0.2630 
 22 C       -3.0910    -4.0660     0.3570 C.3   1 <1>  -0.2400 
 23 H        1.1030     0.2890     1.1280 H     1 <1>   0.0800 
 24 H        2.4060     1.9060    -2.3950 H     1 <1>   0.0800 
 25 H        1.4280     3.1330    -1.6820 H     1 <1>   0.0800 
 26 H        0.0080    -2.7750    -0.1530 H     1 <1>   0.1500 
 27 H        1.6960     1.8490     2.6700 H     1 <1>   0.0800 
 28 H        0.9270     2.8220     1.4460 H     1 <1>   0.0800 
 29 H        3.0350    -0.7750     0.9170 H     1 <1>   0.0800 
 30 H        3.7120     0.6200     1.6940 H     1 <1>   0.0800 
 31 H        3.7430     3.6390    -1.5040 H     1 <1>   0.0800 
 32 H       -1.9990     1.5500    -1.6270 H     1 <1>   0.0800 
 33 H       -1.3710     2.0930    -0.0820 H     1 <1>   0.0800 
 34 H       -3.0410     1.6060    -0.2300 H     1 <1>   0.0800 
 35 H        3.5040     0.2000    -1.1990 H     1 <1>   0.4500 
 36 H        2.1680     4.3340     0.3530 H     1 <1>   0.0800 
 37 H        3.8830     4.4250     0.6570 H     1 <1>   0.0800 
 38 H        5.1030     2.2350     0.2650 H     1 <1>   0.0800 
 39 H        5.1600     1.9630    -1.4500 H     1 <1>   0.0800 
 40 H       -1.6130    -3.5970     1.8570 H     1 <1>   0.0800 
 41 H       -3.1070    -2.7100     2.0280 H     1 <1>   0.0800 
 42 H        5.8920    -0.1910     0.5020 H     1 <1>   0.0800 
 43 H        5.8580    -0.3160    -1.2460 H     1 <1>   0.0800 
 44 H        4.9430    -1.4450    -0.2740 H     1 <1>   0.0800 
 45 H       -2.3870    -4.4690    -0.3490 H     1 <1>   0.0800 
 46 H       -3.8770    -3.5570    -0.1750 H     1 <1>   0.0800 
 47 H       -3.5260    -4.8790     0.9110 H     1 <1>   0.0800 
@<TRIPOS>BOND
  1   1   2  2   
  2   1   3  2   
  3   1   4  am  
  4   1   5  1   
  5   4   6  1   
  6   4   7  1   
  7   5   8  1   
  8   5   9  2   
  9   6  10  1   
 10   6  11  1   
 11   6  23  1   
 12   7  12  1   
 13   7  24  1   
 14   7  25  1   
 15   8  13  2   
 16   8  14  1   
 17   9  15  1   
 18   9  26  1   
 19  10  16  1   
 20  10  27  1   
 21  10  28  1   
 22  11  17  1   
 23  11  29  1   
 24  11  30  1   
 25  12  18  1   
 26  12  19  1   
 27  12  31  1   
 28  13  15  1   
 29  14  32  1   
 30  14  33  1   
 31  14  34  1   
 32  15  20  1   
 33  16  18  1   
 34  17  19  1   
 35  17  21  1   
 36  17  35  1   
 37  18  36  1   
 38  18  37  1   
 39  19  38  1   
 40  19  39  1   
 41  20  22  1   
 42  20  40  1   
 43  20  41  1   
 44  21  42  1   
 45  21  43  1   
 46  21  44  1   
 47  22  45  1   
 48  22  46  1   
 49  22  47  1   
@<TRIPOS>SUBSTRUCTURE
  1 ****   4 GROUP 4 **** **** 0

# MOE 2024.06 (io_trps.svl 2023.06)
