@<TRIPOS>MOLECULE
NONAME
42 44 1 0 0 
SMALL
USER_CHARGES


@<TRIPOS>ATOM
  1 O       -0.5940     0.2620     0.1090 O.co2 1 <1>  -0.9000 
  2 C       -1.6490     0.2090    -0.5130 C.2   1 <1>   0.9060 
  3 O       -1.7540     0.3060    -1.7340 O.co2 1 <1>  -0.9000 
  4 C       -2.8730    -0.1870     0.2270 C.3   1 <1>  -0.2660 
  5 C       -2.9420    -1.6640    -0.0570 C.3   1 <1>   0.3430 
  6 N       -4.2490    -2.1970     0.4020 N.4   1 <1>  -0.9590 
  7 C       -5.3670    -1.7700    -0.4820 C.3   1 <1>   0.3430 
  8 C       -4.2700    -3.6810     0.3770 C.3   1 <1>   0.3430 
  9 C       -6.4630    -2.8180    -0.2750 C.3   1 <1>   0.2000 
 10 C       -5.7310    -4.0990     0.1450 C.3   1 <1>  -0.0800 
 11 O       -7.3050    -2.4240     0.7570 O.3   1 <1>  -0.6800 
 12 C       -5.8480    -5.2050    -0.9200 C.3   1 <1>  -0.0170 
 13 C       -5.0710    -6.4470    -0.5140 C.ar  1 <1>   0.1670 
 14 N       -3.7820    -6.4070    -0.6550 N.ar  1 <1>  -0.6200 
 15 C       -5.7640    -7.5560    -0.0020 C.ar  1 <1>  -0.1500 
 16 C       -3.0700    -7.5070    -0.2950 C.ar  1 <1>   0.3100 
 17 C       -5.0750    -8.6680     0.3760 C.ar  1 <1>  -0.1500 
 18 C       -3.6770    -8.6650     0.2370 C.ar  1 <1>   0.0000 
 19 C       -1.6740    -7.4940    -0.4480 C.ar  1 <1>  -0.1500 
 20 C       -2.8660    -9.7580     0.6010 C.ar  1 <1>  -0.1500 
 21 C       -0.9030    -8.5680    -0.0890 C.ar  1 <1>  -0.1500 
 22 C       -1.5070    -9.7110     0.4430 C.ar  1 <1>  -0.1500 
 23 H       -2.7400     0.0200     1.2710 H     1 <1>   0.0800 
 24 H       -3.6950     0.3660    -0.1810 H     1 <1>   0.0800 
 25 H       -2.1270    -2.1540     0.4530 H     1 <1>   0.0800 
 26 H       -2.8210    -1.8310    -1.1170 H     1 <1>   0.0800 
 27 H       -4.4100    -1.8540     1.3550 H     1 <1>   0.4500 
 28 H       -5.7160    -0.7770    -0.2490 H     1 <1>   0.0800 
 29 H       -5.0390    -1.7980    -1.5080 H     1 <1>   0.0800 
 30 H       -3.6670    -4.0290    -0.4470 H     1 <1>   0.0800 
 31 H       -3.8770    -4.1010     1.2890 H     1 <1>   0.0800 
 32 H       -7.0650    -2.9340    -1.1610 H     1 <1>   0.0800 
 33 H       -6.1320    -4.4830     1.0670 H     1 <1>   0.0800 
 34 H       -6.8720    -2.4750     1.6320 H     1 <1>   0.4000 
 35 H       -5.4660    -4.8560    -1.8640 H     1 <1>   0.0800 
 36 H       -6.8840    -5.4590    -1.0640 H     1 <1>   0.0800 
 37 H       -6.8350    -7.5210     0.0870 H     1 <1>   0.1500 
 38 H       -5.5690    -9.5370     0.7720 H     1 <1>   0.1500 
 39 H       -1.2250    -6.6100    -0.8620 H     1 <1>   0.1500 
 40 H       -3.3350   -10.6360     1.0070 H     1 <1>   0.1500 
 41 H        0.1670    -8.5470    -0.2110 H     1 <1>   0.1500 
 42 H       -0.8900   -10.5480     0.7220 H     1 <1>   0.1500 
@<TRIPOS>BOND
  1   1   2  ar  
  2   2   3  ar  
  3   2   4  1   
  4   4   5  1   
  5   4  23  1   
  6   4  24  1   
  7   5   6  1   
  8   5  25  1   
  9   5  26  1   
 10   6   7  1   
 11   6   8  1   
 12   6  27  1   
 13   7   9  1   
 14   7  28  1   
 15   7  29  1   
 16   8  10  1   
 17   8  30  1   
 18   8  31  1   
 19   9  10  1   
 20   9  11  1   
 21   9  32  1   
 22  10  12  1   
 23  10  33  1   
 24  11  34  1   
 25  12  13  1   
 26  12  35  1   
 27  12  36  1   
 28  13  14  ar  
 29  13  15  ar  
 30  14  16  ar  
 31  15  17  ar  
 32  15  37  1   
 33  16  18  ar  
 34  16  19  ar  
 35  17  18  ar  
 36  17  38  1   
 37  18  20  ar  
 38  19  21  ar  
 39  19  39  1   
 40  20  22  ar  
 41  20  40  1   
 42  21  22  ar  
 43  21  41  1   
 44  22  42  1   
@<TRIPOS>SUBSTRUCTURE
  1 ****   8 GROUP 4 **** **** 0

# MOE 2024.06 (io_trps.svl 2023.06)
