@<TRIPOS>MOLECULE
NONAME
56 59 1 0 0 
SMALL
USER_CHARGES


@<TRIPOS>ATOM
  1 O        0.0980     0.5010    -1.5040 O.2   1 <1>  -0.5700 
  2 C        0.9870    -0.0590    -0.8920 C.2   1 <1>   0.7160 
  3 N        2.0200     0.6600    -0.3450 N.am  1 <1>  -0.4940 
  4 C        0.9780    -1.4930    -0.7440 C.2   1 <1>  -0.0860 
  5 C        2.3560     2.0340    -0.3490 C.2   1 <1>  -0.0880 
  6 C        1.8580    -2.3180    -0.1130 C.2   1 <1>  -0.0100 
  7 C       -0.0020    -2.3710    -1.2530 C.2   1 <1>  -0.1500 
  8 N        1.5390     3.1220    -0.4240 N.pl3 1 <1>   0.3140 
  9 C        3.6290     2.5090    -0.2360 C.2   1 <1>  -0.0540 
 10 O        1.4910    -3.5710    -0.2070 O.3   1 <1>  -0.2800 
 11 C        0.3650    -3.6180    -0.8910 C.2   1 <1>  -0.0400 
 12 N        2.2470     4.2710    -0.3690 N.2   1 <1>  -0.7070 
 13 C        0.0720     3.1890    -0.4700 C.3   1 <1>   0.0160 
 14 C        4.8480     1.7520    -0.1100 C.ar  1 <1>   0.0540 
 15 C        3.4790     3.8990    -0.2650 C.2   1 <1>   0.1080 
 16 C       -0.2990    -4.9620    -1.1580 C.3   1 <1>   0.2900 
 17 C        5.6680     1.8890     1.0070 C.ar  1 <1>  -0.1500 
 18 C        5.2340     0.8510    -1.0990 C.ar  1 <1>  -0.1500 
 19 C        4.6100     4.9010    -0.1910 C.3   1 <1>  -0.0590 
 20 N       -0.8260    -5.5760     0.0740 N.3   1 <1>  -0.8100 
 21 C        6.8330     1.1540     1.1380 C.ar  1 <1>  -0.1500 
 22 C        6.3950     0.1120    -0.9750 C.ar  1 <1>  -0.1500 
 23 C       -1.3530    -6.9270    -0.1890 C.3   1 <1>   0.1100 
 24 C       -1.8690    -4.7450     0.7100 C.3   1 <1>   0.1100 
 25 C        7.2040     0.2560     0.1410 C.ar  1 <1>   0.0830 
 26 C       -1.9470    -7.5490     1.0880 C.3   1 <1>   0.1200 
 27 C       -2.4510    -5.4410     1.9540 C.3   1 <1>   0.1200 
 28 O        8.3270    -0.5040     0.1860 O.3   1 <1>  -0.3630 
 29 O       -2.9320    -6.7140     1.6260 O.3   1 <1>  -0.5600 
 30 C        9.2400    -0.3990     1.2560 C.3   1 <1>   0.0400 
 31 H        2.7640     0.0690     0.0240 H     1 <1>   0.3700 
 32 H        2.7640    -2.0950     0.4230 H     1 <1>   0.1500 
 33 H       -0.8630    -2.0580    -1.8180 H     1 <1>   0.1500 
 34 H       -0.3410     2.4330     0.1700 H     1 <1>   0.0800 
 35 H       -0.2540     3.0350    -1.4810 H     1 <1>   0.0800 
 36 H       -0.2470     4.1580    -0.1340 H     1 <1>   0.0800 
 37 H        0.4320    -5.6180    -1.5960 H     1 <1>   0.0800 
 38 H       -1.1000    -4.8300    -1.8650 H     1 <1>   0.0800 
 39 H        5.3810     2.5790     1.7810 H     1 <1>   0.1500 
 40 H        4.6170     0.7390    -1.9730 H     1 <1>   0.1500 
 41 H        5.4990     4.4960    -0.6370 H     1 <1>   0.0800 
 42 H        4.8060     5.1500     0.8350 H     1 <1>   0.0800 
 43 H        4.3340     5.7960    -0.7190 H     1 <1>   0.0800 
 44 H        7.4340     1.2910     2.0160 H     1 <1>   0.1500 
 45 H        6.6870    -0.5800    -1.7440 H     1 <1>   0.1500 
 46 H       -0.5580    -7.5580    -0.5480 H     1 <1>   0.0800 
 47 H       -2.1210    -6.8860    -0.9430 H     1 <1>   0.0800 
 48 H       -2.6660    -4.5520     0.0130 H     1 <1>   0.0800 
 49 H       -1.4460    -3.8020     1.0110 H     1 <1>   0.0800 
 50 H       -1.1790    -7.6990     1.8260 H     1 <1>   0.0800 
 51 H       -2.4050    -8.4960     0.8650 H     1 <1>   0.0800 
 52 H       -3.2710    -4.8710     2.3510 H     1 <1>   0.0800 
 53 H       -1.6960    -5.5420     2.7140 H     1 <1>   0.0800 
 54 H       10.0530    -1.0780     1.0690 H     1 <1>   0.0800 
 55 H        8.7420    -0.6690     2.1700 H     1 <1>   0.0800 
 56 H        9.6110     0.6100     1.3010 H     1 <1>   0.0800 
@<TRIPOS>BOND
  1   1   2  2   
  2   2   3  am  
  3   2   4  1   
  4   3   5  1   
  5   3  31  1   
  6   4   6  2   
  7   4   7  1   
  8   5   8  1   
  9   5   9  2   
 10   6  10  1   
 11   6  32  1   
 12   7  11  2   
 13   7  33  1   
 14   8  12  1   
 15   8  13  1   
 16   9  14  1   
 17   9  15  1   
 18  10  11  1   
 19  11  16  1   
 20  12  15  2   
 21  13  34  1   
 22  13  35  1   
 23  13  36  1   
 24  14  17  ar  
 25  14  18  ar  
 26  15  19  1   
 27  16  20  1   
 28  16  37  1   
 29  16  38  1   
 30  17  21  ar  
 31  17  39  1   
 32  18  22  ar  
 33  18  40  1   
 34  19  41  1   
 35  19  42  1   
 36  19  43  1   
 37  20  23  1   
 38  20  24  1   
 39  21  25  ar  
 40  21  44  1   
 41  22  25  ar  
 42  22  45  1   
 43  23  26  1   
 44  23  46  1   
 45  23  47  1   
 46  24  27  1   
 47  24  48  1   
 48  24  49  1   
 49  25  28  1   
 50  26  29  1   
 51  26  50  1   
 52  26  51  1   
 53  27  29  1   
 54  27  52  1   
 55  27  53  1   
 56  28  30  1   
 57  30  54  1   
 58  30  55  1   
 59  30  56  1   
@<TRIPOS>SUBSTRUCTURE
  1 ****   6 GROUP 4 **** **** 0

# MOE 2024.06 (io_trps.svl 2023.06)
