@<TRIPOS>MOLECULE
NONAME
36 37 1 0 0 
SMALL
USER_CHARGES


@<TRIPOS>ATOM
  1 O       -0.3440     0.2670     0.7550 O.2   1 <1>  -0.5700 
  2 C       -1.3250     0.7980     0.2680 C.2   1 <1>   0.5440 
  3 N       -2.3480     0.0060    -0.2020 N.am  1 <1>  -0.6600 
  4 C       -1.3830     2.2460     0.1960 C.ar  1 <1>   0.0860 
  5 C       -2.4230    -1.4540     0.1500 C.3   1 <1>   0.1400 
  6 C       -3.4410     0.4800    -1.0940 C.3   1 <1>   0.1400 
  7 C       -2.4380     2.9630     0.7600 C.ar  1 <1>  -0.1500 
  8 C       -0.3750     2.9730    -0.4320 C.ar  1 <1>  -0.1500 
  9 C       -3.8640    -2.0100     0.1530 C.3   1 <1>   0.2000 
 10 C       -4.8080     0.3050    -0.4120 C.3   1 <1>  -0.1600 
 11 C       -2.4930     4.3430     0.6850 C.ar  1 <1>  -0.1500 
 12 C       -0.4240     4.3530    -0.5100 C.ar  1 <1>  -0.1500 
 13 O       -4.1920    -2.4880    -1.1070 O.3   1 <1>  -0.6800 
 14 C       -4.8820    -0.9250     0.5320 C.3   1 <1>  -0.1860 
 15 C       -1.4850     5.0500     0.0470 C.ar  1 <1>  -0.1440 
 16 C       -6.2760    -1.5110     0.6140 C.2   1 <1>   0.9060 
 17 C       -1.5340     6.5650    -0.0380 C.3   1 <1>   0.2640 
 18 O       -6.9360    -1.3330     1.6400 O.co2 1 <1>  -0.9000 
 19 O       -6.7010    -2.1620    -0.3510 O.co2 1 <1>  -0.9000 
 20 O       -0.5200     7.0620     0.7530 O.3   1 <1>  -0.6800 
 21 H       -1.8150    -2.0240    -0.5300 H     1 <1>   0.0800 
 22 H       -2.0180    -1.5790     1.1380 H     1 <1>   0.0800 
 23 H       -3.2980     1.5040    -1.3880 H     1 <1>   0.0800 
 24 H       -3.4210    -0.1190    -1.9890 H     1 <1>   0.0800 
 25 H       -3.2190     2.4200     1.2630 H     1 <1>   0.1500 
 26 H        0.4560     2.4380    -0.8590 H     1 <1>   0.1500 
 27 H       -3.9370    -2.8420     0.8320 H     1 <1>   0.0800 
 28 H       -5.0590     1.1890     0.1440 H     1 <1>   0.0800 
 29 H       -5.5480     0.2000    -1.1870 H     1 <1>   0.0800 
 30 H       -3.3250     4.8620     1.1300 H     1 <1>   0.1500 
 31 H        0.3710     4.8890    -1.0010 H     1 <1>   0.1500 
 32 H       -5.1940    -2.5400    -1.1150 H     1 <1>   0.4000 
 33 H       -4.6290    -0.5930     1.5210 H     1 <1>   0.0800 
 34 H       -2.4690     6.9500     0.3320 H     1 <1>   0.0800 
 35 H       -1.3770     6.9090    -1.0460 H     1 <1>   0.0800 
 36 H       -0.3990     6.4660     1.5170 H     1 <1>   0.4000 
@<TRIPOS>BOND
  1   1   2  2   
  2   2   3  am  
  3   2   4  1   
  4   3   5  1   
  5   3   6  1   
  6   4   7  ar  
  7   4   8  ar  
  8   5   9  1   
  9   5  21  1   
 10   5  22  1   
 11   6  10  1   
 12   6  23  1   
 13   6  24  1   
 14   7  11  ar  
 15   7  25  1   
 16   8  12  ar  
 17   8  26  1   
 18   9  13  1   
 19   9  14  1   
 20   9  27  1   
 21  10  14  1   
 22  10  28  1   
 23  10  29  1   
 24  11  15  ar  
 25  11  30  1   
 26  12  15  ar  
 27  12  31  1   
 28  13  32  1   
 29  14  16  1   
 30  14  33  1   
 31  15  17  1   
 32  16  18  ar  
 33  16  19  ar  
 34  17  20  1   
 35  17  34  1   
 36  17  35  1   
 37  20  36  1   
@<TRIPOS>SUBSTRUCTURE
  1 ****   3 GROUP 4 **** **** 0

# MOE 2024.06 (io_trps.svl 2023.06)
