@<TRIPOS>MOLECULE
NONAME
46 48 1 0 0 
SMALL
USER_CHARGES


@<TRIPOS>ATOM
  1 O       -5.2820    -1.7390    -2.7440 O.co2 1 <1>  -0.9000 
  2 C       -4.1480    -1.3340    -2.4200 C.2   1 <1>   0.9790 
  3 O       -3.2440    -1.3120    -3.2700 O.co2 1 <1>  -0.9000 
  4 C       -3.9140    -1.0500    -1.0220 C.ar  1 <1>  -0.1790 
  5 C       -3.6380     0.1850    -0.4080 C.ar  1 <1>   0.0820 
  6 C       -4.1230    -2.1430    -0.1900 C.ar  1 <1>  -0.1500 
  7 O       -3.3770     1.3600    -1.0340 O.3   1 <1>  -0.3630 
  8 C       -3.6540     0.2770     0.9770 C.ar  1 <1>  -0.1500 
  9 C       -4.2290    -2.0320     1.1840 C.ar  1 <1>  -0.1430 
 10 C       -3.0380     1.4560    -2.3990 C.3   1 <1>   0.0400 
 11 C       -3.9650    -0.8080     1.7750 C.ar  1 <1>  -0.1500 
 12 C       -4.7210    -3.2180     1.9960 C.3   1 <1>   0.4870 
 13 N       -5.8300    -3.8890     1.2530 N.4   1 <1>  -0.9590 
 14 C       -6.8860    -2.9870     0.6720 C.3   1 <1>   0.3430 
 15 C       -6.4550    -5.0830     1.9010 C.3   1 <1>   0.3430 
 16 C       -7.5850    -3.7290    -0.4900 C.3   1 <1>   0.1100 
 17 C       -7.5240    -5.7120     0.9710 C.3   1 <1>   0.1100 
 18 N       -7.3960    -5.2060    -0.4200 N.3   1 <1>  -0.8100 
 19 C       -8.2550    -5.8990    -1.4020 C.3   1 <1>   0.2900 
 20 C       -7.9290    -7.3820    -1.4960 C.2   1 <1>  -0.0400 
 21 O       -8.5110    -8.2330    -0.6690 O.3   1 <1>  -0.2800 
 22 C       -7.1040    -8.0370    -2.3410 C.2   1 <1>  -0.1500 
 23 C       -8.0730    -9.4400    -0.9670 C.2   1 <1>  -0.0100 
 24 C       -7.1980    -9.3900    -1.9930 C.2   1 <1>  -0.1500 
 25 H       -4.2690    -3.0900    -0.6840 H     1 <1>   0.1500 
 26 H       -3.4360     1.2300     1.4250 H     1 <1>   0.1500 
 27 H       -2.7580     2.4720    -2.6050 H     1 <1>   0.0800 
 28 H       -3.8910     1.1870    -2.9960 H     1 <1>   0.0800 
 29 H       -2.2080     0.8020    -2.5990 H     1 <1>   0.0800 
 30 H       -4.0070    -0.6800     2.8420 H     1 <1>   0.1500 
 31 H       -5.0760    -2.8730     2.9520 H     1 <1>   0.0800 
 32 H       -3.9080    -3.9080     2.1540 H     1 <1>   0.0800 
 33 H       -5.4210    -4.2760     0.3860 H     1 <1>   0.4500 
 34 H       -6.4650    -2.0710     0.2880 H     1 <1>   0.0800 
 35 H       -7.6070    -2.7280     1.4280 H     1 <1>   0.0800 
 36 H       -6.9100    -4.8100     2.8380 H     1 <1>   0.0800 
 37 H       -5.6960    -5.8220     2.1000 H     1 <1>   0.0800 
 38 H       -7.1730    -3.3680    -1.4200 H     1 <1>   0.0800 
 39 H       -8.6330    -3.4800    -0.4830 H     1 <1>   0.0800 
 40 H       -8.5090    -5.4940     1.3460 H     1 <1>   0.0800 
 41 H       -7.3960    -6.7800     0.9950 H     1 <1>   0.0800 
 42 H       -8.0920    -5.4600    -2.3720 H     1 <1>   0.0800 
 43 H       -9.2940    -5.7760    -1.1480 H     1 <1>   0.0800 
 44 H       -6.4900    -7.6330    -3.1280 H     1 <1>   0.1500 
 45 H       -8.4370   -10.2800    -0.4020 H     1 <1>   0.1500 
 46 H       -6.6680   -10.1960    -2.4690 H     1 <1>   0.1500 
@<TRIPOS>BOND
  1   1   2  ar  
  2   2   3  ar  
  3   2   4  1   
  4   4   5  ar  
  5   4   6  ar  
  6   5   7  1   
  7   5   8  ar  
  8   6   9  ar  
  9   6  25  1   
 10   7  10  1   
 11   8  11  ar  
 12   8  26  1   
 13   9  11  ar  
 14   9  12  1   
 15  10  27  1   
 16  10  28  1   
 17  10  29  1   
 18  11  30  1   
 19  12  13  1   
 20  12  31  1   
 21  12  32  1   
 22  13  14  1   
 23  13  15  1   
 24  13  33  1   
 25  14  16  1   
 26  14  34  1   
 27  14  35  1   
 28  15  17  1   
 29  15  36  1   
 30  15  37  1   
 31  16  18  1   
 32  16  38  1   
 33  16  39  1   
 34  17  18  1   
 35  17  40  1   
 36  17  41  1   
 37  18  19  1   
 38  19  20  1   
 39  19  42  1   
 40  19  43  1   
 41  20  21  1   
 42  20  22  2   
 43  21  23  1   
 44  22  24  1   
 45  22  44  1   
 46  23  24  2   
 47  23  45  1   
 48  24  46  1   
@<TRIPOS>SUBSTRUCTURE
  1 ****  14 GROUP 4 **** **** 0

# MOE 2024.06 (io_trps.svl 2023.06)
