@<TRIPOS>MOLECULE
NONAME
53 56 1 0 0 
SMALL
USER_CHARGES


@<TRIPOS>ATOM
  1 S       -0.5740     0.0840     0.5180 S.o2  1 <1>   1.2040 
  2 O       -0.3760    -0.2670     1.9060 O.2   1 <1>  -0.6500 
  3 O       -0.7850     1.4650     0.1460 O.2   1 <1>  -0.6500 
  4 C       -1.8920    -0.9430    -0.1780 C.ar  1 <1>  -0.0090 
  5 C        0.8550    -0.4900    -0.3790 C.3   1 <1>  -0.1350 
  6 C       -2.0250    -2.2750     0.1890 C.ar  1 <1>  -0.1500 
  7 C       -2.7850    -0.4350    -1.1140 C.ar  1 <1>  -0.1500 
  8 C       -3.0040    -3.1080    -0.3480 C.ar  1 <1>   0.0860 
  9 C       -3.7680    -1.2360    -1.6680 C.ar  1 <1>  -0.1500 
 10 C       -3.0850    -4.4980     0.0570 C.2   1 <1>   0.5440 
 11 C       -3.8700    -2.5600    -1.2910 C.ar  1 <1>  -0.1500 
 12 O       -2.1140    -5.2140    -0.0950 O.2   1 <1>  -0.5700 
 13 N       -4.2180    -5.0330     0.6240 N.am  1 <1>  -0.6600 
 14 C       -5.4460    -4.3080     1.0120 C.3   1 <1>   0.1400 
 15 C       -4.3940    -6.4730     0.8880 C.3   1 <1>   0.1400 
 16 C       -6.5700    -5.3450     0.9000 C.3   1 <1>  -0.0800 
 17 C       -5.8900    -6.7230     0.6860 C.3   1 <1>  -0.0800 
 18 C       -7.6540    -4.9670    -0.1400 C.3   1 <1>   0.4240 
 19 C       -6.1630    -7.3520    -0.6930 C.3   1 <1>  -0.1600 
 20 O       -7.0350    -4.5910    -1.3210 O.3   1 <1>  -0.6800 
 21 C       -8.5230    -3.8010     0.3770 C.ar  1 <1>  -0.1430 
 22 C       -8.4850    -6.2140    -0.4860 C.3   1 <1>  -0.1600 
 23 C       -7.6610    -7.3920    -1.0540 C.3   1 <1>  -0.1600 
 24 C       -9.3900    -4.0010     1.4490 C.ar  1 <1>  -0.1500 
 25 C       -8.4680    -2.5270    -0.1830 C.ar  1 <1>  -0.1500 
 26 C      -10.1740    -2.9710     1.9400 C.ar  1 <1>  -0.1500 
 27 C       -9.2490    -1.4940     0.3060 C.ar  1 <1>  -0.1500 
 28 C      -10.1050    -1.7150     1.3680 C.ar  1 <1>  -0.1500 
 29 H        1.0130    -1.5360    -0.2020 H     1 <1>   0.0800 
 30 H        1.7270     0.0460    -0.0580 H     1 <1>   0.0800 
 31 H        0.7250    -0.3310    -1.4310 H     1 <1>   0.0800 
 32 H       -1.3490    -2.6930     0.9170 H     1 <1>   0.1500 
 33 H       -2.7130     0.5980    -1.4130 H     1 <1>   0.1500 
 34 H       -4.4510    -0.8270    -2.3940 H     1 <1>   0.1500 
 35 H       -4.6310    -3.1840    -1.7310 H     1 <1>   0.1500 
 36 H       -5.3500    -3.9780     2.0320 H     1 <1>   0.0800 
 37 H       -5.6220    -3.4490     0.3910 H     1 <1>   0.0800 
 38 H       -3.7860    -7.0690     0.2280 H     1 <1>   0.0800 
 39 H       -4.1110    -6.6750     1.9070 H     1 <1>   0.0800 
 40 H       -7.0520    -5.3830     1.8590 H     1 <1>   0.0800 
 41 H       -6.2330    -7.4150     1.4370 H     1 <1>   0.0800 
 42 H       -5.6280    -6.7970    -1.4450 H     1 <1>   0.0800 
 43 H       -5.7680    -8.3530    -0.7170 H     1 <1>   0.0800 
 44 H       -6.5360    -5.3650    -1.6380 H     1 <1>   0.4000 
 45 H       -8.9670    -6.5580     0.4110 H     1 <1>   0.0800 
 46 H       -9.2670    -5.9420    -1.1730 H     1 <1>   0.0800 
 47 H       -8.0880    -8.3110    -0.6920 H     1 <1>   0.0800 
 48 H       -7.7530    -7.4040    -2.1280 H     1 <1>   0.0800 
 49 H       -9.4660    -4.9640     1.9200 H     1 <1>   0.1500 
 50 H       -7.8130    -2.3200    -1.0110 H     1 <1>   0.1500 
 51 H      -10.8390    -3.1470     2.7670 H     1 <1>   0.1500 
 52 H       -9.1910    -0.5190    -0.1440 H     1 <1>   0.1500 
 53 H      -10.7140    -0.9130     1.7470 H     1 <1>   0.1500 
@<TRIPOS>BOND
  1   1   2  2   
  2   1   3  2   
  3   1   4  1   
  4   1   5  1   
  5   4   6  ar  
  6   4   7  ar  
  7   5  29  1   
  8   5  30  1   
  9   5  31  1   
 10   6   8  ar  
 11   6  32  1   
 12   7   9  ar  
 13   7  33  1   
 14   8  10  1   
 15   8  11  ar  
 16   9  11  ar  
 17   9  34  1   
 18  10  12  2   
 19  10  13  am  
 20  11  35  1   
 21  13  14  1   
 22  13  15  1   
 23  14  16  1   
 24  14  36  1   
 25  14  37  1   
 26  15  17  1   
 27  15  38  1   
 28  15  39  1   
 29  16  17  1   
 30  16  18  1   
 31  16  40  1   
 32  17  19  1   
 33  17  41  1   
 34  18  20  1   
 35  18  21  1   
 36  18  22  1   
 37  19  23  1   
 38  19  42  1   
 39  19  43  1   
 40  20  44  1   
 41  21  24  ar  
 42  21  25  ar  
 43  22  23  1   
 44  22  45  1   
 45  22  46  1   
 46  23  47  1   
 47  23  48  1   
 48  24  26  ar  
 49  24  49  1   
 50  25  27  ar  
 51  25  50  1   
 52  26  28  ar  
 53  26  51  1   
 54  27  28  ar  
 55  27  52  1   
 56  28  53  1   
@<TRIPOS>SUBSTRUCTURE
  1 ****  14 GROUP 4 **** **** 0

# MOE 2024.06 (io_trps.svl 2023.06)
