@<TRIPOS>MOLECULE
NONAME
46 49 1 0 0 
SMALL
USER_CHARGES


@<TRIPOS>ATOM
  1 O        0.6170     0.7900    -1.0760 O.2   1 <1>  -0.5700 
  2 C        0.3930     1.9400    -0.7270 C.2   1 <1>   0.7160 
  3 N       -0.8290     2.4980    -1.0890 N.am  1 <1>  -0.6600 
  4 C        1.3980     2.6840     0.0480 C.2   1 <1>   0.4300 
  5 C       -1.3220     3.8090    -0.5980 C.3   1 <1>   0.1400 
  6 C       -1.8040     1.7950    -1.9650 C.3   1 <1>   0.1400 
  7 N        1.9490     3.8180    -0.3500 N.2   1 <1>  -0.7070 
  8 N        1.8240     2.2520     1.2590 N.2   1 <1>  -0.5650 
  9 C       -2.6110     3.5910     0.2000 C.3   1 <1>  -0.1600 
 10 C       -3.0980     1.5580    -1.1830 C.3   1 <1>  -0.1600 
 11 N        2.7840     4.0980     0.6310 N.pl3 1 <1>   0.6010 
 12 C        2.6880     3.1450     1.5970 C.2   1 <1>   0.3120 
 13 C       -3.6980     2.8610    -0.6230 C.3   1 <1>   0.2800 
 14 C        3.6560     5.1550     0.7840 C.2   1 <1>  -0.1810 
 15 N        3.4230     3.1740     2.7590 N.2   1 <1>  -0.5760 
 16 O       -4.0460     3.6300    -1.7410 O.3   1 <1>  -0.5600 
 17 C       -4.9710     2.5160     0.1840 C.3   1 <1>  -0.1600 
 18 C        4.3940     5.1960     1.9240 C.2   1 <1>  -0.1360 
 19 C        4.2390     4.1660     2.8960 C.2   1 <1>   0.3760 
 20 C       -4.7890     4.7980    -1.5570 C.3   1 <1>   0.1200 
 21 C       -5.9470     3.6790     0.4020 C.3   1 <1>   0.2800 
 22 C       -6.1290     4.4580    -0.9040 C.3   1 <1>  -0.1600 
 23 O       -5.4020     4.5420     1.3400 O.3   1 <1>  -0.6800 
 24 C       -7.2980     3.1740     0.9580 C.3   1 <1>   0.1200 
 25 O       -8.0970     4.2410     1.3480 O.3   1 <1>  -0.6800 
 26 H       -1.5150     4.4500    -1.4420 H     1 <1>   0.0800 
 27 H       -0.5930     4.2910     0.0280 H     1 <1>   0.0800 
 28 H       -1.4090     0.8540    -2.3080 H     1 <1>   0.0800 
 29 H       -2.0040     2.4050    -2.8300 H     1 <1>   0.0800 
 30 H       -2.9530     4.5400     0.5580 H     1 <1>   0.0800 
 31 H       -2.3710     3.0000     1.0660 H     1 <1>   0.0800 
 32 H       -2.8840     0.8800    -0.3760 H     1 <1>   0.0800 
 33 H       -3.8100     1.0800    -1.8290 H     1 <1>   0.0800 
 34 H        3.6910     5.8740    -0.0140 H     1 <1>   0.1500 
 35 H       -4.7030     2.0800     1.1300 H     1 <1>   0.0800 
 36 H       -5.5020     1.7580    -0.3610 H     1 <1>   0.0800 
 37 H        5.0990     5.9820     2.1280 H     1 <1>   0.1500 
 38 H        4.8380     4.2290     3.7880 H     1 <1>   0.0600 
 39 H       -4.9530     5.2320    -2.5280 H     1 <1>   0.0800 
 40 H       -4.2210     5.4950    -0.9680 H     1 <1>   0.0800 
 41 H       -6.6950     3.8630    -1.5980 H     1 <1>   0.0800 
 42 H       -6.6910     5.3570    -0.7240 H     1 <1>   0.0800 
 43 H       -4.5500     4.8760     1.0090 H     1 <1>   0.4000 
 44 H       -7.1330     2.5530     1.8210 H     1 <1>   0.0800 
 45 H       -7.8340     2.6060     0.2190 H     1 <1>   0.0800 
 46 H       -7.5260     4.8710     1.8380 H     1 <1>   0.4000 
@<TRIPOS>BOND
  1   1   2  2   
  2   2   3  am  
  3   2   4  1   
  4   3   5  1   
  5   3   6  1   
  6   4   7  2   
  7   4   8  1   
  8   5   9  1   
  9   5  26  1   
 10   5  27  1   
 11   6  10  1   
 12   6  28  1   
 13   6  29  1   
 14   7  11  1   
 15   8  12  2   
 16   9  13  1   
 17   9  30  1   
 18   9  31  1   
 19  10  13  1   
 20  10  32  1   
 21  10  33  1   
 22  11  12  1   
 23  11  14  1   
 24  12  15  1   
 25  13  16  1   
 26  13  17  1   
 27  14  18  2   
 28  14  34  1   
 29  15  19  2   
 30  16  20  1   
 31  17  21  1   
 32  17  35  1   
 33  17  36  1   
 34  18  19  1   
 35  18  37  1   
 36  19  38  1   
 37  20  22  1   
 38  20  39  1   
 39  20  40  1   
 40  21  22  1   
 41  21  23  1   
 42  21  24  1   
 43  22  41  1   
 44  22  42  1   
 45  23  43  1   
 46  24  25  1   
 47  24  44  1   
 48  24  45  1   
 49  25  46  1   
@<TRIPOS>SUBSTRUCTURE
  1 ****   5 GROUP 4 **** **** 0

# MOE 2024.06 (io_trps.svl 2023.06)
