@<TRIPOS>MOLECULE
NONAME
50 51 1 0 0 
SMALL
USER_CHARGES


@<TRIPOS>ATOM
  1 O       -0.0430     0.5050    -0.2500 O.2   1 <1>  -0.5700 
  2 C       -0.0500     1.7120    -0.1830 C.2   1 <1>   0.5690 
  3 N       -1.1500     2.4180     0.2230 N.am  1 <1>  -0.6600 
  4 C        1.2180     2.4570    -0.6030 C.3   1 <1>   0.1810 
  5 C       -1.1370     3.9190     0.2930 C.3   1 <1>   0.3640 
  6 C       -2.3840     1.7460     0.7250 C.3   1 <1>   0.0600 
  7 O        1.2940     3.7590    -0.0780 O.3   1 <1>  -0.5600 
  8 C       -2.3810     4.4630    -0.4300 C.ar  1 <1>  -0.1430 
  9 C        0.1440     4.5480    -0.3190 C.3   1 <1>   0.2610 
 10 C       -3.3220     5.2870     0.1910 C.ar  1 <1>  -0.1430 
 11 C       -2.5760     4.1080    -1.7610 C.ar  1 <1>  -0.1500 
 12 C        0.3690     5.9840     0.1850 C.2   1 <1>   0.5690 
 13 C       -4.4090     5.7510    -0.5350 C.ar  1 <1>  -0.1500 
 14 C       -3.2190     5.7080     1.6520 C.3   1 <1>  -0.0960 
 15 C       -3.6650     4.5720    -2.4750 C.ar  1 <1>  -0.1500 
 16 O        0.0470     6.2620     1.3200 O.2   1 <1>  -0.5700 
 17 N        0.9350     6.9380    -0.6320 N.am  1 <1>  -0.6600 
 18 C       -4.5830     5.4000    -1.8600 C.ar  1 <1>  -0.1500 
 19 C        1.0060     8.3640    -0.1950 C.3   1 <1>   0.1400 
 20 C        1.5840     6.6510    -1.9420 C.3   1 <1>   0.0600 
 21 C        2.2080     8.5830     0.7240 C.3   1 <1>   0.1200 
 22 O        2.3750     9.9530     0.9170 O.3   1 <1>  -0.5600 
 23 C        3.3850    10.2730     1.8130 C.3   1 <1>   0.1200 
 24 C        3.4530    11.7930     1.9040 C.3   1 <1>  -0.2400 
 25 H        1.2610     2.5170    -1.6740 H     1 <1>   0.0800 
 26 H        2.0770     1.9150    -0.2520 H     1 <1>   0.0800 
 27 H       -1.1670     4.1770     1.3350 H     1 <1>   0.0800 
 28 H       -2.6510     2.1430     1.6880 H     1 <1>   0.0800 
 29 H       -2.2280     0.6850     0.8220 H     1 <1>   0.0800 
 30 H       -3.1970     1.9110     0.0380 H     1 <1>   0.0800 
 31 H        0.0150     4.5940    -1.3830 H     1 <1>   0.0800 
 32 H       -1.8790     3.4540    -2.2540 H     1 <1>   0.1500 
 33 H       -5.1350     6.3950    -0.0710 H     1 <1>   0.1500 
 34 H       -4.1350     6.1610     1.9860 H     1 <1>   0.0800 
 35 H       -2.4310     6.4280     1.7770 H     1 <1>   0.0800 
 36 H       -3.0290     4.8590     2.2820 H     1 <1>   0.0800 
 37 H       -3.7990     4.2880    -3.5040 H     1 <1>   0.1500 
 38 H       -5.4320     5.7670    -2.4100 H     1 <1>   0.1500 
 39 H        1.0880     9.0040    -1.0560 H     1 <1>   0.0800 
 40 H        0.1060     8.6220     0.3370 H     1 <1>   0.0800 
 41 H        2.4300     7.3010    -2.0840 H     1 <1>   0.0800 
 42 H        0.8790     6.8160    -2.7390 H     1 <1>   0.0800 
 43 H        1.9360     5.6350    -1.9790 H     1 <1>   0.0800 
 44 H        3.1030     8.1930     0.2720 H     1 <1>   0.0800 
 45 H        2.0320     8.1130     1.6770 H     1 <1>   0.0800 
 46 H        3.1480     9.8450     2.7720 H     1 <1>   0.0800 
 47 H        4.3160     9.8720     1.4480 H     1 <1>   0.0800 
 48 H        2.5140    12.1820     2.2550 H     1 <1>   0.0800 
 49 H        3.6750    12.2100     0.9380 H     1 <1>   0.0800 
 50 H        4.2250    12.0830     2.5920 H     1 <1>   0.0800 
@<TRIPOS>BOND
  1   1   2  2   
  2   2   3  am  
  3   2   4  1   
  4   3   5  1   
  5   3   6  1   
  6   4   7  1   
  7   4  25  1   
  8   4  26  1   
  9   5   8  1   
 10   5   9  1   
 11   5  27  1   
 12   6  28  1   
 13   6  29  1   
 14   6  30  1   
 15   7   9  1   
 16   8  10  ar  
 17   8  11  ar  
 18   9  12  1   
 19   9  31  1   
 20  10  13  ar  
 21  10  14  1   
 22  11  15  ar  
 23  11  32  1   
 24  12  16  2   
 25  12  17  am  
 26  13  18  ar  
 27  13  33  1   
 28  14  34  1   
 29  14  35  1   
 30  14  36  1   
 31  15  18  ar  
 32  15  37  1   
 33  17  19  1   
 34  17  20  1   
 35  18  38  1   
 36  19  21  1   
 37  19  39  1   
 38  19  40  1   
 39  20  41  1   
 40  20  42  1   
 41  20  43  1   
 42  21  22  1   
 43  21  44  1   
 44  21  45  1   
 45  22  23  1   
 46  23  24  1   
 47  23  46  1   
 48  23  47  1   
 49  24  48  1   
 50  24  49  1   
 51  24  50  1   
@<TRIPOS>SUBSTRUCTURE
  1 ****  12 GROUP 4 **** **** 0

# MOE 2024.06 (io_trps.svl 2023.06)
