@<TRIPOS>MOLECULE
NONAME
55 57 1 0 0 
SMALL
USER_CHARGES


@<TRIPOS>ATOM
  1 F        0.5410    -4.4070    -1.5880 F     1 <1>  -0.1900 
  2 C        0.5450    -3.4410    -0.7090 C.ar  1 <1>   0.1900 
  3 C       -0.4380    -2.4630    -0.7650 C.ar  1 <1>  -0.1440 
  4 C        1.5500    -3.4470     0.2430 C.ar  1 <1>  -0.1500 
  5 C       -0.3510    -1.4650     0.1960 C.ar  1 <1>   0.1900 
  6 C       -1.5440    -2.4950    -1.8270 C.3   1 <1>   0.0440 
  7 C        1.5970    -2.4350     1.1880 C.ar  1 <1>  -0.1500 
  8 F       -1.2360    -0.5030     0.2090 F     1 <1>  -0.1900 
  9 C        0.6390    -1.4340     1.1640 C.ar  1 <1>  -0.1500 
 10 C       -2.3970    -3.7580    -1.7840 C.2   1 <1>   0.5690 
 11 O       -2.5430    -4.3630    -2.8220 O.2   1 <1>  -0.5700 
 12 N       -2.9970    -4.2000    -0.6280 N.am  1 <1>  -0.6600 
 13 C       -3.5310    -5.5900    -0.5840 C.3   1 <1>   0.1400 
 14 C       -3.1820    -3.3660     0.5940 C.3   1 <1>   0.1400 
 15 C       -4.9760    -5.6240    -1.1020 C.3   1 <1>   0.1400 
 16 C       -4.5730    -3.5030     1.2310 C.3   1 <1>  -0.1600 
 17 N       -5.9480    -5.0910    -0.0910 N.am  1 <1>  -0.6600 
 18 C       -5.7220    -3.6430     0.2240 C.3   1 <1>   0.1400 
 19 C       -6.9430    -5.7820     0.5710 C.2   1 <1>   0.5690 
 20 O       -7.7130    -5.1870     1.2910 O.2   1 <1>  -0.5700 
 21 C       -7.2000    -7.2990     0.3970 C.3   1 <1>   0.0610 
 22 C       -7.7240    -7.5020    -1.0230 C.3   1 <1>   0.3430 
 23 C       -8.4200    -7.7870     1.2030 C.3   1 <1>  -0.1600 
 24 C       -5.9930    -8.1870     0.7830 C.3   1 <1>  -0.2400 
 25 N       -9.1690    -7.1170    -0.9800 N.4   1 <1>  -0.9590 
 26 C       -9.6380    -7.3060     0.4260 C.3   1 <1>   0.3430 
 27 C      -10.0050    -7.8390    -1.9840 C.3   1 <1>   0.2630 
 28 H        2.2840    -4.2330     0.2380 H     1 <1>   0.1500 
 29 H       -1.0800    -2.4360    -2.7950 H     1 <1>   0.0800 
 30 H       -2.1970    -1.6480    -1.7440 H     1 <1>   0.0800 
 31 H        2.3740    -2.4260     1.9350 H     1 <1>   0.1500 
 32 H        0.6580    -0.6360     1.8860 H     1 <1>   0.1500 
 33 H       -3.4740    -5.9870     0.4140 H     1 <1>   0.0800 
 34 H       -2.9220    -6.2140    -1.2170 H     1 <1>   0.0800 
 35 H       -3.0500    -2.3310     0.3350 H     1 <1>   0.0800 
 36 H       -2.4250    -3.6220     1.3170 H     1 <1>   0.0800 
 37 H       -5.2170    -6.6280    -1.3810 H     1 <1>   0.0800 
 38 H       -5.0350    -5.0330    -2.0010 H     1 <1>   0.0800 
 39 H       -4.7440    -2.6170     1.8150 H     1 <1>   0.0800 
 40 H       -4.5870    -4.3280     1.9190 H     1 <1>   0.0800 
 41 H       -5.5060    -3.0940    -0.6770 H     1 <1>   0.0800 
 42 H       -6.6120    -3.2120     0.6500 H     1 <1>   0.0800 
 43 H       -7.6330    -8.5430    -1.2840 H     1 <1>   0.0800 
 44 H       -7.1850    -6.9060    -1.7400 H     1 <1>   0.0800 
 45 H       -8.4280    -7.4190     2.2150 H     1 <1>   0.0800 
 46 H       -8.4530    -8.8620     1.2440 H     1 <1>   0.0800 
 47 H       -5.1150    -7.9810     0.2050 H     1 <1>   0.0800 
 48 H       -6.2250    -9.2310     0.6570 H     1 <1>   0.0800 
 49 H       -5.7450    -8.0250     1.8180 H     1 <1>   0.0800 
 50 H       -9.2220    -6.1010    -1.1580 H     1 <1>   0.4500 
 51 H       -9.9710    -6.3610     0.8270 H     1 <1>   0.0800 
 52 H      -10.4420    -8.0220     0.4890 H     1 <1>   0.0800 
 53 H       -9.9720    -8.9010    -1.8040 H     1 <1>   0.0800 
 54 H       -9.6440    -7.6450    -2.9810 H     1 <1>   0.0800 
 55 H      -11.0300    -7.5100    -1.9210 H     1 <1>   0.0800 
@<TRIPOS>BOND
  1   1   2  1   
  2   2   3  ar  
  3   2   4  ar  
  4   3   5  ar  
  5   3   6  1   
  6   4   7  ar  
  7   4  28  1   
  8   5   8  1   
  9   5   9  ar  
 10   6  10  1   
 11   6  29  1   
 12   6  30  1   
 13   7   9  ar  
 14   7  31  1   
 15   9  32  1   
 16  10  11  2   
 17  10  12  am  
 18  12  13  1   
 19  12  14  1   
 20  13  15  1   
 21  13  33  1   
 22  13  34  1   
 23  14  16  1   
 24  14  35  1   
 25  14  36  1   
 26  15  17  1   
 27  15  37  1   
 28  15  38  1   
 29  16  18  1   
 30  16  39  1   
 31  16  40  1   
 32  17  18  1   
 33  17  19  am  
 34  18  41  1   
 35  18  42  1   
 36  19  20  2   
 37  19  21  1   
 38  21  22  1   
 39  21  23  1   
 40  21  24  1   
 41  22  25  1   
 42  22  43  1   
 43  22  44  1   
 44  23  26  1   
 45  23  45  1   
 46  23  46  1   
 47  24  47  1   
 48  24  48  1   
 49  24  49  1   
 50  25  26  1   
 51  25  27  1   
 52  25  50  1   
 53  26  51  1   
 54  26  52  1   
 55  27  53  1   
 56  27  54  1   
 57  27  55  1   
@<TRIPOS>SUBSTRUCTURE
  1 ****  13 GROUP 4 **** **** 0

# MOE 2024.06 (io_trps.svl 2023.06)
