@<TRIPOS>MOLECULE
NONAME
41 43 1 0 0 
SMALL
USER_CHARGES


@<TRIPOS>ATOM
  1 O        2.7650    -0.9080     2.3200 O.2   1 <1>  -0.5760 
  2 C        2.3180    -1.2370     1.2530 C.2   1 <1>   0.8490 
  3 N        2.0710    -0.3150     0.2860 N.pl3 1 <1>  -0.7340 
  4 C        1.9990    -2.6860     0.9300 C.3   1 <1>  -0.0290 
  5 C        2.2390     1.0040     0.3650 C.cat 1 <1>   1.0680 
  6 C        0.4810    -2.8410     0.8440 C.3   1 <1>   0.2000 
  7 C        2.5760    -3.7310     1.9110 C.3   1 <1>  -0.1690 
  8 N        2.7530     1.6600     1.3870 N.pl3 1 <1>  -0.7050 
  9 N        1.9080     1.8640    -0.5980 N.pl3 1 <1>  -0.7680 
 10 N        0.1870    -4.1960     0.3320 N.pl3 1 <1>  -0.8420 
 11 C        2.1530    -5.1480     1.4820 C.3   1 <1>  -0.1690 
 12 C        2.7670     3.0010     1.0900 C.2   1 <1>   0.1910 
 13 C        2.2430     3.1300    -0.1430 C.2   1 <1>   0.1910 
 14 C        1.2790     1.6230    -1.9270 C.3   1 <1>   0.2660 
 15 C       -0.9390    -4.4040    -0.4530 C.ar  1 <1>   0.4030 
 16 C        0.6370    -5.2680     1.2620 C.3   1 <1>   0.2000 
 17 N       -1.8990    -3.4840    -0.3940 N.ar  1 <1>  -0.6250 
 18 C       -1.0230    -5.5320    -1.2690 C.ar  1 <1>  -0.1590 
 19 C       -2.9700    -3.7150    -1.1360 C.ar  1 <1>   0.1510 
 20 C       -2.1390    -5.7550    -2.0390 C.ar  1 <1>  -0.1590 
 21 C       -3.1420    -4.8110    -1.9600 C.ar  1 <1>  -0.1590 
 22 H        1.6910    -0.6670    -0.5810 H     1 <1>   0.4430 
 23 H        2.4060    -2.8910    -0.0440 H     1 <1>   0.0700 
 24 H        0.0690    -2.1060     0.1750 H     1 <1>   0.0700 
 25 H        0.0240    -2.7160     1.8120 H     1 <1>   0.0700 
 26 H        2.2080    -3.5390     2.9050 H     1 <1>   0.0700 
 27 H        3.6510    -3.6660     1.9350 H     1 <1>   0.0700 
 28 H        3.0620     1.1720     2.2380 H     1 <1>   0.4430 
 29 H        2.4580    -5.8580     2.2300 H     1 <1>   0.0700 
 30 H        2.6500    -5.4120     0.5640 H     1 <1>   0.0700 
 31 H        3.1420     3.7550     1.7660 H     1 <1>   0.1410 
 32 H        2.0860     4.0280    -0.7210 H     1 <1>   0.1410 
 33 H        0.8450     0.6400    -1.9770 H     1 <1>   0.0700 
 34 H        2.0190     1.7210    -2.7040 H     1 <1>   0.0700 
 35 H        0.5000     2.3470    -2.0990 H     1 <1>   0.0700 
 36 H        0.4010    -6.2400     0.8660 H     1 <1>   0.0700 
 37 H        0.1210    -5.1570     2.2010 H     1 <1>   0.0700 
 38 H       -0.2030    -6.2220    -1.2940 H     1 <1>   0.1410 
 39 H       -3.7600    -2.9850    -1.0840 H     1 <1>   0.1410 
 40 H       -2.2280    -6.6200    -2.6730 H     1 <1>   0.1410 
 41 H       -4.0450    -4.9260    -2.5320 H     1 <1>   0.1410 
@<TRIPOS>BOND
  1   1   2  2   
  2   2   3  1   
  3   2   4  1   
  4   3   5  ar  
  5   3  22  1   
  6   4   6  1   
  7   4   7  1   
  8   4  23  1   
  9   5   8  ar  
 10   5   9  ar  
 11   6  10  1   
 12   6  24  1   
 13   6  25  1   
 14   7  11  1   
 15   7  26  1   
 16   7  27  1   
 17   8  12  1   
 18   8  28  1   
 19   9  13  1   
 20   9  14  1   
 21  10  15  1   
 22  10  16  1   
 23  11  16  1   
 24  11  29  1   
 25  11  30  1   
 26  12  13  2   
 27  12  31  1   
 28  13  32  1   
 29  14  33  1   
 30  14  34  1   
 31  14  35  1   
 32  15  17  ar  
 33  15  18  ar  
 34  16  36  1   
 35  16  37  1   
 36  17  19  ar  
 37  18  20  ar  
 38  18  38  1   
 39  19  21  ar  
 40  19  39  1   
 41  20  21  ar  
 42  20  40  1   
 43  21  41  1   
@<TRIPOS>SUBSTRUCTURE
  1 ****   6 GROUP 4 **** **** 0

# MOE 2024.06 (io_trps.svl 2023.06)
