@<TRIPOS>MOLECULE
NONAME
47 49 1 0 0 
SMALL
USER_CHARGES


@<TRIPOS>ATOM
  1 CL       0.5600     0.9390     1.5200 Cl    1 <1>  -0.1230 
  2 C       -0.3180     2.0130     0.4410 C.2   1 <1>   0.1230 
  3 C       -1.7020     2.0620     0.2510 C.2   1 <1>   0.2030 
  4 C        0.2340     2.9450    -0.3570 C.2   1 <1>  -0.3320 
  5 N       -1.9840     3.0030    -0.6400 N.2   1 <1>  -0.7070 
  6 C       -2.6950     1.2310     0.9090 C.2   1 <1>   0.7160 
  7 N       -0.8020     3.5290    -1.0010 N.pl3 1 <1>   0.3140 
  8 C        1.6980     3.3150    -0.5430 C.3   1 <1>  -0.0600 
  9 O       -2.4210     0.3490     1.7050 O.2   1 <1>  -0.5700 
 10 N       -4.0120     1.4240     0.6130 N.am  1 <1>  -0.7300 
 11 C       -0.7190     4.6140    -1.9890 C.3   1 <1>   0.0160 
 12 C       -5.1890     0.7840     1.2470 C.3   1 <1>   0.2200 
 13 C       -5.4020    -0.6570     0.7290 C.3   1 <1>   0.2000 
 14 C       -6.4090     1.6710     0.9740 C.3   1 <1>  -0.1600 
 15 O       -4.3810    -1.4820     1.1830 O.3   1 <1>  -0.6800 
 16 C       -6.7330    -1.2540     1.2060 C.3   1 <1>   0.1400 
 17 C       -7.6860     1.0400     1.5280 C.3   1 <1>   0.1400 
 18 N       -7.8610    -0.3110     0.9300 N.am  1 <1>  -0.6600 
 19 C       -8.8760    -0.5800     0.0320 C.2   1 <1>   0.5440 
 20 O       -9.5120     0.3500    -0.4270 O.2   1 <1>  -0.5700 
 21 C       -9.1940    -1.9320    -0.3920 C.ar  1 <1>   0.0860 
 22 C       -9.4310    -2.9520     0.5300 C.ar  1 <1>  -0.1500 
 23 C       -9.2790    -2.2530    -1.7460 C.ar  1 <1>  -0.1500 
 24 C       -9.7220    -4.2400     0.1180 C.ar  1 <1>  -0.1500 
 25 C       -9.5700    -3.5390    -2.1650 C.ar  1 <1>  -0.1500 
 26 C       -9.7900    -4.5360    -1.2320 C.ar  1 <1>  -0.1500 
 27 H        2.3210     2.7020     0.0850 H     1 <1>   0.0800 
 28 H        1.8600     4.3450    -0.2790 H     1 <1>   0.0800 
 29 H        1.9950     3.1620    -1.5650 H     1 <1>   0.0800 
 30 H       -4.1950     2.1440    -0.0920 H     1 <1>   0.3700 
 31 H       -0.1260     4.2890    -2.8220 H     1 <1>   0.0800 
 32 H       -0.2700     5.4750    -1.5310 H     1 <1>   0.0800 
 33 H       -1.7090     4.8620    -2.3260 H     1 <1>   0.0800 
 34 H       -5.0340     0.7400     2.3130 H     1 <1>   0.0800 
 35 H       -5.3780    -0.6630    -0.3470 H     1 <1>   0.0800 
 36 H       -6.2670     2.6310     1.4360 H     1 <1>   0.0800 
 37 H       -6.5350     1.8150    -0.0850 H     1 <1>   0.0800 
 38 H       -3.5620    -0.9410     1.3330 H     1 <1>   0.4000 
 39 H       -6.6840    -1.4350     2.2650 H     1 <1>   0.0800 
 40 H       -6.8820    -2.1920     0.7040 H     1 <1>   0.0800 
 41 H       -8.5310     1.6690     1.3030 H     1 <1>   0.0800 
 42 H       -7.6220     0.9460     2.5980 H     1 <1>   0.0800 
 43 H       -9.3880    -2.7250     1.5800 H     1 <1>   0.1500 
 44 H       -9.1150    -1.4760    -2.4730 H     1 <1>   0.1500 
 45 H       -9.8980    -5.0130     0.8470 H     1 <1>   0.1500 
 46 H       -9.6270    -3.7630    -3.2160 H     1 <1>   0.1500 
 47 H      -10.0160    -5.5380    -1.5550 H     1 <1>   0.1500 
@<TRIPOS>BOND
  1   1   2  1   
  2   2   3  1   
  3   2   4  2   
  4   3   5  2   
  5   3   6  1   
  6   4   7  1   
  7   4   8  1   
  8   5   7  1   
  9   6   9  2   
 10   6  10  am  
 11   7  11  1   
 12   8  27  1   
 13   8  28  1   
 14   8  29  1   
 15  10  12  1   
 16  10  30  1   
 17  11  31  1   
 18  11  32  1   
 19  11  33  1   
 20  12  13  1   
 21  12  14  1   
 22  12  34  1   
 23  13  15  1   
 24  13  16  1   
 25  13  35  1   
 26  14  17  1   
 27  14  36  1   
 28  14  37  1   
 29  15  38  1   
 30  16  18  1   
 31  16  39  1   
 32  16  40  1   
 33  17  18  1   
 34  17  41  1   
 35  17  42  1   
 36  18  19  am  
 37  19  20  2   
 38  19  21  1   
 39  21  22  ar  
 40  21  23  ar  
 41  22  24  ar  
 42  22  43  1   
 43  23  25  ar  
 44  23  44  1   
 45  24  26  ar  
 46  24  45  1   
 47  25  26  ar  
 48  25  46  1   
 49  26  47  1   
@<TRIPOS>SUBSTRUCTURE
  1 ****  13 GROUP 4 **** **** 0

# MOE 2024.06 (io_trps.svl 2023.06)
