@<TRIPOS>MOLECULE
NONAME
47 49 1 0 0 
SMALL
USER_CHARGES


@<TRIPOS>ATOM
  1 F       -0.2090     1.0780    -0.1220 F     1 <1>  -0.1900 
  2 C       -1.5130     1.1790    -0.0810 C.ar  1 <1>   0.1900 
  3 C       -2.1570     2.1950     0.6340 C.ar  1 <1>   0.0830 
  4 C       -2.2250     0.2280    -0.7860 C.ar  1 <1>  -0.1500 
  5 O       -1.5690     3.1860     1.3640 O.3   1 <1>  -0.3630 
  6 C       -3.5420     2.2160     0.6120 C.ar  1 <1>  -0.1500 
  7 C       -3.6060     0.2790    -0.7870 C.ar  1 <1>  -0.1500 
  8 C       -0.1730     3.2920     1.5340 C.3   1 <1>   0.0400 
  9 C       -4.2950     1.2700    -0.0850 C.ar  1 <1>   0.0530 
 10 C       -5.7350     1.3390    -0.0860 C.2   1 <1>   0.0870 
 11 O       -6.3180     2.5070    -0.1910 O.3   1 <1>  -0.0190 
 12 C       -6.7260     0.4070    -0.0060 C.2   1 <1>  -0.0860 
 13 N       -7.6200     2.4310    -0.1980 N.2   1 <1>  -0.4100 
 14 C       -7.8940     1.1790    -0.0900 C.2   1 <1>   0.3720 
 15 C       -6.6660    -1.0170     0.1440 C.2   1 <1>   0.7160 
 16 N       -9.2120     0.6920    -0.0400 N.pl3 1 <1>  -0.8210 
 17 O       -5.6320    -1.5870     0.4360 O.2   1 <1>  -0.5700 
 18 N       -7.7850    -1.7630    -0.0390 N.am  1 <1>  -0.7300 
 19 C      -10.1270     1.3200    -1.0350 C.3   1 <1>   0.1290 
 20 C       -9.7820     0.7450     1.3330 C.3   1 <1>   0.1290 
 21 C       -7.9450    -3.2110     0.1410 C.3   1 <1>   0.2200 
 22 C       -8.6790    -3.7710    -1.0700 C.3   1 <1>  -0.1600 
 23 C       -8.9220    -3.4540     1.2840 C.3   1 <1>  -0.1600 
 24 C      -10.1620    -3.4630    -0.8330 C.3   1 <1>  -0.1600 
 25 C      -10.3210    -3.2770     0.6820 C.3   1 <1>  -0.1600 
 26 H       -1.7030    -0.5430    -1.3250 H     1 <1>   0.1500 
 27 H       -4.0500     2.9920     1.1570 H     1 <1>   0.1500 
 28 H       -4.1600    -0.4610    -1.3380 H     1 <1>   0.1500 
 29 H        0.0230     4.1370     2.1680 H     1 <1>   0.0800 
 30 H        0.2860     3.4420     0.5730 H     1 <1>   0.0800 
 31 H        0.1920     2.3940     2.0010 H     1 <1>   0.0800 
 32 H       -8.6510    -1.2280    -0.1930 H     1 <1>   0.3700 
 33 H       -9.6530     1.3450    -2.0020 H     1 <1>   0.0800 
 34 H      -10.3620     2.3290    -0.7410 H     1 <1>   0.0800 
 35 H      -11.0360     0.7500    -1.1110 H     1 <1>   0.0800 
 36 H       -9.1370     0.2200     2.0170 H     1 <1>   0.0800 
 37 H      -10.7530     0.2810     1.3480 H     1 <1>   0.0800 
 38 H       -9.8720     1.7690     1.6560 H     1 <1>   0.0800 
 39 H       -6.9910    -3.6860     0.3030 H     1 <1>   0.0800 
 40 H       -8.5420    -4.8380    -1.0880 H     1 <1>   0.0800 
 41 H       -8.3110    -3.3610    -1.9950 H     1 <1>   0.0800 
 42 H       -8.7410    -2.8010     2.1190 H     1 <1>   0.0800 
 43 H       -8.8110    -4.4720     1.6140 H     1 <1>   0.0800 
 44 H      -10.7850    -4.2600    -1.2020 H     1 <1>   0.0800 
 45 H      -10.4280    -2.5500    -1.3380 H     1 <1>   0.0800 
 46 H      -10.6860    -2.2850     0.8860 H     1 <1>   0.0800 
 47 H      -11.0100    -3.9930     1.0960 H     1 <1>   0.0800 
@<TRIPOS>BOND
  1   1   2  1   
  2   2   3  ar  
  3   2   4  ar  
  4   3   5  1   
  5   3   6  ar  
  6   4   7  ar  
  7   4  26  1   
  8   5   8  1   
  9   6   9  ar  
 10   6  27  1   
 11   7   9  ar  
 12   7  28  1   
 13   8  29  1   
 14   8  30  1   
 15   8  31  1   
 16   9  10  1   
 17  10  11  1   
 18  10  12  2   
 19  11  13  1   
 20  12  14  1   
 21  12  15  1   
 22  13  14  2   
 23  14  16  1   
 24  15  17  2   
 25  15  18  am  
 26  16  19  1   
 27  16  20  1   
 28  18  21  1   
 29  18  32  1   
 30  19  33  1   
 31  19  34  1   
 32  19  35  1   
 33  20  36  1   
 34  20  37  1   
 35  20  38  1   
 36  21  22  1   
 37  21  23  1   
 38  21  39  1   
 39  22  24  1   
 40  22  40  1   
 41  22  41  1   
 42  23  25  1   
 43  23  42  1   
 44  23  43  1   
 45  24  25  1   
 46  24  44  1   
 47  24  45  1   
 48  25  46  1   
 49  25  47  1   
@<TRIPOS>SUBSTRUCTURE
  1 ****  12 GROUP 4 **** **** 0

# MOE 2024.06 (io_trps.svl 2023.06)
