@<TRIPOS>MOLECULE
NONAME
46 48 1 0 0 
SMALL
USER_CHARGES


@<TRIPOS>ATOM
  1 F        0.6100     1.0790     1.8810 F     1 <1>  -0.1900 
  2 C        1.6240     0.8800     1.0810 C.ar  1 <1>   0.1900 
  3 C        2.0810    -0.4110     0.8900 C.ar  1 <1>  -0.1440 
  4 C        2.1880     1.9730     0.4520 C.ar  1 <1>  -0.1500 
  5 C        3.1480    -0.6110     0.0230 C.ar  1 <1>   0.0830 
  6 C        1.4250    -1.5680     1.6160 C.3   1 <1>   0.4860 
  7 C        3.2540     1.7650    -0.4050 C.ar  1 <1>  -0.1500 
  8 O        3.5640    -1.8900    -0.1600 O.3   1 <1>  -0.3630 
  9 C        3.7320     0.4820    -0.6190 C.ar  1 <1>  -0.1500 
 10 N        0.7680    -2.4730     0.6400 N.4   1 <1>  -0.9590 
 11 C        4.5290    -2.2170    -1.1380 C.3   1 <1>   0.0400 
 12 C       -0.1200    -1.8120    -0.3690 C.3   1 <1>   0.3430 
 13 C        0.0040    -3.5950     1.2310 C.3   1 <1>   0.3430 
 14 C       -1.3510    -2.7220    -0.5130 C.3   1 <1>   0.2000 
 15 C       -0.9150    -4.0550     0.0970 C.3   1 <1>  -0.0800 
 16 O       -2.4070    -2.2120     0.2350 O.3   1 <1>  -0.6800 
 17 C       -0.2010    -4.9280    -0.9700 C.3   1 <1>   0.0210 
 18 C        1.0970    -5.5520    -0.4900 C.2   1 <1>   0.1080 
 19 N        2.1940    -4.8680    -0.3580 N.2   1 <1>  -0.7070 
 20 C        1.2600    -6.8870    -0.1410 C.2   1 <1>  -0.1500 
 21 N        3.1040    -5.7730     0.0680 N.pl3 1 <1>   0.3000 
 22 C        2.5560    -6.9960     0.2140 C.2   1 <1>  -0.3320 
 23 C        3.3210    -8.2220     0.6830 C.3   1 <1>  -0.0600 
 24 H        1.8020     2.9630     0.6300 H     1 <1>   0.1500 
 25 H        0.6980    -1.1930     2.3160 H     1 <1>   0.0800 
 26 H        2.1770    -2.1120     2.1640 H     1 <1>   0.0800 
 27 H        3.7130     2.6030    -0.9050 H     1 <1>   0.1500 
 28 H        4.5630     0.3560    -1.2890 H     1 <1>   0.1500 
 29 H        1.5460    -2.9350     0.1140 H     1 <1>   0.4500 
 30 H        4.6350    -3.2860    -1.1620 H     1 <1>   0.0800 
 31 H        5.4670    -1.7620    -0.8720 H     1 <1>   0.0800 
 32 H        4.1920    -1.8660    -2.0980 H     1 <1>   0.0800 
 33 H       -0.4200    -0.8260    -0.0540 H     1 <1>   0.0800 
 34 H        0.4030    -1.7410    -1.3090 H     1 <1>   0.0800 
 35 H        0.6550    -4.3830     1.5760 H     1 <1>   0.0800 
 36 H       -0.5920    -3.2410     2.0560 H     1 <1>   0.0800 
 37 H       -1.6860    -2.8030    -1.5330 H     1 <1>   0.0800 
 38 H       -1.7520    -4.6060     0.4910 H     1 <1>   0.0800 
 39 H       -2.1710    -2.0320     1.1650 H     1 <1>   0.4000 
 40 H        0.0410    -4.3470    -1.8420 H     1 <1>   0.0800 
 41 H       -0.8670    -5.7070    -1.2940 H     1 <1>   0.0800 
 42 H        0.5040    -7.6530    -0.1630 H     1 <1>   0.1500 
 43 H        4.0890    -5.5350     0.2470 H     1 <1>   0.2700 
 44 H        2.6690    -9.0770     0.7140 H     1 <1>   0.0800 
 45 H        3.7200    -8.0610     1.6690 H     1 <1>   0.0800 
 46 H        4.1310    -8.4370     0.0080 H     1 <1>   0.0800 
@<TRIPOS>BOND
  1   1   2  1   
  2   2   3  ar  
  3   2   4  ar  
  4   3   5  ar  
  5   3   6  1   
  6   4   7  ar  
  7   4  24  1   
  8   5   8  1   
  9   5   9  ar  
 10   6  10  1   
 11   6  25  1   
 12   6  26  1   
 13   7   9  ar  
 14   7  27  1   
 15   8  11  1   
 16   9  28  1   
 17  10  12  1   
 18  10  13  1   
 19  10  29  1   
 20  11  30  1   
 21  11  31  1   
 22  11  32  1   
 23  12  14  1   
 24  12  33  1   
 25  12  34  1   
 26  13  15  1   
 27  13  35  1   
 28  13  36  1   
 29  14  15  1   
 30  14  16  1   
 31  14  37  1   
 32  15  17  1   
 33  15  38  1   
 34  16  39  1   
 35  17  18  1   
 36  17  40  1   
 37  17  41  1   
 38  18  19  2   
 39  18  20  1   
 40  19  21  1   
 41  20  22  2   
 42  20  42  1   
 43  21  22  1   
 44  21  43  1   
 45  22  23  1   
 46  23  44  1   
 47  23  45  1   
 48  23  46  1   
@<TRIPOS>SUBSTRUCTURE
  1 ****  10 GROUP 4 **** **** 0

# MOE 2024.06 (io_trps.svl 2023.06)
