@<TRIPOS>MOLECULE
NONAME
25 24 1 0 0 
SMALL
USER_CHARGES


@<TRIPOS>ATOM
  1 SI       0.0410    -0.0590    -0.3190 Si    1 <1>   0.6550 
  2 C       -1.7640     0.0140    -0.2990 C.1   1 <1>  -0.2940 
  3 C        0.6780    -1.5930     0.3680 C.3   1 <1>  -0.3200 
  4 C        0.7940     1.3950     0.4290 C.3   1 <1>  -0.3200 
  5 C       -2.9530     0.0610    -0.2800 C.1   1 <1>  -0.2000 
  6 C       -4.4440     0.1210    -0.2580 C.3   1 <1>   0.2000 
  7 C       -4.9210     0.1790     1.1960 C.3   1 <1>  -0.2400 
  8 C       -4.9060     1.3730    -1.0080 C.3   1 <1>  -0.2400 
  9 C       -5.0050    -1.1310    -0.9400 C.3   1 <1>  -0.2400 
 10 H        0.4450    -0.0450    -1.6810 H     1 <1>  -0.2000 
 11 H        0.4330    -1.7040     1.4070 H     1 <1>   0.0800 
 12 H        1.7470    -1.6620     0.2900 H     1 <1>   0.0800 
 13 H        0.2760    -2.4530    -0.1350 H     1 <1>   0.0800 
 14 H        0.5550     1.4810     1.4720 H     1 <1>   0.0800 
 15 H        0.4590     2.3020    -0.0400 H     1 <1>   0.0800 
 16 H        1.8650     1.3830     0.3510 H     1 <1>   0.0800 
 17 H       -4.5200     1.0500     1.6840 H     1 <1>   0.0800 
 18 H       -4.5890    -0.6920     1.7320 H     1 <1>   0.0800 
 19 H       -5.9940     0.2230     1.2400 H     1 <1>   0.0800 
 20 H       -4.5050     2.2550    -0.5420 H     1 <1>   0.0800 
 21 H       -5.9780     1.4410    -1.0090 H     1 <1>   0.0800 
 22 H       -4.5620     1.3440    -2.0270 H     1 <1>   0.0800 
 23 H       -4.6730    -2.0150    -0.4250 H     1 <1>   0.0800 
 24 H       -4.6620    -1.1840    -1.9580 H     1 <1>   0.0800 
 25 H       -6.0790    -1.1130    -0.9390 H     1 <1>   0.0800 
@<TRIPOS>BOND
  1   1   2  1   
  2   1   3  1   
  3   1   4  1   
  4   1  10  1   
  5   2   5  3   
  6   3  11  1   
  7   3  12  1   
  8   3  13  1   
  9   4  14  1   
 10   4  15  1   
 11   4  16  1   
 12   5   6  1   
 13   6   7  1   
 14   6   8  1   
 15   6   9  1   
 16   7  17  1   
 17   7  18  1   
 18   7  19  1   
 19   8  20  1   
 20   8  21  1   
 21   8  22  1   
 22   9  23  1   
 23   9  24  1   
 24   9  25  1   
@<TRIPOS>SUBSTRUCTURE
  1 ****   5 GROUP 4 **** **** 0

# MOE 2024.06 (io_trps.svl 2023.06)
