@<TRIPOS>MOLECULE
NONAME
53 55 1 0 0 
SMALL
USER_CHARGES


@<TRIPOS>ATOM
  1 O       -1.3980     0.0850     0.8510 O.2   1 <1>  -0.5700 
  2 C       -2.1980     0.9950     0.9720 C.2   1 <1>   0.5440 
  3 N       -3.5200     0.6650     1.1630 N.am  1 <1>  -0.6600 
  4 C       -1.7540     2.3620     0.8860 C.ar  1 <1>   0.0860 
  5 C       -3.8810    -0.7060     1.6300 C.3   1 <1>   0.1400 
  6 C       -4.6150     1.3210     0.3880 C.3   1 <1>   0.1400 
  7 C       -2.3760     3.4010     1.5560 C.ar  1 <1>   0.1600 
  8 C       -0.6590     2.7300     0.1270 C.ar  1 <1>   0.1600 
  9 C       -4.1440    -1.5960     0.3920 C.3   1 <1>   0.4230 
 10 C       -4.9470     0.4460    -0.8310 C.3   1 <1>  -0.1600 
 11 N       -1.9900     4.6500     1.4670 N.ar  1 <1>  -0.6200 
 12 N       -0.2440     3.9690     0.0140 N.ar  1 <1>  -0.6200 
 13 N       -4.3980    -3.0420     0.7100 N.4   1 <1>  -0.9590 
 14 C       -5.3140    -1.0120    -0.4300 C.3   1 <1>  -0.1060 
 15 C       -0.9390     4.8770     0.6920 C.ar  1 <1>   0.7200 
 16 C       -4.5240    -3.8660    -0.5190 C.3   1 <1>   0.3430 
 17 C       -3.4690    -3.6460     1.7020 C.3   1 <1>   0.2630 
 18 C       -6.5850    -1.0340     0.4430 C.2   1 <1>   0.9060 
 19 C       -5.5140    -1.8470    -1.7170 C.3   1 <1>  -0.1600 
 20 N       -0.5730     6.1680     0.6140 N.pl3 1 <1>  -0.8690 
 21 C       -5.6610    -3.3440    -1.4000 C.3   1 <1>  -0.1600 
 22 O       -6.7310    -1.9530     1.2660 O.co2 1 <1>  -0.9000 
 23 O       -7.4120    -0.1320     0.3310 O.co2 1 <1>  -0.9000 
 24 C        0.5730     6.7370    -0.0940 C.3   1 <1>   0.2890 
 25 C        1.5220     7.3240     0.9440 C.3   1 <1>  -0.2400 
 26 C        0.0520     7.8110    -1.0400 C.3   1 <1>  -0.2400 
 27 H       -3.0680    -1.0990     2.2110 H     1 <1>   0.0800 
 28 H       -4.7520    -0.6500     2.2600 H     1 <1>   0.0800 
 29 H       -5.4850     1.4340     1.0150 H     1 <1>   0.0800 
 30 H       -4.3200     2.3000     0.0520 H     1 <1>   0.0800 
 31 H       -3.2230     3.1830     2.1850 H     1 <1>   0.1500 
 32 H       -0.1140     1.9670    -0.4040 H     1 <1>   0.1500 
 33 H       -3.2540    -1.5450    -0.2120 H     1 <1>   0.0800 
 34 H       -5.7750     0.8930    -1.3570 H     1 <1>   0.0800 
 35 H       -4.1030     0.4520    -1.4990 H     1 <1>   0.0800 
 36 H       -5.3670    -2.9840     1.1260 H     1 <1>   0.4500 
 37 H       -3.5980    -3.8340    -1.0700 H     1 <1>   0.0800 
 38 H       -4.7290    -4.8900    -0.2510 H     1 <1>   0.0800 
 39 H       -2.4550    -3.6000     1.3390 H     1 <1>   0.0800 
 40 H       -3.7340    -4.6750     1.8770 H     1 <1>   0.0800 
 41 H       -3.5300    -3.1170     2.6390 H     1 <1>   0.0800 
 42 H       -6.3960    -1.5020    -2.2320 H     1 <1>   0.0800 
 43 H       -4.6740    -1.7110    -2.3750 H     1 <1>   0.0800 
 44 H       -1.1230     6.8060     1.1830 H     1 <1>   0.4000 
 45 H       -5.6820    -3.9030    -2.3180 H     1 <1>   0.0800 
 46 H       -6.6000    -3.5200    -0.9010 H     1 <1>   0.0800 
 47 H        1.0840     5.9750    -0.6610 H     1 <1>   0.0800 
 48 H        1.0320     8.0890     1.5180 H     1 <1>   0.0800 
 49 H        2.3780     7.7520     0.4560 H     1 <1>   0.0800 
 50 H        1.8620     6.5460     1.6030 H     1 <1>   0.0800 
 51 H       -0.4590     8.5840    -0.4960 H     1 <1>   0.0800 
 52 H       -0.6240     7.3700    -1.7510 H     1 <1>   0.0800 
 53 H        0.8700     8.2510    -1.5800 H     1 <1>   0.0800 
@<TRIPOS>BOND
  1   1   2  2   
  2   2   3  am  
  3   2   4  1   
  4   3   5  1   
  5   3   6  1   
  6   4   7  ar  
  7   4   8  ar  
  8   5   9  1   
  9   5  27  1   
 10   5  28  1   
 11   6  10  1   
 12   6  29  1   
 13   6  30  1   
 14   7  11  ar  
 15   7  31  1   
 16   8  12  ar  
 17   8  32  1   
 18   9  13  1   
 19   9  14  1   
 20   9  33  1   
 21  10  14  1   
 22  10  34  1   
 23  10  35  1   
 24  11  15  ar  
 25  12  15  ar  
 26  13  16  1   
 27  13  17  1   
 28  13  36  1   
 29  14  18  1   
 30  14  19  1   
 31  15  20  1   
 32  16  21  1   
 33  16  37  1   
 34  16  38  1   
 35  17  39  1   
 36  17  40  1   
 37  17  41  1   
 38  18  22  ar  
 39  18  23  ar  
 40  19  21  1   
 41  19  42  1   
 42  19  43  1   
 43  20  24  1   
 44  20  44  1   
 45  21  45  1   
 46  21  46  1   
 47  24  25  1   
 48  24  26  1   
 49  24  47  1   
 50  25  48  1   
 51  25  49  1   
 52  25  50  1   
 53  26  51  1   
 54  26  52  1   
 55  26  53  1   
@<TRIPOS>SUBSTRUCTURE
  1 ****   3 GROUP 4 **** **** 0

# MOE 2024.06 (io_trps.svl 2023.06)
