@<TRIPOS>MOLECULE
NONAME
52 56 1 0 0 
SMALL
USER_CHARGES


@<TRIPOS>ATOM
  1 S       -0.8390     1.5710    -2.2720 S.3   1 <1>  -0.0800 
  2 C       -1.9940     0.6400    -3.1960 C.2   1 <1>   0.2280 
  3 C       -0.9200     0.3660    -1.0210 C.2   1 <1>  -0.1100 
  4 N       -2.3840    -0.4330    -2.6320 N.2   1 <1>  -0.5650 
  5 C       -1.7870    -0.5920    -1.3890 C.2   1 <1>   0.0460 
  6 C       -2.1350    -1.8370    -0.5840 C.3   1 <1>   0.0210 
  7 C       -3.3970    -1.8070     0.3270 C.3   1 <1>   0.0610 
  8 C       -3.5350    -3.2370     0.8670 C.2   1 <1>   0.5690 
  9 C       -3.2460    -0.7790     1.4780 C.3   1 <1>   0.2200 
 10 C       -4.6760    -1.2600    -0.3840 C.3   1 <1>  -0.1600 
 11 O       -2.8910    -3.5630     1.8350 O.2   1 <1>  -0.5700 
 12 N       -4.3270    -4.1360     0.2160 N.am  1 <1>  -0.7300 
 13 N       -3.6690     0.4440     0.8120 N.am  1 <1>  -0.6600 
 14 C       -4.3880    -0.8840     2.5090 C.3   1 <1>  -0.1600 
 15 C       -4.9940     0.0350     0.3810 C.3   1 <1>   0.2200 
 16 C       -4.5260    -5.5520     0.6140 C.3   1 <1>   0.0600 
 17 C       -3.0870     1.6880     0.9260 C.2   1 <1>   0.7160 
 18 C       -5.6040    -0.3360     1.7370 C.3   1 <1>  -0.1600 
 19 O       -2.0380     1.7510     1.5470 O.2   1 <1>  -0.5700 
 20 C       -3.6530     2.8950     0.3400 C.2   1 <1>   0.1410 
 21 N       -4.9790     3.1390     0.1180 N.2   1 <1>  -0.5650 
 22 C       -2.9630     3.9950    -0.0760 C.2   1 <1>  -0.0150 
 23 C       -5.0240     4.3430    -0.4080 C.2   1 <1>   0.1420 
 24 F       -1.6680     4.1910    -0.0550 F     1 <1>  -0.1370 
 25 N       -3.7870     4.9270    -0.5520 N.pl3 1 <1>   0.3340 
 26 C       -6.1630     5.0770    -0.8290 C.2   1 <1>  -0.1050 
 27 C       -3.6370     6.1990    -1.0950 C.2   1 <1>  -0.1810 
 28 C       -6.0220     6.3230    -1.3610 C.2   1 <1>  -0.1500 
 29 C       -4.7290     6.9020    -1.4990 C.2   1 <1>  -0.1380 
 30 C       -4.6200     8.2920    -2.0970 C.3   1 <1>  -0.1020 
 31 H       -2.2820     1.0330    -4.1550 H     1 <1>   0.1500 
 32 H       -0.3190     0.5090    -0.1420 H     1 <1>   0.1500 
 33 H       -2.2290    -2.6500    -1.2830 H     1 <1>   0.0800 
 34 H       -1.2880    -2.0680     0.0380 H     1 <1>   0.0800 
 35 H       -2.2620    -0.7320     1.9150 H     1 <1>   0.0800 
 36 H       -5.5180    -1.9240    -0.3280 H     1 <1>   0.0800 
 37 H       -4.5090    -1.0350    -1.4180 H     1 <1>   0.0800 
 38 H       -4.8040    -3.8450    -0.6410 H     1 <1>   0.3700 
 39 H       -4.5480    -1.8820     2.8750 H     1 <1>   0.0800 
 40 H       -4.1640    -0.2500     3.3490 H     1 <1>   0.0800 
 41 H       -5.5490     0.7590    -0.1880 H     1 <1>   0.0800 
 42 H       -3.9900    -5.7670     1.5240 H     1 <1>   0.0800 
 43 H       -4.1630    -6.2030    -0.1620 H     1 <1>   0.0800 
 44 H       -5.5730    -5.7420     0.7770 H     1 <1>   0.0800 
 45 H       -5.9900     0.5480     2.2140 H     1 <1>   0.0800 
 46 H       -6.3950    -1.0590     1.6430 H     1 <1>   0.0800 
 47 H       -7.1240     4.6100    -0.7090 H     1 <1>   0.1500 
 48 H       -2.6300     6.5660    -1.1660 H     1 <1>   0.1500 
 49 H       -6.8770     6.8910    -1.6850 H     1 <1>   0.1500 
 50 H       -5.1670     8.9950    -1.4940 H     1 <1>   0.0800 
 51 H       -5.0270     8.2970    -3.0930 H     1 <1>   0.0800 
 52 H       -3.5940     8.6080    -2.1440 H     1 <1>   0.0800 
@<TRIPOS>BOND
  1   1   2  1   
  2   1   3  1   
  3   2   4  2   
  4   2  31  1   
  5   3   5  2   
  6   3  32  1   
  7   4   5  1   
  8   5   6  1   
  9   6   7  1   
 10   6  33  1   
 11   6  34  1   
 12   7   8  1   
 13   7   9  1   
 14   7  10  1   
 15   8  11  2   
 16   8  12  am  
 17   9  13  1   
 18   9  14  1   
 19   9  35  1   
 20  10  15  1   
 21  10  36  1   
 22  10  37  1   
 23  12  16  1   
 24  12  38  1   
 25  13  15  1   
 26  13  17  am  
 27  14  18  1   
 28  14  39  1   
 29  14  40  1   
 30  15  18  1   
 31  15  41  1   
 32  16  42  1   
 33  16  43  1   
 34  16  44  1   
 35  17  19  2   
 36  17  20  1   
 37  18  45  1   
 38  18  46  1   
 39  20  21  1   
 40  20  22  2   
 41  21  23  2   
 42  22  24  1   
 43  22  25  1   
 44  23  25  1   
 45  23  26  1   
 46  25  27  1   
 47  26  28  2   
 48  26  47  1   
 49  27  29  2   
 50  27  48  1   
 51  28  29  1   
 52  28  49  1   
 53  29  30  1   
 54  30  50  1   
 55  30  51  1   
 56  30  52  1   
@<TRIPOS>SUBSTRUCTURE
  1 ****  17 GROUP 4 **** **** 0

# MOE 2024.06 (io_trps.svl 2023.06)
