@<TRIPOS>MOLECULE
NONAME
49 51 1 0 0 
SMALL
USER_CHARGES


@<TRIPOS>ATOM
  1 O        0.8390     0.1770    -0.7320 O.2   1 <1>  -0.5700 
  2 C        1.4770    -0.5800    -0.0240 C.2   1 <1>   0.5440 
  3 N        2.4830    -0.0560     0.7660 N.am  1 <1>  -0.6600 
  4 C        1.1710    -1.9990    -0.0470 C.ar  1 <1>   0.0860 
  5 C        3.6460    -0.8600     1.2540 C.3   1 <1>   0.1400 
  6 C        2.6080     1.4090     0.9950 C.3   1 <1>   0.1400 
  7 C        0.9900    -2.7290     1.1290 C.ar  1 <1>  -0.1500 
  8 C        1.0380    -2.6810    -1.2550 C.ar  1 <1>  -0.1500 
  9 C        4.9460    -0.3560     0.6150 C.3   1 <1>   0.2000 
 10 C        3.8620     1.9230     0.2850 C.3   1 <1>  -0.1600 
 11 C        0.7090    -4.0830     1.0990 C.ar  1 <1>  -0.1500 
 12 C        0.7560    -4.0350    -1.2920 C.ar  1 <1>  -0.1500 
 13 O        6.0090    -1.0100     1.2270 O.3   1 <1>  -0.6800 
 14 C        5.1100     1.1740     0.7620 C.3   1 <1>   0.2200 
 15 C        0.5930    -4.7390    -0.1130 C.ar  1 <1>  -0.1500 
 16 N        6.2720     1.6770    -0.0150 N.am  1 <1>  -0.7300 
 17 C        7.5820     1.5840     0.3590 C.2   1 <1>   0.5690 
 18 O        7.8630     0.9980     1.3780 O.2   1 <1>  -0.5700 
 19 C        8.7230     2.1790    -0.4910 C.3   1 <1>   0.2610 
 20 C        8.1230     2.8960    -1.6600 C.1   1 <1>   0.3570 
 21 C        9.6520     1.0580    -1.0060 C.3   1 <1>  -0.1600 
 22 C        9.5630     3.1770     0.3380 C.3   1 <1>  -0.1600 
 23 N        7.6170     3.4210    -2.5330 N.1   1 <1>  -0.5570 
 24 C       10.9000     1.6320    -1.6860 C.3   1 <1>   0.1200 
 25 C       10.8160     3.6230    -0.4240 C.3   1 <1>   0.1200 
 26 O       11.5390     2.4930    -0.7970 O.3   1 <1>  -0.5600 
 27 H        3.7090    -0.7630     2.3240 H     1 <1>   0.0800 
 28 H        3.5260    -1.8990     1.0080 H     1 <1>   0.0800 
 29 H        1.7400     1.9280     0.6240 H     1 <1>   0.0800 
 30 H        2.6750     1.5950     2.0530 H     1 <1>   0.0800 
 31 H        1.0700    -2.2230     2.0740 H     1 <1>   0.1500 
 32 H        1.1560    -2.1330    -2.1740 H     1 <1>   0.1500 
 33 H        4.9510    -0.6240    -0.4280 H     1 <1>   0.0800 
 34 H        3.9690     2.9730     0.4900 H     1 <1>   0.0800 
 35 H        3.7270     1.7920    -0.7740 H     1 <1>   0.0800 
 36 H        0.5780    -4.6280     2.0190 H     1 <1>   0.1500 
 37 H        0.6610    -4.5400    -2.2380 H     1 <1>   0.1500 
 38 H        6.7760    -0.3860     1.3080 H     1 <1>   0.4000 
 39 H        5.2600     1.3980     1.8060 H     1 <1>   0.0800 
 40 H        0.3740    -5.7930    -0.1390 H     1 <1>   0.1500 
 41 H        6.0220     2.1320    -0.9010 H     1 <1>   0.3700 
 42 H        9.1250     0.4220    -1.6950 H     1 <1>   0.0800 
 43 H        9.9740     0.4450    -0.1820 H     1 <1>   0.0800 
 44 H        9.8790     2.7120     1.2560 H     1 <1>   0.0800 
 45 H        8.9720     4.0380     0.5980 H     1 <1>   0.0800 
 46 H       10.6610     2.1760    -2.5850 H     1 <1>   0.0800 
 47 H       11.5920     0.8440    -1.9310 H     1 <1>   0.0800 
 48 H       11.4500     4.2200     0.2100 H     1 <1>   0.0800 
 49 H       10.5770     4.1890    -1.3080 H     1 <1>   0.0800 
@<TRIPOS>BOND
  1   1   2  2   
  2   2   3  am  
  3   2   4  1   
  4   3   5  1   
  5   3   6  1   
  6   4   7  ar  
  7   4   8  ar  
  8   5   9  1   
  9   5  27  1   
 10   5  28  1   
 11   6  10  1   
 12   6  29  1   
 13   6  30  1   
 14   7  11  ar  
 15   7  31  1   
 16   8  12  ar  
 17   8  32  1   
 18   9  13  1   
 19   9  14  1   
 20   9  33  1   
 21  10  14  1   
 22  10  34  1   
 23  10  35  1   
 24  11  15  ar  
 25  11  36  1   
 26  12  15  ar  
 27  12  37  1   
 28  13  38  1   
 29  14  16  1   
 30  14  39  1   
 31  15  40  1   
 32  16  17  am  
 33  16  41  1   
 34  17  18  2   
 35  17  19  1   
 36  19  20  1   
 37  19  21  1   
 38  19  22  1   
 39  20  23  3   
 40  21  24  1   
 41  21  42  1   
 42  21  43  1   
 43  22  25  1   
 44  22  44  1   
 45  22  45  1   
 46  24  26  1   
 47  24  46  1   
 48  24  47  1   
 49  25  26  1   
 50  25  48  1   
 51  25  49  1   
@<TRIPOS>SUBSTRUCTURE
  1 ****   9 GROUP 4 **** **** 0

# MOE 2024.06 (io_trps.svl 2023.06)
