@<TRIPOS>MOLECULE
NONAME
46 48 1 0 0 
SMALL
USER_CHARGES


@<TRIPOS>ATOM
  1 O       -0.3780    -0.1920     2.0770 O.2   1 <1>  -0.5700 
  2 C       -1.1190     0.5850     1.5250 C.2   1 <1>   0.5690 
  3 N       -2.1180     0.1200     0.6960 N.am  1 <1>  -0.6600 
  4 C       -0.8900     2.0590     1.8000 C.3   1 <1>   0.1570 
  5 C       -3.0890     1.0120    -0.0300 C.3   1 <1>   0.1400 
  6 C       -2.0950    -1.3260     0.2890 C.3   1 <1>   0.1400 
  7 N       -0.4490     2.7350     0.5730 N.pl3 1 <1>   0.3140 
  8 C       -4.4970     0.3980    -0.2420 C.3   1 <1>   0.4230 
  9 C       -3.4200    -1.8250    -0.3170 C.3   1 <1>   0.3430 
 10 N       -1.2880     3.4920    -0.1660 N.2   1 <1>  -0.7070 
 11 C        0.7850     2.7090     0.0330 C.2   1 <1>  -0.3020 
 12 N       -4.5870    -1.0430     0.2160 N.4   1 <1>  -0.9590 
 13 C       -4.9340     0.5480    -1.7190 C.3   1 <1>   0.1200 
 14 C       -0.5590     3.9370    -1.1460 C.2   1 <1>   0.1390 
 15 C        0.7490     3.4750    -1.0770 C.2   1 <1>  -0.1500 
 16 C       -5.9410    -1.6070    -0.1120 C.3   1 <1>   0.4230 
 17 O       -6.1930    -0.0230    -1.9250 O.3   1 <1>  -0.5600 
 18 C       -6.2960    -1.3810    -1.6010 C.3   1 <1>   0.1200 
 19 C       -6.0310    -3.0830     0.3080 C.3   1 <1>  -0.1600 
 20 C       -7.4800    -3.5910     0.3560 C.3   1 <1>  -0.1600 
 21 C       -7.5340    -5.0370     0.8550 C.3   1 <1>  -0.2400 
 22 H       -0.1260     2.1730     2.5460 H     1 <1>   0.0800 
 23 H       -1.7900     2.5200     2.1560 H     1 <1>   0.0800 
 24 H       -3.2240     1.9310     0.5110 H     1 <1>   0.0800 
 25 H       -2.6580     1.2750    -0.9820 H     1 <1>   0.0800 
 26 H       -1.2970    -1.4850    -0.4160 H     1 <1>   0.0800 
 27 H       -1.8730    -1.9290     1.1550 H     1 <1>   0.0800 
 28 H       -5.1890     0.9840     0.3400 H     1 <1>   0.0800 
 29 H       -3.5250    -2.8720    -0.0880 H     1 <1>   0.0800 
 30 H       -3.3760    -1.7280    -1.3890 H     1 <1>   0.0800 
 31 H        1.6050     2.1600     0.4610 H     1 <1>   0.1500 
 32 H       -4.4790    -1.0260     1.2380 H     1 <1>   0.4500 
 33 H       -4.2310     0.0820    -2.3880 H     1 <1>   0.0800 
 34 H       -5.0070     1.5910    -1.9780 H     1 <1>   0.0800 
 35 H       -0.9310     4.5890    -1.9190 H     1 <1>   0.1500 
 36 H        1.5400     3.7000    -1.7710 H     1 <1>   0.1500 
 37 H       -6.6750    -1.0680     0.4650 H     1 <1>   0.0800 
 38 H       -7.3130    -1.6760    -1.7920 H     1 <1>   0.0800 
 39 H       -5.6510    -1.9450    -2.2520 H     1 <1>   0.0800 
 40 H       -5.4760    -3.7010    -0.3750 H     1 <1>   0.0800 
 41 H       -5.6090    -3.1940     1.2930 H     1 <1>   0.0800 
 42 H       -8.0670    -2.9740     1.0180 H     1 <1>   0.0800 
 43 H       -7.9300    -3.5510    -0.6220 H     1 <1>   0.0800 
 44 H       -7.1270    -5.1150     1.8490 H     1 <1>   0.0800 
 45 H       -6.9810    -5.6890     0.2010 H     1 <1>   0.0800 
 46 H       -8.5550    -5.3770     0.8830 H     1 <1>   0.0800 
@<TRIPOS>BOND
  1   1   2  2   
  2   2   3  am  
  3   2   4  1   
  4   3   5  1   
  5   3   6  1   
  6   4   7  1   
  7   4  22  1   
  8   4  23  1   
  9   5   8  1   
 10   5  24  1   
 11   5  25  1   
 12   6   9  1   
 13   6  26  1   
 14   6  27  1   
 15   7  10  1   
 16   7  11  1   
 17   8  12  1   
 18   8  13  1   
 19   8  28  1   
 20   9  12  1   
 21   9  29  1   
 22   9  30  1   
 23  10  14  2   
 24  11  15  2   
 25  11  31  1   
 26  12  16  1   
 27  12  32  1   
 28  13  17  1   
 29  13  33  1   
 30  13  34  1   
 31  14  15  1   
 32  14  35  1   
 33  15  36  1   
 34  16  18  1   
 35  16  19  1   
 36  16  37  1   
 37  17  18  1   
 38  18  38  1   
 39  18  39  1   
 40  19  20  1   
 41  19  40  1   
 42  19  41  1   
 43  20  21  1   
 44  20  42  1   
 45  20  43  1   
 46  21  44  1   
 47  21  45  1   
 48  21  46  1   
@<TRIPOS>SUBSTRUCTURE
  1 ****   5 GROUP 4 **** **** 0

# MOE 2024.06 (io_trps.svl 2023.06)
