@<TRIPOS>MOLECULE
NONAME
52 54 1 0 0 
SMALL
USER_CHARGES


@<TRIPOS>ATOM
  1 O       -2.3370    -1.0000     1.1000 O.co2 1 <1>  -0.9000 
  2 C       -1.3850    -1.1580     0.3110 C.2   1 <1>   0.9790 
  3 O       -1.3260    -0.4140    -0.6770 O.co2 1 <1>  -0.9000 
  4 C       -0.6220    -2.3900     0.3700 C.ar  1 <1>  -0.1790 
  5 C       -0.6410    -3.1790     1.5170 C.ar  1 <1>  -0.1500 
  6 C        0.0400    -2.8930    -0.7490 C.ar  1 <1>  -0.1500 
  7 C       -0.1790    -4.4770     1.4950 C.ar  1 <1>  -0.1500 
  8 C        0.5100    -4.1910    -0.7770 C.ar  1 <1>  -0.1500 
  9 C        0.3250    -5.0180     0.3220 C.ar  1 <1>  -0.1430 
 10 C        0.6140    -6.5040     0.2650 C.3   1 <1>   0.4870 
 11 N       -0.1280    -7.1510    -0.8750 N.4   1 <1>  -0.9590 
 12 C       -1.6350    -7.1300    -0.9130 C.3   1 <1>   0.4230 
 13 C        0.3590    -8.5530    -1.0420 C.3   1 <1>   0.2630 
 14 C       -2.1460    -6.1020    -1.9150 C.3   1 <1>  -0.1600 
 15 C       -2.4140    -6.8660     0.3830 C.3   1 <1>  -0.1600 
 16 C       -3.6080    -5.8480    -1.5260 C.3   1 <1>  -0.0800 
 17 C       -3.6630    -6.0460    -0.0090 C.3   1 <1>  -0.0800 
 18 C       -4.0620    -4.4070    -1.7840 C.3   1 <1>  -0.1600 
 19 C       -3.7620    -4.6260     0.5980 C.3   1 <1>  -0.1600 
 20 C       -3.5660    -3.6410    -0.5630 C.3   1 <1>   0.4230 
 21 N       -4.2050    -2.3060    -0.3850 N.4   1 <1>  -0.9590 
 22 C       -5.6190    -2.2530     0.0690 C.3   1 <1>   0.2630 
 23 C       -3.9790    -1.4090    -1.5590 C.3   1 <1>   0.2630 
 24 H       -1.0670    -2.7710     2.4210 H     1 <1>   0.1500 
 25 H        0.1490    -2.2550    -1.6130 H     1 <1>   0.1500 
 26 H       -0.2510    -5.0630     2.3960 H     1 <1>   0.1500 
 27 H        0.9890    -4.5440    -1.6730 H     1 <1>   0.1500 
 28 H        0.3260    -6.9630     1.1960 H     1 <1>   0.0800 
 29 H        1.6750    -6.6410     0.1380 H     1 <1>   0.0800 
 30 H        0.1610    -6.6170    -1.7030 H     1 <1>   0.4500 
 31 H       -1.9770    -8.0860    -1.2780 H     1 <1>   0.0800 
 32 H        0.0750    -9.1520    -0.1920 H     1 <1>   0.0800 
 33 H        1.4330    -8.5700    -1.1340 H     1 <1>   0.0800 
 34 H       -0.0650    -8.9940    -1.9310 H     1 <1>   0.0800 
 35 H       -1.5930    -5.1880    -1.8340 H     1 <1>   0.0800 
 36 H       -2.0790    -6.4680    -2.9250 H     1 <1>   0.0800 
 37 H       -2.7250    -7.8090     0.7960 H     1 <1>   0.0800 
 38 H       -1.8560    -6.3550     1.1340 H     1 <1>   0.0800 
 39 H       -4.2500    -6.5560    -2.0260 H     1 <1>   0.0800 
 40 H       -4.5540    -6.5970     0.2510 H     1 <1>   0.0800 
 41 H       -5.1360    -4.3780    -1.8270 H     1 <1>   0.0800 
 42 H       -3.6500    -4.0180    -2.6990 H     1 <1>   0.0800 
 43 H       -3.0360    -4.4500     1.3690 H     1 <1>   0.0800 
 44 H       -4.7390    -4.5240     1.0300 H     1 <1>   0.0800 
 45 H       -2.5070    -3.4950    -0.6870 H     1 <1>   0.0800 
 46 H       -3.6250    -1.8280     0.3630 H     1 <1>   0.4500 
 47 H       -6.2590    -2.7530    -0.6380 H     1 <1>   0.0800 
 48 H       -5.9330    -1.2260     0.1620 H     1 <1>   0.0800 
 49 H       -5.7190    -2.7220     1.0330 H     1 <1>   0.0800 
 50 H       -4.6090    -1.6930    -2.3840 H     1 <1>   0.0800 
 51 H       -2.9490    -1.4580    -1.8710 H     1 <1>   0.0800 
 52 H       -4.1850    -0.3880    -1.2850 H     1 <1>   0.0800 
@<TRIPOS>BOND
  1   1   2  ar  
  2   2   3  ar  
  3   2   4  1   
  4   4   5  ar  
  5   4   6  ar  
  6   5   7  ar  
  7   5  24  1   
  8   6   8  ar  
  9   6  25  1   
 10   7   9  ar  
 11   7  26  1   
 12   8   9  ar  
 13   8  27  1   
 14   9  10  1   
 15  10  11  1   
 16  10  28  1   
 17  10  29  1   
 18  11  12  1   
 19  11  13  1   
 20  11  30  1   
 21  12  14  1   
 22  12  15  1   
 23  12  31  1   
 24  13  32  1   
 25  13  33  1   
 26  13  34  1   
 27  14  16  1   
 28  14  35  1   
 29  14  36  1   
 30  15  17  1   
 31  15  37  1   
 32  15  38  1   
 33  16  17  1   
 34  16  18  1   
 35  16  39  1   
 36  17  19  1   
 37  17  40  1   
 38  18  20  1   
 39  18  41  1   
 40  18  42  1   
 41  19  20  1   
 42  19  43  1   
 43  19  44  1   
 44  20  21  1   
 45  20  45  1   
 46  21  22  1   
 47  21  23  1   
 48  21  46  1   
 49  22  47  1   
 50  22  48  1   
 51  22  49  1   
 52  23  50  1   
 53  23  51  1   
 54  23  52  1   
@<TRIPOS>SUBSTRUCTURE
  1 ****  20 GROUP 4 **** **** 0

# MOE 2024.06 (io_trps.svl 2023.06)
