@<TRIPOS>MOLECULE
NONAME
45 47 1 0 0 
SMALL
USER_CHARGES


@<TRIPOS>ATOM
  1 O       -1.6700    -2.0330     1.1110 O.2   1 <1>  -0.5700 
  2 C       -0.5880    -2.5490     1.0250 C.2   1 <1>   0.5690 
  3 N       -0.3670    -3.8110     1.4470 N.am  1 <1>  -0.7300 
  4 C        0.5870    -1.7940     0.4430 C.3   1 <1>  -0.0990 
  5 C        0.9490    -4.4740     1.3880 C.3   1 <1>   0.1400 
  6 C        1.3990    -2.7050    -0.4990 C.3   1 <1>  -0.0800 
  7 C        1.6450    -4.1340     0.0510 C.3   1 <1>  -0.0800 
  8 C        2.7760    -2.1280    -0.8580 C.3   1 <1>  -0.1600 
  9 C        3.1690    -4.3080     0.0990 C.3   1 <1>  -0.1600 
 10 C        3.6860    -3.3470    -0.9690 C.3   1 <1>   0.4230 
 11 N        5.1280    -3.0060    -0.8430 N.4   1 <1>  -0.9590 
 12 C        5.5750    -2.4690     0.4760 C.3   1 <1>   0.5230 
 13 C        6.0120    -4.1270    -1.2860 C.3   1 <1>   0.2630 
 14 C        6.8630    -1.7130     0.2380 C.2   1 <1>  -0.0400 
 15 O        6.8840    -0.8230    -0.7350 O.3   1 <1>  -0.2800 
 16 C        8.0670    -1.7820     0.8440 C.2   1 <1>  -0.1500 
 17 C        8.0920    -0.2990    -0.7730 C.2   1 <1>  -0.0400 
 18 C        8.8760    -0.8520     0.1800 C.2   1 <1>  -0.1810 
 19 C        8.3710     0.7690    -1.8110 C.3   1 <1>  -0.0600 
 20 C       10.3270    -0.5870     0.5370 C.3   1 <1>  -0.0590 
 21 H       -1.1550    -4.3050     1.8750 H     1 <1>   0.3700 
 22 H        0.2270    -0.9320    -0.0900 H     1 <1>   0.0800 
 23 H        1.1900    -1.4540     1.2650 H     1 <1>   0.0800 
 24 H        1.5360    -4.1260     2.2210 H     1 <1>   0.0800 
 25 H        0.8240    -5.5400     1.4800 H     1 <1>   0.0800 
 26 H        0.8260    -2.8110    -1.4070 H     1 <1>   0.0800 
 27 H        1.2590    -4.8240    -0.6830 H     1 <1>   0.0800 
 28 H        3.1020    -1.4660    -0.0770 H     1 <1>   0.0800 
 29 H        2.7330    -1.5850    -1.7860 H     1 <1>   0.0800 
 30 H        3.4470    -5.3260    -0.1100 H     1 <1>   0.0800 
 31 H        3.5230    -4.0270     1.0740 H     1 <1>   0.0800 
 32 H        3.5100    -3.7950    -1.9350 H     1 <1>   0.0800 
 33 H        5.3180    -2.2150    -1.4800 H     1 <1>   0.4500 
 34 H        4.8470    -1.7830     0.8720 H     1 <1>   0.0800 
 35 H        5.7290    -3.2640     1.1850 H     1 <1>   0.0800 
 36 H        5.9090    -4.9730    -0.6260 H     1 <1>   0.0800 
 37 H        7.0440    -3.8110    -1.2840 H     1 <1>   0.0800 
 38 H        5.7540    -4.4340    -2.2870 H     1 <1>   0.0800 
 39 H        8.3910    -2.3990     1.6650 H     1 <1>   0.1500 
 40 H        9.3830     1.1190    -1.7370 H     1 <1>   0.0800 
 41 H        7.7070     1.6010    -1.6630 H     1 <1>   0.0800 
 42 H        8.2150     0.3700    -2.7970 H     1 <1>   0.0800 
 43 H       10.9020    -1.4890     0.4320 H     1 <1>   0.0800 
 44 H       10.3960    -0.2470     1.5550 H     1 <1>   0.0800 
 45 H       10.7490     0.1650    -0.1030 H     1 <1>   0.0800 
@<TRIPOS>BOND
  1   1   2  2   
  2   2   3  am  
  3   2   4  1   
  4   3   5  1   
  5   3  21  1   
  6   4   6  1   
  7   4  22  1   
  8   4  23  1   
  9   5   7  1   
 10   5  24  1   
 11   5  25  1   
 12   6   7  1   
 13   6   8  1   
 14   6  26  1   
 15   7   9  1   
 16   7  27  1   
 17   8  10  1   
 18   8  28  1   
 19   8  29  1   
 20   9  10  1   
 21   9  30  1   
 22   9  31  1   
 23  10  11  1   
 24  10  32  1   
 25  11  12  1   
 26  11  13  1   
 27  11  33  1   
 28  12  14  1   
 29  12  34  1   
 30  12  35  1   
 31  13  36  1   
 32  13  37  1   
 33  13  38  1   
 34  14  15  1   
 35  14  16  2   
 36  15  17  1   
 37  16  18  1   
 38  16  39  1   
 39  17  18  2   
 40  17  19  1   
 41  18  20  1   
 42  19  40  1   
 43  19  41  1   
 44  19  42  1   
 45  20  43  1   
 46  20  44  1   
 47  20  45  1   
@<TRIPOS>SUBSTRUCTURE
  1 ****  12 GROUP 4 **** **** 0

# MOE 2024.06 (io_trps.svl 2023.06)
