@<TRIPOS>MOLECULE
NONAME
32 33 1 0 0 
SMALL
USER_CHARGES


@<TRIPOS>ATOM
  1 O        0.2180    -0.1240     0.7520 O.2   1 <1>  -0.5700 
  2 C        1.2630    -0.6510     0.4220 C.2   1 <1>   0.5440 
  3 N        2.3700     0.1170     0.1450 N.am  1 <1>  -0.4940 
  4 C        1.3720    -2.0990     0.3080 C.ar  1 <1>   0.3960 
  5 C        2.5640     1.5010     0.1900 C.2   1 <1>   0.2040 
  6 N        2.5450    -2.6410    -0.0690 N.ar  1 <1>  -0.6200 
  7 C        0.2600    -2.9010     0.5900 C.ar  1 <1>   0.1600 
  8 O        1.6330     2.3330     0.5930 O.3   1 <1>  -0.0190 
  9 C        3.6520     2.2310    -0.1280 C.2   1 <1>  -0.1810 
 10 C        2.5080    -3.9600    -0.1330 C.ar  1 <1>   0.1600 
 11 N        0.2300    -4.2230     0.5240 N.ar  1 <1>  -0.6200 
 12 N        2.0440     3.5760     0.5620 N.2   1 <1>  -0.4100 
 13 C        3.2530     3.5400     0.1320 C.2   1 <1>   0.1080 
 14 C        5.0000     1.7610    -0.6500 C.3   1 <1>   0.0210 
 15 C        1.3870    -4.7340     0.1540 C.ar  1 <1>   0.1670 
 16 C        4.1010     4.7800    -0.0560 C.3   1 <1>  -0.0590 
 17 C        5.9980     1.6070     0.4990 C.3   1 <1>  -0.2400 
 18 C        1.4410    -6.2460     0.0520 C.3   1 <1>  -0.0970 
 19 H        3.1820    -0.4390    -0.1260 H     1 <1>   0.3700 
 20 H       -0.6520    -2.4120     0.8870 H     1 <1>   0.1500 
 21 H        3.4150    -4.4590    -0.4290 H     1 <1>   0.1500 
 22 H        5.3750     2.4660    -1.3700 H     1 <1>   0.0800 
 23 H        4.8830     0.8160    -1.1500 H     1 <1>   0.0800 
 24 H        4.9630     4.7350     0.5820 H     1 <1>   0.0800 
 25 H        3.5300     5.6550     0.1960 H     1 <1>   0.0800 
 26 H        4.4160     4.8560    -1.0800 H     1 <1>   0.0800 
 27 H        6.1460     2.5490     0.9970 H     1 <1>   0.0800 
 28 H        6.9450     1.2630     0.1240 H     1 <1>   0.0800 
 29 H        5.6310     0.8940     1.2170 H     1 <1>   0.0800 
 30 H        2.4140    -6.5840    -0.2530 H     1 <1>   0.0800 
 31 H        0.7150    -6.5830    -0.6640 H     1 <1>   0.0800 
 32 H        1.2060    -6.6780     1.0080 H     1 <1>   0.0800 
@<TRIPOS>BOND
  1   1   2  2   
  2   2   3  am  
  3   2   4  1   
  4   3   5  1   
  5   3  19  1   
  6   4   6  ar  
  7   4   7  ar  
  8   5   8  1   
  9   5   9  2   
 10   6  10  ar  
 11   7  11  ar  
 12   7  20  1   
 13   8  12  1   
 14   9  13  1   
 15   9  14  1   
 16  10  15  ar  
 17  10  21  1   
 18  11  15  ar  
 19  12  13  2   
 20  13  16  1   
 21  14  17  1   
 22  14  22  1   
 23  14  23  1   
 24  15  18  1   
 25  16  24  1   
 26  16  25  1   
 27  16  26  1   
 28  17  27  1   
 29  17  28  1   
 30  17  29  1   
 31  18  30  1   
 32  18  31  1   
 33  18  32  1   
@<TRIPOS>SUBSTRUCTURE
  1 ****   3 GROUP 4 **** **** 0

# MOE 2024.06 (io_trps.svl 2023.06)
