@<TRIPOS>MOLECULE
NONAME
53 55 1 0 0 
SMALL
USER_CHARGES


@<TRIPOS>ATOM
  1 O        1.4120     1.4340     2.2920 O.co2 1 <1>  -0.9000 
  2 C        1.5180     0.5520     1.4340 C.2   1 <1>   0.9060 
  3 O        1.0950    -0.5980     1.6260 O.co2 1 <1>  -0.9000 
  4 C        2.2800     0.8150     0.1330 C.3   1 <1>  -0.1060 
  5 C        3.5410    -0.0690     0.2930 C.3   1 <1>   0.2000 
  6 C        2.7110     2.3050    -0.0410 C.3   1 <1>  -0.1600 
  7 C        1.4080     0.4010    -1.0900 C.3   1 <1>  -0.0160 
  8 O        3.2510    -1.3880    -0.0200 O.3   1 <1>  -0.6800 
  9 C        4.7370     0.4310    -0.5240 C.3   1 <1>   0.2090 
 10 C        4.0660     2.6090     0.5980 C.3   1 <1>   0.2090 
 11 C        0.2850     1.3790    -1.4300 C.ar  1 <1>  -0.1440 
 12 N        5.1470     1.8230    -0.1040 N.pl3 1 <1>  -0.8380 
 13 C        0.3560     2.1670    -2.5690 C.ar  1 <1>  -0.1500 
 14 C       -0.8240     1.4840    -0.6050 C.ar  1 <1>  -0.1500 
 15 C        6.4140     2.3000    -0.2250 C.ar  1 <1>   0.4100 
 16 C       -0.6660     3.0500    -2.8780 C.ar  1 <1>  -0.1500 
 17 C       -1.8460     2.3660    -0.9100 C.ar  1 <1>  -0.1500 
 18 N        6.7530     3.3480     0.5010 N.ar  1 <1>  -0.6200 
 19 C        7.3410     1.6960    -1.0990 C.ar  1 <1>  -0.1500 
 20 C       -1.7680     3.1500    -2.0480 C.ar  1 <1>  -0.1500 
 21 C        7.9890     3.8120     0.4180 C.ar  1 <1>   0.7710 
 22 C        8.5990     2.1880    -1.1780 C.ar  1 <1>   0.2180 
 23 N        8.8960     3.2530    -0.4000 N.ar  1 <1>  -0.1790 
 24 N        8.3530     4.8850     1.1770 N.pl3 1 <1>  -0.8380 
 25 C        9.6730     1.6150    -2.0870 C.3   1 <1>  -0.0970 
 26 C        7.3350     5.6090     2.0110 C.3   1 <1>   0.1290 
 27 C        9.7320     5.4380     1.3660 C.3   1 <1>   0.1290 
 28 H        3.8460    -0.0700     1.3280 H     1 <1>   0.0800 
 29 H        1.9610     2.9510     0.3810 H     1 <1>   0.0800 
 30 H        2.7890     2.5570    -1.0830 H     1 <1>   0.0800 
 31 H        2.0450     0.2930    -1.9490 H     1 <1>   0.0800 
 32 H        0.9630    -0.5640    -0.9170 H     1 <1>   0.0800 
 33 H        2.4450    -1.6100     0.5190 H     1 <1>   0.4000 
 34 H        4.4700     0.4400    -1.5660 H     1 <1>   0.0800 
 35 H        5.5540    -0.2500    -0.3690 H     1 <1>   0.0800 
 36 H        4.0420     2.3500     1.6440 H     1 <1>   0.0800 
 37 H        4.2580     3.6650     0.5170 H     1 <1>   0.0800 
 38 H        1.2090     2.0970    -3.2190 H     1 <1>   0.1500 
 39 H       -0.8910     0.8800     0.2860 H     1 <1>   0.1500 
 40 H       -0.6000     3.6580    -3.7620 H     1 <1>   0.1500 
 41 H       -2.6960     2.4390    -0.2560 H     1 <1>   0.1500 
 42 H        7.0280     0.8600    -1.6940 H     1 <1>   0.1500 
 43 H       -2.5620     3.8360    -2.2840 H     1 <1>   0.1500 
 44 H        9.8020     3.6990    -0.4090 H     1 <1>   0.4570 
 45 H        9.2900     0.7760    -2.6410 H     1 <1>   0.0800 
 46 H       10.5150     1.2780    -1.5090 H     1 <1>   0.0800 
 47 H       10.0050     2.3570    -2.7920 H     1 <1>   0.0800 
 48 H        7.5970     6.6490     2.1080 H     1 <1>   0.0800 
 49 H        7.2880     5.1680     2.9920 H     1 <1>   0.0800 
 50 H        6.3560     5.5570     1.5650 H     1 <1>   0.0800 
 51 H        9.8990     5.6460     2.4110 H     1 <1>   0.0800 
 52 H        9.8340     6.3600     0.8170 H     1 <1>   0.0800 
 53 H       10.4920     4.7480     1.0470 H     1 <1>   0.0800 
@<TRIPOS>BOND
  1   1   2  ar  
  2   2   3  ar  
  3   2   4  1   
  4   4   5  1   
  5   4   6  1   
  6   4   7  1   
  7   5   8  1   
  8   5   9  1   
  9   5  28  1   
 10   6  10  1   
 11   6  29  1   
 12   6  30  1   
 13   7  11  1   
 14   7  31  1   
 15   7  32  1   
 16   8  33  1   
 17   9  12  1   
 18   9  34  1   
 19   9  35  1   
 20  10  12  1   
 21  10  36  1   
 22  10  37  1   
 23  11  13  ar  
 24  11  14  ar  
 25  12  15  1   
 26  13  16  ar  
 27  13  38  1   
 28  14  17  ar  
 29  14  39  1   
 30  15  18  ar  
 31  15  19  ar  
 32  16  20  ar  
 33  16  40  1   
 34  17  20  ar  
 35  17  41  1   
 36  18  21  ar  
 37  19  22  ar  
 38  19  42  1   
 39  20  43  1   
 40  21  23  ar  
 41  21  24  1   
 42  22  23  ar  
 43  22  25  1   
 44  23  44  1   
 45  24  26  1   
 46  24  27  1   
 47  25  45  1   
 48  25  46  1   
 49  25  47  1   
 50  26  48  1   
 51  26  49  1   
 52  26  50  1   
 53  27  51  1   
 54  27  52  1   
 55  27  53  1   
@<TRIPOS>SUBSTRUCTURE
  1 ****  10 GROUP 4 **** **** 0

# MOE 2024.06 (io_trps.svl 2023.06)
