@<TRIPOS>MOLECULE
NONAME
58 60 1 0 0 
SMALL
USER_CHARGES


@<TRIPOS>ATOM
  1 O       -0.1790    -0.8460    -0.7770 O.2   1 <1>  -0.5700 
  2 C        0.5410    -1.7810    -0.5180 C.2   1 <1>   0.5690 
  3 N        0.1260    -3.0850    -0.5570 N.am  1 <1>  -0.6600 
  4 C        1.9790    -1.5150    -0.1220 C.3   1 <1>  -0.0990 
  5 C        1.0680    -4.1800    -0.2140 C.3   1 <1>   0.1400 
  6 C       -1.2700    -3.4740    -0.8900 C.3   1 <1>   0.0600 
  7 C        2.9290    -2.4830    -0.8530 C.3   1 <1>  -0.0800 
  8 C        2.4270    -3.9400    -0.8990 C.3   1 <1>  -0.0800 
  9 C        4.3300    -2.5320    -0.2350 C.3   1 <1>  -0.1600 
 10 C        3.5550    -4.7870    -0.2980 C.3   1 <1>  -0.1600 
 11 C        4.8320    -3.9580    -0.4700 C.3   1 <1>   0.2200 
 12 N        5.9240    -4.4200     0.4530 N.am  1 <1>  -0.6600 
 13 C        6.7630    -3.6030     1.1900 C.2   1 <1>   0.7150 
 14 C        6.1020    -5.9000     0.5600 C.3   1 <1>   0.0600 
 15 O        7.2270    -4.0300     2.2300 O.2   1 <1>  -0.5700 
 16 C        7.1340    -2.2900     0.7590 C.2   1 <1>  -0.2370 
 17 N        7.7600    -2.0130    -0.4110 N.pl3 1 <1>   0.3140 
 18 C        6.9580    -1.0880     1.3700 C.2   1 <1>  -0.1500 
 19 N        7.9420    -0.6940    -0.5850 N.2   1 <1>  -0.7070 
 20 C        8.2690    -2.9800    -1.4100 C.3   1 <1>   0.0960 
 21 C        7.4590    -0.1470     0.4900 C.2   1 <1>   0.1080 
 22 C        9.5310    -3.6920    -0.9050 C.3   1 <1>  -0.2400 
 23 C        7.4600     1.3530     0.7230 C.3   1 <1>   0.0210 
 24 C        6.0400     1.9350     0.8720 C.3   1 <1>  -0.0800 
 25 C        5.2020     1.7240    -0.3970 C.3   1 <1>  -0.2400 
 26 C        6.1080     3.4320     1.2010 C.3   1 <1>  -0.2400 
 27 H        2.2370    -0.4980    -0.3560 H     1 <1>   0.0800 
 28 H        2.0510    -1.6450     0.9410 H     1 <1>   0.0800 
 29 H        1.1880    -4.1970     0.8560 H     1 <1>   0.0800 
 30 H        0.6660    -5.1290    -0.5250 H     1 <1>   0.0800 
 31 H       -1.7060    -4.0070    -0.0630 H     1 <1>   0.0800 
 32 H       -1.2740    -4.1020    -1.7630 H     1 <1>   0.0800 
 33 H       -1.8680    -2.6020    -1.0910 H     1 <1>   0.0800 
 34 H        3.0190    -2.1440    -1.8720 H     1 <1>   0.0800 
 35 H        2.3190    -4.2140    -1.9360 H     1 <1>   0.0800 
 36 H        4.2690    -2.3450     0.8230 H     1 <1>   0.0800 
 37 H        4.9630    -1.7990    -0.7020 H     1 <1>   0.0800 
 38 H        3.6240    -5.7400    -0.7900 H     1 <1>   0.0800 
 39 H        3.3760    -4.9320     0.7540 H     1 <1>   0.0800 
 40 H        5.1680    -4.0470    -1.4890 H     1 <1>   0.0800 
 41 H        6.0000    -6.3590    -0.4070 H     1 <1>   0.0800 
 42 H        5.3660    -6.3080     1.2320 H     1 <1>   0.0800 
 43 H        7.0800    -6.1360     0.9460 H     1 <1>   0.0800 
 44 H        6.5150    -0.8990     2.3300 H     1 <1>   0.1500 
 45 H        7.5000    -3.6950    -1.6290 H     1 <1>   0.0800 
 46 H        8.4960    -2.4390    -2.3110 H     1 <1>   0.0800 
 47 H        9.3180    -4.2580    -0.0150 H     1 <1>   0.0800 
 48 H       10.2980    -2.9690    -0.6890 H     1 <1>   0.0800 
 49 H        9.8980    -4.3640    -1.6590 H     1 <1>   0.0800 
 50 H        8.0290     1.5510     1.6130 H     1 <1>   0.0800 
 51 H        7.9630     1.8300    -0.0990 H     1 <1>   0.0800 
 52 H        5.5500     1.4340     1.6900 H     1 <1>   0.0800 
 53 H        5.6700     2.1980    -1.2420 H     1 <1>   0.0800 
 54 H        4.2170     2.1370    -0.2710 H     1 <1>   0.0800 
 55 H        5.1010     0.6750    -0.6120 H     1 <1>   0.0800 
 56 H        6.5890     3.9740     0.4050 H     1 <1>   0.0800 
 57 H        6.6620     3.5920     2.1100 H     1 <1>   0.0800 
 58 H        5.1170     3.8290     1.3360 H     1 <1>   0.0800 
@<TRIPOS>BOND
  1   1   2  2   
  2   2   3  am  
  3   2   4  1   
  4   3   5  1   
  5   3   6  1   
  6   4   7  1   
  7   4  27  1   
  8   4  28  1   
  9   5   8  1   
 10   5  29  1   
 11   5  30  1   
 12   6  31  1   
 13   6  32  1   
 14   6  33  1   
 15   7   8  1   
 16   7   9  1   
 17   7  34  1   
 18   8  10  1   
 19   8  35  1   
 20   9  11  1   
 21   9  36  1   
 22   9  37  1   
 23  10  11  1   
 24  10  38  1   
 25  10  39  1   
 26  11  12  1   
 27  11  40  1   
 28  12  13  am  
 29  12  14  1   
 30  13  15  2   
 31  13  16  1   
 32  14  41  1   
 33  14  42  1   
 34  14  43  1   
 35  16  17  1   
 36  16  18  2   
 37  17  19  1   
 38  17  20  1   
 39  18  21  1   
 40  18  44  1   
 41  19  21  2   
 42  20  22  1   
 43  20  45  1   
 44  20  46  1   
 45  21  23  1   
 46  22  47  1   
 47  22  48  1   
 48  22  49  1   
 49  23  24  1   
 50  23  50  1   
 51  23  51  1   
 52  24  25  1   
 53  24  26  1   
 54  24  52  1   
 55  25  53  1   
 56  25  54  1   
 57  25  55  1   
 58  26  56  1   
 59  26  57  1   
 60  26  58  1   
@<TRIPOS>SUBSTRUCTURE
  1 ****   9 GROUP 4 **** **** 0

# MOE 2024.06 (io_trps.svl 2023.06)
