@<TRIPOS>MOLECULE
NONAME
40 41 1 0 0 
SMALL
USER_CHARGES


@<TRIPOS>ATOM
  1 O       -0.9330    -1.4450     0.9780 O.co2 1 <1>  -0.9000 
  2 C       -0.1360    -2.3960     0.8980 C.2   1 <1>   1.0330 
  3 O        0.0150    -3.1350     1.8870 O.co2 1 <1>  -0.9000 
  4 C        0.5780    -2.6370    -0.3110 C.2   1 <1>  -0.2330 
  5 C        0.2130    -3.5700    -1.2800 C.2   1 <1>   0.3720 
  6 C        1.7110    -2.0790    -0.8080 C.2   1 <1>   0.0870 
  7 N        1.0470    -3.5740    -2.2590 N.2   1 <1>  -0.4100 
  8 N       -0.9100    -4.4030    -1.2420 N.pl3 1 <1>  -0.8210 
  9 O        1.9440    -2.6710    -1.9570 O.3   1 <1>  -0.0190 
 10 C        2.6050    -1.0520    -0.3260 C.ar  1 <1>   0.0530 
 11 C       -0.8940    -5.3350    -0.0810 C.3   1 <1>   0.2090 
 12 C       -2.1820    -3.6370    -1.3310 C.3   1 <1>   0.1290 
 13 C        3.9170    -0.9670    -0.7970 C.ar  1 <1>  -0.1500 
 14 C        2.2080    -0.1040     0.6180 C.ar  1 <1>  -0.1500 
 15 C       -1.3440    -6.7220    -0.5460 C.3   1 <1>  -0.1600 
 16 C        4.7890     0.0090    -0.3500 C.ar  1 <1>  -0.1500 
 17 C        3.0730     0.8750     1.0710 C.ar  1 <1>  -0.1500 
 18 C       -1.4820    -7.7310     0.6090 C.3   1 <1>  -0.0800 
 19 C        4.3680     0.9340     0.5880 C.ar  1 <1>  -0.1500 
 20 C       -0.1420    -7.9910     1.3110 C.3   1 <1>  -0.2400 
 21 C       -2.0480    -9.0530     0.0790 C.3   1 <1>  -0.2400 
 22 H       -1.5400    -4.9700     0.7000 H     1 <1>   0.0800 
 23 H        0.1040    -5.3910     0.3210 H     1 <1>   0.0800 
 24 H       -2.0870    -2.8580    -2.0680 H     1 <1>   0.0800 
 25 H       -2.4200    -3.1830    -0.3830 H     1 <1>   0.0800 
 26 H       -2.9830    -4.2930    -1.6200 H     1 <1>   0.0800 
 27 H        4.2580    -1.6830    -1.5230 H     1 <1>   0.1500 
 28 H        1.2030    -0.1260     1.0030 H     1 <1>   0.1500 
 29 H       -0.6350    -7.0860    -1.2680 H     1 <1>   0.0800 
 30 H       -2.2960    -6.6200    -1.0340 H     1 <1>   0.0800 
 31 H        5.7940     0.0480    -0.7300 H     1 <1>   0.1500 
 32 H        2.7330     1.5870     1.8010 H     1 <1>   0.1500 
 33 H       -2.1750    -7.3330     1.3330 H     1 <1>   0.0800 
 34 H        5.0420     1.6950     0.9410 H     1 <1>   0.1500 
 35 H        0.5980    -8.3220     0.6040 H     1 <1>   0.0800 
 36 H       -0.2560    -8.7450     2.0690 H     1 <1>   0.0800 
 37 H        0.2170    -7.0960     1.7900 H     1 <1>   0.0800 
 38 H       -1.3810    -9.4840    -0.6480 H     1 <1>   0.0800 
 39 H       -3.0040    -8.8900    -0.3860 H     1 <1>   0.0800 
 40 H       -2.1790    -9.7540     0.8850 H     1 <1>   0.0800 
@<TRIPOS>BOND
  1   1   2  ar  
  2   2   3  ar  
  3   2   4  1   
  4   4   5  1   
  5   4   6  2   
  6   5   7  2   
  7   5   8  1   
  8   6   9  1   
  9   6  10  1   
 10   7   9  1   
 11   8  11  1   
 12   8  12  1   
 13  10  13  ar  
 14  10  14  ar  
 15  11  15  1   
 16  11  22  1   
 17  11  23  1   
 18  12  24  1   
 19  12  25  1   
 20  12  26  1   
 21  13  16  ar  
 22  13  27  1   
 23  14  17  ar  
 24  14  28  1   
 25  15  18  1   
 26  15  29  1   
 27  15  30  1   
 28  16  19  ar  
 29  16  31  1   
 30  17  19  ar  
 31  17  32  1   
 32  18  20  1   
 33  18  21  1   
 34  18  33  1   
 35  19  34  1   
 36  20  35  1   
 37  20  36  1   
 38  20  37  1   
 39  21  38  1   
 40  21  39  1   
 41  21  40  1   
@<TRIPOS>SUBSTRUCTURE
  1 ****   4 GROUP 4 **** **** 0

# MOE 2024.06 (io_trps.svl 2023.06)
