@<TRIPOS>MOLECULE
NONAME
49 50 1 0 0 
SMALL
USER_CHARGES


@<TRIPOS>ATOM
  1 N        0.9320    -0.0010    -1.2780 N.2   1 <1>  -0.5650 
  2 C        1.6480    -0.5670    -0.3600 C.2   1 <1>   0.0060 
  3 C       -0.0480    -0.8910    -1.5180 C.2   1 <1>   0.0770 
  4 N        1.1870    -1.7870     0.0170 N.pl3 1 <1>   0.0480 
  5 C        2.8820     0.0940     0.2220 C.3   1 <1>   0.0200 
  6 C        0.0930    -1.9820    -0.7370 C.2   1 <1>  -0.3020 
  7 C        1.7220    -2.7270     1.0200 C.3   1 <1>   0.0160 
  8 C        3.0050     1.4980    -0.3860 C.3   1 <1>   0.3430 
  9 N        4.2010     2.2740     0.1000 N.4   1 <1>  -0.9590 
 10 C        3.9670     3.7260    -0.2580 C.3   1 <1>   0.3430 
 11 C        5.4410     1.7390    -0.5370 C.3   1 <1>   0.3430 
 12 C        4.9690     4.7640     0.3280 C.3   1 <1>   0.3430 
 13 C        6.6760     1.9380     0.3440 C.3   1 <1>  -0.1600 
 14 N        6.4360     4.4270     0.2000 N.4   1 <1>  -0.9590 
 15 C        6.8270     3.2770     1.0660 C.3   1 <1>   0.3430 
 16 C        7.2500     5.6380     0.5480 C.3   1 <1>   0.3430 
 17 C        8.6930     5.5200     0.0220 C.3   1 <1>  -0.0800 
 18 C        9.4430     6.8280     0.3060 C.3   1 <1>  -0.2400 
 19 C        8.7570     5.2190    -1.4860 C.3   1 <1>  -0.2400 
 20 H       -0.8170    -0.7000    -2.2490 H     1 <1>   0.1500 
 21 H        3.7360    -0.5110    -0.0220 H     1 <1>   0.0800 
 22 H        2.7710     0.1590     1.2890 H     1 <1>   0.0800 
 23 H       -0.5180    -2.8660    -0.6850 H     1 <1>   0.1500 
 24 H        2.7350    -2.9830     0.7700 H     1 <1>   0.0800 
 25 H        1.1240    -3.6210     1.0270 H     1 <1>   0.0800 
 26 H        1.6870    -2.2720     1.9930 H     1 <1>   0.0800 
 27 H        2.0990     2.0320    -0.1410 H     1 <1>   0.0800 
 28 H        3.0340     1.4070    -1.4610 H     1 <1>   0.0800 
 29 H        4.2320     2.1480     1.1210 H     1 <1>   0.4500 
 30 H        2.9790     4.0100     0.0690 H     1 <1>   0.0800 
 31 H        3.9710     3.8240    -1.3320 H     1 <1>   0.0800 
 32 H        5.5910     2.2210    -1.4910 H     1 <1>   0.0800 
 33 H        5.3330     0.6830    -0.7320 H     1 <1>   0.0800 
 34 H        4.7330     4.9110     1.3690 H     1 <1>   0.0800 
 35 H        4.7830     5.7060    -0.1650 H     1 <1>   0.0800 
 36 H        7.5470     1.7830    -0.2690 H     1 <1>   0.0800 
 37 H        6.6980     1.1570     1.0840 H     1 <1>   0.0800 
 38 H        6.6860     4.2280    -0.7800 H     1 <1>   0.4500 
 39 H        7.8560     3.3780     1.3760 H     1 <1>   0.0800 
 40 H        6.2250     3.2810     1.9610 H     1 <1>   0.0800 
 41 H        7.2650     5.7880     1.6160 H     1 <1>   0.0800 
 42 H        6.8060     6.5120     0.0980 H     1 <1>   0.0800 
 43 H        9.2100     4.7400     0.5550 H     1 <1>   0.0800 
 44 H        8.9950     7.6560    -0.2190 H     1 <1>   0.0800 
 45 H       10.4690     6.7480    -0.0110 H     1 <1>   0.0800 
 46 H        9.4430     7.0500     1.3590 H     1 <1>   0.0800 
 47 H        8.2150     5.9590    -2.0510 H     1 <1>   0.0800 
 48 H        8.3720     4.2430    -1.7170 H     1 <1>   0.0800 
 49 H        9.7820     5.2410    -1.8190 H     1 <1>   0.0800 
@<TRIPOS>BOND
  1   1   2  2   
  2   1   3  1   
  3   2   4  1   
  4   2   5  1   
  5   3   6  2   
  6   3  20  1   
  7   4   6  1   
  8   4   7  1   
  9   5   8  1   
 10   5  21  1   
 11   5  22  1   
 12   6  23  1   
 13   7  24  1   
 14   7  25  1   
 15   7  26  1   
 16   8   9  1   
 17   8  27  1   
 18   8  28  1   
 19   9  10  1   
 20   9  11  1   
 21   9  29  1   
 22  10  12  1   
 23  10  30  1   
 24  10  31  1   
 25  11  13  1   
 26  11  32  1   
 27  11  33  1   
 28  12  14  1   
 29  12  34  1   
 30  12  35  1   
 31  13  15  1   
 32  13  36  1   
 33  13  37  1   
 34  14  15  1   
 35  14  16  1   
 36  14  38  1   
 37  15  39  1   
 38  15  40  1   
 39  16  17  1   
 40  16  41  1   
 41  16  42  1   
 42  17  18  1   
 43  17  19  1   
 44  17  43  1   
 45  18  44  1   
 46  18  45  1   
 47  18  46  1   
 48  19  47  1   
 49  19  48  1   
 50  19  49  1   
@<TRIPOS>SUBSTRUCTURE
  1 ****   9 GROUP 4 **** **** 0

# MOE 2024.06 (io_trps.svl 2023.06)
