@<TRIPOS>MOLECULE
NONAME
46 49 1 0 0 
SMALL
USER_CHARGES


@<TRIPOS>ATOM
  1 F        0.7560     2.4060     0.9360 F     1 <1>  -0.1900 
  2 C        1.9990     2.4250     0.5430 C.ar  1 <1>   0.1900 
  3 C        2.7830     1.3170     0.7470 C.ar  1 <1>  -0.1500 
  4 C        2.4820     3.5650    -0.0760 C.ar  1 <1>  -0.1500 
  5 C        4.1100     1.3420     0.3280 C.ar  1 <1>   0.1170 
  6 C        3.7990     3.5900    -0.4830 C.ar  1 <1>  -0.1500 
  7 N        4.9020     0.2140     0.4820 N.am  1 <1>  -0.5470 
  8 C        4.6570     2.4990    -0.2710 C.ar  1 <1>   0.0280 
  9 C        6.1850     0.1450     0.0520 C.2   1 <1>   0.6160 
 10 C        6.0580     2.4820    -0.6490 C.2   1 <1>  -0.0140 
 11 O        6.8020    -0.8910     0.1980 O.2   1 <1>  -0.5700 
 12 C        6.7510     1.3120    -0.5160 C.2   1 <1>  -0.1360 
 13 C        6.7410     3.6650    -1.1280 C.2   1 <1>   0.6160 
 14 O        7.5910     3.5860    -1.9950 O.2   1 <1>  -0.5700 
 15 N        6.6160     4.8860    -0.5160 N.am  1 <1>  -0.6600 
 16 C        7.0980     4.9810     0.9070 C.3   1 <1>   0.2200 
 17 C        6.6220     6.1280    -1.3580 C.3   1 <1>   0.1400 
 18 C        6.5330     6.1950     1.6620 C.3   1 <1>   0.1200 
 19 C        8.6510     4.9720     0.9530 C.3   1 <1>   0.3430 
 20 C        7.6350     7.2080    -0.9280 C.3   1 <1>  -0.0800 
 21 O        7.3450     7.3140     1.4680 O.3   1 <1>  -0.5600 
 22 N        9.2810     5.3150    -0.3740 N.4   1 <1>  -0.9590 
 23 C        7.1440     8.0110     0.2860 C.3   1 <1>   0.1200 
 24 C        9.1010     6.7460    -0.7740 C.3   1 <1>   0.3430 
 25 C       10.7140     4.9100    -0.4250 C.3   1 <1>   0.2630 
 26 H        2.3690     0.4460     1.2190 H     1 <1>   0.1500 
 27 H        1.8250     4.4030    -0.2320 H     1 <1>   0.1500 
 28 H        4.1520     4.4730    -0.9820 H     1 <1>   0.1500 
 29 H        4.5320    -0.6500     0.8800 H     1 <1>   0.3700 
 30 H        7.7750     1.2180    -0.8240 H     1 <1>   0.1500 
 31 H        6.7460     4.1110     1.4350 H     1 <1>   0.0800 
 32 H        6.8210     5.8620    -2.3840 H     1 <1>   0.0800 
 33 H        5.6310     6.5520    -1.3420 H     1 <1>   0.0800 
 34 H        6.5470     5.9910     2.7180 H     1 <1>   0.0800 
 35 H        5.5170     6.4130     1.3760 H     1 <1>   0.0800 
 36 H        8.9640     3.9840     1.2430 H     1 <1>   0.0800 
 37 H        8.9940     5.6540     1.7150 H     1 <1>   0.0800 
 38 H        7.6420     7.9250    -1.7300 H     1 <1>   0.0800 
 39 H        8.7550     4.7520    -1.0790 H     1 <1>   0.4500 
 40 H        6.1000     8.2690     0.2020 H     1 <1>   0.0800 
 41 H        7.7050     8.9280     0.3680 H     1 <1>   0.0800 
 42 H        9.5920     7.3850    -0.0570 H     1 <1>   0.0800 
 43 H        9.5910     6.8910    -1.7230 H     1 <1>   0.0800 
 44 H       11.2880     5.4680     0.2980 H     1 <1>   0.0800 
 45 H       11.1180     5.0960    -1.4070 H     1 <1>   0.0800 
 46 H       10.8120     3.8580    -0.2110 H     1 <1>   0.0800 
@<TRIPOS>BOND
  1   1   2  1   
  2   2   3  ar  
  3   2   4  ar  
  4   3   5  ar  
  5   3  26  1   
  6   4   6  ar  
  7   4  27  1   
  8   5   7  1   
  9   5   8  ar  
 10   6   8  ar  
 11   6  28  1   
 12   7   9  am  
 13   7  29  1   
 14   8  10  1   
 15   9  11  2   
 16   9  12  1   
 17  10  12  2   
 18  10  13  1   
 19  12  30  1   
 20  13  14  2   
 21  13  15  am  
 22  15  16  1   
 23  15  17  1   
 24  16  18  1   
 25  16  19  1   
 26  16  31  1   
 27  17  20  1   
 28  17  32  1   
 29  17  33  1   
 30  18  21  1   
 31  18  34  1   
 32  18  35  1   
 33  19  22  1   
 34  19  36  1   
 35  19  37  1   
 36  20  23  1   
 37  20  24  1   
 38  20  38  1   
 39  21  23  1   
 40  22  24  1   
 41  22  25  1   
 42  22  39  1   
 43  23  40  1   
 44  23  41  1   
 45  24  42  1   
 46  24  43  1   
 47  25  44  1   
 48  25  45  1   
 49  25  46  1   
@<TRIPOS>SUBSTRUCTURE
  1 ****  13 GROUP 4 **** **** 0

# MOE 2024.06 (io_trps.svl 2023.06)
