@<TRIPOS>MOLECULE
NONAME
45 47 1 0 0 
SMALL
USER_CHARGES


@<TRIPOS>ATOM
  1 CL       1.4460     0.3330     0.9710 Cl    1 <1>  -0.1230 
  2 C        1.6680    -1.2980     0.3660 C.2   1 <1>   0.1230 
  3 C        2.5340    -1.6940    -0.5950 C.2   1 <1>  -0.3020 
  4 C        0.9650    -2.4060     0.8110 C.2   1 <1>  -0.1500 
  5 N        2.3960    -3.0330    -0.7700 N.pl3 1 <1>   0.0480 
  6 C        1.4190    -3.4890     0.0940 C.2   1 <1>  -0.2370 
  7 C        3.1820    -3.8270    -1.7360 C.3   1 <1>   0.0160 
  8 C        0.9920    -4.8620     0.2050 C.2   1 <1>   0.7150 
  9 O        1.7250    -5.7790    -0.1260 O.2   1 <1>  -0.5700 
 10 N       -0.2570    -5.1850     0.6770 N.am  1 <1>  -0.6600 
 11 C       -0.5330    -6.5520     1.2040 C.3   1 <1>   0.1400 
 12 C       -1.4810    -4.4710     0.2150 C.3   1 <1>   0.1400 
 13 C       -1.1550    -7.4070     0.0750 C.3   1 <1>   0.4230 
 14 C       -2.1600    -5.3100    -0.8780 C.3   1 <1>  -0.1600 
 15 N       -1.3820    -8.8470     0.4400 N.4   1 <1>  -0.9590 
 16 C       -2.4730    -6.7600    -0.4060 C.3   1 <1>  -0.1060 
 17 C       -1.8650    -9.6440    -0.7160 C.3   1 <1>   0.3430 
 18 C       -0.2570    -9.5070     1.1530 C.3   1 <1>   0.2630 
 19 C       -3.4740    -6.7480     0.7660 C.2   1 <1>   0.9060 
 20 C       -3.0380    -7.5620    -1.6020 C.3   1 <1>  -0.1600 
 21 C       -3.1670    -9.0560    -1.2660 C.3   1 <1>  -0.1600 
 22 O       -3.4300    -7.6660     1.6020 O.co2 1 <1>  -0.9000 
 23 O       -4.2860    -5.8300     0.8620 O.co2 1 <1>  -0.9000 
 24 H        3.2310    -1.0910    -1.1490 H     1 <1>   0.1500 
 25 H        0.2130    -2.3900     1.5810 H     1 <1>   0.1500 
 26 H        3.7950    -3.1760    -2.3310 H     1 <1>   0.0800 
 27 H        2.5140    -4.3750    -2.3740 H     1 <1>   0.0800 
 28 H        3.8080    -4.5160    -1.1990 H     1 <1>   0.0800 
 29 H        0.3890    -6.9860     1.5420 H     1 <1>   0.0800 
 30 H       -1.2010    -6.4780     2.0450 H     1 <1>   0.0800 
 31 H       -2.1510    -4.3280     1.0480 H     1 <1>   0.0800 
 32 H       -1.2350    -3.5020    -0.1830 H     1 <1>   0.0800 
 33 H       -0.4550    -7.3830    -0.7430 H     1 <1>   0.0800 
 34 H       -3.0760    -4.8200    -1.1640 H     1 <1>   0.0800 
 35 H       -1.5220    -5.3250    -1.7430 H     1 <1>   0.0800 
 36 H       -2.2050    -8.7540     1.0960 H     1 <1>   0.4500 
 37 H       -1.1150    -9.6450    -1.4900 H     1 <1>   0.0800 
 38 H       -2.0410   -10.6620    -0.4090 H     1 <1>   0.0800 
 39 H        0.6290    -9.5020     0.5380 H     1 <1>   0.0800 
 40 H       -0.5150   -10.5250     1.3900 H     1 <1>   0.0800 
 41 H       -0.0460    -8.9890     2.0740 H     1 <1>   0.0800 
 42 H       -4.0070    -7.1700    -1.8670 H     1 <1>   0.0800 
 43 H       -2.3920    -7.4500    -2.4560 H     1 <1>   0.0800 
 44 H       -3.4530    -9.5970    -2.1500 H     1 <1>   0.0800 
 45 H       -3.9500    -9.2000    -0.5400 H     1 <1>   0.0800 
@<TRIPOS>BOND
  1   1   2  1   
  2   2   3  2   
  3   2   4  1   
  4   3   5  1   
  5   3  24  1   
  6   4   6  2   
  7   4  25  1   
  8   5   6  1   
  9   5   7  1   
 10   6   8  1   
 11   7  26  1   
 12   7  27  1   
 13   7  28  1   
 14   8   9  2   
 15   8  10  am  
 16  10  11  1   
 17  10  12  1   
 18  11  13  1   
 19  11  29  1   
 20  11  30  1   
 21  12  14  1   
 22  12  31  1   
 23  12  32  1   
 24  13  15  1   
 25  13  16  1   
 26  13  33  1   
 27  14  16  1   
 28  14  34  1   
 29  14  35  1   
 30  15  17  1   
 31  15  18  1   
 32  15  36  1   
 33  16  19  1   
 34  16  20  1   
 35  17  21  1   
 36  17  37  1   
 37  17  38  1   
 38  18  39  1   
 39  18  40  1   
 40  18  41  1   
 41  19  22  ar  
 42  19  23  ar  
 43  20  21  1   
 44  20  42  1   
 45  20  43  1   
 46  21  44  1   
 47  21  45  1   
@<TRIPOS>SUBSTRUCTURE
  1 ****  10 GROUP 4 **** **** 0

# MOE 2024.06 (io_trps.svl 2023.06)
