@<TRIPOS>MOLECULE
NONAME
41 43 1 0 0 
SMALL
USER_CHARGES


@<TRIPOS>ATOM
  1 O       -0.5370    -1.2340    -0.0300 O.3   1 <1>  -0.5600 
  2 C        0.5050    -1.7830     0.7260 C.3   1 <1>   0.2000 
  3 C       -1.7200    -1.0070     0.6690 C.3   1 <1>   0.0400 
  4 C        1.8610    -1.4540     0.0670 C.3   1 <1>   0.0000 
  5 C        0.3920    -3.3130     0.6710 C.3   1 <1>  -0.1600 
  6 C        2.9790    -1.6450     1.1220 C.3   1 <1>   0.2090 
  7 C        1.9370    -0.0160    -0.4990 C.3   1 <1>  -0.1600 
  8 C        1.9620    -2.5190    -1.0400 C.3   1 <1>  -0.1600 
  9 C        1.3010    -3.7790    -0.4750 C.3   1 <1>  -0.1600 
 10 N        4.3300    -1.2650     0.6010 N.pl3 1 <1>  -0.8380 
 11 C        3.3410     0.3080    -1.0350 C.3   1 <1>  -0.1600 
 12 C        5.3640    -2.1850     0.5100 C.ar  1 <1>   0.4100 
 13 C        4.4250     0.1040     0.0270 C.3   1 <1>   0.2090 
 14 N        5.0440    -3.4610     0.3630 N.ar  1 <1>  -0.6200 
 15 C        6.6850    -1.8060     0.5750 C.ar  1 <1>  -0.1500 
 16 C        6.0540    -4.3000     0.2590 C.ar  1 <1>   0.4700 
 17 C        7.6460    -2.7780     0.4600 C.ar  1 <1>   0.4100 
 18 N        7.3470    -4.0440     0.2980 N.ar  1 <1>  -0.6200 
 19 N        8.9730    -2.5090     0.5190 N.pl3 1 <1>  -0.9000 
 20 H        0.4500    -1.3980     1.7310 H     1 <1>   0.0800 
 21 H       -2.4460    -0.6190    -0.0240 H     1 <1>   0.0800 
 22 H       -1.5390    -0.2850     1.4460 H     1 <1>   0.0800 
 23 H       -2.0770    -1.9320     1.0850 H     1 <1>   0.0800 
 24 H        0.7550    -3.7280     1.5940 H     1 <1>   0.0800 
 25 H       -0.6220    -3.6370     0.5230 H     1 <1>   0.0800 
 26 H        2.9870    -2.6610     1.4740 H     1 <1>   0.0800 
 27 H        2.7670    -1.0190     1.9710 H     1 <1>   0.0800 
 28 H        1.2200     0.1090    -1.2920 H     1 <1>   0.0800 
 29 H        1.6850     0.6820     0.2790 H     1 <1>   0.0800 
 30 H        1.3980    -2.1930    -1.8970 H     1 <1>   0.0800 
 31 H        2.9770    -2.7010    -1.3470 H     1 <1>   0.0800 
 32 H        2.0570    -4.4470    -0.0960 H     1 <1>   0.0800 
 33 H        0.7390    -4.2850    -1.2400 H     1 <1>   0.0800 
 34 H        3.3680     1.3270    -1.3740 H     1 <1>   0.0800 
 35 H        3.5640    -0.3210    -1.8780 H     1 <1>   0.0800 
 36 H        4.3000     0.8230     0.8190 H     1 <1>   0.0800 
 37 H        5.3870     0.2600    -0.4270 H     1 <1>   0.0800 
 38 H        6.9640    -0.7850     0.7170 H     1 <1>   0.1500 
 39 H        5.7870    -5.3350     0.1270 H     1 <1>   0.1500 
 40 H        9.5540    -3.3490     0.5450 H     1 <1>   0.4000 
 41 H        9.2890    -1.7720     1.1480 H     1 <1>   0.4000 
@<TRIPOS>BOND
  1   1   2  1   
  2   1   3  1   
  3   2   4  1   
  4   2   5  1   
  5   2  20  1   
  6   3  21  1   
  7   3  22  1   
  8   3  23  1   
  9   4   6  1   
 10   4   7  1   
 11   4   8  1   
 12   5   9  1   
 13   5  24  1   
 14   5  25  1   
 15   6  10  1   
 16   6  26  1   
 17   6  27  1   
 18   7  11  1   
 19   7  28  1   
 20   7  29  1   
 21   8   9  1   
 22   8  30  1   
 23   8  31  1   
 24   9  32  1   
 25   9  33  1   
 26  10  12  1   
 27  10  13  1   
 28  11  13  1   
 29  11  34  1   
 30  11  35  1   
 31  12  14  ar  
 32  12  15  ar  
 33  13  36  1   
 34  13  37  1   
 35  14  16  ar  
 36  15  17  ar  
 37  15  38  1   
 38  16  18  ar  
 39  16  39  1   
 40  17  18  ar  
 41  17  19  1   
 42  19  40  1   
 43  19  41  1   
@<TRIPOS>SUBSTRUCTURE
  1 ****  10 GROUP 4 **** **** 0

# MOE 2024.06 (io_trps.svl 2023.06)
