@<TRIPOS>MOLECULE
NONAME
44 47 1 0 0 
SMALL
USER_CHARGES


@<TRIPOS>ATOM
  1 F        0.7770     1.3110    -1.1760 F     1 <1>  -0.1900 
  2 C        0.0930     2.3820    -0.8770 C.ar  1 <1>   0.1900 
  3 C        0.7470     3.4470    -0.2920 C.ar  1 <1>  -0.1500 
  4 C       -1.2590     2.4060    -1.1590 C.ar  1 <1>  -0.1500 
  5 C        0.0300     4.5980     0.0260 C.ar  1 <1>  -0.0230 
  6 C       -1.9780     3.5440    -0.8370 C.ar  1 <1>  -0.1500 
  7 N        0.6870     5.7160     0.6150 N.pl3 1 <1>   0.5930 
  8 C       -1.3390     4.6260    -0.2500 C.ar  1 <1>  -0.1500 
  9 N        1.7550     5.6080     1.4460 N.2   1 <1>  -0.7070 
 10 C        0.4150     7.0310     0.4110 C.2   1 <1>  -0.3020 
 11 C        2.1000     6.8130     1.7550 C.2   1 <1>   0.1390 
 12 C        1.3010     7.7600     1.1250 C.2   1 <1>  -0.1810 
 13 C        1.4560     9.2620     1.2330 C.3   1 <1>   0.5240 
 14 N        2.7450     9.6440     0.6020 N.4   1 <1>  -0.9590 
 15 C        3.1610    11.0580     0.9250 C.3   1 <1>   0.3430 
 16 C        2.8270     9.2390    -0.8450 C.3   1 <1>   0.3430 
 17 C        4.6270    11.4160     0.5460 C.3   1 <1>   0.2200 
 18 C        4.2560     9.2230    -1.4080 C.3   1 <1>  -0.0190 
 19 N        4.7540    11.5880    -0.9190 N.am  1 <1>  -0.7300 
 20 C        5.6700    10.3920     1.0610 C.3   1 <1>   0.1200 
 21 C        4.6110    10.6190    -1.8400 C.2   1 <1>   0.5690 
 22 C        5.3530     8.6070    -0.5100 C.3   1 <1>   0.1200 
 23 O        5.2970     9.0580     0.8180 O.3   1 <1>  -0.5600 
 24 O        4.7300    10.8680    -3.0070 O.2   1 <1>  -0.5700 
 25 H        1.8010     3.3770    -0.0860 H     1 <1>   0.1500 
 26 H       -1.7320     1.5540    -1.6150 H     1 <1>   0.1500 
 27 H       -3.0350     3.5860    -1.0430 H     1 <1>   0.1500 
 28 H       -1.9230     5.4950    -0.0010 H     1 <1>   0.1500 
 29 H       -0.3860     7.3460    -0.2330 H     1 <1>   0.1500 
 30 H        2.9220     7.0280     2.4210 H     1 <1>   0.1500 
 31 H        1.4470     9.5470     2.2720 H     1 <1>   0.0800 
 32 H        0.6360     9.7520     0.7330 H     1 <1>   0.0800 
 33 H        3.4830     9.0590     1.0440 H     1 <1>   0.4500 
 34 H        2.4990    11.7540     0.4370 H     1 <1>   0.0800 
 35 H        3.0590    11.2060     1.9880 H     1 <1>   0.0800 
 36 H        2.4350     8.2400    -0.9500 H     1 <1>   0.0800 
 37 H        2.2150     9.8910    -1.4470 H     1 <1>   0.0800 
 38 H        4.8580    12.3690     0.9920 H     1 <1>   0.0800 
 39 H        4.2290     8.6370    -2.3090 H     1 <1>   0.0800 
 40 H        5.0520    12.5040    -1.2760 H     1 <1>   0.3700 
 41 H        5.7680    10.4940     2.1280 H     1 <1>   0.0800 
 42 H        6.6380    10.5740     0.6240 H     1 <1>   0.0800 
 43 H        6.3350     8.8130    -0.9060 H     1 <1>   0.0800 
 44 H        5.2290     7.5380    -0.4790 H     1 <1>   0.0800 
@<TRIPOS>BOND
  1   1   2  1   
  2   2   3  ar  
  3   2   4  ar  
  4   3   5  ar  
  5   3  25  1   
  6   4   6  ar  
  7   4  26  1   
  8   5   7  1   
  9   5   8  ar  
 10   6   8  ar  
 11   6  27  1   
 12   7   9  1   
 13   7  10  1   
 14   8  28  1   
 15   9  11  2   
 16  10  12  2   
 17  10  29  1   
 18  11  12  1   
 19  11  30  1   
 20  12  13  1   
 21  13  14  1   
 22  13  31  1   
 23  13  32  1   
 24  14  15  1   
 25  14  16  1   
 26  14  33  1   
 27  15  17  1   
 28  15  34  1   
 29  15  35  1   
 30  16  18  1   
 31  16  36  1   
 32  16  37  1   
 33  17  19  1   
 34  17  20  1   
 35  17  38  1   
 36  18  21  1   
 37  18  22  1   
 38  18  39  1   
 39  19  21  am  
 40  19  40  1   
 41  20  23  1   
 42  20  41  1   
 43  20  42  1   
 44  21  24  2   
 45  22  23  1   
 46  22  43  1   
 47  22  44  1   
@<TRIPOS>SUBSTRUCTURE
  1 ****  12 GROUP 4 **** **** 0

# MOE 2024.06 (io_trps.svl 2023.06)
