@<TRIPOS>MOLECULE
NONAME
21 22 1 0 0 
SMALL
USER_CHARGES


@<TRIPOS>ATOM
  1 BR      -0.0030     0.0750     1.2170 Br    1 <1>  -0.1110 
  2 C       -1.4570    -1.0920     0.7660 C.ar  1 <1>   0.4210 
  3 N       -1.1910    -2.0270    -0.1290 N.ar  1 <1>  -0.6200 
  4 C       -2.6700    -0.8810     1.3950 C.ar  1 <1>  -0.1500 
  5 C       -2.2120    -2.8150    -0.4120 C.ar  1 <1>   0.1600 
  6 C       -3.7250    -1.7110     1.0750 C.ar  1 <1>  -0.1500 
  7 C       -3.4850    -2.7050     0.1390 C.ar  1 <1>  -0.0320 
  8 C       -4.5900    -3.6550    -0.2900 C.3   1 <1>   0.4280 
  9 N       -5.4040    -3.1100    -1.3690 N.4   1 <1>  -0.7460 
 10 C       -4.3720    -5.1300    -0.2730 C.3   1 <1>  -0.2000 
 11 C       -5.2870    -4.4880     0.7300 C.3   1 <1>  -0.2000 
 12 H       -2.7700    -0.0880     2.1150 H     1 <1>   0.1500 
 13 H       -2.0140    -3.5950    -1.1290 H     1 <1>   0.1500 
 14 H       -4.6840    -1.5810     1.5500 H     1 <1>   0.1500 
 15 H       -4.8260    -2.9330    -2.1950 H     1 <1>   0.4500 
 16 H       -5.8260    -2.2250    -1.0740 H     1 <1>   0.4500 
 17 H       -6.1490    -3.7670    -1.6170 H     1 <1>   0.4500 
 18 H       -3.4460    -5.5310     0.1030 H     1 <1>   0.1000 
 19 H       -4.8080    -5.7580    -1.0310 H     1 <1>   0.1000 
 20 H       -6.3430    -4.6830     0.6540 H     1 <1>   0.1000 
 21 H       -4.9510    -4.4660     1.7540 H     1 <1>   0.1000 
@<TRIPOS>BOND
  1   1   2  1   
  2   2   3  ar  
  3   2   4  ar  
  4   3   5  ar  
  5   4   6  ar  
  6   4  12  1   
  7   5   7  ar  
  8   5  13  1   
  9   6   7  ar  
 10   6  14  1   
 11   7   8  1   
 12   8   9  1   
 13   8  10  1   
 14   8  11  1   
 15   9  15  1   
 16   9  16  1   
 17   9  17  1   
 18  10  11  1   
 19  10  18  1   
 20  10  19  1   
 21  11  20  1   
 22  11  21  1   
@<TRIPOS>SUBSTRUCTURE
  1 ****   7 GROUP 4 **** **** 0

# MOE 2024.06 (io_trps.svl 2023.06)
