@<TRIPOS>MOLECULE
NONAME
33 33 1 0 0 
SMALL
USER_CHARGES


@<TRIPOS>ATOM
  1 S        0.3130     0.3320    -0.4580 S.o2  1 <1>   1.3330 
  2 O        0.8970    -0.9810    -0.5570 O.2   1 <1>  -0.6500 
  3 O        0.0740     1.1130    -1.6460 O.2   1 <1>  -0.6500 
  4 N        1.3820     1.1940     0.5010 N.am  1 <1>  -0.9140 
  5 C       -1.1570     0.2560     0.5410 C.3   1 <1>  -0.1350 
  6 C        1.3400     2.6380     0.3090 C.3   1 <1>   0.1960 
  7 C        2.3020     3.2960     1.2920 C.3   1 <1>  -0.0990 
  8 C        2.2830     4.7950     1.1010 C.2   1 <1>   0.5690 
  9 O        1.2520     5.3800     1.3240 O.2   1 <1>  -0.5700 
 10 N        3.4240     5.4070     0.6790 N.am  1 <1>  -0.4930 
 11 C        3.6550     6.7820     0.4230 C.2   1 <1>   0.0630 
 12 C        4.7970     7.3260    -0.0540 C.2   1 <1>  -0.3320 
 13 C        2.7940     7.8660     0.5990 C.2   1 <1>   0.1390 
 14 N        4.5800     8.6630    -0.1390 N.pl3 1 <1>   0.3140 
 15 C        6.1080     6.6580    -0.4450 C.3   1 <1>  -0.0600 
 16 N        3.3440     8.9940     0.2640 N.2   1 <1>  -0.7070 
 17 C        5.5210     9.6920    -0.6020 C.3   1 <1>   0.0160 
 18 H        2.2910     0.8440     0.2020 H     1 <1>   0.4200 
 19 H       -1.9150    -0.3100     0.0360 H     1 <1>   0.0800 
 20 H       -1.5310     1.2430     0.7280 H     1 <1>   0.0800 
 21 H       -0.9410    -0.2170     1.4790 H     1 <1>   0.0800 
 22 H        0.3400     3.0020     0.4850 H     1 <1>   0.0800 
 23 H        1.6180     2.8860    -0.7030 H     1 <1>   0.0800 
 24 H        3.2960     2.9170     1.1480 H     1 <1>   0.0800 
 25 H        1.9890     3.0810     2.2980 H     1 <1>   0.0800 
 26 H        4.2390     4.8200     0.5250 H     1 <1>   0.3700 
 27 H        1.7860     7.7840     0.9700 H     1 <1>   0.1500 
 28 H        6.0520     5.5940    -0.3070 H     1 <1>   0.0800 
 29 H        6.9110     7.0370     0.1620 H     1 <1>   0.0800 
 30 H        6.3290     6.8550    -1.4790 H     1 <1>   0.0800 
 31 H        6.3910     9.6820     0.0260 H     1 <1>   0.0800 
 32 H        5.0470    10.6540    -0.5440 H     1 <1>   0.0800 
 33 H        5.7960     9.4880    -1.6190 H     1 <1>   0.0800 
@<TRIPOS>BOND
  1   1   2  2   
  2   1   3  2   
  3   1   4  am  
  4   1   5  1   
  5   4   6  1   
  6   4  18  1   
  7   5  19  1   
  8   5  20  1   
  9   5  21  1   
 10   6   7  1   
 11   6  22  1   
 12   6  23  1   
 13   7   8  1   
 14   7  24  1   
 15   7  25  1   
 16   8   9  2   
 17   8  10  am  
 18  10  11  1   
 19  10  26  1   
 20  11  12  2   
 21  11  13  1   
 22  12  14  1   
 23  12  15  1   
 24  13  16  2   
 25  13  27  1   
 26  14  16  1   
 27  14  17  1   
 28  15  28  1   
 29  15  29  1   
 30  15  30  1   
 31  17  31  1   
 32  17  32  1   
 33  17  33  1   
@<TRIPOS>SUBSTRUCTURE
  1 ****   8 GROUP 4 **** **** 0

# MOE 2024.06 (io_trps.svl 2023.06)
