@<TRIPOS>MOLECULE
NONAME
49 52 1 0 0 
SMALL
USER_CHARGES


@<TRIPOS>ATOM
  1 O        1.8430     0.0830     1.7140 O.2   1 <1>  -0.5700 
  2 C        2.4720    -0.9360     1.4880 C.2   1 <1>   0.5440 
  3 N        3.8420    -0.8180     1.4230 N.am  1 <1>  -0.6600 
  4 C        1.8080    -2.1900     1.2130 C.ar  1 <1>   0.0860 
  5 C        4.5500     0.2940     2.1620 C.3   1 <1>   0.1400 
  6 C        4.6040    -1.4570     0.3060 C.3   1 <1>   0.1400 
  7 C        0.7120    -2.2520     0.3290 C.ar  1 <1>   0.0000 
  8 C        2.2380    -3.3840     1.7760 C.ar  1 <1>  -0.1500 
  9 C        4.7850     1.5510     1.2840 C.3   1 <1>   0.4230 
 10 C        5.0260    -0.4750    -0.8170 C.3   1 <1>  -0.0800 
 11 C        0.1130    -3.4720     0.0230 C.ar  1 <1>  -0.1520 
 12 C        0.0090    -1.2780    -0.4110 C.2   1 <1>  -0.1500 
 13 C        1.6290    -4.6040     1.4770 C.ar  1 <1>  -0.1500 
 14 N        3.7680     1.5440     0.1710 N.4   1 <1>  -0.9590 
 15 C        6.2710     1.6590     0.8480 C.3   1 <1>   0.1200 
 16 C        6.5060    -0.0710    -0.7300 C.3   1 <1>   0.1200 
 17 C        4.1410     0.7670    -1.0510 C.3   1 <1>   0.3430 
 18 N       -0.9070    -3.2490    -0.8700 N.pl3 1 <1>   0.0480 
 19 C        0.5700    -4.6580     0.6010 C.ar  1 <1>  -0.1500 
 20 C       -0.9540    -1.9100    -1.1220 C.2   1 <1>  -0.3020 
 21 C        3.3530     2.9580    -0.2080 C.3   1 <1>   0.2370 
 22 O        6.8220     0.4120     0.5300 O.3   1 <1>  -0.5600 
 23 C       -1.8070    -4.2680    -1.4350 C.3   1 <1>   0.0160 
 24 C        4.4920     3.8420    -0.7180 C.2   1 <1>   0.9060 
 25 O        4.8510     3.7070    -1.8910 O.co2 1 <1>  -0.9000 
 26 O        5.1040     4.5200     0.1120 O.co2 1 <1>  -0.9000 
 27 H        3.9490     0.5860     3.0050 H     1 <1>   0.0800 
 28 H        5.4800    -0.0710     2.5610 H     1 <1>   0.0800 
 29 H        5.4750    -1.9430     0.7130 H     1 <1>   0.0800 
 30 H        3.9970    -2.2280    -0.1370 H     1 <1>   0.0800 
 31 H        3.0660    -3.3730     2.4630 H     1 <1>   0.1500 
 32 H        4.5930     2.4160     1.8970 H     1 <1>   0.0800 
 33 H        4.9660    -1.0340    -1.7330 H     1 <1>   0.0800 
 34 H        0.2210    -0.2230    -0.3820 H     1 <1>   0.1500 
 35 H        1.9950    -5.5050     1.9390 H     1 <1>   0.1500 
 36 H        2.9550     1.0600     0.6030 H     1 <1>   0.4500 
 37 H        6.8380     2.0370     1.6800 H     1 <1>   0.0800 
 38 H        6.4170     2.3390     0.0280 H     1 <1>   0.0800 
 39 H        6.7610     0.6760    -1.4650 H     1 <1>   0.0800 
 40 H        7.1300    -0.9320    -0.8970 H     1 <1>   0.0800 
 41 H        3.2340     0.4550    -1.5410 H     1 <1>   0.0800 
 42 H        4.6610     1.4190    -1.7360 H     1 <1>   0.0800 
 43 H        0.0960    -5.5940     0.3640 H     1 <1>   0.1500 
 44 H       -1.6790    -1.4800    -1.7910 H     1 <1>   0.1500 
 45 H        2.6050     2.9230    -0.9780 H     1 <1>   0.0800 
 46 H        2.9320     3.4510     0.6480 H     1 <1>   0.0800 
 47 H       -2.5050    -3.8010    -2.1050 H     1 <1>   0.0800 
 48 H       -2.3420    -4.7480    -0.6370 H     1 <1>   0.0800 
 49 H       -1.2250    -4.9950    -1.9710 H     1 <1>   0.0800 
@<TRIPOS>BOND
  1   1   2  2   
  2   2   3  am  
  3   2   4  1   
  4   3   5  1   
  5   3   6  1   
  6   4   7  ar  
  7   4   8  ar  
  8   5   9  1   
  9   5  27  1   
 10   5  28  1   
 11   6  10  1   
 12   6  29  1   
 13   6  30  1   
 14   7  11  ar  
 15   7  12  1   
 16   8  13  ar  
 17   8  31  1   
 18   9  14  1   
 19   9  15  1   
 20   9  32  1   
 21  10  16  1   
 22  10  17  1   
 23  10  33  1   
 24  11  18  1   
 25  11  19  ar  
 26  12  20  2   
 27  12  34  1   
 28  13  19  ar  
 29  13  35  1   
 30  14  17  1   
 31  14  21  1   
 32  14  36  1   
 33  15  22  1   
 34  15  37  1   
 35  15  38  1   
 36  16  22  1   
 37  16  39  1   
 38  16  40  1   
 39  17  41  1   
 40  17  42  1   
 41  18  20  1   
 42  18  23  1   
 43  19  43  1   
 44  20  44  1   
 45  21  24  1   
 46  21  45  1   
 47  21  46  1   
 48  23  47  1   
 49  23  48  1   
 50  23  49  1   
 51  24  25  ar  
 52  24  26  ar  
@<TRIPOS>SUBSTRUCTURE
  1 ****   2 GROUP 4 **** **** 0

# MOE 2024.06 (io_trps.svl 2023.06)
