@<TRIPOS>MOLECULE
NONAME
55 58 1 0 0 
SMALL
USER_CHARGES


@<TRIPOS>ATOM
  1 O        0.8440     0.2180    -0.7640 O.2   1 <1>  -0.5700 
  2 C        1.5060    -0.7900    -0.7310 C.2   1 <1>   0.5690 
  3 N        2.7470    -0.8150    -0.1390 N.am  1 <1>  -0.6600 
  4 C        0.9150    -2.0210    -1.3780 C.3   1 <1>  -0.1790 
  5 C        3.2260     0.4030     0.6060 C.3   1 <1>   0.1400 
  6 C        3.7050    -1.9510    -0.2960 C.3   1 <1>   0.1400 
  7 C        4.4730     1.0810    -0.0210 C.3   1 <1>   0.4230 
  8 C        5.1080    -1.5030    -0.7550 C.3   1 <1>  -0.0800 
  9 N        5.7590     0.5590     0.5460 N.4   1 <1>  -0.9590 
 10 C        4.5510     0.8790    -1.5460 C.3   1 <1>  -0.1600 
 11 C        5.8980    -0.9270     0.4330 C.3   1 <1>   0.3430 
 12 C        5.0660    -0.5230    -1.9510 C.3   1 <1>  -0.1600 
 13 C        6.0450     1.0500     1.9220 C.3   1 <1>   0.4860 
 14 C        6.1140     2.5630     1.8930 C.ar  1 <1>  -0.1440 
 15 C        7.2030     3.2010     1.3170 C.ar  1 <1>  -0.1500 
 16 C        5.0860     3.3250     2.4310 C.ar  1 <1>  -0.1500 
 17 C        7.2660     4.5830     1.2610 C.ar  1 <1>   0.0820 
 18 C        5.1450     4.7070     2.3800 C.ar  1 <1>  -0.1500 
 19 O        8.3650     5.1130     0.6730 O.3   1 <1>  -0.3620 
 20 C        6.2280     5.3390     1.7960 C.ar  1 <1>  -0.1500 
 21 C        8.5410     6.5190     0.5740 C.3   1 <1>   0.2630 
 22 C        9.8440     6.8810    -0.1330 C.ar  1 <1>   0.1670 
 23 N        9.8950     8.1100    -0.6310 N.ar  1 <1>  -0.6200 
 24 C       10.8920     5.9730    -0.2240 C.ar  1 <1>  -0.1500 
 25 C       11.0200     8.4400    -1.2450 C.ar  1 <1>   0.1600 
 26 C       12.0580     6.3310    -0.8650 C.ar  1 <1>  -0.1500 
 27 C       12.1130     7.6030    -1.3890 C.ar  1 <1>  -0.1500 
 28 H        0.9870    -2.8620    -0.7150 H     1 <1>   0.0800 
 29 H        1.4250    -2.2320    -2.2990 H     1 <1>   0.0800 
 30 H       -0.1240    -1.8490    -1.5960 H     1 <1>   0.0800 
 31 H        2.4450     1.1430     0.6210 H     1 <1>   0.0800 
 32 H        3.4100     0.1420     1.6310 H     1 <1>   0.0800 
 33 H        3.7690    -2.4860     0.6370 H     1 <1>   0.0800 
 34 H        3.3330    -2.6430    -1.0290 H     1 <1>   0.0800 
 35 H        4.4030     2.1390     0.1750 H     1 <1>   0.0800 
 36 H        5.6200    -2.3970    -1.0670 H     1 <1>   0.0800 
 37 H        6.4770     0.9790    -0.0560 H     1 <1>   0.4500 
 38 H        3.5720     1.0410    -1.9660 H     1 <1>   0.0800 
 39 H        5.1900     1.6340    -1.9710 H     1 <1>   0.0800 
 40 H        6.9410    -1.1710     0.3120 H     1 <1>   0.0800 
 41 H        5.5540    -1.3990     1.3390 H     1 <1>   0.0800 
 42 H        6.0600    -0.4250    -2.3540 H     1 <1>   0.0800 
 43 H        4.4450    -0.9240    -2.7350 H     1 <1>   0.0800 
 44 H        5.2760     0.7290     2.6050 H     1 <1>   0.0800 
 45 H        6.9900     0.6610     2.2660 H     1 <1>   0.0800 
 46 H        8.0250     2.6450     0.9030 H     1 <1>   0.1500 
 47 H        4.2330     2.8610     2.8970 H     1 <1>   0.1500 
 48 H        4.3450     5.2960     2.7980 H     1 <1>   0.1500 
 49 H        6.2410     6.4130     1.7710 H     1 <1>   0.1500 
 50 H        7.7140     6.9190     0.0150 H     1 <1>   0.0800 
 51 H        8.5460     6.9340     1.5650 H     1 <1>   0.0800 
 52 H       10.8040     4.9910     0.2040 H     1 <1>   0.1500 
 53 H       11.0740     9.4330    -1.6580 H     1 <1>   0.1500 
 54 H       12.8860     5.6480    -0.9520 H     1 <1>   0.1500 
 55 H       12.9920     7.9470    -1.9020 H     1 <1>   0.1500 
@<TRIPOS>BOND
  1   1   2  2   
  2   2   3  am  
  3   2   4  1   
  4   3   5  1   
  5   3   6  1   
  6   4  28  1   
  7   4  29  1   
  8   4  30  1   
  9   5   7  1   
 10   5  31  1   
 11   5  32  1   
 12   6   8  1   
 13   6  33  1   
 14   6  34  1   
 15   7   9  1   
 16   7  10  1   
 17   7  35  1   
 18   8  11  1   
 19   8  12  1   
 20   8  36  1   
 21   9  11  1   
 22   9  13  1   
 23   9  37  1   
 24  10  12  1   
 25  10  38  1   
 26  10  39  1   
 27  11  40  1   
 28  11  41  1   
 29  12  42  1   
 30  12  43  1   
 31  13  14  1   
 32  13  44  1   
 33  13  45  1   
 34  14  15  ar  
 35  14  16  ar  
 36  15  17  ar  
 37  15  46  1   
 38  16  18  ar  
 39  16  47  1   
 40  17  19  1   
 41  17  20  ar  
 42  18  20  ar  
 43  18  48  1   
 44  19  21  1   
 45  20  49  1   
 46  21  22  1   
 47  21  50  1   
 48  21  51  1   
 49  22  23  ar  
 50  22  24  ar  
 51  23  25  ar  
 52  24  26  ar  
 53  24  52  1   
 54  25  27  ar  
 55  25  53  1   
 56  26  27  ar  
 57  26  54  1   
 58  27  55  1   
@<TRIPOS>SUBSTRUCTURE
  1 ****  15 GROUP 4 **** **** 0

# MOE 2024.06 (io_trps.svl 2023.06)
