@<TRIPOS>MOLECULE
NONAME
43 45 1 0 0 
SMALL
USER_CHARGES


@<TRIPOS>ATOM
  1 O        0.5140     0.3880    -0.0450 O.3   1 <1>  -0.2170 
  2 N       -0.4690    -0.4760     0.1290 N.2   1 <1>  -0.5130 
  3 C        1.7010    -0.2370    -0.5000 C.3   1 <1>   0.2000 
  4 C       -0.0990    -1.6430    -0.1410 C.2   1 <1>   0.3280 
  5 C        1.3330    -1.7200    -0.5700 C.3   1 <1>  -0.0990 
  6 C        2.8490     0.0790     0.4700 C.3   1 <1>   0.2090 
  7 C       -0.9200    -2.9240    -0.0750 C.3   1 <1>  -0.0990 
  8 N        3.0860     1.5400     0.5430 N.pl3 1 <1>  -0.8190 
  9 C       -2.3670    -2.7040     0.3900 C.3   1 <1>  -0.2400 
 10 C        4.2250     2.2510     0.4430 C.2   1 <1>   0.4860 
 11 N        4.0430     3.5520     0.3300 N.2   1 <1>  -0.6210 
 12 C        5.5040     1.6630     0.4580 C.2   1 <1>  -0.1360 
 13 C        5.1160     4.3400     0.2090 C.2   1 <1>   0.2710 
 14 C        6.5920     2.4590     0.3350 C.2   1 <1>  -0.0380 
 15 N        6.3610     3.7810     0.2090 N.pl3 1 <1>  -0.6000 
 16 C        4.9580     5.7550     0.0790 C.2   1 <1>   0.0140 
 17 C        8.0280     1.9780     0.3320 C.3   1 <1>  -0.1020 
 18 C        6.0540     6.6600    -0.0620 C.2   1 <1>   0.5410 
 19 C        3.6720     6.3360     0.0840 C.2   1 <1>  -0.1500 
 20 O        7.2530     6.2980    -0.0840 O.2   1 <1>  -0.5700 
 21 C        5.8080     8.0440    -0.1850 C.2   1 <1>  -0.1360 
 22 C        3.4590     7.6870    -0.0380 C.2   1 <1>  -0.1500 
 23 C        4.5420     8.5560    -0.1740 C.2   1 <1>  -0.1500 
 24 H        1.9180     0.1500    -1.4800 H     1 <1>   0.0800 
 25 H        1.9100    -2.3200     0.1080 H     1 <1>   0.0800 
 26 H        1.4220    -2.0930    -1.5730 H     1 <1>   0.0800 
 27 H        3.7380    -0.4220     0.1330 H     1 <1>   0.0800 
 28 H        2.6010    -0.2880     1.4510 H     1 <1>   0.0800 
 29 H       -0.4370    -3.6070     0.6010 H     1 <1>   0.0800 
 30 H       -0.9320    -3.3740    -1.0510 H     1 <1>   0.0800 
 31 H        2.2310     2.1050     0.5860 H     1 <1>   0.4000 
 32 H       -2.3790    -2.2670     1.3740 H     1 <1>   0.0800 
 33 H       -2.8980    -3.6390     0.4190 H     1 <1>   0.0800 
 34 H       -2.8760    -2.0370    -0.2840 H     1 <1>   0.0800 
 35 H        5.5990     0.6050     0.5710 H     1 <1>   0.1500 
 36 H        7.1450     4.4480     0.1100 H     1 <1>   0.4000 
 37 H        8.5640     2.4310     1.1470 H     1 <1>   0.0800 
 38 H        8.5020     2.2520    -0.5930 H     1 <1>   0.0800 
 39 H        8.0700     0.9100     0.4410 H     1 <1>   0.0800 
 40 H        2.8140     5.6930     0.1870 H     1 <1>   0.1500 
 41 H        6.6660     8.6810    -0.2880 H     1 <1>   0.1500 
 42 H        2.4580     8.0870    -0.0290 H     1 <1>   0.1500 
 43 H        4.3640     9.6140    -0.2690 H     1 <1>   0.1500 
@<TRIPOS>BOND
  1   1   2  1   
  2   1   3  1   
  3   2   4  2   
  4   3   5  1   
  5   3   6  1   
  6   3  24  1   
  7   4   5  1   
  8   4   7  1   
  9   5  25  1   
 10   5  26  1   
 11   6   8  1   
 12   6  27  1   
 13   6  28  1   
 14   7   9  1   
 15   7  29  1   
 16   7  30  1   
 17   8  10  1   
 18   8  31  1   
 19   9  32  1   
 20   9  33  1   
 21   9  34  1   
 22  10  11  2   
 23  10  12  1   
 24  11  13  1   
 25  12  14  2   
 26  12  35  1   
 27  13  15  1   
 28  13  16  2   
 29  14  15  1   
 30  14  17  1   
 31  15  36  1   
 32  16  18  1   
 33  16  19  1   
 34  17  37  1   
 35  17  38  1   
 36  17  39  1   
 37  18  20  2   
 38  18  21  1   
 39  19  22  2   
 40  19  40  1   
 41  21  23  2   
 42  21  41  1   
 43  22  23  1   
 44  22  42  1   
 45  23  43  1   
@<TRIPOS>SUBSTRUCTURE
  1 ****  10 GROUP 4 **** **** 0

# MOE 2024.06 (io_trps.svl 2023.06)
