@<TRIPOS>MOLECULE
NONAME
51 53 1 0 0 
SMALL
USER_CHARGES


@<TRIPOS>ATOM
  1 O        0.1700     2.5370     1.1920 O.co2 1 <1>  -0.9000 
  2 C       -0.8530     3.1840     1.4140 C.2   1 <1>   0.9060 
  3 O       -0.9120     4.0240     2.3190 O.co2 1 <1>  -0.9000 
  4 C       -1.9210     3.1440     0.3520 C.3   1 <1>  -0.1860 
  5 C       -3.1920     3.9970     0.5630 C.3   1 <1>   0.2000 
  6 C       -1.2000     3.5910    -0.9130 C.3   1 <1>   0.3430 
  7 O       -3.4460     4.1310     1.9050 O.3   1 <1>  -0.6800 
  8 C       -3.0910     5.4060    -0.0390 C.3   1 <1>  -0.1600 
  9 N       -0.7680     5.0350    -0.8430 N.4   1 <1>  -0.9590 
 10 C       -1.6510     5.9010     0.0110 C.3   1 <1>   0.3430 
 11 C        0.6330     5.1140    -0.3180 C.3   1 <1>   0.4860 
 12 C        1.1530     6.5190    -0.5620 C.ar  1 <1>  -0.1430 
 13 C        1.2530     7.4070     0.4990 C.ar  1 <1>  -0.1500 
 14 C        1.5240     6.9290    -1.8350 C.ar  1 <1>  -0.1500 
 15 C        1.7060     8.6990     0.2920 C.ar  1 <1>  -0.1500 
 16 C        1.9760     8.2210    -2.0420 C.ar  1 <1>  -0.1500 
 17 C        2.0680     9.1130    -0.9860 C.ar  1 <1>   0.0820 
 18 O        2.5180    10.3570    -1.2780 O.3   1 <1>  -0.3620 
 19 C        2.7260    11.3190    -0.2660 C.3   1 <1>   0.1200 
 20 C        3.2850    12.5870    -0.9070 C.3   1 <1>  -0.0170 
 21 C        3.5210    13.6460     0.1580 C.ar  1 <1>  -0.1430 
 22 C        2.5240    14.5560     0.4750 C.ar  1 <1>  -0.1500 
 23 C        4.7340    13.7070     0.8270 C.ar  1 <1>  -0.1500 
 24 C        2.7360    15.5150     1.4500 C.ar  1 <1>  -0.1500 
 25 C        4.9480    14.6660     1.8020 C.ar  1 <1>  -0.1500 
 26 C        3.9480    15.5700     2.1140 C.ar  1 <1>  -0.1500 
 27 H       -2.2110     2.1170     0.2420 H     1 <1>   0.0800 
 28 H       -4.0470     3.4990     0.1370 H     1 <1>   0.0800 
 29 H       -1.8700     3.4620    -1.7470 H     1 <1>   0.0800 
 30 H       -0.3420     2.9560    -1.0750 H     1 <1>   0.0800 
 31 H       -2.5580     4.1810     2.3750 H     1 <1>   0.4000 
 32 H       -3.4210     5.3920    -1.0610 H     1 <1>   0.0800 
 33 H       -3.7330     6.0810     0.4990 H     1 <1>   0.0800 
 34 H       -0.7410     5.4290    -1.7860 H     1 <1>   0.4500 
 35 H       -1.3170     5.8630     1.0370 H     1 <1>   0.0800 
 36 H       -1.5920     6.9260    -0.3190 H     1 <1>   0.0800 
 37 H        0.6570     4.8950     0.7380 H     1 <1>   0.0800 
 38 H        1.2620     4.3970    -0.8180 H     1 <1>   0.0800 
 39 H        0.9800     7.0960     1.4950 H     1 <1>   0.1500 
 40 H        1.4720     6.2540    -2.6710 H     1 <1>   0.1500 
 41 H        1.7710     9.3620     1.1340 H     1 <1>   0.1500 
 42 H        2.2650     8.5480    -3.0240 H     1 <1>   0.1500 
 43 H        1.7850    11.5240     0.2110 H     1 <1>   0.0800 
 44 H        3.4260    10.9200     0.4470 H     1 <1>   0.0800 
 45 H        4.2120    12.3610    -1.4030 H     1 <1>   0.0800 
 46 H        2.5890    12.9570    -1.6380 H     1 <1>   0.0800 
 47 H        1.5770    14.5220    -0.0360 H     1 <1>   0.1500 
 48 H        5.5180    13.0080     0.5920 H     1 <1>   0.1500 
 49 H        1.9580    16.2180     1.6910 H     1 <1>   0.1500 
 50 H        5.8910    14.7080     2.3170 H     1 <1>   0.1500 
 51 H        4.1140    16.3160     2.8720 H     1 <1>   0.1500 
@<TRIPOS>BOND
  1   1   2  ar  
  2   2   3  ar  
  3   2   4  1   
  4   4   5  1   
  5   4   6  1   
  6   4  27  1   
  7   5   7  1   
  8   5   8  1   
  9   5  28  1   
 10   6   9  1   
 11   6  29  1   
 12   6  30  1   
 13   7  31  1   
 14   8  10  1   
 15   8  32  1   
 16   8  33  1   
 17   9  10  1   
 18   9  11  1   
 19   9  34  1   
 20  10  35  1   
 21  10  36  1   
 22  11  12  1   
 23  11  37  1   
 24  11  38  1   
 25  12  13  ar  
 26  12  14  ar  
 27  13  15  ar  
 28  13  39  1   
 29  14  16  ar  
 30  14  40  1   
 31  15  17  ar  
 32  15  41  1   
 33  16  17  ar  
 34  16  42  1   
 35  17  18  1   
 36  18  19  1   
 37  19  20  1   
 38  19  43  1   
 39  19  44  1   
 40  20  21  1   
 41  20  45  1   
 42  20  46  1   
 43  21  22  ar  
 44  21  23  ar  
 45  22  24  ar  
 46  22  47  1   
 47  23  25  ar  
 48  23  48  1   
 49  24  26  ar  
 50  24  49  1   
 51  25  26  ar  
 52  25  50  1   
 53  26  51  1   
@<TRIPOS>SUBSTRUCTURE
  1 ****  15 GROUP 4 **** **** 0

# MOE 2024.06 (io_trps.svl 2023.06)
