@<TRIPOS>MOLECULE
NONAME
39 40 1 0 0 
SMALL
USER_CHARGES


@<TRIPOS>ATOM
  1 S        0.6890     0.6040    -1.5140 S.o2  1 <1>   1.3330 
  2 O        0.9050    -0.5610    -2.3430 O.2   1 <1>  -0.6500 
  3 O       -0.0240     1.7410    -2.0530 O.2   1 <1>  -0.6500 
  4 N       -0.1490     0.1010    -0.1230 N.am  1 <1>  -0.8490 
  5 C        2.2810     1.1480    -0.8920 C.3   1 <1>  -0.0550 
  6 C       -0.7260     1.2140     0.6390 C.3   1 <1>   0.1160 
  7 C       -1.1930    -0.8790    -0.4360 C.3   1 <1>   0.1160 
  8 C        3.1650     0.0130    -0.3330 C.3   1 <1>  -0.0800 
  9 C        4.5790     0.4400     0.0220 C.3   1 <1>   0.2890 
 10 C        2.6670    -0.6210     0.9720 C.3   1 <1>   0.1200 
 11 N        4.5620     1.7500     0.7260 N.pl3 1 <1>  -0.8690 
 12 C        4.9580    -0.6520     1.0130 C.3   1 <1>   0.1200 
 13 O        3.7980    -0.9040     1.7460 O.3   1 <1>  -0.5600 
 14 C        5.1970     2.8720     0.2640 C.ar  1 <1>   0.4100 
 15 N        5.4400     2.9420    -1.0380 N.ar  1 <1>  -0.6200 
 16 C        5.5450     3.8820     1.1550 C.ar  1 <1>  -0.1500 
 17 C        6.0520     4.0370    -1.4570 C.ar  1 <1>   0.1600 
 18 C        6.1820     5.0140     0.7030 C.ar  1 <1>  -0.1500 
 19 C        6.4500     5.0990    -0.6560 C.ar  1 <1>   0.0730 
 20 C        7.1130     6.2330    -1.2230 C.1   1 <1>   0.4840 
 21 N        7.6430     7.1330    -1.6790 N.1   1 <1>  -0.5570 
 22 H        2.8150     1.6140    -1.6980 H     1 <1>   0.0800 
 23 H        2.1330     1.8970    -0.1400 H     1 <1>   0.0800 
 24 H       -1.1700     0.8470     1.5490 H     1 <1>   0.0800 
 25 H       -1.4820     1.7170     0.0590 H     1 <1>   0.0800 
 26 H        0.0390     1.9240     0.8980 H     1 <1>   0.0800 
 27 H       -1.6970    -1.1870     0.4640 H     1 <1>   0.0800 
 28 H       -0.7560    -1.7510    -0.8920 H     1 <1>   0.0800 
 29 H       -1.9110    -0.4550    -1.1190 H     1 <1>   0.0800 
 30 H        3.2320    -0.7660    -1.0720 H     1 <1>   0.0800 
 31 H        5.2370     0.4540    -0.8300 H     1 <1>   0.0800 
 32 H        2.1250    -1.5340     0.7920 H     1 <1>   0.0800 
 33 H        2.0530     0.0600     1.5350 H     1 <1>   0.0800 
 34 H        4.4280     1.6450     1.7350 H     1 <1>   0.4000 
 35 H        5.7530    -0.3560     1.6750 H     1 <1>   0.0800 
 36 H        5.2260    -1.5580     0.4980 H     1 <1>   0.0800 
 37 H        5.3110     3.7650     2.1960 H     1 <1>   0.1500 
 38 H        6.2530     4.0960    -2.5140 H     1 <1>   0.1500 
 39 H        6.4630     5.8070     1.3760 H     1 <1>   0.1500 
@<TRIPOS>BOND
  1   1   2  2   
  2   1   3  2   
  3   1   4  am  
  4   1   5  1   
  5   4   6  1   
  6   4   7  1   
  7   5   8  1   
  8   5  22  1   
  9   5  23  1   
 10   6  24  1   
 11   6  25  1   
 12   6  26  1   
 13   7  27  1   
 14   7  28  1   
 15   7  29  1   
 16   8   9  1   
 17   8  10  1   
 18   8  30  1   
 19   9  11  1   
 20   9  12  1   
 21   9  31  1   
 22  10  13  1   
 23  10  32  1   
 24  10  33  1   
 25  11  14  1   
 26  11  34  1   
 27  12  13  1   
 28  12  35  1   
 29  12  36  1   
 30  14  15  ar  
 31  14  16  ar  
 32  15  17  ar  
 33  16  18  ar  
 34  16  37  1   
 35  17  19  ar  
 36  17  38  1   
 37  18  19  ar  
 38  18  39  1   
 39  19  20  1   
 40  20  21  3   
@<TRIPOS>SUBSTRUCTURE
  1 ****  11 GROUP 4 **** **** 0

# MOE 2024.06 (io_trps.svl 2023.06)
