@<TRIPOS>MOLECULE
NONAME
34 36 1 0 0 
SMALL
USER_CHARGES


@<TRIPOS>ATOM
  1 F       -1.4120    -0.4280    -0.1270 F     1 <1>  -0.3400 
  2 C       -2.4980    -0.6860     0.5890 C.3   1 <1>   1.1640 
  3 F       -2.0720    -1.1340     1.7650 F     1 <1>  -0.3400 
  4 F       -3.0720     0.4870     0.8290 F     1 <1>  -0.3400 
  5 C       -3.4380    -1.6680    -0.1260 C.ar  1 <1>  -0.1440 
  6 C       -3.3840    -3.0330     0.1370 C.ar  1 <1>  -0.1500 
  7 C       -4.3610    -1.2090    -1.0600 C.ar  1 <1>  -0.1500 
  8 C       -4.2310    -3.9400    -0.4930 C.ar  1 <1>   0.0860 
  9 C       -5.2080    -2.0920    -1.7050 C.ar  1 <1>  -0.1500 
 10 C       -4.1630    -5.3560    -0.1900 C.2   1 <1>   0.5440 
 11 C       -5.1400    -3.4420    -1.4240 C.ar  1 <1>  -0.1500 
 12 O       -3.1410    -5.9670    -0.4420 O.2   1 <1>  -0.5700 
 13 N       -5.2180    -6.0110     0.3850 N.am  1 <1>  -0.6600 
 14 C       -6.4840    -5.3820     0.8610 C.3   1 <1>   0.2350 
 15 C       -5.4260    -7.4810     0.2660 C.3   1 <1>   0.2350 
 16 C       -7.5820    -6.3250     0.4140 C.3   1 <1>  -0.2420 
 17 C       -6.9270    -7.6420     0.0700 C.3   1 <1>  -0.2420 
 18 C       -8.8960    -5.9530     1.1030 C.2   1 <1>   0.9470 
 19 C       -7.6410    -6.8540    -0.9980 C.3   1 <1>  -0.2000 
 20 C       -7.3630    -9.0820     0.3530 C.2   1 <1>   0.9470 
 21 O       -9.8760    -5.6390     0.4130 O.co2 1 <1>  -0.9000 
 22 O       -8.8990    -5.7850     2.3300 O.co2 1 <1>  -0.9000 
 23 O       -7.0050    -9.6210     1.4090 O.co2 1 <1>  -0.9000 
 24 O       -7.9310    -9.7320    -0.5350 O.co2 1 <1>  -0.9000 
 25 H       -2.6750    -3.4290     0.8460 H     1 <1>   0.1500 
 26 H       -4.4290    -0.1580    -1.2910 H     1 <1>   0.1500 
 27 H       -5.9230    -1.7310    -2.4240 H     1 <1>   0.1500 
 28 H       -5.8010    -4.1320    -1.9210 H     1 <1>   0.1500 
 29 H       -6.4670    -5.3280     1.9360 H     1 <1>   0.0800 
 30 H       -6.6460    -4.4000     0.4590 H     1 <1>   0.0800 
 31 H       -4.8820    -7.8910    -0.5660 H     1 <1>   0.0800 
 32 H       -5.1140    -7.9600     1.1780 H     1 <1>   0.0800 
 33 H       -7.0710    -6.3800    -1.7740 H     1 <1>   0.1000 
 34 H       -8.5840    -7.2360    -1.3530 H     1 <1>   0.1000 
@<TRIPOS>BOND
  1   1   2  1   
  2   2   3  1   
  3   2   4  1   
  4   2   5  1   
  5   5   6  ar  
  6   5   7  ar  
  7   6   8  ar  
  8   6  25  1   
  9   7   9  ar  
 10   7  26  1   
 11   8  10  1   
 12   8  11  ar  
 13   9  11  ar  
 14   9  27  1   
 15  10  12  2   
 16  10  13  am  
 17  11  28  1   
 18  13  14  1   
 19  13  15  1   
 20  14  16  1   
 21  14  29  1   
 22  14  30  1   
 23  15  17  1   
 24  15  31  1   
 25  15  32  1   
 26  16  17  1   
 27  16  18  1   
 28  16  19  1   
 29  17  19  1   
 30  17  20  1   
 31  18  21  ar  
 32  18  22  ar  
 33  19  33  1   
 34  19  34  1   
 35  20  23  ar  
 36  20  24  ar  
@<TRIPOS>SUBSTRUCTURE
  1 ****  13 GROUP 4 **** **** 0

# MOE 2024.06 (io_trps.svl 2023.06)
