@<TRIPOS>MOLECULE
NONAME
50 52 1 0 0 
SMALL
USER_CHARGES


@<TRIPOS>ATOM
  1 O       -2.1460     0.7090     1.8800 O.2   1 <1>  -0.5700 
  2 C       -2.8670     1.2630     1.0800 C.2   1 <1>   0.5690 
  3 N       -4.1150     0.7590     0.8040 N.am  1 <1>  -0.6600 
  4 C       -2.3440     2.5230     0.3900 C.3   1 <1>  -0.0190 
  5 C       -4.6290    -0.4080     1.5700 C.3   1 <1>   0.3200 
  6 C       -4.9890     1.2100    -0.3210 C.3   1 <1>   0.1400 
  7 C       -0.8140     2.4940     0.2750 C.3   1 <1>   0.2090 
  8 C       -2.8020     3.7980     1.1290 C.3   1 <1>  -0.1600 
  9 C       -4.1480    -1.6740     0.8990 C.2   1 <1>  -0.3320 
 10 C       -4.5940     0.5160    -1.6310 C.3   1 <1>   0.1200 
 11 N       -0.3420     3.7280    -0.4150 N.pl3 1 <1>  -0.8380 
 12 C       -2.2200     5.0550     0.4610 C.3   1 <1>  -0.1600 
 13 N       -2.8400    -1.9570     0.7790 N.pl3 1 <1>   0.0330 
 14 C       -4.8140    -2.6990     0.3250 C.2   1 <1>   0.0770 
 15 O       -5.4360     0.9510    -2.6440 O.3   1 <1>  -0.6800 
 16 C        0.9090     3.7010    -0.9980 C.ar  1 <1>   0.4100 
 17 C       -0.6960     4.9690     0.3150 C.3   1 <1>   0.2090 
 18 C       -2.7910    -3.1380     0.1270 C.2   1 <1>   0.0060 
 19 N       -3.9570    -3.6150    -0.1640 N.2   1 <1>  -0.5650 
 20 N        1.8610     3.0180    -0.3720 N.ar  1 <1>  -0.6200 
 21 C        1.1210     4.3900    -2.1890 C.ar  1 <1>  -0.1500 
 22 C       -1.4870    -3.8190    -0.2240 C.3   1 <1>  -0.0600 
 23 C        3.0520     3.0290    -0.9480 C.ar  1 <1>   0.1600 
 24 C        2.3640     4.3930    -2.7770 C.ar  1 <1>  -0.1500 
 25 C        3.3550     3.6860    -2.1270 C.ar  1 <1>  -0.1500 
 26 H       -2.7130     2.5520    -0.6170 H     1 <1>   0.0800 
 27 H       -5.7040    -0.3880     1.6080 H     1 <1>   0.0800 
 28 H       -4.2630    -0.3740     2.5830 H     1 <1>   0.0800 
 29 H       -4.9090     2.2750    -0.4440 H     1 <1>   0.0800 
 30 H       -6.0150     0.9810    -0.0920 H     1 <1>   0.0800 
 31 H       -0.5050     1.6280    -0.2870 H     1 <1>   0.0800 
 32 H       -0.3630     2.4380     1.2520 H     1 <1>   0.0800 
 33 H       -2.4660     3.7510     2.1510 H     1 <1>   0.0800 
 34 H       -3.8760     3.8550     1.1360 H     1 <1>   0.0800 
 35 H       -4.6780    -0.5550    -1.5550 H     1 <1>   0.0800 
 36 H       -3.5870     0.7770    -1.9080 H     1 <1>   0.0800 
 37 H       -2.4700     5.9240     1.0430 H     1 <1>   0.0800 
 38 H       -2.6500     5.1790    -0.5170 H     1 <1>   0.0800 
 39 H       -2.0670    -1.3680     1.1160 H     1 <1>   0.2700 
 40 H       -5.8780    -2.8330     0.2320 H     1 <1>   0.1500 
 41 H       -6.2720     0.4440    -2.6430 H     1 <1>   0.4000 
 42 H       -0.3290     5.8280    -0.2210 H     1 <1>   0.0800 
 43 H       -0.2300     4.9520     1.2860 H     1 <1>   0.0800 
 44 H        0.2960     4.9120    -2.6330 H     1 <1>   0.1500 
 45 H       -0.8940    -3.1790    -0.8510 H     1 <1>   0.0800 
 46 H       -1.6860    -4.7340    -0.7530 H     1 <1>   0.0800 
 47 H       -0.9400    -4.0500     0.6710 H     1 <1>   0.0800 
 48 H        3.8320     2.4810    -0.4490 H     1 <1>   0.1500 
 49 H        2.5540     4.9160    -3.6970 H     1 <1>   0.1500 
 50 H        4.3510     3.6450    -2.5290 H     1 <1>   0.1500 
@<TRIPOS>BOND
  1   1   2  2   
  2   2   3  am  
  3   2   4  1   
  4   3   5  1   
  5   3   6  1   
  6   4   7  1   
  7   4   8  1   
  8   4  26  1   
  9   5   9  1   
 10   5  27  1   
 11   5  28  1   
 12   6  10  1   
 13   6  29  1   
 14   6  30  1   
 15   7  11  1   
 16   7  31  1   
 17   7  32  1   
 18   8  12  1   
 19   8  33  1   
 20   8  34  1   
 21   9  13  1   
 22   9  14  2   
 23  10  15  1   
 24  10  35  1   
 25  10  36  1   
 26  11  16  1   
 27  11  17  1   
 28  12  17  1   
 29  12  37  1   
 30  12  38  1   
 31  13  18  1   
 32  13  39  1   
 33  14  19  1   
 34  14  40  1   
 35  15  41  1   
 36  16  20  ar  
 37  16  21  ar  
 38  17  42  1   
 39  17  43  1   
 40  18  19  2   
 41  18  22  1   
 42  20  23  ar  
 43  21  24  ar  
 44  21  44  1   
 45  22  45  1   
 46  22  46  1   
 47  22  47  1   
 48  23  25  ar  
 49  23  48  1   
 50  24  25  ar  
 51  24  49  1   
 52  25  50  1   
@<TRIPOS>SUBSTRUCTURE
  1 ****   4 GROUP 4 **** **** 0

# MOE 2024.06 (io_trps.svl 2023.06)
