@<TRIPOS>MOLECULE
NONAME
56 58 1 0 0 
SMALL
USER_CHARGES


@<TRIPOS>ATOM
  1 CL      -1.6240     0.0440    -1.8270 Cl    1 <1>  -0.1770 
  2 C       -2.2450     1.1020    -0.5770 C.ar  1 <1>   0.1770 
  3 C       -1.6330     2.3080    -0.2290 C.ar  1 <1>   0.0820 
  4 C       -3.4130     0.6950     0.0440 C.ar  1 <1>  -0.1500 
  5 O       -0.4910     2.7980    -0.7720 O.3   1 <1>  -0.3630 
  6 C       -2.2290     3.0950     0.7430 C.ar  1 <1>  -0.1500 
  7 C       -4.0030     1.4920     1.0160 C.ar  1 <1>  -0.1430 
  8 C        0.6180     1.9570    -1.0040 C.3   1 <1>   0.1200 
  9 C       -3.3990     2.6930     1.3640 C.ar  1 <1>  -0.1500 
 10 C       -5.2980     1.0630     1.6820 C.3   1 <1>   0.4870 
 11 C        1.8880     2.7990    -0.8820 C.3   1 <1>  -0.1600 
 12 N       -6.4150     1.2490     0.7170 N.4   1 <1>  -0.9590 
 13 C        3.1430     1.9530    -1.1230 C.3   1 <1>  -0.2400 
 14 C       -6.6110     2.6940     0.3910 C.3   1 <1>   0.3430 
 15 C       -7.6730     0.6400     1.2360 C.3   1 <1>   0.3430 
 16 C       -7.7110     2.8490    -0.6550 C.3   1 <1>  -0.1600 
 17 C       -8.7860     0.7700     0.1980 C.3   1 <1>  -0.1600 
 18 C       -9.0290     2.2410    -0.1640 C.3   1 <1>   0.2800 
 19 O       -9.3270     2.8950     1.0420 O.3   1 <1>  -0.5600 
 20 C      -10.1310     2.4130    -1.2340 C.3   1 <1>  -0.1600 
 21 C      -10.5880     3.4780     1.2310 C.3   1 <1>   0.1200 
 22 C      -11.5660     2.2130    -0.7100 C.3   1 <1>   0.2800 
 23 C      -11.6770     2.5020     0.7910 C.3   1 <1>  -0.1600 
 24 O      -12.3540     3.1320    -1.3600 O.3   1 <1>  -0.6800 
 25 C      -12.1550     0.8490    -1.0700 C.3   1 <1>  -0.2400 
 26 H       -3.8440    -0.2460    -0.2490 H     1 <1>   0.1500 
 27 H       -1.7620     4.0280     1.0110 H     1 <1>   0.1500 
 28 H        0.5330     1.5490    -1.9960 H     1 <1>   0.0800 
 29 H        0.6160     1.1650    -0.2740 H     1 <1>   0.0800 
 30 H       -3.8260     3.3310     2.1200 H     1 <1>   0.1500 
 31 H       -5.4710     1.6500     2.5690 H     1 <1>   0.0800 
 32 H       -5.2230     0.0270     1.9670 H     1 <1>   0.0800 
 33 H        1.9350     3.2290     0.1040 H     1 <1>   0.0800 
 34 H        1.8540     3.5970    -1.6040 H     1 <1>   0.0800 
 35 H       -6.1460     0.7730    -0.1520 H     1 <1>   0.4500 
 36 H        3.2070     1.1590    -0.4010 H     1 <1>   0.0800 
 37 H        4.0220     2.5670    -1.0350 H     1 <1>   0.0800 
 38 H        3.1240     1.5250    -2.1100 H     1 <1>   0.0800 
 39 H       -5.6950     3.1200     0.0120 H     1 <1>   0.0800 
 40 H       -6.8950     3.2340     1.2810 H     1 <1>   0.0800 
 41 H       -7.9780     1.1490     2.1380 H     1 <1>   0.0800 
 42 H       -7.5170    -0.4010     1.4670 H     1 <1>   0.0800 
 43 H       -7.4040     2.3850    -1.5750 H     1 <1>   0.0800 
 44 H       -7.8540     3.8960    -0.8550 H     1 <1>   0.0800 
 45 H       -9.6800     0.3410     0.6060 H     1 <1>   0.0800 
 46 H       -8.5310     0.2060    -0.6810 H     1 <1>   0.0800 
 47 H       -9.9460     1.7410    -2.0530 H     1 <1>   0.0800 
 48 H      -10.0390     3.4070    -1.6360 H     1 <1>   0.0800 
 49 H      -10.6310     4.3950     0.6670 H     1 <1>   0.0800 
 50 H      -10.6880     3.7110     2.2770 H     1 <1>   0.0800 
 51 H      -12.6520     2.8930     1.0270 H     1 <1>   0.0800 
 52 H      -11.5590     1.5960     1.3580 H     1 <1>   0.0800 
 53 H      -12.0960     4.0390    -1.1150 H     1 <1>   0.4000 
 54 H      -11.5970     0.0530    -0.6170 H     1 <1>   0.0800 
 55 H      -12.1460     0.7080    -2.1360 H     1 <1>   0.0800 
 56 H      -13.1720     0.7850    -0.7240 H     1 <1>   0.0800 
@<TRIPOS>BOND
  1   1   2  1   
  2   2   3  ar  
  3   2   4  ar  
  4   3   5  1   
  5   3   6  ar  
  6   4   7  ar  
  7   4  26  1   
  8   5   8  1   
  9   6   9  ar  
 10   6  27  1   
 11   7   9  ar  
 12   7  10  1   
 13   8  11  1   
 14   8  28  1   
 15   8  29  1   
 16   9  30  1   
 17  10  12  1   
 18  10  31  1   
 19  10  32  1   
 20  11  13  1   
 21  11  33  1   
 22  11  34  1   
 23  12  14  1   
 24  12  15  1   
 25  12  35  1   
 26  13  36  1   
 27  13  37  1   
 28  13  38  1   
 29  14  16  1   
 30  14  39  1   
 31  14  40  1   
 32  15  17  1   
 33  15  41  1   
 34  15  42  1   
 35  16  18  1   
 36  16  43  1   
 37  16  44  1   
 38  17  18  1   
 39  17  45  1   
 40  17  46  1   
 41  18  19  1   
 42  18  20  1   
 43  19  21  1   
 44  20  22  1   
 45  20  47  1   
 46  20  48  1   
 47  21  23  1   
 48  21  49  1   
 49  21  50  1   
 50  22  23  1   
 51  22  24  1   
 52  22  25  1   
 53  23  51  1   
 54  23  52  1   
 55  24  53  1   
 56  25  54  1   
 57  25  55  1   
 58  25  56  1   
@<TRIPOS>SUBSTRUCTURE
  1 ****  14 GROUP 4 **** **** 0

# MOE 2024.06 (io_trps.svl 2023.06)
