@<TRIPOS>MOLECULE
NONAME
53 56 1 0 0 
SMALL
USER_CHARGES


@<TRIPOS>ATOM
  1 O        1.2260    -0.6160     1.3090 O.co2 1 <1>  -0.9000 
  2 C        1.2970     0.4180     0.6260 C.2   1 <1>   0.9060 
  3 O        0.5170     1.3540     0.7910 O.co2 1 <1>  -0.9000 
  4 C        2.4080     0.5170    -0.4370 C.3   1 <1>  -0.1060 
  5 C        3.6960    -0.0960     0.1610 C.3   1 <1>   0.4230 
  6 C        2.7120     2.0040    -0.7880 C.3   1 <1>  -0.1600 
  7 C        1.9680    -0.2470    -1.7210 C.3   1 <1>  -0.1600 
  8 N        3.4980    -1.5670     0.3940 N.4   1 <1>  -0.9590 
  9 C        4.1440     0.7060     1.4020 C.3   1 <1>   0.1400 
 10 C        3.2300     2.8040     0.4200 C.3   1 <1>   0.1400 
 11 C        2.8860    -1.4360    -2.0510 C.3   1 <1>  -0.1600 
 12 C        3.1360    -2.3370    -0.8330 C.3   1 <1>   0.3430 
 13 C        4.5390    -2.2430     1.2140 C.3   1 <1>   0.2630 
 14 N        4.4270     2.1110     0.9820 N.am  1 <1>  -0.6600 
 15 C        5.7070     2.6000     0.9650 C.2   1 <1>   0.5690 
 16 O        6.6510     1.8740     1.1770 O.2   1 <1>  -0.5700 
 17 C        5.9640     4.0670     0.6530 C.3   1 <1>  -0.0990 
 18 C        7.3970     4.5260     0.9590 C.3   1 <1>  -0.0170 
 19 C        7.5510     6.0090     0.6570 C.ar  1 <1>  -0.1430 
 20 C        7.9670     6.4210    -0.6050 C.ar  1 <1>  -0.1500 
 21 C        7.2700     6.9550     1.6420 C.ar  1 <1>  -0.1500 
 22 C        8.0900     7.7760    -0.8410 C.ar  1 <1>   0.0830 
 23 C        7.3990     8.3140     1.3860 C.ar  1 <1>  -0.1500 
 24 O        8.4700     8.3910    -1.9670 O.3   1 <1>  -0.3630 
 25 C        7.8140     8.6970     0.1260 C.ar  1 <1>   0.0830 
 26 C        8.4400     9.7910    -1.6960 C.3   1 <1>   0.4000 
 27 O        8.0080     9.9340    -0.3450 O.3   1 <1>  -0.3620 
 28 H        4.4840     0.0150    -0.5640 H     1 <1>   0.0800 
 29 H        1.8130     2.4770    -1.1460 H     1 <1>   0.0800 
 30 H        3.4420     2.0600    -1.5760 H     1 <1>   0.0800 
 31 H        0.9650    -0.6170    -1.5820 H     1 <1>   0.0800 
 32 H        1.9310     0.4160    -2.5680 H     1 <1>   0.0800 
 33 H        2.6030    -1.5380     0.9540 H     1 <1>   0.4500 
 34 H        5.0300     0.2720     1.8280 H     1 <1>   0.0800 
 35 H        3.3760     0.7100     2.1570 H     1 <1>   0.0800 
 36 H        2.4680     2.8690     1.1800 H     1 <1>   0.0800 
 37 H        3.4620     3.8060     0.1090 H     1 <1>   0.0800 
 38 H        3.8290    -1.0760    -2.4230 H     1 <1>   0.0800 
 39 H        2.4410    -2.0230    -2.8350 H     1 <1>   0.0800 
 40 H        3.9200    -3.0360    -1.0730 H     1 <1>   0.0800 
 41 H        2.2390    -2.9000    -0.6290 H     1 <1>   0.0800 
 42 H        5.4950    -2.1930     0.7180 H     1 <1>   0.0800 
 43 H        4.2760    -3.2760     1.3680 H     1 <1>   0.0800 
 44 H        4.6210    -1.7670     2.1770 H     1 <1>   0.0800 
 45 H        5.7580     4.2360    -0.3870 H     1 <1>   0.0800 
 46 H        5.2850     4.6630     1.2350 H     1 <1>   0.0800 
 47 H        8.0950     3.9610     0.3670 H     1 <1>   0.0800 
 48 H        7.6250     4.3400     1.9940 H     1 <1>   0.0800 
 49 H        8.1930     5.7190    -1.3870 H     1 <1>   0.1500 
 50 H        6.9490     6.6340     2.6180 H     1 <1>   0.1500 
 51 H        7.1870     9.0540     2.1360 H     1 <1>   0.1500 
 52 H        9.4290    10.2010    -1.8030 H     1 <1>   0.0800 
 53 H        7.7360    10.2710    -2.3530 H     1 <1>   0.0800 
@<TRIPOS>BOND
  1   1   2  ar  
  2   2   3  ar  
  3   2   4  1   
  4   4   5  1   
  5   4   6  1   
  6   4   7  1   
  7   5   8  1   
  8   5   9  1   
  9   5  28  1   
 10   6  10  1   
 11   6  29  1   
 12   6  30  1   
 13   7  11  1   
 14   7  31  1   
 15   7  32  1   
 16   8  12  1   
 17   8  13  1   
 18   8  33  1   
 19   9  14  1   
 20   9  34  1   
 21   9  35  1   
 22  10  14  1   
 23  10  36  1   
 24  10  37  1   
 25  11  12  1   
 26  11  38  1   
 27  11  39  1   
 28  12  40  1   
 29  12  41  1   
 30  13  42  1   
 31  13  43  1   
 32  13  44  1   
 33  14  15  am  
 34  15  16  2   
 35  15  17  1   
 36  17  18  1   
 37  17  45  1   
 38  17  46  1   
 39  18  19  1   
 40  18  47  1   
 41  18  48  1   
 42  19  20  ar  
 43  19  21  ar  
 44  20  22  ar  
 45  20  49  1   
 46  21  23  ar  
 47  21  50  1   
 48  22  24  1   
 49  22  25  ar  
 50  23  25  ar  
 51  23  51  1   
 52  24  26  1   
 53  25  27  1   
 54  26  27  1   
 55  26  52  1   
 56  26  53  1   
@<TRIPOS>SUBSTRUCTURE
  1 ****  15 GROUP 4 **** **** 0

# MOE 2024.06 (io_trps.svl 2023.06)
