@<TRIPOS>MOLECULE
NONAME
50 52 1 0 0 
SMALL
USER_CHARGES


@<TRIPOS>ATOM
  1 O       -0.3100    -0.6300    -0.3170 O.2   1 <1>  -0.5700 
  2 C       -1.0510    -1.5830    -0.3470 C.2   1 <1>   0.5690 
  3 N       -2.0040    -1.8530     0.6210 N.am  1 <1>  -0.2980 
  4 C       -0.9750    -2.5410    -1.5130 C.3   1 <1>  -0.0990 
  5 N       -2.8200    -2.9630     0.6470 N.2   1 <1>  -0.5120 
  6 C       -2.2080    -0.8720     1.7100 C.3   1 <1>   0.0600 
  7 C       -1.3870    -3.9560    -1.0790 C.3   1 <1>  -0.0990 
  8 C       -2.6100    -3.9680    -0.1420 C.2   1 <1>   0.3890 
  9 C       -3.4310    -5.1720    -0.1910 C.2   1 <1>   0.6300 
 10 O       -2.9770    -6.1880    -0.7060 O.2   1 <1>  -0.5700 
 11 N       -4.7260    -5.2670     0.3110 N.am  1 <1>  -0.6600 
 12 C       -5.3090    -6.6120     0.6190 C.3   1 <1>   0.1400 
 13 C       -5.5950    -4.0710     0.5370 C.3   1 <1>   0.1400 
 14 C       -6.0540    -7.1800    -0.5960 C.3   1 <1>   0.1400 
 15 C       -7.0760    -4.2730     0.1830 C.3   1 <1>  -0.1600 
 16 N       -7.3820    -6.5200    -0.7750 N.am  1 <1>  -0.6600 
 17 C       -7.3230    -5.0700    -1.1030 C.3   1 <1>   0.1400 
 18 C       -8.5930    -7.1570    -0.5350 C.2   1 <1>   0.5440 
 19 O       -9.6110    -6.5980    -0.9100 O.2   1 <1>  -0.5700 
 20 C       -8.7130    -8.4600     0.1280 C.ar  1 <1>   0.3960 
 21 N       -7.9910    -8.7350     1.2340 N.ar  1 <1>  -0.6200 
 22 C       -9.5980    -9.3950    -0.4020 C.ar  1 <1>  -0.1500 
 23 C       -8.1610    -9.9230     1.7850 C.ar  1 <1>   0.1600 
 24 C       -9.7620   -10.6320     0.1780 C.ar  1 <1>   0.0830 
 25 C       -9.0150   -10.8980     1.3100 C.ar  1 <1>  -0.1500 
 26 O      -10.6330   -11.4950    -0.3900 O.3   1 <1>  -0.3630 
 27 C      -10.8870   -12.7660     0.1670 C.3   1 <1>   0.0400 
 28 H        0.0220    -2.5480    -1.9130 H     1 <1>   0.0800 
 29 H       -1.6450    -2.1840    -2.2740 H     1 <1>   0.0800 
 30 H       -1.2800    -0.7150     2.2290 H     1 <1>   0.0800 
 31 H       -2.9450    -1.2360     2.4040 H     1 <1>   0.0800 
 32 H       -2.5420     0.0610     1.2930 H     1 <1>   0.0800 
 33 H       -0.5700    -4.4160    -0.5520 H     1 <1>   0.0800 
 34 H       -1.5800    -4.5400    -1.9610 H     1 <1>   0.0800 
 35 H       -5.9710    -6.5550     1.4660 H     1 <1>   0.0800 
 36 H       -4.5140    -7.2890     0.8790 H     1 <1>   0.0800 
 37 H       -5.2330    -3.2610    -0.0720 H     1 <1>   0.0800 
 38 H       -5.5110    -3.7660     1.5660 H     1 <1>   0.0800 
 39 H       -6.1800    -8.2390    -0.4680 H     1 <1>   0.0800 
 40 H       -5.4570    -7.0390    -1.4800 H     1 <1>   0.0800 
 41 H       -7.5110    -3.2980     0.0600 H     1 <1>   0.0800 
 42 H       -7.5940    -4.7370     1.0030 H     1 <1>   0.0800 
 43 H       -6.5480    -4.8840    -1.8260 H     1 <1>   0.0800 
 44 H       -8.2570    -4.7580    -1.5400 H     1 <1>   0.0800 
 45 H      -10.1670    -9.1450    -1.2790 H     1 <1>   0.1500 
 46 H       -7.5840   -10.1340     2.6700 H     1 <1>   0.1500 
 47 H       -9.0840   -11.8350     1.8260 H     1 <1>   0.1500 
 48 H      -11.6180   -13.2590    -0.4480 H     1 <1>   0.0800 
 49 H      -11.2720   -12.6400     1.1630 H     1 <1>   0.0800 
 50 H       -9.9730   -13.3330     0.1740 H     1 <1>   0.0800 
@<TRIPOS>BOND
  1   1   2  2   
  2   2   3  am  
  3   2   4  1   
  4   3   5  1   
  5   3   6  1   
  6   4   7  1   
  7   4  28  1   
  8   4  29  1   
  9   5   8  2   
 10   6  30  1   
 11   6  31  1   
 12   6  32  1   
 13   7   8  1   
 14   7  33  1   
 15   7  34  1   
 16   8   9  1   
 17   9  10  2   
 18   9  11  am  
 19  11  12  1   
 20  11  13  1   
 21  12  14  1   
 22  12  35  1   
 23  12  36  1   
 24  13  15  1   
 25  13  37  1   
 26  13  38  1   
 27  14  16  1   
 28  14  39  1   
 29  14  40  1   
 30  15  17  1   
 31  15  41  1   
 32  15  42  1   
 33  16  17  1   
 34  16  18  am  
 35  17  43  1   
 36  17  44  1   
 37  18  19  2   
 38  18  20  1   
 39  20  21  ar  
 40  20  22  ar  
 41  21  23  ar  
 42  22  24  ar  
 43  22  45  1   
 44  23  25  ar  
 45  23  46  1   
 46  24  25  ar  
 47  24  26  1   
 48  25  47  1   
 49  26  27  1   
 50  27  48  1   
 51  27  49  1   
 52  27  50  1   
@<TRIPOS>SUBSTRUCTURE
  1 ****  12 GROUP 4 **** **** 0

# MOE 2024.06 (io_trps.svl 2023.06)
