@<TRIPOS>MOLECULE
NONAME
45 47 1 0 0 
SMALL
USER_CHARGES


@<TRIPOS>ATOM
  1 S       -0.1210     0.1370    -1.4010 S.3   1 <1>  -0.0800 
  2 C        0.7550    -1.2080    -0.6820 C.2   1 <1>  -0.1400 
  3 C        1.0080     1.2940    -0.7220 C.2   1 <1>  -0.1100 
  4 C        1.8230    -0.7600     0.0050 C.2   1 <1>  -0.1500 
  5 C        0.2220    -2.5990    -0.9430 C.3   1 <1>   0.5230 
  6 C        1.9640     0.6650    -0.0150 C.2   1 <1>  -0.1500 
  7 N       -0.6880    -2.9930     0.1750 N.4   1 <1>  -0.9590 
  8 C       -0.9660    -4.4740     0.1650 C.3   1 <1>   0.3430 
  9 C       -1.9380    -2.1680     0.1810 C.3   1 <1>   0.3430 
 10 C       -1.8990    -4.9120     1.3290 C.3   1 <1>   0.2890 
 11 C       -2.8220    -2.5600     1.3700 C.3   1 <1>  -0.1600 
 12 N       -2.2410    -6.3720     1.3270 N.pl3 1 <1>  -0.8690 
 13 C       -3.1720    -4.0580     1.3860 C.3   1 <1>  -0.1600 
 14 C       -2.9950    -7.1150     0.4630 C.ar  1 <1>   0.4610 
 15 N       -3.3140    -8.3770     0.8090 N.ar  1 <1>  -0.1790 
 16 C       -3.4750    -6.6910    -0.7660 C.ar  1 <1>  -0.1500 
 17 C       -4.0540    -9.1480    -0.0090 C.ar  1 <1>   0.7720 
 18 C       -4.2290    -7.5470    -1.5450 C.ar  1 <1>   0.4100 
 19 S       -4.3780   -10.7760     0.6110 S.3   1 <1>  -0.3320 
 20 N       -4.5180    -8.7930    -1.1590 N.ar  1 <1>  -0.6200 
 21 N       -4.7280    -7.2100    -2.7370 N.pl3 1 <1>  -0.9000 
 22 C       -5.4000   -11.5990    -0.6990 C.3   1 <1>  -0.0100 
 23 H        0.8380     2.3380    -0.9280 H     1 <1>   0.1500 
 24 H        2.5450    -1.3600     0.5350 H     1 <1>   0.1500 
 25 H        1.0560    -3.2800    -0.9900 H     1 <1>   0.0800 
 26 H       -0.2940    -2.6260    -1.8900 H     1 <1>   0.0800 
 27 H        2.7770     1.1500     0.4990 H     1 <1>   0.1500 
 28 H       -0.1730    -2.7430     1.0320 H     1 <1>   0.4500 
 29 H       -0.0380    -5.0160     0.2450 H     1 <1>   0.0800 
 30 H       -1.4320    -4.7350    -0.7690 H     1 <1>   0.0800 
 31 H       -2.4820    -2.3140    -0.7380 H     1 <1>   0.0800 
 32 H       -1.6910    -1.1200     0.2610 H     1 <1>   0.0800 
 33 H       -1.3530    -4.7250     2.2400 H     1 <1>   0.0800 
 34 H       -3.7330    -1.9850     1.3250 H     1 <1>   0.0800 
 35 H       -2.3260    -2.2850     2.2860 H     1 <1>   0.0800 
 36 H       -1.9220    -6.8000     2.2080 H     1 <1>   0.4000 
 37 H       -3.7170    -4.2820     2.2880 H     1 <1>   0.0800 
 38 H       -3.8130    -4.2670     0.5490 H     1 <1>   0.0800 
 39 H       -3.0260    -8.7960     1.6870 H     1 <1>   0.4570 
 40 H       -3.2790    -5.7080    -1.1360 H     1 <1>   0.1500 
 41 H       -5.2830    -7.8920    -3.2670 H     1 <1>   0.4000 
 42 H       -4.6470    -6.3010    -3.1990 H     1 <1>   0.4000 
 43 H       -5.6220   -12.5970    -0.3650 H     1 <1>   0.0800 
 44 H       -4.8270   -11.6200    -1.6090 H     1 <1>   0.0800 
 45 H       -6.3040   -11.0300    -0.8270 H     1 <1>   0.0800 
@<TRIPOS>BOND
  1   1   2  1   
  2   1   3  1   
  3   2   4  2   
  4   2   5  1   
  5   3   6  2   
  6   3  23  1   
  7   4   6  1   
  8   4  24  1   
  9   5   7  1   
 10   5  25  1   
 11   5  26  1   
 12   6  27  1   
 13   7   8  1   
 14   7   9  1   
 15   7  28  1   
 16   8  10  1   
 17   8  29  1   
 18   8  30  1   
 19   9  11  1   
 20   9  31  1   
 21   9  32  1   
 22  10  12  1   
 23  10  13  1   
 24  10  33  1   
 25  11  13  1   
 26  11  34  1   
 27  11  35  1   
 28  12  14  1   
 29  12  36  1   
 30  13  37  1   
 31  13  38  1   
 32  14  15  ar  
 33  14  16  ar  
 34  15  17  ar  
 35  15  39  1   
 36  16  18  ar  
 37  16  40  1   
 38  17  19  1   
 39  17  20  ar  
 40  18  20  ar  
 41  18  21  1   
 42  19  22  1   
 43  21  41  1   
 44  21  42  1   
 45  22  43  1   
 46  22  44  1   
 47  22  45  1   
@<TRIPOS>SUBSTRUCTURE
  1 ****   8 GROUP 4 **** **** 0

# MOE 2024.06 (io_trps.svl 2023.06)
