@<TRIPOS>MOLECULE
NONAME
52 56 1 0 0 
SMALL
USER_CHARGES


@<TRIPOS>ATOM
  1 S        1.5260    -0.4250    -0.0190 S.3   1 <1>  -0.0800 
  2 C        1.3370    -2.1800    -0.0260 C.ar  1 <1>   0.0400 
  3 C       -0.0680    -0.1970     0.6970 C.2   1 <1>  -0.1400 
  4 C        0.1070    -2.5330     0.5120 C.ar  1 <1>   0.0000 
  5 C        2.2630    -3.0970    -0.4860 C.ar  1 <1>  -0.1500 
  6 C       -0.6770    -1.3820     0.8940 C.2   1 <1>  -0.1810 
  7 C       -0.4600     1.2480     0.9510 C.3   1 <1>  -0.0600 
  8 C       -0.1850    -3.8950     0.6060 C.ar  1 <1>  -0.1500 
  9 C        1.9440    -4.4390    -0.3960 C.ar  1 <1>  -0.1500 
 10 C       -2.0690    -1.5600     1.4530 C.3   1 <1>   0.5240 
 11 C        0.7270    -4.8320     0.1510 C.ar  1 <1>  -0.1500 
 12 N       -3.0340    -1.3710     0.3380 N.4   1 <1>  -0.9590 
 13 C       -4.4370    -1.2420     0.8550 C.3   1 <1>   0.3430 
 14 C       -2.9220    -2.4510    -0.6900 C.3   1 <1>   0.3430 
 15 C       -5.4470    -0.9410    -0.2660 C.3   1 <1>   0.1430 
 16 C       -3.8670    -2.1620    -1.8590 C.3   1 <1>  -0.1600 
 17 C       -6.8330    -0.9750     0.3270 C.ar  1 <1>   0.1670 
 18 C       -5.3240    -1.9860    -1.3950 C.3   1 <1>  -0.1600 
 19 C       -5.3520     0.5130    -0.8060 C.3   1 <1>  -0.1600 
 20 N       -7.2730    -1.9160     1.1300 N.ar  1 <1>  -0.6200 
 21 C       -7.5770     0.0990    -0.0530 C.ar  1 <1>  -0.1430 
 22 C       -6.8000     1.0200    -0.9610 C.3   1 <1>  -0.0170 
 23 C       -8.5280    -1.7410     1.5290 C.ar  1 <1>   0.4770 
 24 C       -8.8610     0.1840     0.4250 C.ar  1 <1>   0.1600 
 25 N       -9.3460    -0.7430     1.2260 N.ar  1 <1>  -0.6200 
 26 C       -9.0990    -2.7970     2.4440 C.3   1 <1>  -0.0970 
 27 H        3.2010    -2.7670    -0.8970 H     1 <1>   0.1500 
 28 H        0.2510     1.7020     1.6190 H     1 <1>   0.0800 
 29 H       -1.4360     1.3170     1.3930 H     1 <1>   0.0800 
 30 H       -0.4540     1.7980     0.0260 H     1 <1>   0.0800 
 31 H       -1.1080    -4.2350     1.0350 H     1 <1>   0.1500 
 32 H        2.6420    -5.1820    -0.7440 H     1 <1>   0.1500 
 33 H       -2.2370    -0.8130     2.2120 H     1 <1>   0.0800 
 34 H       -2.1780    -2.5340     1.9010 H     1 <1>   0.0800 
 35 H        0.5020    -5.8830     0.2220 H     1 <1>   0.1500 
 36 H       -2.7600    -0.4960    -0.1250 H     1 <1>   0.4500 
 37 H       -4.4950    -0.4600     1.5940 H     1 <1>   0.0800 
 38 H       -4.7310    -2.1650     1.3300 H     1 <1>   0.0800 
 39 H       -3.1770    -3.4020    -0.2510 H     1 <1>   0.0800 
 40 H       -1.9100    -2.5100    -1.0600 H     1 <1>   0.0800 
 41 H       -3.8170    -2.9830    -2.5530 H     1 <1>   0.0800 
 42 H       -3.5280    -1.2870    -2.3830 H     1 <1>   0.0800 
 43 H       -5.9470    -1.7070    -2.2280 H     1 <1>   0.0800 
 44 H       -5.6880    -2.9330    -1.0320 H     1 <1>   0.0800 
 45 H       -4.8180     0.5860    -1.7360 H     1 <1>   0.0800 
 46 H       -4.8600     1.1380    -0.0800 H     1 <1>   0.0800 
 47 H       -7.1430     0.8990    -1.9740 H     1 <1>   0.0800 
 48 H       -6.8980     2.0500    -0.6640 H     1 <1>   0.0800 
 49 H       -9.4970     1.0100     0.1560 H     1 <1>   0.1500 
 50 H       -8.4330    -3.6360     2.5200 H     1 <1>   0.0800 
 51 H      -10.0420    -3.1350     2.0550 H     1 <1>   0.0800 
 52 H       -9.2530    -2.3780     3.4200 H     1 <1>   0.0800 
@<TRIPOS>BOND
  1   1   2  1   
  2   1   3  1   
  3   2   4  ar  
  4   2   5  ar  
  5   3   6  2   
  6   3   7  1   
  7   4   6  1   
  8   4   8  ar  
  9   5   9  ar  
 10   5  27  1   
 11   6  10  1   
 12   7  28  1   
 13   7  29  1   
 14   7  30  1   
 15   8  11  ar  
 16   8  31  1   
 17   9  11  ar  
 18   9  32  1   
 19  10  12  1   
 20  10  33  1   
 21  10  34  1   
 22  11  35  1   
 23  12  13  1   
 24  12  14  1   
 25  12  36  1   
 26  13  15  1   
 27  13  37  1   
 28  13  38  1   
 29  14  16  1   
 30  14  39  1   
 31  14  40  1   
 32  15  17  1   
 33  15  18  1   
 34  15  19  1   
 35  16  18  1   
 36  16  41  1   
 37  16  42  1   
 38  17  20  ar  
 39  17  21  ar  
 40  18  43  1   
 41  18  44  1   
 42  19  22  1   
 43  19  45  1   
 44  19  46  1   
 45  20  23  ar  
 46  21  22  1   
 47  21  24  ar  
 48  22  47  1   
 49  22  48  1   
 50  23  25  ar  
 51  23  26  1   
 52  24  25  ar  
 53  24  49  1   
 54  26  50  1   
 55  26  51  1   
 56  26  52  1   
@<TRIPOS>SUBSTRUCTURE
  1 ****  12 GROUP 4 **** **** 0

# MOE 2024.06 (io_trps.svl 2023.06)
