@<TRIPOS>MOLECULE
C6H12O6
24 24 1 0 0 
SMALL
USER_CHARGES


@<TRIPOS>ATOM
  1 O        0.3800    -0.0510     1.4450 O.3   1 <1>  -0.5600 
  2 C        1.3630     0.7750     0.9010 C.3   1 <1>   0.5600 
  3 C        0.0670    -1.2140     0.7220 C.3   1 <1>   0.1200 
  4 O        1.5630     1.7440     1.8610 O.3   1 <1>  -0.6800 
  5 C        2.7000    -0.0020     0.7250 C.3   1 <1>   0.2000 
  6 C        0.8400     1.4770    -0.3840 C.3   1 <1>   0.1200 
  7 C        1.3030    -2.1140     0.5770 C.3   1 <1>   0.2000 
  8 O        3.6680     0.7760     0.0650 O.3   1 <1>  -0.6800 
  9 C        2.5110    -1.3480     0.0020 C.3   1 <1>   0.2000 
 10 O        1.6770     2.5230    -0.8030 O.3   1 <1>  -0.6800 
 11 O        0.9910    -3.1580    -0.2790 O.3   1 <1>  -0.6800 
 12 O        2.3500    -1.1510    -1.3760 O.3   1 <1>  -0.6800 
 13 H       -0.6990    -1.7350     1.2680 H     1 <1>   0.0800 
 14 H       -0.3200    -0.9340    -0.2410 H     1 <1>   0.0800 
 15 H        2.4250     2.1620     1.6800 H     1 <1>   0.4000 
 16 H        3.0840    -0.2140     1.7080 H     1 <1>   0.0800 
 17 H       -0.1380     1.8850    -0.1980 H     1 <1>   0.0800 
 18 H        0.7700     0.7780    -1.1960 H     1 <1>   0.0800 
 19 H        1.5430    -2.5370     1.5370 H     1 <1>   0.0800 
 20 H        3.2100     1.4220    -0.5320 H     1 <1>   0.4000 
 21 H        3.3960    -1.9440     0.1440 H     1 <1>   0.0800 
 22 H        1.4850     3.3250    -0.2720 H     1 <1>   0.4000 
 23 H        1.2040    -2.8550    -1.1910 H     1 <1>   0.4000 
 24 H        3.1350    -0.6660    -1.7120 H     1 <1>   0.4000 
@<TRIPOS>BOND
  1   1   2  1   
  2   1   3  1   
  3   2   4  1   
  4   2   5  1   
  5   2   6  1   
  6   3   7  1   
  7   3  13  1   
  8   3  14  1   
  9   4  15  1   
 10   5   8  1   
 11   5   9  1   
 12   5  16  1   
 13   6  10  1   
 14   6  17  1   
 15   6  18  1   
 16   7   9  1   
 17   7  11  1   
 18   7  19  1   
 19   8  20  1   
 20   9  12  1   
 21   9  21  1   
 22  10  22  1   
 23  11  23  1   
 24  12  24  1   
@<TRIPOS>SUBSTRUCTURE
  1 ****   2 GROUP 4 **** **** 0

# MOE 2024.06 (io_trps.svl 2023.06)
