@<TRIPOS>MOLECULE
NONAME
47 49 1 0 0 
SMALL
USER_CHARGES


@<TRIPOS>ATOM
  1 O        2.8690    -1.1290     1.9620 O.co2 1 <1>  -0.9000 
  2 C        2.5450    -1.0350     0.7720 C.2   1 <1>   0.9060 
  3 O        2.3660    -2.0380     0.0660 O.co2 1 <1>  -0.9000 
  4 C        2.4270     0.3460     0.1030 C.3   1 <1>  -0.1060 
  5 C        3.5590     0.3110    -0.9590 C.3   1 <1>   0.2000 
  6 C        2.6950     1.5040     1.1170 C.3   1 <1>  -0.1600 
  7 C        0.9750     0.5020    -0.4590 C.3   1 <1>  -0.1600 
  8 O        3.1270    -0.3280    -2.1090 O.3   1 <1>  -0.6800 
  9 C        4.1630     1.6870    -1.2690 C.3   1 <1>   0.1400 
 10 C        4.1870     1.7990     1.2770 C.3   1 <1>   0.1400 
 11 C        0.7080     1.6950    -1.3980 C.3   1 <1>  -0.1600 
 12 N        4.7400     2.3080    -0.0230 N.am  1 <1>  -0.6600 
 13 C       -0.7640     1.7370    -1.8160 C.3   1 <1>  -0.2400 
 14 C        5.7090     3.2760    -0.1320 C.2   1 <1>   0.5690 
 15 O        5.9920     3.7470    -1.2090 O.2   1 <1>  -0.5700 
 16 C        6.4060     3.8010     1.1190 C.3   1 <1>   0.0820 
 17 C        7.7420     4.4850     0.8840 C.2   1 <1>   0.1080 
 18 N        8.8560     4.0100     1.3390 N.2   1 <1>  -0.7070 
 19 C        7.9090     5.7120     0.2120 C.ar  1 <1>   0.0000 
 20 N        9.7960     4.9070     0.9640 N.pl3 1 <1>   0.3000 
 21 C        9.2620     5.9630     0.2900 C.ar  1 <1>  -0.1520 
 22 C        7.0770     6.6310    -0.4450 C.ar  1 <1>  -0.1500 
 23 C        9.8250     7.1200    -0.2610 C.ar  1 <1>  -0.1500 
 24 C        7.6210     7.7700    -0.9890 C.ar  1 <1>  -0.1500 
 25 C        8.9990     8.0160    -0.8950 C.ar  1 <1>  -0.1500 
 26 H        4.3710    -0.2920    -0.5830 H     1 <1>   0.0800 
 27 H        2.2750     1.2530     2.0760 H     1 <1>   0.0800 
 28 H        2.2220     2.4150     0.8100 H     1 <1>   0.0800 
 29 H        0.7180    -0.3960    -0.9960 H     1 <1>   0.0800 
 30 H        0.3010     0.5540     0.3780 H     1 <1>   0.0800 
 31 H        2.7410    -1.1860    -1.7950 H     1 <1>   0.4000 
 32 H        3.4080     2.3400    -1.6650 H     1 <1>   0.0800 
 33 H        4.9410     1.5710    -2.0030 H     1 <1>   0.0800 
 34 H        4.7050     0.8990     1.5680 H     1 <1>   0.0800 
 35 H        4.3110     2.5300     2.0560 H     1 <1>   0.0800 
 36 H        0.9560     2.6260    -0.9230 H     1 <1>   0.0800 
 37 H        1.3120     1.6000    -2.2830 H     1 <1>   0.0800 
 38 H       -1.3970     1.8500    -0.9540 H     1 <1>   0.0800 
 39 H       -1.0310     0.8270    -2.3250 H     1 <1>   0.0800 
 40 H       -0.9350     2.5650    -2.4810 H     1 <1>   0.0800 
 41 H        5.7500     4.4950     1.6040 H     1 <1>   0.0800 
 42 H        6.5790     2.9790     1.7870 H     1 <1>   0.0800 
 43 H       10.7920     4.7870     1.1770 H     1 <1>   0.2700 
 44 H        6.0260     6.4210    -0.5220 H     1 <1>   0.1500 
 45 H       10.8830     7.2960    -0.1860 H     1 <1>   0.1500 
 46 H        6.9950     8.4820    -1.4970 H     1 <1>   0.1500 
 47 H        9.3980     8.9160    -1.3300 H     1 <1>   0.1500 
@<TRIPOS>BOND
  1   1   2  ar  
  2   2   3  ar  
  3   2   4  1   
  4   4   5  1   
  5   4   6  1   
  6   4   7  1   
  7   5   8  1   
  8   5   9  1   
  9   5  26  1   
 10   6  10  1   
 11   6  27  1   
 12   6  28  1   
 13   7  11  1   
 14   7  29  1   
 15   7  30  1   
 16   8  31  1   
 17   9  12  1   
 18   9  32  1   
 19   9  33  1   
 20  10  12  1   
 21  10  34  1   
 22  10  35  1   
 23  11  13  1   
 24  11  36  1   
 25  11  37  1   
 26  12  14  am  
 27  13  38  1   
 28  13  39  1   
 29  13  40  1   
 30  14  15  2   
 31  14  16  1   
 32  16  17  1   
 33  16  41  1   
 34  16  42  1   
 35  17  18  2   
 36  17  19  1   
 37  18  20  1   
 38  19  21  ar  
 39  19  22  ar  
 40  20  21  1   
 41  20  43  1   
 42  21  23  ar  
 43  22  24  ar  
 44  22  44  1   
 45  23  25  ar  
 46  23  45  1   
 47  24  25  ar  
 48  24  46  1   
 49  25  47  1   
@<TRIPOS>SUBSTRUCTURE
  1 ****  14 GROUP 4 **** **** 0

# MOE 2024.06 (io_trps.svl 2023.06)
