@<TRIPOS>MOLECULE
NONAME
48 51 1 0 0 
SMALL
USER_CHARGES


@<TRIPOS>ATOM
  1 O        3.7130    -1.2780     2.4390 O.2   1 <1>  -0.5700 
  2 C        3.1160    -1.9310     1.6040 C.2   1 <1>   0.7800 
  3 O        1.9220    -2.4790     1.8380 O.3   1 <1>  -0.2330 
  4 N        3.5230    -2.1820     0.3270 N.am  1 <1>  -0.4770 
  5 C        1.5410    -3.0850     0.6960 C.ar  1 <1>   0.0830 
  6 C        2.5140    -2.9120    -0.2640 C.ar  1 <1>   0.1170 
  7 C        4.8210    -1.8030    -0.2990 C.3   1 <1>   0.2010 
  8 C        0.3770    -3.7860     0.4410 C.ar  1 <1>  -0.1500 
  9 C        2.3440    -3.4380    -1.5350 C.ar  1 <1>  -0.1500 
 10 C        4.6770    -0.6130    -1.2560 C.2   1 <1>   0.5690 
 11 C        0.2050    -4.3180    -0.8280 C.ar  1 <1>  -0.1500 
 12 C        1.1810    -4.1430    -1.8080 C.ar  1 <1>  -0.1500 
 13 O        4.3630    -0.8630    -2.3980 O.2   1 <1>  -0.5700 
 14 N        4.8930     0.6970    -0.8700 N.am  1 <1>  -0.6600 
 15 C        5.2470     1.0920     0.5480 C.3   1 <1>   0.2200 
 16 C        4.9070     1.7630    -1.9280 C.3   1 <1>   0.1400 
 17 C        4.5300     2.3700     1.0120 C.3   1 <1>   0.1200 
 18 C        6.7750     1.2290     0.7250 C.3   1 <1>   0.3430 
 19 C        5.7990     2.9870    -1.6290 C.3   1 <1>  -0.0800 
 20 O        5.2660     3.5100     0.6760 O.3   1 <1>  -0.5600 
 21 N        7.4590     1.3710    -0.6010 N.4   1 <1>  -0.9590 
 22 C        5.1370     3.9510    -0.6320 C.3   1 <1>   0.1200 
 23 C        7.2740     2.6770    -1.2820 C.3   1 <1>   0.3430 
 24 C        8.8680     0.8100    -0.5540 C.3   1 <1>   0.2370 
 25 C        8.8710    -0.7110    -0.3390 C.2   1 <1>   0.9060 
 26 O        9.8960    -1.2680     0.0440 O.co2 1 <1>  -0.9000 
 27 O        7.7910    -1.3010    -0.5130 O.co2 1 <1>  -0.9000 
 28 H        5.5420    -1.5920     0.4670 H     1 <1>   0.0800 
 29 H        5.1980    -2.6400    -0.8580 H     1 <1>   0.0800 
 30 H       -0.3660    -3.9080     1.2100 H     1 <1>   0.1500 
 31 H        3.0990    -3.2930    -2.2890 H     1 <1>   0.1500 
 32 H       -0.6900    -4.8690    -1.0610 H     1 <1>   0.1500 
 33 H        1.0290    -4.5590    -2.7900 H     1 <1>   0.1500 
 34 H        4.9180     0.3240     1.2150 H     1 <1>   0.0800 
 35 H        5.2480     1.3270    -2.8530 H     1 <1>   0.0800 
 36 H        3.8930     2.0860    -2.0940 H     1 <1>   0.0800 
 37 H        4.4610     2.3570     2.0870 H     1 <1>   0.0800 
 38 H        3.5320     2.4350     0.6140 H     1 <1>   0.0800 
 39 H        7.1270     0.3330     1.2110 H     1 <1>   0.0800 
 40 H        7.0070     2.0630     1.3660 H     1 <1>   0.0800 
 41 H        5.8310     3.5430    -2.5480 H     1 <1>   0.0800 
 42 H        6.9550     0.6470    -1.1560 H     1 <1>   0.4500 
 43 H        4.0910     4.0930    -0.8510 H     1 <1>   0.0800 
 44 H        5.6190     4.9130    -0.6830 H     1 <1>   0.0800 
 45 H        7.6730     3.4670    -0.6680 H     1 <1>   0.0800 
 46 H        7.8360     2.6570    -2.2010 H     1 <1>   0.0800 
 47 H        9.3720     0.9980    -1.4830 H     1 <1>   0.0800 
 48 H        9.4310     1.2630     0.2420 H     1 <1>   0.0800 
@<TRIPOS>BOND
  1   1   2  2   
  2   2   3  1   
  3   2   4  am  
  4   3   5  1   
  5   4   6  1   
  6   4   7  1   
  7   5   6  ar  
  8   5   8  ar  
  9   6   9  ar  
 10   7  10  1   
 11   7  28  1   
 12   7  29  1   
 13   8  11  ar  
 14   8  30  1   
 15   9  12  ar  
 16   9  31  1   
 17  10  13  2   
 18  10  14  am  
 19  11  12  ar  
 20  11  32  1   
 21  12  33  1   
 22  14  15  1   
 23  14  16  1   
 24  15  17  1   
 25  15  18  1   
 26  15  34  1   
 27  16  19  1   
 28  16  35  1   
 29  16  36  1   
 30  17  20  1   
 31  17  37  1   
 32  17  38  1   
 33  18  21  1   
 34  18  39  1   
 35  18  40  1   
 36  19  22  1   
 37  19  23  1   
 38  19  41  1   
 39  20  22  1   
 40  21  23  1   
 41  21  24  1   
 42  21  42  1   
 43  22  43  1   
 44  22  44  1   
 45  23  45  1   
 46  23  46  1   
 47  24  25  1   
 48  24  47  1   
 49  24  48  1   
 50  25  26  ar  
 51  25  27  ar  
@<TRIPOS>SUBSTRUCTURE
  1 ****  10 GROUP 4 **** **** 0

# MOE 2024.06 (io_trps.svl 2023.06)
