@<TRIPOS>MOLECULE
NONAME
39 40 1 0 0 
SMALL
USER_CHARGES


@<TRIPOS>ATOM
  1 F       -0.9380    -1.4650     2.1850 F     1 <1>  -0.1900 
  2 C       -1.9640    -1.7130     1.4000 C.ar  1 <1>   0.1900 
  3 C       -2.6480    -0.7280     0.6960 C.ar  1 <1>   0.3920 
  4 C       -2.3780    -3.0110     1.2720 C.ar  1 <1>   0.1600 
  5 O       -2.3680     0.5960     0.7110 O.3   1 <1>  -0.3630 
  6 N       -3.6670    -1.0470    -0.0710 N.ar  1 <1>  -0.6200 
  7 N       -3.3960    -3.3390     0.5070 N.ar  1 <1>  -0.6200 
  8 C       -1.3190     1.1880     1.4460 C.3   1 <1>   0.0400 
  9 C       -4.0000    -2.3350    -0.1330 C.ar  1 <1>   0.7200 
 10 N       -5.0770    -2.6620    -0.9340 N.pl3 1 <1>  -0.8380 
 11 C       -5.3370    -4.0550    -1.3870 C.3   1 <1>   0.2090 
 12 C       -5.9390    -1.6140    -1.5520 C.3   1 <1>   0.1290 
 13 C       -6.3680    -4.7020    -0.4630 C.3   1 <1>  -0.1600 
 14 C       -6.5420    -6.1890    -0.7650 C.3   1 <1>   0.3430 
 15 O       -6.9620    -6.3430    -2.0700 O.3   1 <1>  -0.6800 
 16 C       -7.5740    -6.8530     0.1380 C.ar  1 <1>  -0.1440 
 17 C       -7.1660    -7.7770     1.0900 C.ar  1 <1>  -0.1500 
 18 C       -8.9250    -6.5500     0.0290 C.ar  1 <1>  -0.1500 
 19 C       -8.0920    -8.3900     1.9160 C.ar  1 <1>  -0.1500 
 20 C       -9.8520    -7.1610     0.8540 C.ar  1 <1>  -0.1500 
 21 C       -9.4360    -8.0820     1.7990 C.ar  1 <1>  -0.1500 
 22 H       -1.8660    -3.7920     1.8060 H     1 <1>   0.1500 
 23 H       -1.3380     2.2460     1.2590 H     1 <1>   0.0800 
 24 H       -0.3820     0.7770     1.1140 H     1 <1>   0.0800 
 25 H       -1.4750     1.0010     2.4940 H     1 <1>   0.0800 
 26 H       -4.4230    -4.6240    -1.3760 H     1 <1>   0.0800 
 27 H       -5.7000    -4.0460    -2.4010 H     1 <1>   0.0800 
 28 H       -6.0800    -0.7940    -0.8680 H     1 <1>   0.0800 
 29 H       -6.9050    -2.0200    -1.7970 H     1 <1>   0.0800 
 30 H       -5.4710    -1.2450    -2.4480 H     1 <1>   0.0800 
 31 H       -7.3120    -4.1980    -0.5580 H     1 <1>   0.0800 
 32 H       -6.0340    -4.6030     0.5530 H     1 <1>   0.0800 
 33 H       -5.5940    -6.6930    -0.6720 H     1 <1>   0.0800 
 34 H       -7.4050    -7.2110    -2.1430 H     1 <1>   0.4000 
 35 H       -6.1240    -8.0250     1.1950 H     1 <1>   0.1500 
 36 H       -9.2580    -5.8330    -0.7030 H     1 <1>   0.1500 
 37 H       -7.7680    -9.1050     2.6510 H     1 <1>   0.1500 
 38 H      -10.8970    -6.9190     0.7620 H     1 <1>   0.1500 
 39 H      -10.1560    -8.5570     2.4420 H     1 <1>   0.1500 
@<TRIPOS>BOND
  1   1   2  1   
  2   2   3  ar  
  3   2   4  ar  
  4   3   5  1   
  5   3   6  ar  
  6   4   7  ar  
  7   4  22  1   
  8   5   8  1   
  9   6   9  ar  
 10   7   9  ar  
 11   8  23  1   
 12   8  24  1   
 13   8  25  1   
 14   9  10  1   
 15  10  11  1   
 16  10  12  1   
 17  11  13  1   
 18  11  26  1   
 19  11  27  1   
 20  12  28  1   
 21  12  29  1   
 22  12  30  1   
 23  13  14  1   
 24  13  31  1   
 25  13  32  1   
 26  14  15  1   
 27  14  16  1   
 28  14  33  1   
 29  15  34  1   
 30  16  17  ar  
 31  16  18  ar  
 32  17  19  ar  
 33  17  35  1   
 34  18  20  ar  
 35  18  36  1   
 36  19  21  ar  
 37  19  37  1   
 38  20  21  ar  
 39  20  38  1   
 40  21  39  1   
@<TRIPOS>SUBSTRUCTURE
  1 ****  13 GROUP 4 **** **** 0

# MOE 2024.06 (io_trps.svl 2023.06)
