@<TRIPOS>MOLECULE
NONAME
48 51 1 0 0 
SMALL
USER_CHARGES


@<TRIPOS>ATOM
  1 O        0.9320    -0.2540     0.8860 O.3   1 <1>  -0.5600 
  2 C        1.9690    -0.9740     0.2510 C.3   1 <1>   0.4240 
  3 C       -0.3630    -0.4230     0.4120 C.3   1 <1>   0.1200 
  4 C        1.5150    -2.4210    -0.1080 C.ar  1 <1>  -0.1440 
  5 C        3.1050    -0.9740     1.2860 C.3   1 <1>  -0.1600 
  6 C        2.3880    -0.1610    -0.9880 C.3   1 <1>  -0.1600 
  7 C       -0.7960    -1.8440     0.7320 C.3   1 <1>  -0.0160 
  8 C        2.3850    -3.3570    -0.6850 C.ar  1 <1>   0.0820 
  9 C        0.2010    -2.8190     0.1410 C.ar  1 <1>  -0.1440 
 10 C        3.5650     0.4430     1.6320 C.3   1 <1>   0.2090 
 11 C        2.8540     1.2480    -0.6200 C.3   1 <1>   0.2090 
 12 O        3.6620    -2.9840    -0.9620 O.3   1 <1>  -0.3630 
 13 C        1.9410    -4.6460    -0.9740 C.ar  1 <1>  -0.1500 
 14 C       -0.2290    -4.1030    -0.1490 C.ar  1 <1>  -0.1500 
 15 N        3.9520     1.1590     0.3830 N.pl3 1 <1>  -0.8380 
 16 C        4.6330    -3.8740    -1.4640 C.3   1 <1>   0.0400 
 17 C        0.6410    -5.0180    -0.7050 C.ar  1 <1>  -0.1500 
 18 C        5.1230     1.8870     0.2790 C.ar  1 <1>   0.7200 
 19 N        5.1640     2.8510    -0.6420 N.ar  1 <1>  -0.6200 
 20 N        6.1150     1.5670     1.1110 N.ar  1 <1>  -0.6200 
 21 C        6.2810     3.5340    -0.7290 C.ar  1 <1>   0.1600 
 22 C        7.2210     2.2670     1.0000 C.ar  1 <1>   0.1600 
 23 C        7.3700     3.2830     0.0840 C.ar  1 <1>   0.0820 
 24 O        8.5570     3.9580     0.0420 O.3   1 <1>  -0.3620 
 25 C        8.7480     5.0060    -0.8840 C.3   1 <1>   0.0400 
 26 H       -0.3850    -0.2350    -0.6470 H     1 <1>   0.0800 
 27 H       -0.9940     0.2890     0.9130 H     1 <1>   0.0800 
 28 H        3.9600    -1.5050     0.9200 H     1 <1>   0.0800 
 29 H        2.7720    -1.4760     2.1740 H     1 <1>   0.0800 
 30 H        1.5800    -0.1110    -1.6900 H     1 <1>   0.0800 
 31 H        3.2040    -0.6440    -1.4880 H     1 <1>   0.0800 
 32 H       -1.7750    -2.0140     0.3240 H     1 <1>   0.0800 
 33 H       -0.8430    -1.9730     1.7990 H     1 <1>   0.0800 
 34 H        4.3840     0.3880     2.3270 H     1 <1>   0.0800 
 35 H        2.7660     0.9820     2.1100 H     1 <1>   0.0800 
 36 H        2.0390     1.8130    -0.2000 H     1 <1>   0.0800 
 37 H        3.1830     1.7470    -1.5140 H     1 <1>   0.0800 
 38 H        2.5920    -5.3770    -1.4120 H     1 <1>   0.1500 
 39 H       -1.2430    -4.3970     0.0560 H     1 <1>   0.1500 
 40 H        5.5600    -3.3360    -1.5550 H     1 <1>   0.0800 
 41 H        4.3180    -4.2250    -2.4310 H     1 <1>   0.0800 
 42 H        4.7510    -4.6890    -0.7730 H     1 <1>   0.0800 
 43 H        0.3040    -6.0160    -0.9280 H     1 <1>   0.1500 
 44 H        6.3190     4.3110    -1.4690 H     1 <1>   0.1500 
 45 H        8.0400     2.0310     1.6550 H     1 <1>   0.1500 
 46 H        9.7410     5.3950    -0.7460 H     1 <1>   0.0800 
 47 H        8.0250     5.7800    -0.6930 H     1 <1>   0.0800 
 48 H        8.6450     4.6170    -1.8820 H     1 <1>   0.0800 
@<TRIPOS>BOND
  1   1   2  1   
  2   1   3  1   
  3   2   4  1   
  4   2   5  1   
  5   2   6  1   
  6   3   7  1   
  7   3  26  1   
  8   3  27  1   
  9   4   8  ar  
 10   4   9  ar  
 11   5  10  1   
 12   5  28  1   
 13   5  29  1   
 14   6  11  1   
 15   6  30  1   
 16   6  31  1   
 17   7   9  1   
 18   7  32  1   
 19   7  33  1   
 20   8  12  1   
 21   8  13  ar  
 22   9  14  ar  
 23  10  15  1   
 24  10  34  1   
 25  10  35  1   
 26  11  15  1   
 27  11  36  1   
 28  11  37  1   
 29  12  16  1   
 30  13  17  ar  
 31  13  38  1   
 32  14  17  ar  
 33  14  39  1   
 34  15  18  1   
 35  16  40  1   
 36  16  41  1   
 37  16  42  1   
 38  17  43  1   
 39  18  19  ar  
 40  18  20  ar  
 41  19  21  ar  
 42  20  22  ar  
 43  21  23  ar  
 44  21  44  1   
 45  22  23  ar  
 46  22  45  1   
 47  23  24  1   
 48  24  25  1   
 49  25  46  1   
 50  25  47  1   
 51  25  48  1   
@<TRIPOS>SUBSTRUCTURE
  1 ****   6 GROUP 4 **** **** 0

# MOE 2024.06 (io_trps.svl 2023.06)
