@<TRIPOS>MOLECULE
NONAME
49 52 1 0 0 
SMALL
USER_CHARGES


@<TRIPOS>ATOM
  1 O        0.1920     0.0870    -1.0380 O.3   1 <1>  -0.2800 
  2 C        0.5690     1.3190    -0.6970 C.ar  1 <1>   0.1400 
  3 C        1.1850    -0.7380    -0.7120 C.2   1 <1>  -0.0400 
  4 C        1.8330     1.2940    -0.1370 C.ar  1 <1>   0.0000 
  5 C       -0.1460     2.4980    -0.8460 C.ar  1 <1>  -0.1500 
  6 C        2.2160    -0.0640    -0.1610 C.2   1 <1>  -0.1810 
  7 C        1.0010    -2.2160    -0.9940 C.3   1 <1>   0.5230 
  8 C        2.4120     2.4880     0.2940 C.ar  1 <1>  -0.1500 
  9 C        0.4360     3.6730    -0.4160 C.ar  1 <1>  -0.1500 
 10 C        3.5580    -0.5500     0.3600 C.3   1 <1>  -0.0590 
 11 N       -0.0700    -2.7550    -0.1070 N.4   1 <1>  -0.9590 
 12 C        1.7130     3.6720     0.1540 C.ar  1 <1>  -0.1430 
 13 C       -1.4360    -2.2860    -0.4780 C.3   1 <1>   0.3430 
 14 C       -0.1490    -4.2360    -0.1040 C.3   1 <1>   0.3430 
 15 C        2.3150     4.9880     0.6130 C.3   1 <1>  -0.0970 
 16 C       -2.4020    -3.3240     0.1040 C.3   1 <1>   0.2000 
 17 C       -1.5660    -4.5850     0.3660 C.3   1 <1>  -0.0800 
 18 O       -2.9300    -2.8740     1.3050 O.3   1 <1>  -0.6800 
 19 C       -2.1430    -5.8240    -0.3470 C.3   1 <1>  -0.0170 
 20 C       -1.2950    -7.0680    -0.1200 C.ar  1 <1>   0.1670 
 21 N       -0.1050    -7.0820    -0.7050 N.ar  1 <1>  -0.6200 
 22 C       -1.7810    -8.1140     0.6630 C.ar  1 <1>   0.1600 
 23 C        0.5480    -8.2110    -0.4700 C.ar  1 <1>   0.1600 
 24 N       -1.1200    -9.2310     0.9100 N.ar  1 <1>  -0.6200 
 25 C        0.0580    -9.2490     0.3120 C.ar  1 <1>   0.1600 
 26 H       -1.1260     2.4830    -1.2880 H     1 <1>   0.1500 
 27 H        1.9290    -2.7270    -0.7990 H     1 <1>   0.0800 
 28 H        0.7420    -2.3580    -2.0310 H     1 <1>   0.0800 
 29 H        3.3950     2.4690     0.7280 H     1 <1>   0.1500 
 30 H       -0.0970     4.6030    -0.5200 H     1 <1>   0.1500 
 31 H        4.3530    -0.0760    -0.1890 H     1 <1>   0.0800 
 32 H        3.6560    -1.6150     0.2550 H     1 <1>   0.0800 
 33 H        3.6610    -0.2940     1.3990 H     1 <1>   0.0800 
 34 H        0.1290    -2.4100     0.8410 H     1 <1>   0.4500 
 35 H       -1.6420    -1.2970    -0.0990 H     1 <1>   0.0800 
 36 H       -1.5330    -2.2780    -1.5510 H     1 <1>   0.0800 
 37 H       -0.0100    -4.6100    -1.1070 H     1 <1>   0.0800 
 38 H        0.5970    -4.6810     0.5350 H     1 <1>   0.0800 
 39 H        1.6880     5.4350     1.3640 H     1 <1>   0.0800 
 40 H        2.3960     5.6640    -0.2200 H     1 <1>   0.0800 
 41 H        3.2950     4.8400     1.0290 H     1 <1>   0.0800 
 42 H       -3.2260    -3.4920    -0.5700 H     1 <1>   0.0800 
 43 H       -1.5230    -4.7960     1.4220 H     1 <1>   0.0800 
 44 H       -2.2700    -2.8180     2.0220 H     1 <1>   0.4000 
 45 H       -2.2080    -5.6480    -1.4070 H     1 <1>   0.0800 
 46 H       -3.1430    -6.0010     0.0110 H     1 <1>   0.0800 
 47 H       -2.7580    -8.0290     1.1050 H     1 <1>   0.1500 
 48 H        1.5210    -8.3250    -0.9170 H     1 <1>   0.1500 
 49 H        0.6640   -10.1290     0.4490 H     1 <1>   0.1500 
@<TRIPOS>BOND
  1   1   2  1   
  2   1   3  1   
  3   2   4  ar  
  4   2   5  ar  
  5   3   6  2   
  6   3   7  1   
  7   4   6  1   
  8   4   8  ar  
  9   5   9  ar  
 10   5  26  1   
 11   6  10  1   
 12   7  11  1   
 13   7  27  1   
 14   7  28  1   
 15   8  12  ar  
 16   8  29  1   
 17   9  12  ar  
 18   9  30  1   
 19  10  31  1   
 20  10  32  1   
 21  10  33  1   
 22  11  13  1   
 23  11  14  1   
 24  11  34  1   
 25  12  15  1   
 26  13  16  1   
 27  13  35  1   
 28  13  36  1   
 29  14  17  1   
 30  14  37  1   
 31  14  38  1   
 32  15  39  1   
 33  15  40  1   
 34  15  41  1   
 35  16  17  1   
 36  16  18  1   
 37  16  42  1   
 38  17  19  1   
 39  17  43  1   
 40  18  44  1   
 41  19  20  1   
 42  19  45  1   
 43  19  46  1   
 44  20  21  ar  
 45  20  22  ar  
 46  21  23  ar  
 47  22  24  ar  
 48  22  47  1   
 49  23  25  ar  
 50  23  48  1   
 51  24  25  ar  
 52  25  49  1   
@<TRIPOS>SUBSTRUCTURE
  1 ****  11 GROUP 4 **** **** 0

# MOE 2024.06 (io_trps.svl 2023.06)
