@<TRIPOS>MOLECULE
NONAME
47 48 1 0 0 
SMALL
USER_CHARGES


@<TRIPOS>ATOM
  1 O        0.2050     2.7680     2.6010 O.co2 1 <1>  -0.9000 
  2 C       -0.5850     3.0160     1.6900 C.2   1 <1>   0.9060 
  3 O       -1.6340     3.6400     1.8870 O.co2 1 <1>  -0.9000 
  4 C       -0.0970     2.7830     0.2830 C.3   1 <1>  -0.1860 
  5 C       -1.0460     3.1330    -0.8860 C.3   1 <1>   0.2000 
  6 C        1.1710     3.6210     0.1840 C.3   1 <1>   0.3430 
  7 O       -2.3510     2.9770    -0.4890 O.3   1 <1>  -0.6800 
  8 C       -0.8790     4.5680    -1.4030 C.3   1 <1>  -0.1600 
  9 N        0.8760     5.0970     0.2720 N.4   1 <1>  -0.9590 
 10 C       -0.4690     5.4960    -0.2660 C.3   1 <1>   0.3430 
 11 C        1.0000     5.5490     1.7000 C.3   1 <1>   0.3430 
 12 C        1.1550     7.0710     1.7900 C.3   1 <1>   0.1200 
 13 O        1.9670     7.5110     0.7150 O.3   1 <1>  -0.3630 
 14 C        2.2460     8.8230     0.5020 C.ar  1 <1>   0.0820 
 15 C        2.9850     9.1730    -0.6320 C.ar  1 <1>  -0.1430 
 16 C        1.8130     9.8140     1.3820 C.ar  1 <1>  -0.1500 
 17 C        3.2680    10.5150    -0.8530 C.ar  1 <1>  -0.1500 
 18 C        3.5080     8.1640    -1.6660 C.3   1 <1>   0.0630 
 19 C        2.1060    11.1420     1.1420 C.ar  1 <1>  -0.1500 
 20 C        2.8340    11.4930     0.0230 C.ar  1 <1>  -0.1500 
 21 C        2.3630     7.5030    -2.4400 C.3   1 <1>  -0.2400 
 22 C        4.4550     7.1240    -1.0530 C.3   1 <1>  -0.2400 
 23 H        0.1670     1.7460     0.2130 H     1 <1>   0.0800 
 24 H       -0.8910     2.4500    -1.7050 H     1 <1>   0.0800 
 25 H        1.6470     3.4100    -0.7590 H     1 <1>   0.0800 
 26 H        1.8490     3.3340     0.9720 H     1 <1>   0.0800 
 27 H       -2.4030     3.2420     0.4800 H     1 <1>   0.4000 
 28 H       -0.1250     4.5980    -2.1670 H     1 <1>   0.0800 
 29 H       -1.8000     4.9080    -1.8440 H     1 <1>   0.0800 
 30 H        1.6010     5.6270    -0.2320 H     1 <1>   0.4500 
 31 H       -1.2100     5.4200     0.5150 H     1 <1>   0.0800 
 32 H       -0.4400     6.5180    -0.6060 H     1 <1>   0.0800 
 33 H        0.1420     5.2370     2.2760 H     1 <1>   0.0800 
 34 H        1.8640     5.0880     2.1490 H     1 <1>   0.0800 
 35 H        1.6220     7.3440     2.7190 H     1 <1>   0.0800 
 36 H        0.1930     7.5470     1.7110 H     1 <1>   0.0800 
 37 H        1.2480     9.5810     2.2630 H     1 <1>   0.1500 
 38 H        3.8340    10.8180    -1.7170 H     1 <1>   0.1500 
 39 H        4.0910     8.7060    -2.3910 H     1 <1>   0.0800 
 40 H        1.7700    11.9050     1.8240 H     1 <1>   0.1500 
 41 H        3.0650    12.5270    -0.1680 H     1 <1>   0.1500 
 42 H        1.7440     6.9160    -1.7920 H     1 <1>   0.0800 
 43 H        2.7560     6.8690    -3.2150 H     1 <1>   0.0800 
 44 H        1.7530     8.2620    -2.8980 H     1 <1>   0.0800 
 45 H        3.9390     6.4580    -0.3900 H     1 <1>   0.0800 
 46 H        5.2290     7.6240    -0.4990 H     1 <1>   0.0800 
 47 H        4.9160     6.5420    -1.8310 H     1 <1>   0.0800 
@<TRIPOS>BOND
  1   1   2  ar  
  2   2   3  ar  
  3   2   4  1   
  4   4   5  1   
  5   4   6  1   
  6   4  23  1   
  7   5   7  1   
  8   5   8  1   
  9   5  24  1   
 10   6   9  1   
 11   6  25  1   
 12   6  26  1   
 13   7  27  1   
 14   8  10  1   
 15   8  28  1   
 16   8  29  1   
 17   9  10  1   
 18   9  11  1   
 19   9  30  1   
 20  10  31  1   
 21  10  32  1   
 22  11  12  1   
 23  11  33  1   
 24  11  34  1   
 25  12  13  1   
 26  12  35  1   
 27  12  36  1   
 28  13  14  1   
 29  14  15  ar  
 30  14  16  ar  
 31  15  17  ar  
 32  15  18  1   
 33  16  19  ar  
 34  16  37  1   
 35  17  20  ar  
 36  17  38  1   
 37  18  21  1   
 38  18  22  1   
 39  18  39  1   
 40  19  20  ar  
 41  19  40  1   
 42  20  41  1   
 43  21  42  1   
 44  21  43  1   
 45  21  44  1   
 46  22  45  1   
 47  22  46  1   
 48  22  47  1   
@<TRIPOS>SUBSTRUCTURE
  1 ****   9 GROUP 4 **** **** 0

# MOE 2024.06 (io_trps.svl 2023.06)
