@<TRIPOS>MOLECULE
NONAME
44 46 1 0 0 
SMALL
USER_CHARGES


@<TRIPOS>ATOM
  1 O       -0.0900     0.6760     0.5260 O.3   1 <1>  -0.3630 
  2 C       -1.1970     0.8700    -0.2460 C.ar  1 <1>   0.3920 
  3 C        0.5710    -0.5750     0.5410 C.3   1 <1>   0.0400 
  4 N       -1.6150    -0.1350    -1.0020 N.ar  1 <1>  -0.6200 
  5 C       -1.8240     2.1470    -0.1940 C.ar  1 <1>   0.4100 
  6 C       -2.6910     0.1920    -1.7040 C.ar  1 <1>   0.1600 
  7 N       -2.8940     2.4490    -0.9170 N.ar  1 <1>  -0.6200 
  8 N       -1.3320     3.1490     0.6330 N.pl3 1 <1>  -0.8690 
  9 C       -3.3030     1.4340    -1.6630 C.ar  1 <1>   0.1600 
 10 C       -1.4950     4.5830     0.3380 C.3   1 <1>   0.2890 
 11 C       -0.4530     5.0070    -0.6980 C.3   1 <1>  -0.1600 
 12 C       -1.3320     5.3680     1.6370 C.3   1 <1>  -0.1600 
 13 C       -0.5370     6.5110    -0.9480 C.3   1 <1>   0.2090 
 14 C       -1.4070     6.8690     1.3620 C.3   1 <1>   0.2090 
 15 N       -0.3890     7.2270     0.3430 N.pl3 1 <1>  -0.8380 
 16 C       -0.0500     8.5720     0.2630 C.ar  1 <1>   0.1000 
 17 C       -0.9420     9.5210    -0.2250 C.ar  1 <1>  -0.1500 
 18 C        1.2070     8.9870     0.6770 C.ar  1 <1>  -0.1500 
 19 C       -0.5900    10.8590    -0.3000 C.ar  1 <1>  -0.1430 
 20 C        1.5680    10.3200     0.6070 C.ar  1 <1>  -0.1500 
 21 C        0.6710    11.2550     0.1190 C.ar  1 <1>  -0.1500 
 22 C       -1.5650    11.8920    -0.8330 C.3   1 <1>  -0.0970 
 23 H        1.4050    -0.5100     1.2160 H     1 <1>   0.0800 
 24 H        0.9170    -0.7980    -0.4530 H     1 <1>   0.0800 
 25 H       -0.1190    -1.3290     0.8770 H     1 <1>   0.0800 
 26 H       -3.1030    -0.5680    -2.3450 H     1 <1>   0.1500 
 27 H       -0.4270     2.9190     1.0510 H     1 <1>   0.4000 
 28 H       -4.1730     1.6010    -2.2720 H     1 <1>   0.1500 
 29 H       -2.4820     4.7650    -0.0540 H     1 <1>   0.0800 
 30 H       -0.6310     4.4850    -1.6200 H     1 <1>   0.0800 
 31 H        0.5350     4.7690    -0.3490 H     1 <1>   0.0800 
 32 H       -0.3810     5.1490     2.0870 H     1 <1>   0.0800 
 33 H       -2.1120     5.0930     2.3220 H     1 <1>   0.0800 
 34 H       -1.4850     6.7620    -1.3930 H     1 <1>   0.0800 
 35 H        0.2480     6.8160    -1.6190 H     1 <1>   0.0800 
 36 H       -1.2150     7.4190     2.2680 H     1 <1>   0.0800 
 37 H       -2.3860     7.1340     1.0020 H     1 <1>   0.0800 
 38 H       -1.9130     9.1970    -0.5450 H     1 <1>   0.1500 
 39 H        1.8920     8.2510     1.0530 H     1 <1>   0.1500 
 40 H        2.5460    10.6290     0.9320 H     1 <1>   0.1500 
 41 H        0.9570    12.2900     0.0670 H     1 <1>   0.1500 
 42 H       -2.4800    11.4270    -1.1540 H     1 <1>   0.0800 
 43 H       -1.1300    12.4080    -1.6700 H     1 <1>   0.0800 
 44 H       -1.7950    12.6080    -0.0640 H     1 <1>   0.0800 
@<TRIPOS>BOND
  1   1   2  1   
  2   1   3  1   
  3   2   4  ar  
  4   2   5  ar  
  5   3  23  1   
  6   3  24  1   
  7   3  25  1   
  8   4   6  ar  
  9   5   7  ar  
 10   5   8  1   
 11   6   9  ar  
 12   6  26  1   
 13   7   9  ar  
 14   8  10  1   
 15   8  27  1   
 16   9  28  1   
 17  10  11  1   
 18  10  12  1   
 19  10  29  1   
 20  11  13  1   
 21  11  30  1   
 22  11  31  1   
 23  12  14  1   
 24  12  32  1   
 25  12  33  1   
 26  13  15  1   
 27  13  34  1   
 28  13  35  1   
 29  14  15  1   
 30  14  36  1   
 31  14  37  1   
 32  15  16  1   
 33  16  17  ar  
 34  16  18  ar  
 35  17  19  ar  
 36  17  38  1   
 37  18  20  ar  
 38  18  39  1   
 39  19  21  ar  
 40  19  22  1   
 41  20  21  ar  
 42  20  40  1   
 43  21  41  1   
 44  22  42  1   
 45  22  43  1   
 46  22  44  1   
@<TRIPOS>SUBSTRUCTURE
  1 ****  11 GROUP 4 **** **** 0

# MOE 2024.06 (io_trps.svl 2023.06)
