@<TRIPOS>MOLECULE
NONAME
52 56 1 0 0 
SMALL
USER_CHARGES


@<TRIPOS>ATOM
  1 O       -1.1920     0.9240    -2.3180 O.2   1 <1>  -0.5700 
  2 C       -2.0970     1.3920    -1.6410 C.2   1 <1>   0.7160 
  3 N       -3.2580     0.6400    -1.5190 N.am  1 <1>  -0.6600 
  4 C       -1.8900     2.6960    -1.0070 C.2   1 <1>   0.2030 
  5 C       -3.5880    -0.4590    -2.4700 C.3   1 <1>   0.1400 
  6 C       -4.2820     0.8440    -0.4560 C.3   1 <1>   0.1400 
  7 N       -2.8020     3.5700    -0.6060 N.2   1 <1>  -0.7070 
  8 C       -0.6090     3.2120    -0.7600 C.2   1 <1>  -0.1500 
  9 C       -3.7760    -1.7720    -1.7050 C.3   1 <1>  -0.1600 
 10 C       -4.4840    -0.4570     0.3250 C.3   1 <1>  -0.1600 
 11 N       -2.1130     4.6100    -0.1150 N.pl3 1 <1>   0.3000 
 12 C       -0.7840     4.4210    -0.1940 C.2   1 <1>  -0.2370 
 13 C       -4.8320    -1.6450    -0.5940 C.3   1 <1>   0.4240 
 14 C        0.2320     5.4360     0.2850 C.3   1 <1>  -0.0150 
 15 O       -6.0110    -1.2940    -1.2860 O.3   1 <1>  -0.5600 
 16 C       -5.0070    -2.9780     0.1910 C.ar  1 <1>  -0.1430 
 17 C        1.5500     4.9830     0.8250 C.3   1 <1>  -0.2000 
 18 C        0.5160     5.5600     1.7470 C.3   1 <1>  -0.2000 
 19 C       -7.2280    -1.5120    -0.6520 C.3   1 <1>   0.1200 
 20 C       -3.9540    -3.5690     0.9050 C.ar  1 <1>   0.0830 
 21 C       -6.2450    -3.6200     0.2010 C.ar  1 <1>  -0.1430 
 22 C       -7.4280    -3.0140    -0.5260 C.3   1 <1>  -0.0170 
 23 O       -2.7460    -2.9470     0.9320 O.3   1 <1>  -0.3630 
 24 C       -4.1510    -4.7730     1.5790 C.ar  1 <1>  -0.1500 
 25 C       -6.4280    -4.8170     0.8730 C.ar  1 <1>  -0.1500 
 26 C       -1.5990    -3.5220     1.5160 C.3   1 <1>   0.0400 
 27 C       -5.3820    -5.3950     1.5610 C.ar  1 <1>  -0.1500 
 28 H       -2.8110    -0.5800    -3.2040 H     1 <1>   0.0800 
 29 H       -4.4950    -0.2060    -2.9930 H     1 <1>   0.0800 
 30 H       -5.2060     1.1540    -0.9130 H     1 <1>   0.0800 
 31 H       -3.9770     1.6060     0.2360 H     1 <1>   0.0800 
 32 H        0.3110     2.7080    -0.9970 H     1 <1>   0.1500 
 33 H       -2.8230    -2.0480    -1.3030 H     1 <1>   0.0800 
 34 H       -4.0750    -2.5490    -2.3830 H     1 <1>   0.0800 
 35 H       -5.2490    -0.3270     1.0650 H     1 <1>   0.0800 
 36 H       -3.5740    -0.6560     0.8550 H     1 <1>   0.0800 
 37 H       -2.5690     5.4450     0.2710 H     1 <1>   0.2700 
 38 H        0.2330     6.3370    -0.3060 H     1 <1>   0.1000 
 39 H        2.4260     5.5630     0.5950 H     1 <1>   0.1000 
 40 H        1.7550     3.9280     0.8780 H     1 <1>   0.1000 
 41 H        0.0180     4.8960     2.4320 H     1 <1>   0.1000 
 42 H        0.6830     6.5380     2.1620 H     1 <1>   0.1000 
 43 H       -8.0010    -1.0760    -1.2600 H     1 <1>   0.0800 
 44 H       -7.2210    -1.0350     0.3120 H     1 <1>   0.0800 
 45 H       -7.5160    -3.4480    -1.5060 H     1 <1>   0.0800 
 46 H       -8.3370    -3.2040     0.0140 H     1 <1>   0.0800 
 47 H       -3.3610    -5.2440     2.1290 H     1 <1>   0.1500 
 48 H       -7.3880    -5.3050     0.8640 H     1 <1>   0.1500 
 49 H       -0.7720    -2.8550     1.3520 H     1 <1>   0.0800 
 50 H       -1.4040    -4.4680     1.0430 H     1 <1>   0.0800 
 51 H       -1.7670    -3.6430     2.5720 H     1 <1>   0.0800 
 52 H       -5.5280    -6.3250     2.0820 H     1 <1>   0.1500 
@<TRIPOS>BOND
  1   1   2  2   
  2   2   3  am  
  3   2   4  1   
  4   3   5  1   
  5   3   6  1   
  6   4   7  2   
  7   4   8  1   
  8   5   9  1   
  9   5  28  1   
 10   5  29  1   
 11   6  10  1   
 12   6  30  1   
 13   6  31  1   
 14   7  11  1   
 15   8  12  2   
 16   8  32  1   
 17   9  13  1   
 18   9  33  1   
 19   9  34  1   
 20  10  13  1   
 21  10  35  1   
 22  10  36  1   
 23  11  12  1   
 24  11  37  1   
 25  12  14  1   
 26  13  15  1   
 27  13  16  1   
 28  14  17  1   
 29  14  18  1   
 30  14  38  1   
 31  15  19  1   
 32  16  20  ar  
 33  16  21  ar  
 34  17  18  1   
 35  17  39  1   
 36  17  40  1   
 37  18  41  1   
 38  18  42  1   
 39  19  22  1   
 40  19  43  1   
 41  19  44  1   
 42  20  23  1   
 43  20  24  ar  
 44  21  22  1   
 45  21  25  ar  
 46  22  45  1   
 47  22  46  1   
 48  23  26  1   
 49  24  27  ar  
 50  24  47  1   
 51  25  27  ar  
 52  25  48  1   
 53  26  49  1   
 54  26  50  1   
 55  26  51  1   
 56  27  52  1   
@<TRIPOS>SUBSTRUCTURE
  1 ****  10 GROUP 4 **** **** 0

# MOE 2024.06 (io_trps.svl 2023.06)
