@<TRIPOS>MOLECULE
NONAME
47 51 1 0 0 
SMALL
USER_CHARGES


@<TRIPOS>ATOM
  1 O       -0.6510     0.1450    -0.4190 O.2   1 <1>  -0.5700 
  2 C       -1.4900     0.7760     0.1950 C.2   1 <1>   0.5440 
  3 N       -2.5990     0.1080     0.6660 N.am  1 <1>  -0.6600 
  4 C       -1.3150     2.2020     0.3930 C.ar  1 <1>   0.0860 
  5 C       -2.6560    -1.3890     0.7080 C.3   1 <1>   0.1400 
  6 C       -3.9560     0.7330     0.7310 C.3   1 <1>   0.1400 
  7 C       -0.8460     3.0110    -0.6480 C.ar  1 <1>  -0.1500 
  8 C       -1.6050     2.8100     1.6260 C.ar  1 <1>  -0.1500 
  9 C       -3.6720    -1.9300    -0.3140 C.3   1 <1>   0.3440 
 10 C       -4.9120     0.0710    -0.2830 C.3   1 <1>   0.2950 
 11 C       -0.7040     4.3660    -0.4340 C.ar  1 <1>   0.0820 
 12 C       -1.4560     4.1750     1.8270 C.ar  1 <1>  -0.1500 
 13 O       -4.9210    -1.3170    -0.1190 O.3   1 <1>  -0.5600 
 14 C       -3.8130    -3.4440    -0.1800 C.ar  1 <1>  -0.1430 
 15 C       -6.3500     0.5650    -0.1010 C.3   1 <1>  -0.1950 
 16 O       -0.2820     5.3010    -1.2920 O.3   1 <1>  -0.3620 
 17 C       -1.0020     4.9360     0.7690 C.ar  1 <1>   0.0830 
 18 C       -4.7570    -4.0160     0.6620 C.ar  1 <1>  -0.1500 
 19 C       -2.9690    -4.2730    -0.9050 C.ar  1 <1>  -0.1500 
 20 C       -7.3460     0.4750    -1.2140 C.3   1 <1>  -0.2000 
 21 C       -6.8300     1.8150    -0.7720 C.3   1 <1>  -0.2000 
 22 C       -0.3010     6.5420    -0.5880 C.3   1 <1>   0.4000 
 23 O       -0.7820     6.2500     0.7230 O.3   1 <1>  -0.3630 
 24 C       -4.8560    -5.3920     0.7780 C.ar  1 <1>  -0.1500 
 25 C       -3.0660    -5.6500    -0.7900 C.ar  1 <1>  -0.1500 
 26 C       -4.0100    -6.2100     0.0520 C.ar  1 <1>  -0.1500 
 27 H       -1.6890    -1.8130     0.5050 H     1 <1>   0.0800 
 28 H       -2.9480    -1.7060     1.6930 H     1 <1>   0.0800 
 29 H       -4.3530     0.6140     1.7240 H     1 <1>   0.0800 
 30 H       -3.9020     1.7850     0.5170 H     1 <1>   0.0800 
 31 H       -0.5960     2.5830    -1.6020 H     1 <1>   0.1500 
 32 H       -1.9480     2.1930     2.4390 H     1 <1>   0.1500 
 33 H       -3.3380    -1.6940    -1.3100 H     1 <1>   0.0800 
 34 H       -4.5830     0.2870    -1.2860 H     1 <1>   0.0800 
 35 H       -1.6790     4.6400     2.7710 H     1 <1>   0.1500 
 36 H       -6.7160     0.3740     0.8930 H     1 <1>   0.1000 
 37 H       -5.4230    -3.3880     1.2300 H     1 <1>   0.1500 
 38 H       -2.2290    -3.8520    -1.5630 H     1 <1>   0.1500 
 39 H       -7.0250     0.0730    -2.1600 H     1 <1>   0.1000 
 40 H       -8.3570     0.1950    -0.9720 H     1 <1>   0.1000 
 41 H       -7.4970     2.4700    -0.2370 H     1 <1>   0.1000 
 42 H       -6.1750     2.3510    -1.4380 H     1 <1>   0.1000 
 43 H        0.6970     6.9370    -0.5260 H     1 <1>   0.0800 
 44 H       -0.9730     7.2250    -1.0760 H     1 <1>   0.0800 
 45 H       -5.5930    -5.8230     1.4320 H     1 <1>   0.1500 
 46 H       -2.4070    -6.2840    -1.3570 H     1 <1>   0.1500 
 47 H       -4.0860    -7.2790     0.1410 H     1 <1>   0.1500 
@<TRIPOS>BOND
  1   1   2  2   
  2   2   3  am  
  3   2   4  1   
  4   3   5  1   
  5   3   6  1   
  6   4   7  ar  
  7   4   8  ar  
  8   5   9  1   
  9   5  27  1   
 10   5  28  1   
 11   6  10  1   
 12   6  29  1   
 13   6  30  1   
 14   7  11  ar  
 15   7  31  1   
 16   8  12  ar  
 17   8  32  1   
 18   9  13  1   
 19   9  14  1   
 20   9  33  1   
 21  10  13  1   
 22  10  15  1   
 23  10  34  1   
 24  11  16  1   
 25  11  17  ar  
 26  12  17  ar  
 27  12  35  1   
 28  14  18  ar  
 29  14  19  ar  
 30  15  20  1   
 31  15  21  1   
 32  15  36  1   
 33  16  22  1   
 34  17  23  1   
 35  18  24  ar  
 36  18  37  1   
 37  19  25  ar  
 38  19  38  1   
 39  20  21  1   
 40  20  39  1   
 41  20  40  1   
 42  21  41  1   
 43  21  42  1   
 44  22  23  1   
 45  22  43  1   
 46  22  44  1   
 47  24  26  ar  
 48  24  45  1   
 49  25  26  ar  
 50  25  46  1   
 51  26  47  1   
@<TRIPOS>SUBSTRUCTURE
  1 ****   3 GROUP 4 **** **** 0

# MOE 2024.06 (io_trps.svl 2023.06)
