@<TRIPOS>MOLECULE
NONAME
52 55 1 0 0 
SMALL
USER_CHARGES


@<TRIPOS>ATOM
  1 O       -2.2620    -1.7410     1.6090 O.2   1 <1>  -0.5700 
  2 C       -2.5100    -0.7460     0.9730 C.2   1 <1>   0.5690 
  3 N       -3.1890    -0.7090    -0.1940 N.am  1 <1>  -0.6600 
  4 C       -2.1030     0.6370     1.3960 C.3   1 <1>  -0.0990 
  5 C       -3.3530     0.6520    -0.7260 C.3   1 <1>   0.1400 
  6 C       -3.6800    -1.8980    -0.9220 C.3   1 <1>   0.1400 
  7 C       -2.8490     1.5550     0.4100 C.3   1 <1>  -0.1600 
  8 C       -5.0420    -2.3050    -0.3710 C.3   1 <1>  -0.0990 
  9 C       -5.4480    -3.6310    -0.9580 C.2   1 <1>   0.5690 
 10 O       -6.1050    -3.6540    -1.9690 O.2   1 <1>  -0.5700 
 11 N       -5.0530    -4.7650    -0.3320 N.am  1 <1>  -0.7300 
 12 C       -5.3850    -6.1290    -0.7960 C.3   1 <1>   0.2200 
 13 C       -6.6490    -6.5970    -0.0980 C.3   1 <1>  -0.0800 
 14 C       -4.3470    -7.1310    -0.2940 C.3   1 <1>   0.1200 
 15 C       -6.0940    -7.1480     1.2150 C.3   1 <1>   0.1200 
 16 C       -7.3820    -7.6740    -0.9220 C.3   1 <1>  -0.0170 
 17 O       -4.7970    -7.5940     0.9470 O.3   1 <1>  -0.5600 
 18 C       -8.7030    -8.0720    -0.2740 C.ar  1 <1>  -0.1440 
 19 C       -9.8530    -7.2480    -0.3310 C.ar  1 <1>   0.0000 
 20 C       -8.8100    -9.2580     0.3920 C.ar  1 <1>  -0.1500 
 21 C      -11.0230    -7.7070     0.3220 C.ar  1 <1>   0.3100 
 22 C       -9.9120    -6.0010    -0.9970 C.ar  1 <1>  -0.1500 
 23 C      -10.0180    -9.6200     0.9990 C.ar  1 <1>   0.1600 
 24 N      -11.0890    -8.8910     0.9810 N.ar  1 <1>  -0.6200 
 25 C      -12.1760    -6.9060     0.2910 C.ar  1 <1>  -0.1500 
 26 C      -11.0530    -5.2460    -1.0080 C.ar  1 <1>  -0.1500 
 27 C      -12.2010    -5.7010    -0.3560 C.ar  1 <1>  -0.1500 
 28 H       -2.3920     0.8210     2.4150 H     1 <1>   0.0800 
 29 H       -1.0380     0.7340     1.2910 H     1 <1>   0.0800 
 30 H       -2.7470     0.7670    -1.6090 H     1 <1>   0.0800 
 31 H       -4.3860     0.8500    -0.9580 H     1 <1>   0.0800 
 32 H       -3.7480    -1.6870    -1.9760 H     1 <1>   0.0800 
 33 H       -2.9780    -2.7030    -0.7820 H     1 <1>   0.0800 
 34 H       -2.2160     2.3390     0.0340 H     1 <1>   0.0800 
 35 H       -3.6960     2.0020     0.9010 H     1 <1>   0.0800 
 36 H       -5.7780    -1.5650    -0.6260 H     1 <1>   0.0800 
 37 H       -4.9940    -2.3950     0.6990 H     1 <1>   0.0800 
 38 H       -4.5300    -4.7160     0.5470 H     1 <1>   0.3700 
 39 H       -5.4680    -6.1390    -1.8710 H     1 <1>   0.0800 
 40 H       -7.3170    -5.7750     0.0870 H     1 <1>   0.0800 
 41 H       -3.3700    -6.6950    -0.1830 H     1 <1>   0.0800 
 42 H       -4.2930    -7.9800    -0.9520 H     1 <1>   0.0800 
 43 H       -6.6730    -7.9610     1.6150 H     1 <1>   0.0800 
 44 H       -6.0210    -6.3660     1.9510 H     1 <1>   0.0800 
 45 H       -6.7540    -8.5420    -1.0230 H     1 <1>   0.0800 
 46 H       -7.5740    -7.3100    -1.9170 H     1 <1>   0.0800 
 47 H       -7.9800    -9.9360     0.4720 H     1 <1>   0.1500 
 48 H       -9.0430    -5.6290    -1.5090 H     1 <1>   0.1500 
 49 H      -10.0580   -10.5640     1.5150 H     1 <1>   0.1500 
 50 H      -13.0470    -7.2770     0.7990 H     1 <1>   0.1500 
 51 H      -11.0800    -4.2970    -1.5180 H     1 <1>   0.1500 
 52 H      -13.0920    -5.0970    -0.3710 H     1 <1>   0.1500 
@<TRIPOS>BOND
  1   1   2  2   
  2   2   3  am  
  3   2   4  1   
  4   3   5  1   
  5   3   6  1   
  6   4   7  1   
  7   4  28  1   
  8   4  29  1   
  9   5   7  1   
 10   5  30  1   
 11   5  31  1   
 12   6   8  1   
 13   6  32  1   
 14   6  33  1   
 15   7  34  1   
 16   7  35  1   
 17   8   9  1   
 18   8  36  1   
 19   8  37  1   
 20   9  10  2   
 21   9  11  am  
 22  11  12  1   
 23  11  38  1   
 24  12  13  1   
 25  12  14  1   
 26  12  39  1   
 27  13  15  1   
 28  13  16  1   
 29  13  40  1   
 30  14  17  1   
 31  14  41  1   
 32  14  42  1   
 33  15  17  1   
 34  15  43  1   
 35  15  44  1   
 36  16  18  1   
 37  16  45  1   
 38  16  46  1   
 39  18  19  ar  
 40  18  20  ar  
 41  19  21  ar  
 42  19  22  ar  
 43  20  23  ar  
 44  20  47  1   
 45  21  24  ar  
 46  21  25  ar  
 47  22  26  ar  
 48  22  48  1   
 49  23  24  ar  
 50  23  49  1   
 51  25  27  ar  
 52  25  50  1   
 53  26  27  ar  
 54  26  51  1   
 55  27  52  1   
@<TRIPOS>SUBSTRUCTURE
  1 ****  13 GROUP 4 **** **** 0

# MOE 2024.06 (io_trps.svl 2023.06)
