@<TRIPOS>MOLECULE
NONAME
38 38 1 0 0 
SMALL
USER_CHARGES


@<TRIPOS>ATOM
  1 S        2.4990     0.4380    -0.4830 S.3   1 <1>  -0.4600 
  2 C        1.5640     0.9750     1.0010 C.3   1 <1>   0.2110 
  3 C        2.1160    -1.3300    -0.6260 C.3   1 <1>  -0.0100 
  4 C        1.3040     2.4890     0.9750 C.2   1 <1>   0.5690 
  5 C        2.3780     0.5330     2.2230 C.3   1 <1>  -0.2400 
  6 O        0.5210     2.9430     1.7770 O.2   1 <1>  -0.5700 
  7 N        1.9750     3.2470     0.0620 N.am  1 <1>  -0.4930 
  8 C        2.0240     4.6490    -0.1390 C.2   1 <1>   0.0630 
  9 C        1.0160     5.6160    -0.0530 C.2   1 <1>   0.1080 
 10 C        3.1280     5.3380    -0.5030 C.2   1 <1>  -0.3320 
 11 N        1.4530     6.8050    -0.3330 N.2   1 <1>  -0.7070 
 12 C       -0.4350     5.3790     0.2980 C.3   1 <1>  -0.0590 
 13 N        2.7580     6.6390    -0.6060 N.pl3 1 <1>   0.3140 
 14 C        4.5400     4.8250    -0.7570 C.3   1 <1>  -0.0600 
 15 C        3.6070     7.7940    -0.9660 C.3   1 <1>   0.0960 
 16 C        4.2640     8.4030     0.2810 C.3   1 <1>  -0.1600 
 17 C        5.1560     9.5950    -0.0820 C.3   1 <1>  -0.2400 
 18 H        0.6180     0.4660     0.9740 H     1 <1>   0.0800 
 19 H        2.5910    -1.6960    -1.5190 H     1 <1>   0.0800 
 20 H        1.0480    -1.4380    -0.6920 H     1 <1>   0.0800 
 21 H        2.5040    -1.8320     0.2430 H     1 <1>   0.0800 
 22 H        3.3450     1.0050     2.2150 H     1 <1>   0.0800 
 23 H        2.5050    -0.5330     2.2310 H     1 <1>   0.0800 
 24 H        1.8650     0.8230     3.1230 H     1 <1>   0.0800 
 25 H        2.6050     2.7130    -0.5410 H     1 <1>   0.3700 
 26 H       -0.7640     4.4380    -0.1010 H     1 <1>   0.0800 
 27 H       -1.0430     6.1640    -0.1110 H     1 <1>   0.0800 
 28 H       -0.5480     5.3700     1.3660 H     1 <1>   0.0800 
 29 H        4.5990     3.7670    -0.5750 H     1 <1>   0.0800 
 30 H        5.2360     5.3170    -0.1030 H     1 <1>   0.0800 
 31 H        4.8240     5.0110    -1.7770 H     1 <1>   0.0800 
 32 H        2.9830     8.5260    -1.4460 H     1 <1>   0.0800 
 33 H        4.3530     7.4700    -1.6660 H     1 <1>   0.0800 
 34 H        4.8550     7.6550     0.7800 H     1 <1>   0.0800 
 35 H        3.4920     8.7300     0.9580 H     1 <1>   0.0800 
 36 H        5.9470     9.2900    -0.7450 H     1 <1>   0.0800 
 37 H        5.5980    10.0070     0.8090 H     1 <1>   0.0800 
 38 H        4.5780    10.3660    -0.5610 H     1 <1>   0.0800 
@<TRIPOS>BOND
  1   1   2  1   
  2   1   3  1   
  3   2   4  1   
  4   2   5  1   
  5   2  18  1   
  6   3  19  1   
  7   3  20  1   
  8   3  21  1   
  9   4   6  2   
 10   4   7  am  
 11   5  22  1   
 12   5  23  1   
 13   5  24  1   
 14   7   8  1   
 15   7  25  1   
 16   8   9  1   
 17   8  10  2   
 18   9  11  2   
 19   9  12  1   
 20  10  13  1   
 21  10  14  1   
 22  11  13  1   
 23  12  26  1   
 24  12  27  1   
 25  12  28  1   
 26  13  15  1   
 27  14  29  1   
 28  14  30  1   
 29  14  31  1   
 30  15  16  1   
 31  15  32  1   
 32  15  33  1   
 33  16  17  1   
 34  16  34  1   
 35  16  35  1   
 36  17  36  1   
 37  17  37  1   
 38  17  38  1   
@<TRIPOS>SUBSTRUCTURE
  1 ****   8 GROUP 4 **** **** 0

# MOE 2024.06 (io_trps.svl 2023.06)
