@<TRIPOS>MOLECULE
NONAME
42 43 1 0 0 
SMALL
USER_CHARGES


@<TRIPOS>ATOM
  1 CL      -5.8540     0.1370    -0.9950 Cl    1 <1>  -0.1770 
  2 C       -4.6250     0.5980     0.1620 C.ar  1 <1>   0.1770 
  3 C       -3.6360    -0.3020     0.5410 C.ar  1 <1>  -0.1440 
  4 C       -4.6770     1.8770     0.6860 C.ar  1 <1>  -0.1500 
  5 C       -2.6920     0.1090     1.4710 C.ar  1 <1>  -0.1500 
  6 C       -3.5640    -1.7130    -0.0290 C.3   1 <1>  -0.0160 
  7 C       -3.7270     2.2740     1.6110 C.ar  1 <1>  -0.1500 
  8 C       -2.7370     1.3880     2.0020 C.ar  1 <1>  -0.1500 
  9 C       -4.5250    -2.6480     0.7150 C.3   1 <1>  -0.0990 
 10 C       -4.5120    -4.0440     0.1230 C.2   1 <1>   0.5690 
 11 O       -3.5960    -4.7630     0.4460 O.2   1 <1>  -0.5700 
 12 N       -5.4890    -4.4570    -0.7470 N.am  1 <1>  -0.6600 
 13 C       -5.5890    -5.9050    -1.0670 C.3   1 <1>   0.3200 
 14 C       -6.3440    -3.5260    -1.5510 C.3   1 <1>   0.1400 
 15 C       -6.2520    -6.6340     0.0840 C.2   1 <1>  -0.3320 
 16 C       -7.7630    -3.3550    -0.9830 C.3   1 <1>   0.1200 
 17 N       -7.5300    -6.4390     0.4470 N.pl3 1 <1>   0.0330 
 18 C       -5.7570    -7.5600     0.9350 C.2   1 <1>   0.0770 
 19 O       -8.5670    -4.4480    -1.2960 O.3   1 <1>  -0.6800 
 20 C       -7.7380    -7.2680     1.4910 C.2   1 <1>   0.0060 
 21 N       -6.6970    -7.9630     1.8130 N.2   1 <1>  -0.5650 
 22 C       -9.0680    -7.3590     2.2060 C.3   1 <1>  -0.0600 
 23 H       -5.4520     2.5520     0.3730 H     1 <1>   0.1500 
 24 H       -1.9150    -0.5660     1.7890 H     1 <1>   0.1500 
 25 H       -2.5610    -2.0950     0.0640 H     1 <1>   0.0800 
 26 H       -3.7950    -1.6950    -1.0790 H     1 <1>   0.0800 
 27 H       -3.7570     3.2670     2.0250 H     1 <1>   0.1500 
 28 H       -1.9970     1.6950     2.7220 H     1 <1>   0.1500 
 29 H       -5.5210    -2.2500     0.7120 H     1 <1>   0.0800 
 30 H       -4.2160    -2.7200     1.7430 H     1 <1>   0.0800 
 31 H       -4.6030    -6.3070    -1.2270 H     1 <1>   0.0800 
 32 H       -6.1580    -6.0530    -1.9670 H     1 <1>   0.0800 
 33 H       -6.3960    -3.8640    -2.5710 H     1 <1>   0.0800 
 34 H       -5.8760    -2.5600    -1.5760 H     1 <1>   0.0800 
 35 H       -8.2270    -2.4770    -1.4000 H     1 <1>   0.0800 
 36 H       -7.7260    -3.2520     0.0880 H     1 <1>   0.0800 
 37 H       -8.1880    -5.7770     0.0120 H     1 <1>   0.2700 
 38 H       -4.7580    -7.9600     0.9630 H     1 <1>   0.1500 
 39 H       -8.8050    -4.4420    -2.2460 H     1 <1>   0.4000 
 40 H       -9.8340    -7.6700     1.5190 H     1 <1>   0.0800 
 41 H       -9.3260    -6.4040     2.6230 H     1 <1>   0.0800 
 42 H       -9.0020    -8.0790     3.0020 H     1 <1>   0.0800 
@<TRIPOS>BOND
  1   1   2  1   
  2   2   3  ar  
  3   2   4  ar  
  4   3   5  ar  
  5   3   6  1   
  6   4   7  ar  
  7   4  23  1   
  8   5   8  ar  
  9   5  24  1   
 10   6   9  1   
 11   6  25  1   
 12   6  26  1   
 13   7   8  ar  
 14   7  27  1   
 15   8  28  1   
 16   9  10  1   
 17   9  29  1   
 18   9  30  1   
 19  10  11  2   
 20  10  12  am  
 21  12  13  1   
 22  12  14  1   
 23  13  15  1   
 24  13  31  1   
 25  13  32  1   
 26  14  16  1   
 27  14  33  1   
 28  14  34  1   
 29  15  17  1   
 30  15  18  2   
 31  16  19  1   
 32  16  35  1   
 33  16  36  1   
 34  17  20  1   
 35  17  37  1   
 36  18  21  1   
 37  18  38  1   
 38  19  39  1   
 39  20  21  2   
 40  20  22  1   
 41  22  40  1   
 42  22  41  1   
 43  22  42  1   
@<TRIPOS>SUBSTRUCTURE
  1 ****   9 GROUP 4 **** **** 0

# MOE 2024.06 (io_trps.svl 2023.06)
