@<TRIPOS>MOLECULE
NONAME
53 56 1 0 0 
SMALL
USER_CHARGES


@<TRIPOS>ATOM
  1 S       -3.2940    -1.4020     1.0330 S.3   1 <1>  -0.0800 
  2 C       -2.3740    -2.0420    -0.3230 C.2   1 <1>  -0.1400 
  3 C       -4.4940    -0.7150    -0.0450 C.2   1 <1>  -0.1100 
  4 C       -2.9740    -1.7260    -1.4870 C.2   1 <1>  -0.1500 
  5 C       -1.1000    -2.8000    -0.0170 C.3   1 <1>   0.5230 
  6 C       -4.1820    -0.9730    -1.3280 C.2   1 <1>  -0.1500 
  7 N       -1.4240    -4.2390     0.1400 N.4   1 <1>  -0.9590 
  8 C       -2.1790    -4.5780     1.3810 C.3   1 <1>   0.3430 
  9 C       -0.2770    -5.1540    -0.0580 C.3   1 <1>   0.3430 
 10 C       -3.3670    -5.4850     1.0110 C.3   1 <1>   0.1100 
 11 C       -0.7430    -6.4010    -0.8150 C.3   1 <1>  -0.1600 
 12 N       -3.1340    -6.2540    -0.2430 N.3   1 <1>  -0.8100 
 13 C       -1.9480    -7.1300    -0.2070 C.3   1 <1>   0.1100 
 14 C       -4.3530    -6.9450    -0.7080 C.3   1 <1>   0.2900 
 15 C       -4.8630    -8.0340     0.2320 C.2   1 <1>  -0.3320 
 16 N       -6.0600    -8.6440     0.0510 N.pl3 1 <1>   0.0480 
 17 C       -4.3230    -8.6070     1.3350 C.2   1 <1>   0.0770 
 18 C       -6.1510    -9.5360     1.0650 C.2   1 <1>   0.0360 
 19 C       -7.0480    -8.4230    -1.0350 C.3   1 <1>   0.2390 
 20 N       -5.1310    -9.5410     1.8560 N.2   1 <1>  -0.5650 
 21 C       -8.4170    -8.9950    -0.6920 C.ar  1 <1>  -0.1430 
 22 C       -8.8370   -10.1950    -1.2460 C.ar  1 <1>  -0.1500 
 23 C       -9.2540    -8.3190     0.1840 C.ar  1 <1>  -0.1500 
 24 C      -10.0820   -10.7120    -0.9300 C.ar  1 <1>  -0.1500 
 25 C      -10.4990    -8.8360     0.5000 C.ar  1 <1>  -0.1500 
 26 C      -10.9140   -10.0320    -0.0580 C.ar  1 <1>  -0.1500 
 27 H       -5.3160    -0.1800     0.3990 H     1 <1>   0.1500 
 28 H       -2.6270    -1.9820    -2.4750 H     1 <1>   0.1500 
 29 H       -0.6340    -2.4100     0.8740 H     1 <1>   0.0800 
 30 H       -0.4210    -2.6730    -0.8440 H     1 <1>   0.0800 
 31 H       -4.7550    -0.6580    -2.1840 H     1 <1>   0.1500 
 32 H       -2.1030    -4.5030    -0.5990 H     1 <1>   0.4500 
 33 H       -2.5490    -3.6940     1.8700 H     1 <1>   0.0800 
 34 H       -1.5370    -5.0940     2.0750 H     1 <1>   0.0800 
 35 H        0.1430    -5.4330     0.8950 H     1 <1>   0.0800 
 36 H        0.4920    -4.6660    -0.6360 H     1 <1>   0.0800 
 37 H       -4.2310    -4.8570     0.8740 H     1 <1>   0.0800 
 38 H       -3.5820    -6.1410     1.8360 H     1 <1>   0.0800 
 39 H        0.0810    -7.0920    -0.8510 H     1 <1>   0.0800 
 40 H       -0.9700    -6.1400    -1.8340 H     1 <1>   0.0800 
 41 H       -1.7280    -7.4380     0.8010 H     1 <1>   0.0800 
 42 H       -2.1320    -8.0210    -0.7860 H     1 <1>   0.0800 
 43 H       -4.1600    -7.3800    -1.6750 H     1 <1>   0.0800 
 44 H       -5.1270    -6.2080    -0.8400 H     1 <1>   0.0800 
 45 H       -3.3780    -8.4060     1.8050 H     1 <1>   0.1500 
 46 H       -7.0070   -10.1780     1.1870 H     1 <1>   0.1500 
 47 H       -6.6740    -8.8810    -1.9320 H     1 <1>   0.0800 
 48 H       -7.1440    -7.3680    -1.2080 H     1 <1>   0.0800 
 49 H       -8.2020   -10.7390    -1.9240 H     1 <1>   0.1500 
 50 H       -8.9430    -7.3900     0.6290 H     1 <1>   0.1500 
 51 H      -10.4050   -11.6440    -1.3620 H     1 <1>   0.1500 
 52 H      -11.1440    -8.3080     1.1800 H     1 <1>   0.1500 
 53 H      -11.8810   -10.4340     0.1880 H     1 <1>   0.1500 
@<TRIPOS>BOND
  1   1   2  1   
  2   1   3  1   
  3   2   4  2   
  4   2   5  1   
  5   3   6  2   
  6   3  27  1   
  7   4   6  1   
  8   4  28  1   
  9   5   7  1   
 10   5  29  1   
 11   5  30  1   
 12   6  31  1   
 13   7   8  1   
 14   7   9  1   
 15   7  32  1   
 16   8  10  1   
 17   8  33  1   
 18   8  34  1   
 19   9  11  1   
 20   9  35  1   
 21   9  36  1   
 22  10  12  1   
 23  10  37  1   
 24  10  38  1   
 25  11  13  1   
 26  11  39  1   
 27  11  40  1   
 28  12  13  1   
 29  12  14  1   
 30  13  41  1   
 31  13  42  1   
 32  14  15  1   
 33  14  43  1   
 34  14  44  1   
 35  15  16  1   
 36  15  17  2   
 37  16  18  1   
 38  16  19  1   
 39  17  20  1   
 40  17  45  1   
 41  18  20  2   
 42  18  46  1   
 43  19  21  1   
 44  19  47  1   
 45  19  48  1   
 46  21  22  ar  
 47  21  23  ar  
 48  22  24  ar  
 49  22  49  1   
 50  23  25  ar  
 51  23  50  1   
 52  24  26  ar  
 53  24  51  1   
 54  25  26  ar  
 55  25  52  1   
 56  26  53  1   
@<TRIPOS>SUBSTRUCTURE
  1 ****  14 GROUP 4 **** **** 0

# MOE 2024.06 (io_trps.svl 2023.06)
