@<TRIPOS>MOLECULE
NONAME
54 58 1 0 0 
SMALL
USER_CHARGES


@<TRIPOS>ATOM
  1 S       -0.3600     0.3250     1.4270 S.3   1 <1>  -0.0800 
  2 C       -0.2890     1.7730     0.4460 C.2   1 <1>  -0.1400 
  3 C        1.2070     0.7020     2.1290 C.2   1 <1>  -0.1100 
  4 C        0.8430     2.4590     0.6450 C.2   1 <1>  -0.1810 
  5 C       -1.3930     2.1700    -0.4950 C.3   1 <1>   0.0200 
  6 C        1.7030     1.8460     1.6180 C.2   1 <1>  -0.1500 
  7 C        1.1320     3.7510    -0.1270 C.3   1 <1>   0.4610 
  8 C       -1.2130     3.6660    -0.7910 C.3   1 <1>   0.1200 
  9 O        0.1280     3.9730    -1.1010 O.3   1 <1>  -0.5600 
 10 C        1.1550     4.9590     0.8240 C.3   1 <1>  -0.1600 
 11 C        2.4410     3.6180    -0.9290 C.3   1 <1>  -0.1600 
 12 C        1.9030     6.1320     0.1970 C.3   1 <1>   0.1400 
 13 C        3.6280     4.3160    -0.2640 C.3   1 <1>   0.1400 
 14 N        3.3370     5.7640    -0.0230 N.am  1 <1>  -0.6600 
 15 C        4.3830     6.6540     0.0320 C.2   1 <1>   0.5690 
 16 O        5.5290     6.2750    -0.0260 O.2   1 <1>  -0.5700 
 17 C        4.1360     8.1530     0.1820 C.3   1 <1>  -0.0190 
 18 C        5.2290     9.0390    -0.4460 C.3   1 <1>   0.1400 
 19 C        4.0490     8.6100     1.6510 C.3   1 <1>  -0.0990 
 20 N        5.2460    10.2220     0.4330 N.am  1 <1>  -0.6600 
 21 C        4.6310     9.9940     1.6100 C.2   1 <1>   0.5690 
 22 C        6.0390    11.4280     0.1080 C.3   1 <1>   0.2840 
 23 O        4.5470    10.7720     2.5270 O.2   1 <1>  -0.5700 
 24 C        7.5140    11.0700     0.0260 C.ar  1 <1>  -0.1430 
 25 C        8.2160    10.6670     1.1440 C.ar  1 <1>  -0.1500 
 26 C        8.2270    11.1280    -1.1550 C.ar  1 <1>  -0.1500 
 27 C        9.5600    10.3530     1.0320 C.ar  1 <1>   0.1600 
 28 C        9.5720    10.7920    -1.1580 C.ar  1 <1>   0.1600 
 29 N       10.2560    10.4100    -0.0920 N.ar  1 <1>  -0.6200 
 30 H        1.5960     0.0160     2.8600 H     1 <1>   0.1500 
 31 H       -2.3530     1.9990    -0.0430 H     1 <1>   0.0800 
 32 H       -1.3270     1.5970    -1.4030 H     1 <1>   0.0800 
 33 H        2.6460     2.2850     1.8910 H     1 <1>   0.1500 
 34 H       -1.5110     4.2510     0.0600 H     1 <1>   0.0800 
 35 H       -1.8180     3.9520    -1.6340 H     1 <1>   0.0800 
 36 H        1.6520     4.6940     1.7390 H     1 <1>   0.0800 
 37 H        0.1560     5.2510     1.0830 H     1 <1>   0.0800 
 38 H        2.3170     4.0510    -1.9060 H     1 <1>   0.0800 
 39 H        2.6760     2.5790    -1.0690 H     1 <1>   0.0800 
 40 H        1.8300     6.9790     0.8550 H     1 <1>   0.0800 
 41 H        1.4520     6.3890    -0.7470 H     1 <1>   0.0800 
 42 H        4.4930     4.2200    -0.8990 H     1 <1>   0.0800 
 43 H        3.8570     3.8470     0.6760 H     1 <1>   0.0800 
 44 H        3.2210     8.4110    -0.3180 H     1 <1>   0.0800 
 45 H        4.9860     9.3070    -1.4590 H     1 <1>   0.0800 
 46 H        6.1980     8.5680    -0.4150 H     1 <1>   0.0800 
 47 H        4.6640     7.9980     2.2860 H     1 <1>   0.0800 
 48 H        3.0400     8.6300     2.0160 H     1 <1>   0.0800 
 49 H        5.8930    12.1730     0.8720 H     1 <1>   0.0800 
 50 H        5.6970    11.8360    -0.8270 H     1 <1>   0.0800 
 51 H        7.7230    10.5930     2.0970 H     1 <1>   0.1500 
 52 H        7.7540    11.4280    -2.0710 H     1 <1>   0.1500 
 53 H       10.0890    10.0390     1.9160 H     1 <1>   0.1500 
 54 H       10.1130    10.8420    -2.0870 H     1 <1>   0.1500 
@<TRIPOS>BOND
  1   1   2  1   
  2   1   3  1   
  3   2   4  2   
  4   2   5  1   
  5   3   6  2   
  6   3  30  1   
  7   4   6  1   
  8   4   7  1   
  9   5   8  1   
 10   5  31  1   
 11   5  32  1   
 12   6  33  1   
 13   7   9  1   
 14   7  10  1   
 15   7  11  1   
 16   8   9  1   
 17   8  34  1   
 18   8  35  1   
 19  10  12  1   
 20  10  36  1   
 21  10  37  1   
 22  11  13  1   
 23  11  38  1   
 24  11  39  1   
 25  12  14  1   
 26  12  40  1   
 27  12  41  1   
 28  13  14  1   
 29  13  42  1   
 30  13  43  1   
 31  14  15  am  
 32  15  16  2   
 33  15  17  1   
 34  17  18  1   
 35  17  19  1   
 36  17  44  1   
 37  18  20  1   
 38  18  45  1   
 39  18  46  1   
 40  19  21  1   
 41  19  47  1   
 42  19  48  1   
 43  20  21  am  
 44  20  22  1   
 45  21  23  2   
 46  22  24  1   
 47  22  49  1   
 48  22  50  1   
 49  24  25  ar  
 50  24  26  ar  
 51  25  27  ar  
 52  25  51  1   
 53  26  28  ar  
 54  26  52  1   
 55  27  29  ar  
 56  27  53  1   
 57  28  29  ar  
 58  28  54  1   
@<TRIPOS>SUBSTRUCTURE
  1 ****  15 GROUP 4 **** **** 0

# MOE 2024.06 (io_trps.svl 2023.06)
