@<TRIPOS>MOLECULE
NONAME
40 41 1 0 0 
SMALL
USER_CHARGES


@<TRIPOS>ATOM
  1 O        0.4010     0.2270     0.8940 O.2   1 <1>  -0.5700 
  2 C        1.3920     0.7700     0.4460 C.2   1 <1>   0.7800 
  3 O        1.4280     2.0940     0.2720 O.3   1 <1>  -0.4300 
  4 N        2.5110     0.0620     0.1030 N.am  1 <1>  -0.6600 
  5 C        0.4080     3.0250     0.5580 C.3   1 <1>   0.2800 
  6 C        3.7980     0.7190    -0.2620 C.3   1 <1>   0.2200 
  7 C        2.6120    -1.4120     0.3730 C.3   1 <1>   0.2200 
  8 C       -0.8280     2.7410    -0.3030 C.3   1 <1>  -0.2400 
  9 C        0.9920     4.3840     0.1690 C.3   1 <1>  -0.2400 
 10 C        0.0930     3.0230     2.0580 C.3   1 <1>  -0.2400 
 11 C        4.7430     0.5400     0.9390 C.3   1 <1>  -0.1600 
 12 C        4.3760    -0.0320    -1.4750 C.3   1 <1>  -0.1600 
 13 C        4.1100    -1.8220     0.2870 C.3   1 <1>  -0.0800 
 14 C        1.6890    -2.1860    -0.5950 C.3   1 <1>   0.1200 
 15 C        4.9010    -0.9580     1.2940 C.3   1 <1>  -0.1600 
 16 C        4.6570    -1.5120    -1.1250 C.3   1 <1>  -0.1600 
 17 O        1.9200    -3.5590    -0.5350 O.3   1 <1>  -0.6800 
 18 H        3.6630     1.7620    -0.4950 H     1 <1>   0.0800 
 19 H        2.2600    -1.5940     1.3740 H     1 <1>   0.0800 
 20 H       -1.5460     3.5320    -0.1870 H     1 <1>   0.0800 
 21 H       -1.3050     1.8250    -0.0070 H     1 <1>   0.0800 
 22 H       -0.5540     2.6770    -1.3410 H     1 <1>   0.0800 
 23 H        0.2760     5.1650     0.3540 H     1 <1>   0.0800 
 24 H        1.2430     4.3960    -0.8770 H     1 <1>   0.0800 
 25 H        1.8750     4.5900     0.7450 H     1 <1>   0.0800 
 26 H       -0.5790     3.8270     2.2930 H     1 <1>   0.0800 
 27 H        0.9930     3.1520     2.6300 H     1 <1>   0.0800 
 28 H       -0.3840     2.1060     2.3530 H     1 <1>   0.0800 
 29 H        5.7040     0.9610     0.7000 H     1 <1>   0.0800 
 30 H        4.3510     1.0820     1.7820 H     1 <1>   0.0800 
 31 H        3.6770     0.0320    -2.2900 H     1 <1>   0.0800 
 32 H        5.2880     0.4440    -1.7900 H     1 <1>   0.0800 
 33 H        4.2370    -2.8630     0.5280 H     1 <1>   0.0800 
 34 H        1.8470    -1.8660    -1.6090 H     1 <1>   0.0800 
 35 H        0.6590    -2.0190    -0.3310 H     1 <1>   0.0800 
 36 H        4.5290    -1.1340     2.2890 H     1 <1>   0.0800 
 37 H        5.9420    -1.2310     1.2790 H     1 <1>   0.0800 
 38 H        5.7180    -1.6950    -1.1470 H     1 <1>   0.0800 
 39 H        4.2040    -2.1530    -1.8610 H     1 <1>   0.0800 
 40 H        2.8180    -3.7660    -0.8560 H     1 <1>   0.4000 
@<TRIPOS>BOND
  1   1   2  2   
  2   2   3  1   
  3   2   4  am  
  4   3   5  1   
  5   4   6  1   
  6   4   7  1   
  7   5   8  1   
  8   5   9  1   
  9   5  10  1   
 10   6  11  1   
 11   6  12  1   
 12   6  18  1   
 13   7  13  1   
 14   7  14  1   
 15   7  19  1   
 16   8  20  1   
 17   8  21  1   
 18   8  22  1   
 19   9  23  1   
 20   9  24  1   
 21   9  25  1   
 22  10  26  1   
 23  10  27  1   
 24  10  28  1   
 25  11  15  1   
 26  11  29  1   
 27  11  30  1   
 28  12  16  1   
 29  12  31  1   
 30  12  32  1   
 31  13  15  1   
 32  13  16  1   
 33  13  33  1   
 34  14  17  1   
 35  14  34  1   
 36  14  35  1   
 37  15  36  1   
 38  15  37  1   
 39  16  38  1   
 40  16  39  1   
 41  17  40  1   
@<TRIPOS>SUBSTRUCTURE
  1 ****   4 GROUP 4 **** **** 0

# MOE 2024.06 (io_trps.svl 2023.06)
