@<TRIPOS>MOLECULE
NONAME
46 47 1 0 0 
SMALL
USER_CHARGES


@<TRIPOS>ATOM
  1 F       -0.2820     0.6980     0.5390 F     1 <1>  -0.1900 
  2 C       -1.5680     0.9180     0.4440 C.ar  1 <1>   0.1900 
  3 C       -2.0920     1.9060    -0.3980 C.ar  1 <1>   0.0830 
  4 C       -2.3870     0.1240     1.2230 C.ar  1 <1>  -0.1500 
  5 O       -1.3920     2.7490    -1.2110 O.3   1 <1>  -0.3630 
  6 C       -3.4680     2.0620    -0.4260 C.ar  1 <1>  -0.1500 
  7 C       -3.7560     0.3080     1.1720 C.ar  1 <1>  -0.1500 
  8 C        0.0110     2.7000    -1.3450 C.3   1 <1>   0.0400 
  9 C       -4.3280     1.2760     0.3450 C.ar  1 <1>   0.0530 
 10 C       -5.7540     1.4840     0.2900 C.2   1 <1>   0.0870 
 11 O       -6.2170     2.7070     0.2290 O.3   1 <1>  -0.0190 
 12 C       -6.8320     0.6510     0.2960 C.2   1 <1>  -0.0860 
 13 N       -7.5210     2.7600     0.2040 N.2   1 <1>  -0.4100 
 14 C       -7.9170     1.5380     0.2440 C.2   1 <1>   0.3720 
 15 C       -6.9130    -0.7790     0.3310 C.2   1 <1>   0.7160 
 16 N       -9.2750     1.1770     0.2080 N.pl3 1 <1>  -0.8210 
 17 O       -5.9450    -1.4790     0.1050 O.2   1 <1>  -0.5700 
 18 N       -8.0960    -1.3850     0.6200 N.am  1 <1>  -0.7300 
 19 C      -10.1570     2.0460     1.0380 C.3   1 <1>   0.1290 
 20 C       -9.7890     1.0530    -1.1830 C.3   1 <1>   0.1290 
 21 C       -8.3970    -2.8310     0.5930 C.3   1 <1>   0.1400 
 22 C       -9.6720    -3.0940    -0.2260 C.3   1 <1>  -0.0800 
 23 C      -10.9110    -2.4330     0.4010 C.3   1 <1>  -0.2400 
 24 C       -9.9100    -4.6030    -0.3550 C.3   1 <1>  -0.2400 
 25 H       -1.9570    -0.6280     1.8600 H     1 <1>   0.1500 
 26 H       -3.8840     2.8180    -1.0680 H     1 <1>   0.1500 
 27 H       -4.3920    -0.3090     1.7820 H     1 <1>   0.1500 
 28 H        0.3050     3.4470    -2.0590 H     1 <1>   0.0800 
 29 H        0.2960     1.7250    -1.6990 H     1 <1>   0.0800 
 30 H        0.4620     2.9110    -0.3910 H     1 <1>   0.0800 
 31 H       -8.8990    -0.7440     0.7050 H     1 <1>   0.3700 
 32 H       -9.7190     2.1860     2.0130 H     1 <1>   0.0800 
 33 H      -11.1230     1.5870     1.1560 H     1 <1>   0.0800 
 34 H      -10.2750     3.0110     0.5730 H     1 <1>   0.0800 
 35 H       -9.1750     0.3660    -1.7400 H     1 <1>   0.0800 
 36 H       -9.7670     2.0130    -1.6710 H     1 <1>   0.0800 
 37 H      -10.7990     0.6830    -1.1740 H     1 <1>   0.0800 
 38 H       -8.5280    -3.1830     1.6020 H     1 <1>   0.0800 
 39 H       -7.5680    -3.3630     0.1560 H     1 <1>   0.0800 
 40 H       -9.5240    -2.6960    -1.2160 H     1 <1>   0.0800 
 41 H      -11.0670    -2.7970     1.4020 H     1 <1>   0.0800 
 42 H      -11.7860    -2.6530    -0.1840 H     1 <1>   0.0800 
 43 H      -10.7990    -1.3650     0.4410 H     1 <1>   0.0800 
 44 H      -10.0610    -5.0500     0.6120 H     1 <1>   0.0800 
 45 H       -9.0640    -5.0760    -0.8230 H     1 <1>   0.0800 
 46 H      -10.7780    -4.7950    -0.9610 H     1 <1>   0.0800 
@<TRIPOS>BOND
  1   1   2  1   
  2   2   3  ar  
  3   2   4  ar  
  4   3   5  1   
  5   3   6  ar  
  6   4   7  ar  
  7   4  25  1   
  8   5   8  1   
  9   6   9  ar  
 10   6  26  1   
 11   7   9  ar  
 12   7  27  1   
 13   8  28  1   
 14   8  29  1   
 15   8  30  1   
 16   9  10  1   
 17  10  11  1   
 18  10  12  2   
 19  11  13  1   
 20  12  14  1   
 21  12  15  1   
 22  13  14  2   
 23  14  16  1   
 24  15  17  2   
 25  15  18  am  
 26  16  19  1   
 27  16  20  1   
 28  18  21  1   
 29  18  31  1   
 30  19  32  1   
 31  19  33  1   
 32  19  34  1   
 33  20  35  1   
 34  20  36  1   
 35  20  37  1   
 36  21  22  1   
 37  21  38  1   
 38  21  39  1   
 39  22  23  1   
 40  22  24  1   
 41  22  40  1   
 42  23  41  1   
 43  23  42  1   
 44  23  43  1   
 45  24  44  1   
 46  24  45  1   
 47  24  46  1   
@<TRIPOS>SUBSTRUCTURE
  1 ****  12 GROUP 4 **** **** 0

# MOE 2024.06 (io_trps.svl 2023.06)
