@<TRIPOS>MOLECULE
NONAME
54 57 1 0 0 
SMALL
USER_CHARGES


@<TRIPOS>ATOM
  1 O       -0.5120     4.1590     1.3310 O.2   1 <1>  -0.5700 
  2 C       -0.4760     3.3440     0.4290 C.2   1 <1>   0.7160 
  3 N       -1.6570     2.8970    -0.1240 N.am  1 <1>  -0.6600 
  4 C        0.7960     2.8820    -0.0560 C.2   1 <1>  -0.0860 
  5 C       -2.9850     3.1970     0.4940 C.3   1 <1>   0.1400 
  6 C       -1.7520     2.2870    -1.4780 C.3   1 <1>   0.1400 
  7 C        1.2930     1.5880    -0.0430 C.2   1 <1>   0.1080 
  8 C        1.8160     3.5500    -0.6320 C.2   1 <1>  -0.0400 
  9 C       -3.7880     4.1750    -0.3850 C.3   1 <1>   0.1440 
 10 C       -2.5200     3.2310    -2.4100 C.3   1 <1>  -0.1600 
 11 N        2.4520     1.5490    -0.5850 N.2   1 <1>  -0.4100 
 12 C        0.5960     0.3690     0.5400 C.3   1 <1>   0.0210 
 13 O        2.8060     2.7570    -0.9620 O.3   1 <1>  -0.0190 
 14 C        1.9450     5.0310    -0.9300 C.3   1 <1>  -0.0600 
 15 C       -5.1800     4.3790     0.1830 C.ar  1 <1>   0.1670 
 16 C       -3.8900     3.6310    -1.8280 C.3   1 <1>  -0.1600 
 17 C       -3.1990     5.6120    -0.3460 C.3   1 <1>  -0.1600 
 18 C        0.5180     0.4410     2.0690 C.3   1 <1>  -0.2400 
 19 N       -5.9930     3.4200     0.5510 N.ar  1 <1>  -0.6200 
 20 C       -5.5020     5.6990     0.2640 C.ar  1 <1>  -0.1440 
 21 C       -4.3870     6.5840    -0.2320 C.3   1 <1>  -0.0170 
 22 C       -7.1760     3.8260     1.0200 C.ar  1 <1>   0.7200 
 23 C       -6.7400     6.0220     0.7600 C.ar  1 <1>   0.1600 
 24 N       -7.5850     5.0930     1.1400 N.ar  1 <1>  -0.6200 
 25 N       -8.0610     2.8420     1.4180 N.pl3 1 <1>  -0.8380 
 26 C       -9.5000     3.1300     1.6680 C.3   1 <1>   0.1290 
 27 C       -7.6330     1.4340     1.6440 C.3   1 <1>   0.1290 
 28 H       -2.8670     3.6060     1.4830 H     1 <1>   0.0800 
 29 H       -3.5350     2.2770     0.5920 H     1 <1>   0.0800 
 30 H       -2.2730     1.3470    -1.4030 H     1 <1>   0.0800 
 31 H       -0.7750     2.0960    -1.8900 H     1 <1>   0.0800 
 32 H       -2.6650     2.7460    -3.3590 H     1 <1>   0.0800 
 33 H       -1.9210     4.1060    -2.5870 H     1 <1>   0.0800 
 34 H        1.1430    -0.5130     0.2560 H     1 <1>   0.0800 
 35 H       -0.3940     0.2860     0.1300 H     1 <1>   0.0800 
 36 H        1.0730     5.5620    -0.5940 H     1 <1>   0.0800 
 37 H        2.0630     5.1820    -1.9870 H     1 <1>   0.0800 
 38 H        2.8060     5.4260    -0.4220 H     1 <1>   0.0800 
 39 H       -4.3610     4.3610    -2.4630 H     1 <1>   0.0800 
 40 H       -4.5230     2.7600    -1.8180 H     1 <1>   0.0800 
 41 H       -2.5870     5.8370    -1.2000 H     1 <1>   0.0800 
 42 H       -2.5930     5.7250     0.5360 H     1 <1>   0.0800 
 43 H        1.5070     0.5350     2.4820 H     1 <1>   0.0800 
 44 H        0.0640    -0.4510     2.4590 H     1 <1>   0.0800 
 45 H       -0.0660     1.2900     2.3800 H     1 <1>   0.0800 
 46 H       -4.6460     6.9850    -1.1960 H     1 <1>   0.0800 
 47 H       -4.1770     7.3840     0.4560 H     1 <1>   0.0800 
 48 H       -7.0400     7.0520     0.8450 H     1 <1>   0.1500 
 49 H       -9.8340     3.9460     1.0500 H     1 <1>   0.0800 
 50 H       -9.6390     3.3940     2.7010 H     1 <1>   0.0800 
 51 H      -10.0960     2.2650     1.4360 H     1 <1>   0.0800 
 52 H       -6.5970     1.3960     1.9340 H     1 <1>   0.0800 
 53 H       -7.7640     0.8690     0.7380 H     1 <1>   0.0800 
 54 H       -8.2190     0.9910     2.4300 H     1 <1>   0.0800 
@<TRIPOS>BOND
  1   1   2  2   
  2   2   3  am  
  3   2   4  1   
  4   3   5  1   
  5   3   6  1   
  6   4   7  1   
  7   4   8  2   
  8   5   9  1   
  9   5  28  1   
 10   5  29  1   
 11   6  10  1   
 12   6  30  1   
 13   6  31  1   
 14   7  11  2   
 15   7  12  1   
 16   8  13  1   
 17   8  14  1   
 18   9  15  1   
 19   9  16  1   
 20   9  17  1   
 21  10  16  1   
 22  10  32  1   
 23  10  33  1   
 24  11  13  1   
 25  12  18  1   
 26  12  34  1   
 27  12  35  1   
 28  14  36  1   
 29  14  37  1   
 30  14  38  1   
 31  15  19  ar  
 32  15  20  ar  
 33  16  39  1   
 34  16  40  1   
 35  17  21  1   
 36  17  41  1   
 37  17  42  1   
 38  18  43  1   
 39  18  44  1   
 40  18  45  1   
 41  19  22  ar  
 42  20  21  1   
 43  20  23  ar  
 44  21  46  1   
 45  21  47  1   
 46  22  24  ar  
 47  22  25  1   
 48  23  24  ar  
 49  23  48  1   
 50  25  26  1   
 51  25  27  1   
 52  26  49  1   
 53  26  50  1   
 54  26  51  1   
 55  27  52  1   
 56  27  53  1   
 57  27  54  1   
@<TRIPOS>SUBSTRUCTURE
  1 ****   5 GROUP 4 **** **** 0

# MOE 2024.06 (io_trps.svl 2023.06)
