@<TRIPOS>MOLECULE
NONAME
63 66 1 0 0 
SMALL
USER_CHARGES


@<TRIPOS>ATOM
  1 O       -1.5660    -0.2630    -1.0850 O.2   1 <1>  -0.5700 
  2 C       -2.4460     0.4810    -0.6960 C.2   1 <1>   0.7160 
  3 N       -3.7360     0.0830    -0.8860 N.am  1 <1>  -0.7300 
  4 C       -2.1660     1.7260    -0.0460 C.2   1 <1>  -0.0860 
  5 C       -4.1740    -1.1380    -1.5920 C.3   1 <1>   0.1400 
  6 C       -3.0850     2.7600     0.1790 C.2   1 <1>   0.3720 
  7 C       -1.0280     2.1940     0.5380 C.2   1 <1>   0.0870 
  8 C       -3.9260    -2.3680    -0.7060 C.3   1 <1>  -0.0800 
  9 N       -2.5510     3.7230     0.8430 N.2   1 <1>  -0.4100 
 10 N       -4.4170     2.7800    -0.2690 N.pl3 1 <1>  -0.8210 
 11 O       -1.3140     3.3630     1.0490 O.3   1 <1>  -0.0190 
 12 C        0.3010     1.6640     0.6990 C.ar  1 <1>   0.0530 
 13 C       -4.3490    -3.6730    -1.3770 C.3   1 <1>   0.3430 
 14 C       -4.6740    -2.3310     0.6290 C.3   1 <1>  -0.1600 
 15 C       -4.5680     3.3420    -1.6530 C.3   1 <1>   0.2090 
 16 C       -5.4070     3.3950     0.6820 C.3   1 <1>   0.2090 
 17 C        0.9240     1.6910     1.9470 C.ar  1 <1>  -0.1500 
 18 C        1.0190     1.1230    -0.3670 C.ar  1 <1>  -0.1500 
 19 N       -5.2650    -4.3660    -0.4150 N.4   1 <1>  -0.9590 
 20 C       -4.9710    -3.7880     0.9240 C.3   1 <1>   0.3430 
 21 C       -4.7020     4.8750    -1.6530 C.3   1 <1>   0.1200 
 22 C       -5.5310     4.9250     0.5230 C.3   1 <1>   0.1200 
 23 C        2.1990     1.1900     2.1270 C.ar  1 <1>  -0.1500 
 24 C        2.2950     0.6190    -0.1940 C.ar  1 <1>  -0.1500 
 25 C       -5.2960    -5.8480    -0.4940 C.3   1 <1>   0.5030 
 26 O       -5.7470     5.2720    -0.8140 O.3   1 <1>  -0.5600 
 27 C        2.8880     0.6500     1.0550 C.ar  1 <1>  -0.1500 
 28 C       -6.3760    -6.3590     0.4610 C.3   1 <1>  -0.2400 
 29 C       -3.9410    -6.4600    -0.1220 C.3   1 <1>  -0.2400 
 30 C       -5.6750    -6.2510    -1.9210 C.3   1 <1>  -0.2400 
 31 H       -4.4390     0.8050    -0.6640 H     1 <1>   0.3700 
 32 H       -3.6150    -1.2280    -2.5090 H     1 <1>   0.0800 
 33 H       -5.2190    -1.0470    -1.8370 H     1 <1>   0.0800 
 34 H       -2.8680    -2.4450    -0.5180 H     1 <1>   0.0800 
 35 H       -3.4730    -4.2700    -1.5680 H     1 <1>   0.0800 
 36 H       -4.8540    -3.4870    -2.3110 H     1 <1>   0.0800 
 37 H       -5.6000    -1.7900     0.5410 H     1 <1>   0.0800 
 38 H       -4.0820    -1.8810     1.4070 H     1 <1>   0.0800 
 39 H       -5.4430     2.9180    -2.1130 H     1 <1>   0.0800 
 40 H       -3.7170     3.0660    -2.2530 H     1 <1>   0.0800 
 41 H       -5.1220     3.1710     1.6950 H     1 <1>   0.0800 
 42 H       -6.3740     2.9540     0.5130 H     1 <1>   0.0800 
 43 H        0.3970     2.1110     2.7860 H     1 <1>   0.1500 
 44 H        0.5720     1.0960    -1.3440 H     1 <1>   0.1500 
 45 H       -6.2160    -4.0640    -0.6500 H     1 <1>   0.4500 
 46 H       -5.8020    -3.8970     1.6030 H     1 <1>   0.0800 
 47 H       -4.0950    -4.2520     1.3470 H     1 <1>   0.0800 
 48 H       -4.9240     5.2300    -2.6430 H     1 <1>   0.0800 
 49 H       -3.7900     5.3370    -1.3150 H     1 <1>   0.0800 
 50 H       -4.6380     5.4160     0.8680 H     1 <1>   0.0800 
 51 H       -6.3640     5.2890     1.0960 H     1 <1>   0.0800 
 52 H        2.6580     1.2180     3.1000 H     1 <1>   0.1500 
 53 H        2.8260     0.2020    -1.0310 H     1 <1>   0.1500 
 54 H        3.8800     0.2580     1.1920 H     1 <1>   0.1500 
 55 H       -6.1210    -6.1690     1.4880 H     1 <1>   0.0800 
 56 H       -6.4810    -7.4250     0.3560 H     1 <1>   0.0800 
 57 H       -7.3290    -5.9140     0.2410 H     1 <1>   0.0800 
 58 H       -3.6670    -6.2320     0.8920 H     1 <1>   0.0800 
 59 H       -3.1600    -6.1330    -0.7820 H     1 <1>   0.0800 
 60 H       -3.9980    -7.5310    -0.2020 H     1 <1>   0.0800 
 61 H       -6.6050    -5.7990    -2.2160 H     1 <1>   0.0800 
 62 H       -5.7990    -7.3190    -1.9770 H     1 <1>   0.0800 
 63 H       -4.9090    -5.9860    -2.6260 H     1 <1>   0.0800 
@<TRIPOS>BOND
  1   1   2  2   
  2   2   3  am  
  3   2   4  1   
  4   3   5  1   
  5   3  31  1   
  6   4   6  1   
  7   4   7  2   
  8   5   8  1   
  9   5  32  1   
 10   5  33  1   
 11   6   9  2   
 12   6  10  1   
 13   7  11  1   
 14   7  12  1   
 15   8  13  1   
 16   8  14  1   
 17   8  34  1   
 18   9  11  1   
 19  10  15  1   
 20  10  16  1   
 21  12  17  ar  
 22  12  18  ar  
 23  13  19  1   
 24  13  35  1   
 25  13  36  1   
 26  14  20  1   
 27  14  37  1   
 28  14  38  1   
 29  15  21  1   
 30  15  39  1   
 31  15  40  1   
 32  16  22  1   
 33  16  41  1   
 34  16  42  1   
 35  17  23  ar  
 36  17  43  1   
 37  18  24  ar  
 38  18  44  1   
 39  19  20  1   
 40  19  25  1   
 41  19  45  1   
 42  20  46  1   
 43  20  47  1   
 44  21  26  1   
 45  21  48  1   
 46  21  49  1   
 47  22  26  1   
 48  22  50  1   
 49  22  51  1   
 50  23  27  ar  
 51  23  52  1   
 52  24  27  ar  
 53  24  53  1   
 54  25  28  1   
 55  25  29  1   
 56  25  30  1   
 57  27  54  1   
 58  28  55  1   
 59  28  56  1   
 60  28  57  1   
 61  29  58  1   
 62  29  59  1   
 63  29  60  1   
 64  30  61  1   
 65  30  62  1   
 66  30  63  1   
@<TRIPOS>SUBSTRUCTURE
  1 ****   2 GROUP 4 **** **** 0

# MOE 2024.06 (io_trps.svl 2023.06)
