@<TRIPOS>MOLECULE
NONAME
47 49 1 0 0 
SMALL
USER_CHARGES


@<TRIPOS>ATOM
  1 CL       1.8360     0.9240    -1.6390 Cl    1 <1>  -0.1770 
  2 C        0.8870     1.8820    -0.5240 C.ar  1 <1>   0.1770 
  3 C        1.4250     2.3660     0.6670 C.ar  1 <1>  -0.1440 
  4 C       -0.4220     2.1450    -0.8850 C.ar  1 <1>  -0.1500 
  5 C        0.6070     3.1370     1.4830 C.ar  1 <1>  -0.1500 
  6 C        2.8610     2.0970     1.1170 C.3   1 <1>   0.3640 
  7 C       -1.2220     2.9090    -0.0560 C.ar  1 <1>  -0.1500 
  8 C       -0.7040     3.4060     1.1270 C.ar  1 <1>  -0.1500 
  9 N        3.0670     0.6330     1.2250 N.am  1 <1>  -0.7300 
 10 C        3.9110     2.7850     0.1970 C.3   1 <1>   0.2610 
 11 C        4.1690     0.0010     0.7680 C.2   1 <1>   0.5690 
 12 O        5.1920     2.1890     0.3490 O.3   1 <1>  -0.5600 
 13 C        3.9820     4.3060     0.4410 C.2   1 <1>   0.5690 
 14 O        4.3060    -1.1870     0.9170 O.2   1 <1>  -0.5700 
 15 C        5.2400     0.8140     0.0350 C.3   1 <1>   0.1810 
 16 O        3.3980     4.7680     1.3980 O.2   1 <1>  -0.5700 
 17 N        4.6820     5.1230    -0.4160 N.am  1 <1>  -0.6600 
 18 C        4.8770     6.5680    -0.0980 C.3   1 <1>   0.3210 
 19 C        5.4790     4.6290    -1.5780 C.3   1 <1>   0.0600 
 20 C        6.3560     6.8660     0.0740 C.2   1 <1>  -0.1810 
 21 C        7.1430     7.7360    -0.6760 C.2   1 <1>   0.1080 
 22 C        7.2060     6.3420     0.9820 C.2   1 <1>  -0.3020 
 23 N        8.3740     7.7500    -0.2740 N.2   1 <1>  -0.7070 
 24 C        6.6710     8.5880    -1.8330 C.3   1 <1>  -0.0590 
 25 N        8.4140     6.8870     0.7540 N.pl3 1 <1>   0.3140 
 26 C        9.6530     6.6250     1.4930 C.3   1 <1>   0.0160 
 27 H       -0.8090     1.7540    -1.8090 H     1 <1>   0.1500 
 28 H        0.9890     3.5440     2.4060 H     1 <1>   0.1500 
 29 H        2.9890     2.4940     2.1100 H     1 <1>   0.0800 
 30 H       -2.2430     3.1190    -0.3290 H     1 <1>   0.1500 
 31 H       -1.3220     4.0060     1.7740 H     1 <1>   0.1500 
 32 H        2.3450     0.0840     1.6930 H     1 <1>   0.3700 
 33 H        3.6170     2.6450    -0.8230 H     1 <1>   0.0800 
 34 H        5.1100     0.7010    -1.0260 H     1 <1>   0.0800 
 35 H        6.2120     0.4490     0.3080 H     1 <1>   0.0800 
 36 H        4.4660     7.1600    -0.8950 H     1 <1>   0.0800 
 37 H        4.3630     6.8380     0.8080 H     1 <1>   0.0800 
 38 H        5.5610     5.4000    -2.3240 H     1 <1>   0.0800 
 39 H        5.0190     3.7690    -2.0290 H     1 <1>   0.0800 
 40 H        6.4690     4.3640    -1.2450 H     1 <1>   0.0800 
 41 H        7.0140     5.6230     1.7570 H     1 <1>   0.1500 
 42 H        6.1990     7.9730    -2.5750 H     1 <1>   0.0800 
 43 H        7.5110     9.0890    -2.2800 H     1 <1>   0.0800 
 44 H        5.9760     9.3260    -1.4800 H     1 <1>   0.0800 
 45 H        9.5950     5.6600     1.9580 H     1 <1>   0.0800 
 46 H        9.7800     7.3870     2.2380 H     1 <1>   0.0800 
 47 H       10.4790     6.6510     0.8070 H     1 <1>   0.0800 
@<TRIPOS>BOND
  1   1   2  1   
  2   2   3  ar  
  3   2   4  ar  
  4   3   5  ar  
  5   3   6  1   
  6   4   7  ar  
  7   4  27  1   
  8   5   8  ar  
  9   5  28  1   
 10   6   9  1   
 11   6  10  1   
 12   6  29  1   
 13   7   8  ar  
 14   7  30  1   
 15   8  31  1   
 16   9  11  am  
 17   9  32  1   
 18  10  12  1   
 19  10  13  1   
 20  10  33  1   
 21  11  14  2   
 22  11  15  1   
 23  12  15  1   
 24  13  16  2   
 25  13  17  am  
 26  15  34  1   
 27  15  35  1   
 28  17  18  1   
 29  17  19  1   
 30  18  20  1   
 31  18  36  1   
 32  18  37  1   
 33  19  38  1   
 34  19  39  1   
 35  19  40  1   
 36  20  21  1   
 37  20  22  2   
 38  21  23  2   
 39  21  24  1   
 40  22  25  1   
 41  22  41  1   
 42  23  25  1   
 43  24  42  1   
 44  24  43  1   
 45  24  44  1   
 46  25  26  1   
 47  26  45  1   
 48  26  46  1   
 49  26  47  1   
@<TRIPOS>SUBSTRUCTURE
  1 ****  13 GROUP 4 **** **** 0

# MOE 2024.06 (io_trps.svl 2023.06)
