@<TRIPOS>MOLECULE
NONAME
49 53 1 0 0 
SMALL
USER_CHARGES


@<TRIPOS>ATOM
  1 S       -3.2740     2.3130    -0.7810 S.3   1 <1>  -0.1570 
  2 C       -3.6020     0.5880    -0.5270 C.2   1 <1>   0.2420 
  3 C       -1.6670     1.9240    -1.4500 C.2   1 <1>  -0.0490 
  4 N       -4.6140    -0.0420    -0.0480 N.2   1 <1>  -0.5650 
  5 N       -2.5550    -0.1510    -0.9350 N.pl3 1 <1>   0.3340 
  6 C       -1.4720     0.5940    -1.4490 C.2   1 <1>  -0.1810 
  7 C       -4.2200    -1.3590    -0.1410 C.2   1 <1>   0.1410 
  8 C       -2.9580    -1.4050    -0.6810 C.2   1 <1>  -0.3020 
  9 C       -4.9950    -2.5210     0.2950 C.2   1 <1>   0.7160 
 10 O       -4.3830    -3.5340     0.5970 O.2   1 <1>  -0.5700 
 11 N       -6.3790    -2.5720     0.3770 N.am  1 <1>  -0.6600 
 12 C       -7.3110    -1.5780    -0.2390 C.3   1 <1>   0.1400 
 13 C       -7.0510    -3.7420     1.0240 C.3   1 <1>   0.1400 
 14 C       -8.2730    -0.9860     0.8160 C.3   1 <1>   0.1430 
 15 C       -8.5490    -3.4950     1.2770 C.3   1 <1>  -0.1600 
 16 C       -9.3770    -0.2790     0.0510 C.ar  1 <1>   0.1670 
 17 C       -8.8000    -2.0700     1.7960 C.3   1 <1>  -0.1600 
 18 C       -7.6250     0.1920     1.5880 C.3   1 <1>  -0.1600 
 19 N      -10.3860    -0.8620    -0.5480 N.ar  1 <1>  -0.6200 
 20 C       -9.1830     1.0700     0.0320 C.ar  1 <1>  -0.1430 
 21 C       -7.9370     1.4650     0.7860 C.3   1 <1>  -0.0170 
 22 C      -11.2310    -0.0390    -1.1740 C.ar  1 <1>   0.7200 
 23 C      -10.1000     1.8370    -0.6400 C.ar  1 <1>   0.1600 
 24 N      -11.1290     1.2930    -1.2450 N.ar  1 <1>  -0.6200 
 25 N      -12.3100    -0.6200    -1.8110 N.pl3 1 <1>  -0.8380 
 26 C      -12.3890    -2.0870    -2.0520 C.3   1 <1>   0.1290 
 27 C      -13.4700     0.1810    -2.2910 C.3   1 <1>   0.1290 
 28 H       -1.0590     2.7550    -1.7650 H     1 <1>   0.1500 
 29 H       -0.6070     0.0550    -1.7880 H     1 <1>   0.1500 
 30 H       -2.3510    -2.2690    -0.8800 H     1 <1>   0.1500 
 31 H       -7.8940    -2.0930    -0.9840 H     1 <1>   0.0800 
 32 H       -6.7920    -0.7950    -0.7540 H     1 <1>   0.0800 
 33 H       -6.5630    -3.9320     1.9660 H     1 <1>   0.0800 
 34 H       -6.9220    -4.6130     0.4040 H     1 <1>   0.0800 
 35 H       -8.9100    -4.2140     1.9910 H     1 <1>   0.0800 
 36 H       -9.0980    -3.6470     0.3640 H     1 <1>   0.0800 
 37 H       -9.8510    -1.9230     1.9770 H     1 <1>   0.0800 
 38 H       -8.2930    -1.9790     2.7410 H     1 <1>   0.0800 
 39 H       -6.5710     0.0530     1.7450 H     1 <1>   0.0800 
 40 H       -8.0980     0.2910     2.5490 H     1 <1>   0.0800 
 41 H       -7.1420     1.6810     0.0930 H     1 <1>   0.0800 
 42 H       -8.1040     2.3110     1.4310 H     1 <1>   0.0800 
 43 H       -9.9870     2.9060    -0.6820 H     1 <1>   0.1500 
 44 H      -11.4040    -2.4980    -2.1910 H     1 <1>   0.0800 
 45 H      -12.9660    -2.2880    -2.9370 H     1 <1>   0.0800 
 46 H      -12.8520    -2.5650    -1.2070 H     1 <1>   0.0800 
 47 H      -13.6020     1.0570    -1.6800 H     1 <1>   0.0800 
 48 H      -14.3710    -0.4040    -2.2400 H     1 <1>   0.0800 
 49 H      -13.2990     0.4870    -3.3080 H     1 <1>   0.0800 
@<TRIPOS>BOND
  1   1   2  1   
  2   1   3  1   
  3   2   4  2   
  4   2   5  1   
  5   3   6  2   
  6   3  28  1   
  7   4   7  1   
  8   5   6  1   
  9   5   8  1   
 10   6  29  1   
 11   7   8  2   
 12   7   9  1   
 13   8  30  1   
 14   9  10  2   
 15   9  11  am  
 16  11  12  1   
 17  11  13  1   
 18  12  14  1   
 19  12  31  1   
 20  12  32  1   
 21  13  15  1   
 22  13  33  1   
 23  13  34  1   
 24  14  16  1   
 25  14  17  1   
 26  14  18  1   
 27  15  17  1   
 28  15  35  1   
 29  15  36  1   
 30  16  19  ar  
 31  16  20  ar  
 32  17  37  1   
 33  17  38  1   
 34  18  21  1   
 35  18  39  1   
 36  18  40  1   
 37  19  22  ar  
 38  20  21  1   
 39  20  23  ar  
 40  21  41  1   
 41  21  42  1   
 42  22  24  ar  
 43  22  25  1   
 44  23  24  ar  
 45  23  43  1   
 46  25  26  1   
 47  25  27  1   
 48  26  44  1   
 49  26  45  1   
 50  26  46  1   
 51  27  47  1   
 52  27  48  1   
 53  27  49  1   
@<TRIPOS>SUBSTRUCTURE
  1 ****  12 GROUP 4 **** **** 0

# MOE 2024.06 (io_trps.svl 2023.06)
