@<TRIPOS>MOLECULE
NONAME
46 49 1 0 0 
SMALL
USER_CHARGES


@<TRIPOS>ATOM
  1 O       -0.5450     0.2950     0.5480 O.2   1 <1>  -0.5700 
  2 C       -1.5400     0.9040     0.1980 C.2   1 <1>   0.5440 
  3 N       -2.6910     0.1910    -0.0510 N.am  1 <1>  -0.6600 
  4 C       -1.4900     2.3490     0.0780 C.ar  1 <1>   0.0860 
  5 C       -4.0550     0.7620    -0.1010 C.3   1 <1>   0.1400 
  6 C       -2.7500    -1.2840     0.0580 C.3   1 <1>   0.1400 
  7 C       -2.0370     3.0200    -1.0070 C.ar  1 <1>  -0.1500 
  8 C       -0.8630     3.1150     1.0840 C.ar  1 <1>  -0.1500 
  9 C       -4.9680    -0.3410     0.4500 C.3   1 <1>  -0.0800 
 10 C       -4.2370    -1.6500     0.0910 C.3   1 <1>  -0.0800 
 11 C       -1.9850     4.4070    -1.0770 C.ar  1 <1>   0.2270 
 12 C       -0.8000     4.4880     1.0280 C.ar  1 <1>  -0.1500 
 13 C       -6.4640    -0.2780     0.0150 C.3   1 <1>   0.2800 
 14 C       -4.7360    -2.2090    -1.2500 C.3   1 <1>  -0.1600 
 15 N       -2.4680     5.2450    -2.0370 N.2   1 <1>  -0.5650 
 16 C       -1.3750     5.1310    -0.0690 C.ar  1 <1>  -0.1520 
 17 O       -6.5810     0.3520    -1.2100 O.3   1 <1>  -0.6800 
 18 C       -7.0230    -1.7020    -0.1710 C.3   1 <1>  -0.1600 
 19 C       -7.3450     0.5080     1.0110 C.3   1 <1>  -0.1600 
 20 C       -6.2390    -2.5440    -1.2020 C.3   1 <1>  -0.1600 
 21 C       -2.1570     6.4210    -1.6180 C.2   1 <1>   0.0360 
 22 N       -1.4940     6.4290    -0.4340 N.pl3 1 <1>   0.0330 
 23 C       -6.9520     1.9800     1.2310 C.3   1 <1>  -0.2400 
 24 H       -4.1250     1.6610     0.4830 H     1 <1>   0.0800 
 25 H       -4.2830     0.9840    -1.1290 H     1 <1>   0.0800 
 26 H       -2.2410    -1.7370    -0.7750 H     1 <1>   0.0800 
 27 H       -2.2690    -1.5880     0.9720 H     1 <1>   0.0800 
 28 H       -2.5060     2.4860    -1.8120 H     1 <1>   0.1500 
 29 H       -0.4240     2.5880     1.9140 H     1 <1>   0.1500 
 30 H       -4.9320    -0.2690     1.5220 H     1 <1>   0.0800 
 31 H       -4.4000    -2.3940     0.8520 H     1 <1>   0.0800 
 32 H       -0.3200     5.0580     1.8040 H     1 <1>   0.1500 
 33 H       -4.5690    -1.4680    -2.0150 H     1 <1>   0.0800 
 34 H       -4.1780    -3.0880    -1.5220 H     1 <1>   0.0800 
 35 H       -7.5140     0.3480    -1.4880 H     1 <1>   0.4000 
 36 H       -6.9700    -2.2020     0.7800 H     1 <1>   0.0800 
 37 H       -8.0620    -1.6680    -0.4480 H     1 <1>   0.0800 
 38 H       -8.3660     0.4750     0.6740 H     1 <1>   0.0800 
 39 H       -7.3180     0.0070     1.9630 H     1 <1>   0.0800 
 40 H       -6.3680    -3.5860    -0.9650 H     1 <1>   0.0800 
 41 H       -6.6520    -2.3830    -2.1830 H     1 <1>   0.0800 
 42 H       -2.3900     7.3320    -2.1420 H     1 <1>   0.1500 
 43 H       -1.1510     7.2450     0.0790 H     1 <1>   0.2700 
 44 H       -6.9060     2.5080     0.2950 H     1 <1>   0.0800 
 45 H       -5.9970     2.0530     1.7190 H     1 <1>   0.0800 
 46 H       -7.6820     2.4620     1.8560 H     1 <1>   0.0800 
@<TRIPOS>BOND
  1   1   2  2   
  2   2   3  am  
  3   2   4  1   
  4   3   5  1   
  5   3   6  1   
  6   4   7  ar  
  7   4   8  ar  
  8   5   9  1   
  9   5  24  1   
 10   5  25  1   
 11   6  10  1   
 12   6  26  1   
 13   6  27  1   
 14   7  11  ar  
 15   7  28  1   
 16   8  12  ar  
 17   8  29  1   
 18   9  10  1   
 19   9  13  1   
 20   9  30  1   
 21  10  14  1   
 22  10  31  1   
 23  11  15  1   
 24  11  16  ar  
 25  12  16  ar  
 26  12  32  1   
 27  13  17  1   
 28  13  18  1   
 29  13  19  1   
 30  14  20  1   
 31  14  33  1   
 32  14  34  1   
 33  15  21  2   
 34  16  22  1   
 35  17  35  1   
 36  18  20  1   
 37  18  36  1   
 38  18  37  1   
 39  19  23  1   
 40  19  38  1   
 41  19  39  1   
 42  20  40  1   
 43  20  41  1   
 44  21  22  1   
 45  21  42  1   
 46  22  43  1   
 47  23  44  1   
 48  23  45  1   
 49  23  46  1   
@<TRIPOS>SUBSTRUCTURE
  1 ****   5 GROUP 4 **** **** 0

# MOE 2024.06 (io_trps.svl 2023.06)
