@<TRIPOS>MOLECULE
NONAME
45 47 1 0 0 
SMALL
USER_CHARGES


@<TRIPOS>ATOM
  1 CL      -1.0670    -0.6420    -2.4930 Cl    1 <1>  -0.1770 
  2 C       -1.6880    -2.0210    -1.6240 C.ar  1 <1>   0.1770 
  3 C       -3.0270    -2.3440    -1.7220 C.ar  1 <1>  -0.1500 
  4 C       -0.8320    -2.7750    -0.8440 C.ar  1 <1>  -0.1500 
  5 C       -3.5130    -3.4380    -1.0290 C.ar  1 <1>  -0.1500 
  6 C       -1.3290    -3.8680    -0.1580 C.ar  1 <1>  -0.1500 
  7 C       -2.6780    -4.2280    -0.2340 C.ar  1 <1>   0.0530 
  8 C       -3.1740    -5.3730     0.4900 C.2   1 <1>   0.0870 
  9 O       -2.5790    -5.7670     1.5920 O.3   1 <1>  -0.0190 
 10 C       -4.2110    -6.2230     0.2860 C.2   1 <1>  -0.2330 
 11 N       -3.1520    -6.8100     2.1350 N.2   1 <1>  -0.4100 
 12 C       -4.1340    -7.1070     1.3630 C.2   1 <1>   0.3720 
 13 C       -5.2020    -6.2550    -0.7320 C.2   1 <1>   1.0330 
 14 N       -4.9880    -8.1840     1.6410 N.pl3 1 <1>  -0.8210 
 15 O       -6.2030    -5.5200    -0.6650 O.co2 1 <1>  -0.9000 
 16 O       -5.2190    -7.1440    -1.6040 O.co2 1 <1>  -0.9000 
 17 C       -4.9870    -9.3230     0.6630 C.3   1 <1>   0.2090 
 18 C       -6.1850    -7.8920     2.4890 C.3   1 <1>   0.2090 
 19 C       -6.3420    -9.5140    -0.0440 C.3   1 <1>   0.2000 
 20 C       -7.5090    -8.3310     1.8380 C.3   1 <1>  -0.1600 
 21 O       -6.1890    -9.5190    -1.4310 O.3   1 <1>  -0.6800 
 22 C       -7.3060    -8.3790     0.3300 C.3   1 <1>   0.4230 
 23 N       -8.5270    -8.4080    -0.5270 N.4   1 <1>  -0.9590 
 24 C       -8.8370    -7.0070    -0.9480 C.3   1 <1>   0.2630 
 25 C       -9.6940    -9.1600     0.0060 C.3   1 <1>   0.2630 
 26 H       -3.6810    -1.7470    -2.3320 H     1 <1>   0.1500 
 27 H        0.2070    -2.5070    -0.7800 H     1 <1>   0.1500 
 28 H       -4.5600    -3.6750    -1.1030 H     1 <1>   0.1500 
 29 H       -0.6640    -4.4590     0.4480 H     1 <1>   0.1500 
 30 H       -4.2140    -9.1580    -0.0710 H     1 <1>   0.0800 
 31 H       -4.7390   -10.2230     1.1980 H     1 <1>   0.0800 
 32 H       -6.0640    -8.3720     3.4450 H     1 <1>   0.0800 
 33 H       -6.2200    -6.8280     2.6670 H     1 <1>   0.0800 
 34 H       -6.7560   -10.4650     0.2360 H     1 <1>   0.0800 
 35 H       -8.2680    -7.6170     2.0970 H     1 <1>   0.0800 
 36 H       -7.7870    -9.2970     2.2150 H     1 <1>   0.0800 
 37 H       -5.7440    -8.6400    -1.6890 H     1 <1>   0.4000 
 38 H       -6.8020    -7.4710     0.0990 H     1 <1>   0.0800 
 39 H       -8.1560    -8.8820    -1.3760 H     1 <1>   0.4500 
 40 H       -9.0360    -6.3880    -0.0890 H     1 <1>   0.0800 
 41 H       -9.6900    -6.9880    -1.6060 H     1 <1>   0.0800 
 42 H       -7.9930    -6.5870    -1.4740 H     1 <1>   0.0800 
 43 H      -10.0730    -8.6810     0.8920 H     1 <1>   0.0800 
 44 H       -9.4050   -10.1690     0.2490 H     1 <1>   0.0800 
 45 H      -10.4790    -9.1950    -0.7320 H     1 <1>   0.0800 
@<TRIPOS>BOND
  1   1   2  1   
  2   2   3  ar  
  3   2   4  ar  
  4   3   5  ar  
  5   3  26  1   
  6   4   6  ar  
  7   4  27  1   
  8   5   7  ar  
  9   5  28  1   
 10   6   7  ar  
 11   6  29  1   
 12   7   8  1   
 13   8   9  1   
 14   8  10  2   
 15   9  11  1   
 16  10  12  1   
 17  10  13  1   
 18  11  12  2   
 19  12  14  1   
 20  13  15  ar  
 21  13  16  ar  
 22  14  17  1   
 23  14  18  1   
 24  17  19  1   
 25  17  30  1   
 26  17  31  1   
 27  18  20  1   
 28  18  32  1   
 29  18  33  1   
 30  19  21  1   
 31  19  22  1   
 32  19  34  1   
 33  20  22  1   
 34  20  35  1   
 35  20  36  1   
 36  21  37  1   
 37  22  23  1   
 38  22  38  1   
 39  23  24  1   
 40  23  25  1   
 41  23  39  1   
 42  24  40  1   
 43  24  41  1   
 44  24  42  1   
 45  25  43  1   
 46  25  44  1   
 47  25  45  1   
@<TRIPOS>SUBSTRUCTURE
  1 ****  10 GROUP 4 **** **** 0

# MOE 2024.06 (io_trps.svl 2023.06)
