@<TRIPOS>MOLECULE
NONAME
31 31 1 0 0 
SMALL
USER_CHARGES


@<TRIPOS>ATOM
  1 CL      -0.2220    -0.0930    -0.2890 Cl    1 <1>  -0.1770 
  2 C        1.3150    -0.9280    -0.1380 C.ar  1 <1>   0.1770 
  3 C        1.3810    -2.3160    -0.1370 C.ar  1 <1>   0.4100 
  4 C        2.4800    -0.2220    -0.0190 C.ar  1 <1>   0.1600 
  5 N        2.5470    -2.9280    -0.0290 N.ar  1 <1>  -0.6200 
  6 N        0.2530    -3.0990    -0.2510 N.pl3 1 <1>  -0.8690 
  7 N        3.6520    -0.8250     0.0920 N.ar  1 <1>  -0.6200 
  8 C        3.6090    -2.1490     0.0800 C.ar  1 <1>   0.4770 
  9 C        0.2650    -4.5690    -0.3920 C.3   1 <1>   0.2090 
 10 C        4.9330    -2.8630     0.2060 C.3   1 <1>  -0.0970 
 11 C       -1.1270    -5.1060    -0.0640 C.3   1 <1>  -0.1600 
 12 C       -1.1760    -6.6360    -0.1760 C.3   1 <1>  -0.1600 
 13 C       -2.5770    -7.1700     0.1520 C.3   1 <1>  -0.1600 
 14 C       -2.6260    -8.6940     0.0370 C.3   1 <1>   0.1200 
 15 O       -3.9130    -9.1100     0.3160 O.3   1 <1>  -0.6800 
 16 H        2.4580     0.8530    -0.0150 H     1 <1>   0.1500 
 17 H       -0.6320    -2.6330    -0.4700 H     1 <1>   0.4000 
 18 H        0.9910    -4.9910     0.2820 H     1 <1>   0.0800 
 19 H        0.5400    -4.8270    -1.4010 H     1 <1>   0.0800 
 20 H        5.0720    -3.5100    -0.6390 H     1 <1>   0.0800 
 21 H        4.9360    -3.4520     1.1050 H     1 <1>   0.0800 
 22 H        5.7420    -2.1580     0.2460 H     1 <1>   0.0800 
 23 H       -1.8410    -4.6770    -0.7450 H     1 <1>   0.0800 
 24 H       -1.3850    -4.8140     0.9390 H     1 <1>   0.0800 
 25 H       -0.4600    -7.0680     0.5030 H     1 <1>   0.0800 
 26 H       -0.9080    -6.9310    -1.1770 H     1 <1>   0.0800 
 27 H       -3.2890    -6.7450    -0.5350 H     1 <1>   0.0800 
 28 H       -2.8420    -6.8780     1.1530 H     1 <1>   0.0800 
 29 H       -1.9560    -9.1630     0.7380 H     1 <1>   0.0800 
 30 H       -2.3830    -9.0150    -0.9620 H     1 <1>   0.0800 
 31 H       -4.1750    -8.8320     1.2140 H     1 <1>   0.4000 
@<TRIPOS>BOND
  1   1   2  1   
  2   2   3  ar  
  3   2   4  ar  
  4   3   5  ar  
  5   3   6  1   
  6   4   7  ar  
  7   4  16  1   
  8   5   8  ar  
  9   6   9  1   
 10   6  17  1   
 11   7   8  ar  
 12   8  10  1   
 13   9  11  1   
 14   9  18  1   
 15   9  19  1   
 16  10  20  1   
 17  10  21  1   
 18  10  22  1   
 19  11  12  1   
 20  11  23  1   
 21  11  24  1   
 22  12  13  1   
 23  12  25  1   
 24  12  26  1   
 25  13  14  1   
 26  13  27  1   
 27  13  28  1   
 28  14  15  1   
 29  14  29  1   
 30  14  30  1   
 31  15  31  1   
@<TRIPOS>SUBSTRUCTURE
  1 ****   6 GROUP 4 **** **** 0

# MOE 2024.06 (io_trps.svl 2023.06)
