@<TRIPOS>MOLECULE
NONAME
48 50 1 0 0 
SMALL
USER_CHARGES


@<TRIPOS>ATOM
  1 F       -0.7720    -0.5380    -2.4520 F     1 <1>  -0.3400 
  2 C       -1.8900    -0.6700    -1.7470 C.3   1 <1>   1.0200 
  3 F       -1.7290     0.0690    -0.6560 F     1 <1>  -0.3400 
  4 F       -2.8440    -0.0830    -2.4620 F     1 <1>  -0.3400 
  5 C       -2.1910    -2.1660    -1.4400 C.3   1 <1>   0.1100 
  6 N       -3.3000    -2.5140    -0.4910 N.3   1 <1>  -0.8100 
  7 C       -4.6400    -2.1320    -1.0100 C.3   1 <1>   0.1100 
  8 C       -3.2800    -3.9620    -0.1710 C.3   1 <1>   0.1100 
  9 C       -5.7830    -2.5260    -0.0550 C.3   1 <1>   0.2090 
 10 C       -4.3990    -4.3660     0.8090 C.3   1 <1>   0.2090 
 11 N       -5.7360    -3.9830     0.2740 N.pl3 1 <1>  -0.8380 
 12 C       -6.8430    -4.5730     0.8530 C.ar  1 <1>   0.4100 
 13 N       -7.6790    -3.7880     1.5230 N.ar  1 <1>  -0.6200 
 14 C       -7.0360    -5.9410     0.7180 C.ar  1 <1>  -0.1500 
 15 C       -8.7130    -4.3870     2.0840 C.ar  1 <1>   0.1600 
 16 C       -8.1230    -6.5700     1.2910 C.ar  1 <1>   0.0860 
 17 C       -8.9760    -5.7390     2.0040 C.ar  1 <1>  -0.1500 
 18 C       -8.3510    -7.9930     1.1570 C.2   1 <1>   0.5440 
 19 O       -7.5110    -8.7630     1.5850 O.2   1 <1>  -0.5700 
 20 N       -9.4880    -8.4940     0.5560 N.am  1 <1>  -0.6600 
 21 C       -9.7830    -9.9550     0.5330 C.3   1 <1>   0.1400 
 22 C      -10.4060    -7.6770    -0.2870 C.3   1 <1>   0.1400 
 23 C       -9.7190   -10.4700    -0.9090 C.3   1 <1>  -0.1600 
 24 C      -10.3500    -8.1720    -1.7370 C.3   1 <1>  -0.1600 
 25 C      -10.6490    -9.6750    -1.8360 C.3   1 <1>  -0.1600 
 26 H       -1.2790    -2.5690    -1.0370 H     1 <1>   0.0800 
 27 H       -2.3680    -2.6580    -2.3800 H     1 <1>   0.0800 
 28 H       -4.8130    -2.6030    -1.9620 H     1 <1>   0.0800 
 29 H       -4.6840    -1.0660    -1.1490 H     1 <1>   0.0800 
 30 H       -2.3330    -4.2140     0.2730 H     1 <1>   0.0800 
 31 H       -3.3930    -4.5380    -1.0730 H     1 <1>   0.0800 
 32 H       -6.7280    -2.2940    -0.5130 H     1 <1>   0.0800 
 33 H       -5.7030    -1.9520     0.8530 H     1 <1>   0.0800 
 34 H       -4.2400    -3.8730     1.7530 H     1 <1>   0.0800 
 35 H       -4.3590    -5.4280     0.9760 H     1 <1>   0.0800 
 36 H       -6.3270    -6.5160     0.1540 H     1 <1>   0.1500 
 37 H       -9.3890    -3.7600     2.6400 H     1 <1>   0.1500 
 38 H       -9.8370    -6.1570     2.4920 H     1 <1>   0.1500 
 39 H      -10.7670   -10.1190     0.9370 H     1 <1>   0.0800 
 40 H       -9.0820   -10.4980     1.1430 H     1 <1>   0.0800 
 41 H      -10.1370    -6.6360    -0.2620 H     1 <1>   0.0800 
 42 H      -11.4090    -7.7730     0.0930 H     1 <1>   0.0800 
 43 H       -9.9920   -11.5100    -0.9260 H     1 <1>   0.0800 
 44 H       -8.7030   -10.3920    -1.2550 H     1 <1>   0.0800 
 45 H       -9.3690    -7.9710    -2.1330 H     1 <1>   0.0800 
 46 H      -11.0610    -7.6230    -2.3280 H     1 <1>   0.0800 
 47 H      -11.6720    -9.8550    -1.5550 H     1 <1>   0.0800 
 48 H      -10.5180   -10.0050    -2.8520 H     1 <1>   0.0800 
@<TRIPOS>BOND
  1   1   2  1   
  2   2   3  1   
  3   2   4  1   
  4   2   5  1   
  5   5   6  1   
  6   5  26  1   
  7   5  27  1   
  8   6   7  1   
  9   6   8  1   
 10   7   9  1   
 11   7  28  1   
 12   7  29  1   
 13   8  10  1   
 14   8  30  1   
 15   8  31  1   
 16   9  11  1   
 17   9  32  1   
 18   9  33  1   
 19  10  11  1   
 20  10  34  1   
 21  10  35  1   
 22  11  12  1   
 23  12  13  ar  
 24  12  14  ar  
 25  13  15  ar  
 26  14  16  ar  
 27  14  36  1   
 28  15  17  ar  
 29  15  37  1   
 30  16  17  ar  
 31  16  18  1   
 32  17  38  1   
 33  18  19  2   
 34  18  20  am  
 35  20  21  1   
 36  20  22  1   
 37  21  23  1   
 38  21  39  1   
 39  21  40  1   
 40  22  24  1   
 41  22  41  1   
 42  22  42  1   
 43  23  25  1   
 44  23  43  1   
 45  23  44  1   
 46  24  25  1   
 47  24  45  1   
 48  24  46  1   
 49  25  47  1   
 50  25  48  1   
@<TRIPOS>SUBSTRUCTURE
  1 ****  12 GROUP 4 **** **** 0

# MOE 2024.06 (io_trps.svl 2023.06)
