@<TRIPOS>MOLECULE
NONAME
38 40 1 0 0 
SMALL
USER_CHARGES


@<TRIPOS>ATOM
  1 CL      -0.1680    -0.0490    -0.9740 Cl    1 <1>  -0.1230 
  2 C       -1.7140     0.4610    -0.3140 C.2   1 <1>   0.1230 
  3 C       -2.7990    -0.3500     0.0420 C.2   1 <1>   0.2030 
  4 C       -2.0650     1.7350    -0.0780 C.2   1 <1>  -0.3020 
  5 N       -3.7840     0.4310     0.4750 N.2   1 <1>  -0.7070 
  6 C       -2.8060    -1.8070    -0.0570 C.2   1 <1>   0.7160 
  7 N       -3.3200     1.6880     0.4010 N.pl3 1 <1>   0.3140 
  8 O       -1.7610    -2.4340     0.0070 O.2   1 <1>  -0.5700 
  9 N       -3.9660    -2.5430    -0.2220 N.am  1 <1>  -0.6600 
 10 C       -4.1310     2.8420     0.8080 C.3   1 <1>   0.0160 
 11 C       -5.3380    -1.9880    -0.3290 C.3   1 <1>   0.1400 
 12 C       -3.9910    -4.0230    -0.2950 C.3   1 <1>   0.1400 
 13 C       -6.2380    -3.2010    -0.5640 C.3   1 <1>   0.2000 
 14 C       -5.4510    -4.4020    -0.0430 C.3   1 <1>  -0.0800 
 15 O       -7.4380    -3.0910     0.1210 O.3   1 <1>  -0.6800 
 16 C       -5.8830    -5.7230    -0.7000 C.3   1 <1>  -0.0170 
 17 C       -5.0990    -6.9030    -0.1490 C.ar  1 <1>   0.1670 
 18 N       -3.9380    -7.1640    -0.7260 N.ar  1 <1>  -0.6200 
 19 C       -5.6130    -7.6420     0.9160 C.ar  1 <1>   0.1600 
 20 C       -3.3290    -8.1990    -0.1710 C.ar  1 <1>   0.1600 
 21 N       -5.0060    -8.6770     1.4720 N.ar  1 <1>  -0.6200 
 22 C       -3.8450    -8.9300     0.8920 C.ar  1 <1>   0.1600 
 23 H       -1.5080     2.6410    -0.2230 H     1 <1>   0.1500 
 24 H       -3.6190     3.3780     1.5850 H     1 <1>   0.0800 
 25 H       -5.0800     2.4960     1.1750 H     1 <1>   0.0800 
 26 H       -4.2850     3.4830    -0.0400 H     1 <1>   0.0800 
 27 H       -5.5930    -1.4940     0.5930 H     1 <1>   0.0800 
 28 H       -5.4000    -1.2950    -1.1490 H     1 <1>   0.0800 
 29 H       -3.6750    -4.3320    -1.2770 H     1 <1>   0.0800 
 30 H       -3.3360    -4.4600     0.4410 H     1 <1>   0.0800 
 31 H       -6.4520    -3.2980    -1.6150 H     1 <1>   0.0800 
 32 H       -5.5780    -4.4750     1.0230 H     1 <1>   0.0800 
 33 H       -7.2720    -2.9230     1.0690 H     1 <1>   0.4000 
 34 H       -5.7360    -5.6710    -1.7650 H     1 <1>   0.0800 
 35 H       -6.9330    -5.8780    -0.5270 H     1 <1>   0.0800 
 36 H       -6.5670    -7.3620     1.3270 H     1 <1>   0.1500 
 37 H       -2.3740    -8.4820    -0.5770 H     1 <1>   0.1500 
 38 H       -3.2740    -9.7570     1.2750 H     1 <1>   0.1500 
@<TRIPOS>BOND
  1   1   2  1   
  2   2   3  1   
  3   2   4  2   
  4   3   5  2   
  5   3   6  1   
  6   4   7  1   
  7   4  23  1   
  8   5   7  1   
  9   6   8  2   
 10   6   9  am  
 11   7  10  1   
 12   9  11  1   
 13   9  12  1   
 14  10  24  1   
 15  10  25  1   
 16  10  26  1   
 17  11  13  1   
 18  11  27  1   
 19  11  28  1   
 20  12  14  1   
 21  12  29  1   
 22  12  30  1   
 23  13  14  1   
 24  13  15  1   
 25  13  31  1   
 26  14  16  1   
 27  14  32  1   
 28  15  33  1   
 29  16  17  1   
 30  16  34  1   
 31  16  35  1   
 32  17  18  ar  
 33  17  19  ar  
 34  18  20  ar  
 35  19  21  ar  
 36  19  36  1   
 37  20  22  ar  
 38  20  37  1   
 39  21  22  ar  
 40  22  38  1   
@<TRIPOS>SUBSTRUCTURE
  1 ****   9 GROUP 4 **** **** 0

# MOE 2024.06 (io_trps.svl 2023.06)
