@<TRIPOS>MOLECULE
NONAME
47 50 1 0 0 
SMALL
USER_CHARGES


@<TRIPOS>ATOM
  1 O       -3.1860     1.1430    -2.3350 O.2   1 <1>  -0.5700 
  2 C       -2.5590     1.2890    -1.2980 C.2   1 <1>   0.6300 
  3 N       -2.3150     0.1710    -0.5440 N.am  1 <1>  -0.7300 
  4 C       -2.0830     2.6010    -0.8610 C.2   1 <1>   0.4360 
  5 C       -2.7170    -1.2170    -0.8640 C.3   1 <1>   0.2200 
  6 N       -1.4420     2.7280     0.2800 N.2   1 <1>  -0.5760 
  7 C       -2.3240     3.7490    -1.6910 C.2   1 <1>  -0.1360 
  8 C       -3.8070    -1.6570     0.0980 C.3   1 <1>  -0.0800 
  9 C       -1.5800    -2.1780    -0.5210 C.3   1 <1>   0.1200 
 10 C       -1.0190     3.9850     0.6320 C.2   1 <1>  -0.0260 
 11 C       -1.9030     4.9910    -1.3350 C.2   1 <1>  -0.1690 
 12 C       -2.9860    -2.1080     1.3080 C.3   1 <1>   0.1200 
 13 C       -4.6530    -2.8020    -0.4920 C.3   1 <1>  -0.0160 
 14 O       -1.7540    -2.5480     0.8170 O.3   1 <1>  -0.5600 
 15 N       -1.2270     5.1120    -0.1310 N.pl3 1 <1>   0.6010 
 16 C       -0.3440     4.4080     1.7320 C.2   1 <1>  -0.1500 
 17 C       -2.1280     6.2440    -2.1710 C.3   1 <1>  -0.1020 
 18 C       -5.7490    -3.2370     0.4690 C.ar  1 <1>  -0.1440 
 19 N       -0.7070     6.2120     0.4540 N.2   1 <1>  -0.7070 
 20 C       -0.1850     5.7710     1.5630 C.2   1 <1>   0.1080 
 21 C       -6.8940    -2.4880     0.6520 C.ar  1 <1>  -0.1500 
 22 C       -5.6600    -4.4020     1.2050 C.ar  1 <1>  -0.1500 
 23 C        0.5120     6.6960     2.5340 C.3   1 <1>  -0.0590 
 24 C       -7.8620    -2.9230     1.5420 C.ar  1 <1>   0.1600 
 25 C       -6.6860    -4.7470     2.0680 C.ar  1 <1>   0.1600 
 26 N       -7.7850    -4.0340     2.2550 N.ar  1 <1>  -0.6200 
 27 H       -1.7880     0.2960     0.3270 H     1 <1>   0.3700 
 28 H       -3.0090    -1.2940    -1.8990 H     1 <1>   0.0800 
 29 H       -2.8540     3.5870    -2.6130 H     1 <1>   0.1500 
 30 H       -4.4570    -0.8390     0.3540 H     1 <1>   0.0800 
 31 H       -0.6090    -1.7320    -0.6480 H     1 <1>   0.0800 
 32 H       -1.6480    -3.0720    -1.1140 H     1 <1>   0.0800 
 33 H       -3.4470    -2.9020     1.8680 H     1 <1>   0.0800 
 34 H       -2.7930    -1.2760     1.9650 H     1 <1>   0.0800 
 35 H       -4.0270    -3.6450    -0.7270 H     1 <1>   0.0800 
 36 H       -5.1100    -2.4720    -1.4080 H     1 <1>   0.0800 
 37 H       -0.0060     3.8080     2.5560 H     1 <1>   0.1500 
 38 H       -2.6970     6.9630    -1.6070 H     1 <1>   0.0800 
 39 H       -2.6620     6.0150    -3.0750 H     1 <1>   0.0800 
 40 H       -1.1820     6.6870    -2.4300 H     1 <1>   0.0800 
 41 H       -7.0410    -1.5700     0.1130 H     1 <1>   0.1500 
 42 H       -4.8010    -5.0430     1.1170 H     1 <1>   0.1500 
 43 H        0.8730     6.1480     3.3840 H     1 <1>   0.0800 
 44 H       -0.1760     7.4510     2.8660 H     1 <1>   0.0800 
 45 H        1.3400     7.1720     2.0420 H     1 <1>   0.0800 
 46 H       -8.7480    -2.3250     1.6720 H     1 <1>   0.1500 
 47 H       -6.5980    -5.6590     2.6340 H     1 <1>   0.1500 
@<TRIPOS>BOND
  1   1   2  2   
  2   2   3  am  
  3   2   4  1   
  4   3   5  1   
  5   3  27  1   
  6   4   6  2   
  7   4   7  1   
  8   5   8  1   
  9   5   9  1   
 10   5  28  1   
 11   6  10  1   
 12   7  11  2   
 13   7  29  1   
 14   8  12  1   
 15   8  13  1   
 16   8  30  1   
 17   9  14  1   
 18   9  31  1   
 19   9  32  1   
 20  10  15  1   
 21  10  16  2   
 22  11  15  1   
 23  11  17  1   
 24  12  14  1   
 25  12  33  1   
 26  12  34  1   
 27  13  18  1   
 28  13  35  1   
 29  13  36  1   
 30  15  19  1   
 31  16  20  1   
 32  16  37  1   
 33  17  38  1   
 34  17  39  1   
 35  17  40  1   
 36  18  21  ar  
 37  18  22  ar  
 38  19  20  2   
 39  20  23  1   
 40  21  24  ar  
 41  21  41  1   
 42  22  25  ar  
 43  22  42  1   
 44  23  43  1   
 45  23  44  1   
 46  23  45  1   
 47  24  26  ar  
 48  24  46  1   
 49  25  26  ar  
 50  25  47  1   
@<TRIPOS>SUBSTRUCTURE
  1 ****   3 GROUP 4 **** **** 0

# MOE 2024.06 (io_trps.svl 2023.06)
