@<TRIPOS>MOLECULE
NONAME
61 65 1 0 0 
SMALL
USER_CHARGES


@<TRIPOS>ATOM
  1 O        0.5510     0.1420     0.1330 O.3   1 <1>  -0.5600 
  2 C        0.4240    -1.0550     0.8390 C.3   1 <1>   0.2640 
  3 C        1.7790     0.7740     0.2880 C.3   1 <1>   0.1200 
  4 C       -0.9460    -1.6580     0.5650 C.ar  1 <1>  -0.1440 
  5 C        1.7240     2.0930    -0.4880 C.3   1 <1>   0.1100 
  6 C       -2.0910    -0.8870     0.6920 C.ar  1 <1>  -0.1500 
  7 C       -1.0670    -2.9910     0.1980 C.ar  1 <1>  -0.1500 
  8 N        2.9940     2.8490    -0.3970 N.3   1 <1>  -0.8100 
  9 C       -3.3400    -1.4370     0.4580 C.ar  1 <1>  -0.1500 
 10 C       -2.3140    -3.5440    -0.0360 C.ar  1 <1>  -0.1500 
 11 C        4.0560     2.2560    -1.2490 C.3   1 <1>   0.1100 
 12 C        2.7790     4.2630    -0.7820 C.3   1 <1>   0.1100 
 13 C       -3.4520    -2.7670     0.0950 C.ar  1 <1>  -0.1500 
 14 C        5.3530     3.1030    -1.2610 C.3   1 <1>   0.3430 
 15 C        4.0710     5.1080    -0.6700 C.3   1 <1>   0.3430 
 16 N        5.2620     4.2620    -0.3070 N.4   1 <1>  -0.9590 
 17 C        6.5340     5.0040    -0.0530 C.3   1 <1>   0.5030 
 18 C        7.6120     4.0260     0.4690 C.3   1 <1>  -0.1600 
 19 C        7.0520     5.6830    -1.3390 C.3   1 <1>  -0.1600 
 20 C        6.3020     6.0850     1.0290 C.3   1 <1>  -0.1600 
 21 C        8.9260     4.7720     0.7640 C.3   1 <1>  -0.0800 
 22 C        8.3640     6.4390    -1.0490 C.3   1 <1>  -0.0800 
 23 C        7.6080     6.8440     1.3270 C.3   1 <1>  -0.0800 
 24 C        9.4210     5.4460    -0.5290 C.3   1 <1>  -0.1600 
 25 C        8.6680     5.8500     1.8310 C.3   1 <1>  -0.1600 
 26 C        8.1100     7.5080     0.0310 C.3   1 <1>  -0.1600 
 27 H        0.5290    -0.8490     1.8900 H     1 <1>   0.0800 
 28 H        1.2020    -1.7260     0.5200 H     1 <1>   0.0800 
 29 H        2.5430     0.1260    -0.1030 H     1 <1>   0.0800 
 30 H        1.9420     0.9660     1.3340 H     1 <1>   0.0800 
 31 H        0.9280     2.6810    -0.0610 H     1 <1>   0.0800 
 32 H        1.4810     1.8950    -1.5190 H     1 <1>   0.0800 
 33 H       -2.0080     0.1500     0.9700 H     1 <1>   0.1500 
 34 H       -0.1910    -3.6070     0.0920 H     1 <1>   0.1500 
 35 H       -4.2210    -0.8290     0.5580 H     1 <1>   0.1500 
 36 H       -2.4000    -4.5780    -0.3210 H     1 <1>   0.1500 
 37 H        3.7000     2.1480    -2.2600 H     1 <1>   0.0800 
 38 H        4.2970     1.2720    -0.8870 H     1 <1>   0.0800 
 39 H        2.0280     4.6990    -0.1430 H     1 <1>   0.0800 
 40 H        2.4090     4.3150    -1.7930 H     1 <1>   0.0800 
 41 H       -4.4220    -3.1960    -0.0870 H     1 <1>   0.1500 
 42 H        5.5280     3.4660    -2.2600 H     1 <1>   0.0800 
 43 H        6.1740     2.4600    -0.9990 H     1 <1>   0.0800 
 44 H        3.9100     5.8610     0.0820 H     1 <1>   0.0800 
 45 H        4.2450     5.6130    -1.6060 H     1 <1>   0.0800 
 46 H        4.9770     3.8220     0.5790 H     1 <1>   0.4500 
 47 H        7.8330     3.2680    -0.2580 H     1 <1>   0.0800 
 48 H        7.2710     3.5450     1.3690 H     1 <1>   0.0800 
 49 H        6.3290     6.3850    -1.7130 H     1 <1>   0.0800 
 50 H        7.2420     4.9520    -2.1030 H     1 <1>   0.0800 
 51 H        5.9450     5.6310     1.9360 H     1 <1>   0.0800 
 52 H        5.5800     6.8110     0.7040 H     1 <1>   0.0800 
 53 H        9.6710     4.0810     1.1210 H     1 <1>   0.0800 
 54 H        8.7230     6.9120    -1.9480 H     1 <1>   0.0800 
 55 H        7.4340     7.5980     2.0770 H     1 <1>   0.0800 
 56 H        9.6290     4.7020    -1.2790 H     1 <1>   0.0800 
 57 H       10.3430     5.9680    -0.3340 H     1 <1>   0.0800 
 58 H        9.5840     6.3740     2.0460 H     1 <1>   0.0800 
 59 H        8.3390     5.3910     2.7480 H     1 <1>   0.0800 
 60 H        7.3880     8.2250    -0.3210 H     1 <1>   0.0800 
 61 H        9.0220     8.0450     0.2300 H     1 <1>   0.0800 
@<TRIPOS>BOND
  1   1   2  1   
  2   1   3  1   
  3   2   4  1   
  4   2  27  1   
  5   2  28  1   
  6   3   5  1   
  7   3  29  1   
  8   3  30  1   
  9   4   6  ar  
 10   4   7  ar  
 11   5   8  1   
 12   5  31  1   
 13   5  32  1   
 14   6   9  ar  
 15   6  33  1   
 16   7  10  ar  
 17   7  34  1   
 18   8  11  1   
 19   8  12  1   
 20   9  13  ar  
 21   9  35  1   
 22  10  13  ar  
 23  10  36  1   
 24  11  14  1   
 25  11  37  1   
 26  11  38  1   
 27  12  15  1   
 28  12  39  1   
 29  12  40  1   
 30  13  41  1   
 31  14  16  1   
 32  14  42  1   
 33  14  43  1   
 34  15  16  1   
 35  15  44  1   
 36  15  45  1   
 37  16  17  1   
 38  16  46  1   
 39  17  18  1   
 40  17  19  1   
 41  17  20  1   
 42  18  21  1   
 43  18  47  1   
 44  18  48  1   
 45  19  22  1   
 46  19  49  1   
 47  19  50  1   
 48  20  23  1   
 49  20  51  1   
 50  20  52  1   
 51  21  24  1   
 52  21  25  1   
 53  21  53  1   
 54  22  24  1   
 55  22  26  1   
 56  22  54  1   
 57  23  25  1   
 58  23  26  1   
 59  23  55  1   
 60  24  56  1   
 61  24  57  1   
 62  25  58  1   
 63  25  59  1   
 64  26  60  1   
 65  26  61  1   
@<TRIPOS>SUBSTRUCTURE
  1 ****   8 GROUP 4 **** **** 0

# MOE 2024.06 (io_trps.svl 2023.06)
