@<TRIPOS>MOLECULE
NONAME
58 62 1 0 0 
SMALL
USER_CHARGES


@<TRIPOS>ATOM
  1 O       -1.6780     0.8330     1.8250 O.2   1 <1>  -0.5700 
  2 C       -1.8090     0.8740     0.6140 C.2   1 <1>   0.7160 
  3 N       -2.1530    -0.2730    -0.0580 N.am  1 <1>  -0.6600 
  4 C       -1.6060     2.0990    -0.0860 C.2   1 <1>  -0.0860 
  5 C       -2.5840    -1.5160     0.6210 C.3   1 <1>   0.1400 
  6 C       -2.5220    -0.3070    -1.4920 C.3   1 <1>   0.1400 
  7 C       -2.6190     2.9460    -0.5450 C.2   1 <1>   0.3720 
  8 C       -0.4650     2.6950    -0.5170 C.2   1 <1>   0.0870 
  9 C       -3.5460    -2.1890    -0.3690 C.3   1 <1>   0.0000 
 10 C       -3.0230    -1.7280    -1.7310 C.3   1 <1>  -0.1600 
 11 N       -2.1240     3.9350    -1.2040 N.2   1 <1>  -0.4100 
 12 N       -3.9940     2.7350    -0.3490 N.pl3 1 <1>  -0.8210 
 13 O       -0.8270     3.7710    -1.1700 O.3   1 <1>  -0.0190 
 14 C        0.9280     2.3440    -0.4010 C.ar  1 <1>   0.0530 
 15 C       -4.9900    -1.7430    -0.1080 C.3   1 <1>  -0.1600 
 16 C       -3.6180    -3.7050    -0.1940 C.3   1 <1>  -0.1600 
 17 C       -4.4370     2.5150     1.0560 C.3   1 <1>   0.2090 
 18 C       -4.9410     3.6660    -1.0140 C.3   1 <1>   0.2090 
 19 C        1.8390     2.7030    -1.3960 C.ar  1 <1>  -0.1500 
 20 C        1.4270     1.6390     0.6960 C.ar  1 <1>  -0.1500 
 21 C       -5.5130    -2.6840     0.9810 C.3   1 <1>  -0.1600 
 22 C       -4.6150    -3.9270     0.9470 C.3   1 <1>  -0.1600 
 23 C       -5.6860     3.3670     1.2420 C.3   1 <1>  -0.1600 
 24 C       -6.2040     3.6090    -0.1690 C.3   1 <1>  -0.1600 
 25 C        3.1750     2.3640    -1.3070 C.ar  1 <1>  -0.1500 
 26 C        2.7620     1.2950     0.7920 C.ar  1 <1>  -0.1500 
 27 C        3.6510     1.6560    -0.2160 C.ar  1 <1>   0.0830 
 28 O        4.9710     1.3600    -0.2030 O.3   1 <1>  -0.3630 
 29 C        5.5570     0.6500     0.8660 C.3   1 <1>   0.0400 
 30 H       -3.0560    -1.3050     1.5660 H     1 <1>   0.0800 
 31 H       -1.7170    -2.1320     0.7880 H     1 <1>   0.0800 
 32 H       -1.6750    -0.0740    -2.1140 H     1 <1>   0.0800 
 33 H       -3.3140     0.4010    -1.6730 H     1 <1>   0.0800 
 34 H       -2.1890    -2.3400    -2.0270 H     1 <1>   0.0800 
 35 H       -3.7690    -1.7640    -2.5050 H     1 <1>   0.0800 
 36 H       -5.5790    -1.8890    -0.9980 H     1 <1>   0.0800 
 37 H       -5.0580    -0.7090     0.1820 H     1 <1>   0.0800 
 38 H       -2.6580    -4.1460     0.0140 H     1 <1>   0.0800 
 39 H       -4.0140    -4.1460    -1.0930 H     1 <1>   0.0800 
 40 H       -3.6710     2.7970     1.7600 H     1 <1>   0.0800 
 41 H       -4.6720     1.4730     1.1870 H     1 <1>   0.0800 
 42 H       -5.1260     3.3590    -2.0290 H     1 <1>   0.0800 
 43 H       -4.5450     4.6680    -1.0070 H     1 <1>   0.0800 
 44 H        1.4920     3.2530    -2.2540 H     1 <1>   0.1500 
 45 H        0.7630     1.3590     1.4930 H     1 <1>   0.1500 
 46 H       -6.5430    -2.9400     0.8000 H     1 <1>   0.0800 
 47 H       -5.4390    -2.2100     1.9450 H     1 <1>   0.0800 
 48 H       -4.0870    -4.0140     1.8810 H     1 <1>   0.0800 
 49 H       -5.1880    -4.8250     0.7880 H     1 <1>   0.0800 
 50 H       -5.4040     4.3020     1.6940 H     1 <1>   0.0800 
 51 H       -6.4110     2.8790     1.8690 H     1 <1>   0.0800 
 52 H       -6.8010     2.7750    -0.4920 H     1 <1>   0.0800 
 53 H       -6.7800     4.5130    -0.2490 H     1 <1>   0.0800 
 54 H        3.8630     2.6470    -2.0840 H     1 <1>   0.1500 
 55 H        3.0920     0.7500     1.6560 H     1 <1>   0.1500 
 56 H        6.6060     0.5360     0.6550 H     1 <1>   0.0800 
 57 H        5.0920    -0.3160     0.9400 H     1 <1>   0.0800 
 58 H        5.4260     1.2140     1.7720 H     1 <1>   0.0800 
@<TRIPOS>BOND
  1   1   2  2   
  2   2   3  am  
  3   2   4  1   
  4   3   5  1   
  5   3   6  1   
  6   4   7  1   
  7   4   8  2   
  8   5   9  1   
  9   5  30  1   
 10   5  31  1   
 11   6  10  1   
 12   6  32  1   
 13   6  33  1   
 14   7  11  2   
 15   7  12  1   
 16   8  13  1   
 17   8  14  1   
 18   9  10  1   
 19   9  15  1   
 20   9  16  1   
 21  10  34  1   
 22  10  35  1   
 23  11  13  1   
 24  12  17  1   
 25  12  18  1   
 26  14  19  ar  
 27  14  20  ar  
 28  15  21  1   
 29  15  36  1   
 30  15  37  1   
 31  16  22  1   
 32  16  38  1   
 33  16  39  1   
 34  17  23  1   
 35  17  40  1   
 36  17  41  1   
 37  18  24  1   
 38  18  42  1   
 39  18  43  1   
 40  19  25  ar  
 41  19  44  1   
 42  20  26  ar  
 43  20  45  1   
 44  21  22  1   
 45  21  46  1   
 46  21  47  1   
 47  22  48  1   
 48  22  49  1   
 49  23  24  1   
 50  23  50  1   
 51  23  51  1   
 52  24  52  1   
 53  24  53  1   
 54  25  27  ar  
 55  25  54  1   
 56  26  27  ar  
 57  26  55  1   
 58  27  28  1   
 59  28  29  1   
 60  29  56  1   
 61  29  57  1   
 62  29  58  1   
@<TRIPOS>SUBSTRUCTURE
  1 ****   2 GROUP 4 **** **** 0

# MOE 2024.06 (io_trps.svl 2023.06)
