@<TRIPOS>MOLECULE
NONAME
40 42 1 0 0 
SMALL
USER_CHARGES


@<TRIPOS>ATOM
  1 N       -0.5000     0.3340     0.2300 N.ar  1 <1>  -0.6200 
  2 C        0.6410     0.4930    -0.4320 C.ar  1 <1>   0.7710 
  3 C       -0.7510    -0.8430     0.7620 C.ar  1 <1>   0.4100 
  4 N        1.5600    -0.4900    -0.5490 N.ar  1 <1>  -0.1260 
  5 N        0.9290     1.6790    -1.0030 N.pl3 1 <1>  -0.8690 
  6 N       -1.9230    -0.9570     1.3940 N.pl3 1 <1>  -0.9000 
  7 C        0.1650    -1.9150     0.6820 C.ar  1 <1>   0.0000 
  8 C        1.3360    -1.7110     0.0240 C.ar  1 <1>   0.1560 
  9 C        0.9090     3.0630    -0.4200 C.3   1 <1>   0.2890 
 10 C        0.2710    -3.2370     1.1360 C.2   1 <1>   0.1390 
 11 N        2.0750    -2.8380     0.1210 N.pl3 1 <1>   0.3140 
 12 C        2.2330     3.3800     0.3330 C.3   1 <1>   0.0960 
 13 C       -0.3350     3.3330     0.4410 C.3   1 <1>  -0.1600 
 14 N        1.3970    -3.7850     0.8090 N.2   1 <1>  -0.7070 
 15 C        3.4380    -3.0950    -0.3780 C.3   1 <1>   0.0160 
 16 N        3.3320     2.4840    -0.1040 N.pl3 1 <1>   0.0480 
 17 C       -0.4910     4.8150     0.8160 C.3   1 <1>  -0.2400 
 18 C        3.6570     1.3080     0.4810 C.2   1 <1>   0.0360 
 19 C        3.8900     2.4140    -1.3290 C.2   1 <1>  -0.3020 
 20 N        4.2890     0.4880    -0.3000 N.2   1 <1>  -0.5650 
 21 C        4.4830     1.2050    -1.4240 C.2   1 <1>   0.0770 
 22 H        2.5020    -0.2140    -0.8580 H     1 <1>   0.4570 
 23 H        1.5570     1.6720    -1.8110 H     1 <1>   0.4000 
 24 H       -2.2730    -1.8030     1.8500 H     1 <1>   0.4000 
 25 H       -2.5720    -0.1640     1.4180 H     1 <1>   0.4000 
 26 H        0.8530     3.7430    -1.2550 H     1 <1>   0.0800 
 27 H       -0.4970    -3.7430     1.6990 H     1 <1>   0.1500 
 28 H        2.0890     3.2500     1.3900 H     1 <1>   0.0800 
 29 H        2.5160     4.4030     0.1640 H     1 <1>   0.0800 
 30 H       -0.2950     2.7520     1.3460 H     1 <1>   0.0800 
 31 H       -1.2090     3.0340    -0.1120 H     1 <1>   0.0800 
 32 H        4.1090    -2.3400    -0.0110 H     1 <1>   0.0800 
 33 H        3.4360    -3.0980    -1.4520 H     1 <1>   0.0800 
 34 H        3.7660    -4.0570    -0.0240 H     1 <1>   0.0800 
 35 H        0.3230     5.1540     1.4310 H     1 <1>   0.0800 
 36 H       -1.4040     4.9530     1.3700 H     1 <1>   0.0800 
 37 H       -0.5430     5.4290    -0.0670 H     1 <1>   0.0800 
 38 H        3.3600     1.0800     1.4930 H     1 <1>   0.1500 
 39 H        3.8410     3.2120    -2.0510 H     1 <1>   0.1500 
 40 H        5.0500     0.8140    -2.2580 H     1 <1>   0.1500 
@<TRIPOS>BOND
  1   1   2  ar  
  2   1   3  ar  
  3   2   4  ar  
  4   2   5  1   
  5   3   6  1   
  6   3   7  ar  
  7   4   8  ar  
  8   4  22  1   
  9   5   9  1   
 10   5  23  1   
 11   6  24  1   
 12   6  25  1   
 13   7   8  ar  
 14   7  10  1   
 15   8  11  1   
 16   9  12  1   
 17   9  13  1   
 18   9  26  1   
 19  10  14  2   
 20  10  27  1   
 21  11  14  1   
 22  11  15  1   
 23  12  16  1   
 24  12  28  1   
 25  12  29  1   
 26  13  17  1   
 27  13  30  1   
 28  13  31  1   
 29  15  32  1   
 30  15  33  1   
 31  15  34  1   
 32  16  18  1   
 33  16  19  1   
 34  17  35  1   
 35  17  36  1   
 36  17  37  1   
 37  18  20  2   
 38  18  38  1   
 39  19  21  2   
 40  19  39  1   
 41  20  21  1   
 42  21  40  1   
@<TRIPOS>SUBSTRUCTURE
  1 ****   2 GROUP 4 **** **** 0

# MOE 2024.06 (io_trps.svl 2023.06)
