@<TRIPOS>MOLECULE
NONAME
46 48 1 0 0 
SMALL
USER_CHARGES


@<TRIPOS>ATOM
  1 O       -1.0280    -0.5590     1.0790 O.3   1 <1>  -0.5600 
  2 C       -0.1900    -1.4720     0.4350 C.3   1 <1>   0.4180 
  3 C       -1.9120     0.1890     0.2880 C.3   1 <1>   0.1200 
  4 C       -0.9440    -2.2190    -0.6660 C.2   1 <1>  -0.2880 
  5 C        0.2530    -2.4390     1.5310 C.3   1 <1>  -0.1600 
  6 C        1.0100    -0.7070    -0.1270 C.3   1 <1>  -0.1600 
  7 C       -2.9080    -0.7320    -0.4290 C.3   1 <1>  -0.0220 
  8 C       -2.1790    -1.9040    -1.0600 C.2   1 <1>  -0.2760 
  9 C        1.3720    -3.3550     1.0540 C.3   1 <1>   0.3430 
 10 C        2.1090    -1.6610    -0.5760 C.3   1 <1>   0.3430 
 11 C       -2.9640    -2.6540    -2.1230 C.3   1 <1>  -0.1020 
 12 N        2.5190    -2.5380     0.5620 N.4   1 <1>  -0.9590 
 13 C        3.6500    -3.4500     0.1920 C.3   1 <1>   0.3430 
 14 C        4.9830    -2.7160    -0.0020 C.3   1 <1>   0.0200 
 15 C        6.0610    -3.7300    -0.3360 C.2   1 <1>   0.0060 
 16 N        5.8040    -4.9870    -0.5020 N.2   1 <1>  -0.5650 
 17 N        7.3730    -3.4170    -0.4910 N.pl3 1 <1>   0.0480 
 18 C        7.0040    -5.5290    -0.7780 C.2   1 <1>   0.0770 
 19 C        7.9690    -4.5860    -0.7750 C.2   1 <1>  -0.3020 
 20 C        8.0480    -2.1100    -0.3790 C.3   1 <1>   0.0160 
 21 H       -1.3420     0.7570    -0.4260 H     1 <1>   0.0800 
 22 H       -2.4350     0.8730     0.9340 H     1 <1>   0.0800 
 23 H       -0.4010    -3.0360    -1.1030 H     1 <1>   0.1500 
 24 H       -0.5900    -3.0370     1.8290 H     1 <1>   0.0800 
 25 H        0.5890    -1.8870     2.3910 H     1 <1>   0.0800 
 26 H        1.3980    -0.0370     0.6190 H     1 <1>   0.0800 
 27 H        0.6980    -0.1240    -0.9740 H     1 <1>   0.0800 
 28 H       -3.4210    -0.1600    -1.1820 H     1 <1>   0.0800 
 29 H       -3.6400    -1.0910     0.2730 H     1 <1>   0.0800 
 30 H        1.0070    -3.9910     0.2630 H     1 <1>   0.0800 
 31 H        1.6890    -3.9840     1.8710 H     1 <1>   0.0800 
 32 H        2.9510    -1.0880    -0.9280 H     1 <1>   0.0800 
 33 H        1.7490    -2.2660    -1.3920 H     1 <1>   0.0800 
 34 H       -3.2100    -1.9970    -2.9380 H     1 <1>   0.0800 
 35 H       -3.8760    -3.0420    -1.7040 H     1 <1>   0.0800 
 36 H       -2.3910    -3.4780    -2.5110 H     1 <1>   0.0800 
 37 H        2.8220    -1.9410     1.3430 H     1 <1>   0.4500 
 38 H        3.4120    -3.9850    -0.7140 H     1 <1>   0.0800 
 39 H        3.7910    -4.1860     0.9680 H     1 <1>   0.0800 
 40 H        5.2540    -2.2050     0.9040 H     1 <1>   0.0800 
 41 H        4.9150    -2.0130    -0.8110 H     1 <1>   0.0800 
 42 H        7.1150    -6.5850    -0.9680 H     1 <1>   0.1500 
 43 H        9.0240    -4.6900    -0.9560 H     1 <1>   0.1500 
 44 H        7.5240    -1.3810    -0.9690 H     1 <1>   0.0800 
 45 H        9.0570    -2.1960    -0.7410 H     1 <1>   0.0800 
 46 H        8.0660    -1.8040     0.6510 H     1 <1>   0.0800 
@<TRIPOS>BOND
  1   1   2  1   
  2   1   3  1   
  3   2   4  1   
  4   2   5  1   
  5   2   6  1   
  6   3   7  1   
  7   3  21  1   
  8   3  22  1   
  9   4   8  2   
 10   4  23  1   
 11   5   9  1   
 12   5  24  1   
 13   5  25  1   
 14   6  10  1   
 15   6  26  1   
 16   6  27  1   
 17   7   8  1   
 18   7  28  1   
 19   7  29  1   
 20   8  11  1   
 21   9  12  1   
 22   9  30  1   
 23   9  31  1   
 24  10  12  1   
 25  10  32  1   
 26  10  33  1   
 27  11  34  1   
 28  11  35  1   
 29  11  36  1   
 30  12  13  1   
 31  12  37  1   
 32  13  14  1   
 33  13  38  1   
 34  13  39  1   
 35  14  15  1   
 36  14  40  1   
 37  14  41  1   
 38  15  16  2   
 39  15  17  1   
 40  16  18  1   
 41  17  19  1   
 42  17  20  1   
 43  18  19  2   
 44  18  42  1   
 45  19  43  1   
 46  20  44  1   
 47  20  45  1   
 48  20  46  1   
@<TRIPOS>SUBSTRUCTURE
  1 ****  12 GROUP 4 **** **** 0

# MOE 2024.06 (io_trps.svl 2023.06)
