@<TRIPOS>MOLECULE
NONAME
55 58 1 0 0 
SMALL
USER_CHARGES


@<TRIPOS>ATOM
  1 O        1.4790     0.5650     0.1990 O.3   1 <1>  -0.3630 
  2 C        0.7730    -0.5780     0.3730 C.ar  1 <1>   0.0830 
  3 C        2.8630     0.5420    -0.1100 C.3   1 <1>   0.2640 
  4 C        1.3060    -1.8540     0.2110 C.ar  1 <1>  -0.1500 
  5 C       -0.5560    -0.4380     0.7350 C.ar  1 <1>  -0.1500 
  6 C        3.4520     1.9450    -0.2390 C.ar  1 <1>   0.1660 
  7 C        0.5070    -2.9670     0.4070 C.ar  1 <1>  -0.1500 
  8 C       -1.3530    -1.5500     0.9330 C.ar  1 <1>  -0.1500 
  9 N        4.7250     1.9830    -0.6120 N.ar  1 <1>  -0.6200 
 10 C        2.6950     3.0820     0.0220 C.ar  1 <1>  -0.1500 
 11 C       -0.8270    -2.8230     0.7620 C.ar  1 <1>  -0.1430 
 12 C        5.2590     3.1890    -0.7300 C.ar  1 <1>   0.1600 
 13 C        3.2650     4.3310    -0.1060 C.ar  1 <1>  -0.1500 
 14 C       -1.7060    -4.0430     0.9610 C.3   1 <1>   0.4860 
 15 C        4.5860     4.3740    -0.4930 C.ar  1 <1>  -0.1500 
 16 N       -2.6480    -4.1440    -0.1920 N.4   1 <1>  -0.9590 
 17 C       -3.7340    -5.1320     0.0490 C.3   1 <1>   0.4230 
 18 C       -1.9000    -4.4140    -1.4640 C.3   1 <1>   0.2630 
 19 C       -4.7500    -5.1480    -1.0920 C.3   1 <1>  -0.1600 
 20 C       -4.5700    -4.7740     1.2770 C.3   1 <1>  -0.1600 
 21 C       -6.0480    -5.6740    -0.4700 C.3   1 <1>  -0.0800 
 22 C       -5.9330    -5.4360     1.0440 C.3   1 <1>  -0.0800 
 23 C       -6.2580    -7.1840    -0.6570 C.3   1 <1>  -0.1600 
 24 C       -6.0760    -6.8120     1.7110 C.3   1 <1>  -0.1600 
 25 C       -6.8040    -7.6590     0.6800 C.3   1 <1>   0.2000 
 26 O       -6.5220    -8.9930     0.8680 O.3   1 <1>  -0.6800 
 27 H        3.3750     0.0150     0.6740 H     1 <1>   0.0800 
 28 H        2.9900     0.0220    -1.0420 H     1 <1>   0.0800 
 29 H        2.3350    -1.9980    -0.0630 H     1 <1>   0.1500 
 30 H       -0.9560     0.5530     0.8640 H     1 <1>   0.1500 
 31 H        0.9440    -3.9440     0.2820 H     1 <1>   0.1500 
 32 H       -2.3790    -1.4030     1.2240 H     1 <1>   0.1500 
 33 H        1.6670     3.0010     0.3230 H     1 <1>   0.1500 
 34 H        6.2910     3.2340    -1.0320 H     1 <1>   0.1500 
 35 H        2.7030     5.2270     0.0890 H     1 <1>   0.1500 
 36 H       -2.2500    -3.9300     1.8840 H     1 <1>   0.0800 
 37 H       -1.0990    -4.9310     1.0290 H     1 <1>   0.0800 
 38 H        5.0910     5.3150    -0.6120 H     1 <1>   0.1500 
 39 H       -3.0850    -3.2180    -0.2830 H     1 <1>   0.4500 
 40 H       -3.3290    -6.1250     0.1730 H     1 <1>   0.0800 
 41 H       -1.4120    -5.3740    -1.4170 H     1 <1>   0.0800 
 42 H       -1.1520    -3.6540    -1.6260 H     1 <1>   0.0800 
 43 H       -2.5720    -4.4090    -2.3060 H     1 <1>   0.0800 
 44 H       -4.9270    -4.1450    -1.4400 H     1 <1>   0.0800 
 45 H       -4.4290    -5.7590    -1.9170 H     1 <1>   0.0800 
 46 H       -4.1200    -5.1120     2.1940 H     1 <1>   0.0800 
 47 H       -4.7190    -3.7090     1.3220 H     1 <1>   0.0800 
 48 H       -6.9020    -5.1450    -0.8630 H     1 <1>   0.0800 
 49 H       -6.7320    -4.7930     1.3780 H     1 <1>   0.0800 
 50 H       -5.3230    -7.6760    -0.8630 H     1 <1>   0.0800 
 51 H       -6.9540    -7.3890    -1.4510 H     1 <1>   0.0800 
 52 H       -6.6410    -6.7490     2.6250 H     1 <1>   0.0800 
 53 H       -5.1100    -7.2400     1.9140 H     1 <1>   0.0800 
 54 H       -7.8710    -7.5140     0.7400 H     1 <1>   0.0800 
 55 H       -5.5650    -9.1620     0.8080 H     1 <1>   0.4000 
@<TRIPOS>BOND
  1   1   2  1   
  2   1   3  1   
  3   2   4  ar  
  4   2   5  ar  
  5   3   6  1   
  6   3  27  1   
  7   3  28  1   
  8   4   7  ar  
  9   4  29  1   
 10   5   8  ar  
 11   5  30  1   
 12   6   9  ar  
 13   6  10  ar  
 14   7  11  ar  
 15   7  31  1   
 16   8  11  ar  
 17   8  32  1   
 18   9  12  ar  
 19  10  13  ar  
 20  10  33  1   
 21  11  14  1   
 22  12  15  ar  
 23  12  34  1   
 24  13  15  ar  
 25  13  35  1   
 26  14  16  1   
 27  14  36  1   
 28  14  37  1   
 29  15  38  1   
 30  16  17  1   
 31  16  18  1   
 32  16  39  1   
 33  17  19  1   
 34  17  20  1   
 35  17  40  1   
 36  18  41  1   
 37  18  42  1   
 38  18  43  1   
 39  19  21  1   
 40  19  44  1   
 41  19  45  1   
 42  20  22  1   
 43  20  46  1   
 44  20  47  1   
 45  21  22  1   
 46  21  23  1   
 47  21  48  1   
 48  22  24  1   
 49  22  49  1   
 50  23  25  1   
 51  23  50  1   
 52  23  51  1   
 53  24  25  1   
 54  24  52  1   
 55  24  53  1   
 56  25  26  1   
 57  25  54  1   
 58  26  55  1   
@<TRIPOS>SUBSTRUCTURE
  1 ****  11 GROUP 4 **** **** 0

# MOE 2024.06 (io_trps.svl 2023.06)
