@<TRIPOS>MOLECULE
NONAME
53 56 1 0 0 
SMALL
USER_CHARGES


@<TRIPOS>ATOM
  1 S        0.0700    -0.1910    -0.4610 S.3   1 <1>  -0.0800 
  2 C       -0.5220     1.4020    -0.0140 C.2   1 <1>  -0.1400 
  3 C       -1.2810    -0.9800     0.3320 C.2   1 <1>  -0.1400 
  4 C       -1.6660     1.2890     0.6870 C.2   1 <1>  -0.1500 
  5 C        0.3060     2.5990    -0.4690 C.3   1 <1>   0.1000 
  6 C       -2.0970    -0.0600     0.8870 C.2   1 <1>  -0.1500 
  7 C       -1.2840    -2.4920     0.2550 C.3   1 <1>   0.5230 
  8 C        1.6280     2.6680     0.3140 C.3   1 <1>  -0.1600 
  9 C       -0.4760     3.9150    -0.3160 C.3   1 <1>  -0.1600 
 10 N       -2.6490    -3.0050     0.5280 N.4   1 <1>  -0.9590 
 11 C        2.4740     3.8800    -0.1050 C.3   1 <1>  -0.1600 
 12 C        0.3640     5.1250    -0.7470 C.3   1 <1>  -0.1600 
 13 C       -3.6670    -2.6080    -0.4770 C.3   1 <1>   0.3430 
 14 C       -2.7500    -4.4850     0.6420 C.3   1 <1>   0.3430 
 15 C        1.6820     5.1870     0.0350 C.3   1 <1>  -0.1600 
 16 C       -4.8400    -3.5340    -0.1640 C.3   1 <1>   0.2000 
 17 C       -4.1630    -4.8710     0.1590 C.3   1 <1>  -0.0800 
 18 O       -5.4430    -3.0680     0.9980 O.3   1 <1>  -0.6800 
 19 C       -4.1200    -5.7960    -1.0760 C.3   1 <1>  -0.0170 
 20 C       -3.4930    -7.1480    -0.7650 C.ar  1 <1>   0.1670 
 21 N       -2.1820    -7.1570    -0.5770 N.ar  1 <1>  -0.6200 
 22 C       -4.2890    -8.2910    -0.6950 C.ar  1 <1>   0.1600 
 23 C       -1.7250    -8.3770    -0.3290 C.ar  1 <1>   0.1600 
 24 N       -3.8330    -9.5030    -0.4340 N.ar  1 <1>  -0.6200 
 25 C       -2.5240    -9.5110    -0.2580 C.ar  1 <1>   0.1600 
 26 H       -2.2380     2.1100     1.0840 H     1 <1>   0.1500 
 27 H        0.5330     2.4670    -1.5140 H     1 <1>   0.0800 
 28 H       -2.9990    -0.2480     1.4440 H     1 <1>   0.1500 
 29 H       -0.5840    -2.8850     0.9740 H     1 <1>   0.0800 
 30 H       -0.9690    -2.8000    -0.7290 H     1 <1>   0.0800 
 31 H        1.4110     2.7320     1.3660 H     1 <1>   0.0800 
 32 H        2.1960     1.7700     0.1490 H     1 <1>   0.0800 
 33 H       -1.3710     3.8710    -0.9110 H     1 <1>   0.0800 
 34 H       -0.7650     4.0410     0.7130 H     1 <1>   0.0800 
 35 H       -2.9780    -2.6050     1.4180 H     1 <1>   0.4500 
 36 H        3.3590     3.9290     0.5050 H     1 <1>   0.0800 
 37 H        2.7850     3.7610    -1.1280 H     1 <1>   0.0800 
 38 H        0.5770     5.0580    -1.8000 H     1 <1>   0.0800 
 39 H       -0.1950     6.0300    -0.5810 H     1 <1>   0.0800 
 40 H       -3.9490    -1.5710    -0.3860 H     1 <1>   0.0800 
 41 H       -3.3020    -2.8000    -1.4730 H     1 <1>   0.0800 
 42 H       -2.0060    -4.9490     0.0160 H     1 <1>   0.0800 
 43 H       -2.5940    -4.8030     1.6610 H     1 <1>   0.0800 
 44 H        2.2770     6.0090    -0.3250 H     1 <1>   0.0800 
 45 H        1.4710     5.3650     1.0760 H     1 <1>   0.0800 
 46 H       -5.5740    -3.5720    -0.9530 H     1 <1>   0.0800 
 47 H       -4.6890    -5.3870     0.9440 H     1 <1>   0.0800 
 48 H       -6.2970    -3.5210     1.1690 H     1 <1>   0.4000 
 49 H       -3.5590    -5.3370    -1.8720 H     1 <1>   0.0800 
 50 H       -5.1210    -5.9510    -1.4390 H     1 <1>   0.0800 
 51 H       -5.3480    -8.2060    -0.8600 H     1 <1>   0.1500 
 52 H       -0.6660    -8.4880    -0.1730 H     1 <1>   0.1500 
 53 H       -2.0620   -10.4600    -0.0490 H     1 <1>   0.1500 
@<TRIPOS>BOND
  1   1   2  1   
  2   1   3  1   
  3   2   4  2   
  4   2   5  1   
  5   3   6  2   
  6   3   7  1   
  7   4   6  1   
  8   4  26  1   
  9   5   8  1   
 10   5   9  1   
 11   5  27  1   
 12   6  28  1   
 13   7  10  1   
 14   7  29  1   
 15   7  30  1   
 16   8  11  1   
 17   8  31  1   
 18   8  32  1   
 19   9  12  1   
 20   9  33  1   
 21   9  34  1   
 22  10  13  1   
 23  10  14  1   
 24  10  35  1   
 25  11  15  1   
 26  11  36  1   
 27  11  37  1   
 28  12  15  1   
 29  12  38  1   
 30  12  39  1   
 31  13  16  1   
 32  13  40  1   
 33  13  41  1   
 34  14  17  1   
 35  14  42  1   
 36  14  43  1   
 37  15  44  1   
 38  15  45  1   
 39  16  17  1   
 40  16  18  1   
 41  16  46  1   
 42  17  19  1   
 43  17  47  1   
 44  18  48  1   
 45  19  20  1   
 46  19  49  1   
 47  19  50  1   
 48  20  21  ar  
 49  20  22  ar  
 50  21  23  ar  
 51  22  24  ar  
 52  22  51  1   
 53  23  25  ar  
 54  23  52  1   
 55  24  25  ar  
 56  25  53  1   
@<TRIPOS>SUBSTRUCTURE
  1 ****   7 GROUP 4 **** **** 0

# MOE 2024.06 (io_trps.svl 2023.06)
