@<TRIPOS>MOLECULE
NONAME
44 46 1 0 0 
SMALL
USER_CHARGES


@<TRIPOS>ATOM
  1 O       -0.3130    -0.1210    -1.9800 O.3   1 <1>  -0.3630 
  2 C        0.8020     0.4930    -1.5120 C.ar  1 <1>   0.0830 
  3 C       -0.3830    -1.5260    -2.0760 C.3   1 <1>   0.1200 
  4 C        1.9880    -0.1740    -1.2160 C.ar  1 <1>  -0.1500 
  5 C        0.7290     1.8630    -1.3240 C.ar  1 <1>  -0.1500 
  6 C       -1.7960    -1.9080    -2.5130 C.3   1 <1>   0.2090 
  7 C        3.0770     0.5320    -0.7330 C.ar  1 <1>  -0.1500 
  8 C        1.8190     2.5650    -0.8420 C.ar  1 <1>  -0.1500 
  9 N       -2.0650    -3.3370    -2.1970 N.pl3 1 <1>  -0.8690 
 10 C        2.9990     1.9030    -0.5430 C.ar  1 <1>  -0.1430 
 11 C       -2.5920    -3.8610    -1.0680 C.2   1 <1>   0.2710 
 12 C        4.1980     2.6740    -0.0120 C.3   1 <1>  -0.0170 
 13 N       -2.8420    -5.1680    -1.1450 N.2   1 <1>  -0.6210 
 14 C       -2.8490    -3.1340     0.0700 C.2   1 <1>  -0.1410 
 15 C        4.1700     2.7220     1.5200 C.3   1 <1>  -0.1600 
 16 C       -3.3520    -5.7600    -0.1130 C.2   1 <1>   0.9190 
 17 C       -3.3880    -3.8150     1.1340 C.cat 1 <1>   0.7910 
 18 C        5.3690     3.4920     2.0820 C.3   1 <1>  -0.2400 
 19 N       -3.6400    -5.1190     1.0430 N.pl3 1 <1>  -0.6690 
 20 N       -3.6020    -7.0630    -0.2020 N.pl3 1 <1>  -0.8500 
 21 N       -3.7580    -3.4440     2.3700 N.pl3 1 <1>  -0.3930 
 22 C       -4.1630    -5.4840     2.2580 C.2   1 <1>   0.5030 
 23 N       -4.2460    -4.5010     3.0740 N.2   1 <1>  -0.2600 
 24 H       -0.1680    -1.9350    -1.1050 H     1 <1>   0.0800 
 25 H        0.3420    -1.8600    -2.7970 H     1 <1>   0.0800 
 26 H        2.0880    -1.2330    -1.3550 H     1 <1>   0.1500 
 27 H       -0.1860     2.3780    -1.5580 H     1 <1>   0.1500 
 28 H       -1.9030    -1.7480    -3.5730 H     1 <1>   0.0800 
 29 H       -2.5120    -1.2870    -2.0040 H     1 <1>   0.0800 
 30 H        3.9890     0.0100    -0.5050 H     1 <1>   0.1500 
 31 H        1.7450     3.6290    -0.6990 H     1 <1>   0.1500 
 32 H       -1.9160    -3.9920    -2.9750 H     1 <1>   0.4000 
 33 H        4.1870     3.6740    -0.4070 H     1 <1>   0.0800 
 34 H        5.1050     2.2010    -0.3450 H     1 <1>   0.0800 
 35 H       -2.6390    -2.0860     0.1340 H     1 <1>   0.1500 
 36 H        4.1770     1.7170     1.9080 H     1 <1>   0.0800 
 37 H        3.2580     3.1940     1.8440 H     1 <1>   0.0800 
 38 H        6.2910     3.0210     1.7880 H     1 <1>   0.0800 
 39 H        5.3230     3.5090     3.1570 H     1 <1>   0.0800 
 40 H        5.3670     4.5060     1.7240 H     1 <1>   0.0800 
 41 H       -3.3810    -7.5230    -1.0870 H     1 <1>   0.4000 
 42 H       -4.0150    -7.6530     0.5120 H     1 <1>   0.4000 
 43 H       -3.6910    -2.4950     2.7580 H     1 <1>   0.4500 
 44 H       -4.4650    -6.4950     2.4810 H     1 <1>   0.1500 
@<TRIPOS>BOND
  1   1   2  1   
  2   1   3  1   
  3   2   4  ar  
  4   2   5  ar  
  5   3   6  1   
  6   3  24  1   
  7   3  25  1   
  8   4   7  ar  
  9   4  26  1   
 10   5   8  ar  
 11   5  27  1   
 12   6   9  1   
 13   6  28  1   
 14   6  29  1   
 15   7  10  ar  
 16   7  30  1   
 17   8  10  ar  
 18   8  31  1   
 19   9  11  1   
 20   9  32  1   
 21  10  12  1   
 22  11  13  1   
 23  11  14  2   
 24  12  15  1   
 25  12  33  1   
 26  12  34  1   
 27  13  16  2   
 28  14  17  1   
 29  14  35  1   
 30  15  18  1   
 31  15  36  1   
 32  15  37  1   
 33  16  19  1   
 34  16  20  1   
 35  17  19  ar  
 36  17  21  ar  
 37  18  38  1   
 38  18  39  1   
 39  18  40  1   
 40  19  22  1   
 41  20  41  1   
 42  20  42  1   
 43  21  23  1   
 44  21  43  1   
 45  22  23  2   
 46  22  44  1   
@<TRIPOS>SUBSTRUCTURE
  1 ****   3 GROUP 4 **** **** 0

# MOE 2024.06 (io_trps.svl 2023.06)
