@<TRIPOS>MOLECULE
NONAME
50 52 1 0 0 
SMALL
USER_CHARGES


@<TRIPOS>ATOM
  1 S       -1.8110    -0.0430    -0.3250 S.o2  1 <1>   1.3330 
  2 O       -3.0730    -0.6820    -0.6090 O.2   1 <1>  -0.6500 
  3 O       -1.7110     1.0290     0.6360 O.2   1 <1>  -0.6500 
  4 N       -0.6760    -1.2640     0.1610 N.am  1 <1>  -0.6930 
  5 C       -1.1090     0.5270    -1.8580 C.3   1 <1>  -0.1350 
  6 C       -0.9240    -2.6220    -0.0160 C.ar  1 <1>   0.1990 
  7 C        0.4320    -0.8180     1.0430 C.3   1 <1>   0.1160 
  8 C       -0.8660    -3.5090     1.0560 C.ar  1 <1>  -0.1500 
  9 C       -1.2350    -3.1460    -1.2670 C.ar  1 <1>  -0.1500 
 10 C       -1.1010    -4.8590     0.8830 C.ar  1 <1>  -0.1500 
 11 C       -1.4700    -4.4960    -1.4380 C.ar  1 <1>  -0.1500 
 12 C       -1.4140    -5.3930    -0.3700 C.ar  1 <1>   0.0860 
 13 C       -1.6730    -6.8060    -0.5670 C.2   1 <1>   0.5440 
 14 O       -1.4930    -7.3320    -1.6490 O.2   1 <1>  -0.5700 
 15 N       -2.1470    -7.5840     0.4510 N.am  1 <1>  -0.7300 
 16 C       -2.4490    -9.0280     0.3380 C.3   1 <1>   0.2200 
 17 C       -3.9250    -9.2080     0.0250 C.3   1 <1>  -0.0800 
 18 C       -2.3410    -9.6830     1.7100 C.3   1 <1>   0.1200 
 19 C       -4.5620    -9.1380     1.4180 C.3   1 <1>   0.1200 
 20 C       -4.1940   -10.5520    -0.6770 C.3   1 <1>  -0.0170 
 21 O       -3.5630    -9.4550     2.3460 O.3   1 <1>  -0.5600 
 22 C       -5.6660   -10.7140    -1.0210 C.ar  1 <1>  -0.1430 
 23 C       -6.4980   -11.5610    -0.3160 C.ar  1 <1>  -0.1500 
 24 C       -6.2460   -10.0190    -2.0630 C.ar  1 <1>  -0.1500 
 25 C       -7.8320   -11.6640    -0.6730 C.ar  1 <1>   0.1600 
 26 C       -7.5920   -10.1950    -2.3380 C.ar  1 <1>   0.1600 
 27 N       -8.4000   -11.0000    -1.6670 N.ar  1 <1>  -0.6200 
 28 H       -1.0710    -0.2690    -2.5740 H     1 <1>   0.0800 
 29 H       -0.1160     0.8960    -1.6960 H     1 <1>   0.0800 
 30 H       -1.7080     1.3190    -2.2610 H     1 <1>   0.0800 
 31 H        1.1640    -1.6000     1.1510 H     1 <1>   0.0800 
 32 H        0.0400    -0.5600     2.0120 H     1 <1>   0.0800 
 33 H        0.9110     0.0480     0.6210 H     1 <1>   0.0800 
 34 H       -0.6410    -3.1310     2.0360 H     1 <1>   0.1500 
 35 H       -1.2940    -2.4920    -2.1150 H     1 <1>   0.1500 
 36 H       -1.0360    -5.5120     1.7350 H     1 <1>   0.1500 
 37 H       -1.7050    -4.8740    -2.4190 H     1 <1>   0.1500 
 38 H       -2.4840    -7.1500     1.3120 H     1 <1>   0.3700 
 39 H       -1.7990    -9.4890    -0.3880 H     1 <1>   0.0800 
 40 H       -4.2860    -8.4130    -0.6040 H     1 <1>   0.0800 
 41 H       -1.5410    -9.2760     2.3030 H     1 <1>   0.0800 
 42 H       -2.2170   -10.7470     1.6150 H     1 <1>   0.0800 
 43 H       -5.3840    -9.8210     1.5420 H     1 <1>   0.0800 
 44 H       -4.8970    -8.1380     1.6320 H     1 <1>   0.0800 
 45 H       -3.8760   -11.3700    -0.0540 H     1 <1>   0.0800 
 46 H       -3.6220   -10.5970    -1.5880 H     1 <1>   0.0800 
 47 H       -6.1240   -12.1410     0.5080 H     1 <1>   0.1500 
 48 H       -5.6640    -9.3430    -2.6630 H     1 <1>   0.1500 
 49 H       -8.4660   -12.3280    -0.1110 H     1 <1>   0.1500 
 50 H       -8.0270    -9.6440    -3.1550 H     1 <1>   0.1500 
@<TRIPOS>BOND
  1   1   2  2   
  2   1   3  2   
  3   1   4  am  
  4   1   5  1   
  5   4   6  1   
  6   4   7  1   
  7   5  28  1   
  8   5  29  1   
  9   5  30  1   
 10   6   8  ar  
 11   6   9  ar  
 12   7  31  1   
 13   7  32  1   
 14   7  33  1   
 15   8  10  ar  
 16   8  34  1   
 17   9  11  ar  
 18   9  35  1   
 19  10  12  ar  
 20  10  36  1   
 21  11  12  ar  
 22  11  37  1   
 23  12  13  1   
 24  13  14  2   
 25  13  15  am  
 26  15  16  1   
 27  15  38  1   
 28  16  17  1   
 29  16  18  1   
 30  16  39  1   
 31  17  19  1   
 32  17  20  1   
 33  17  40  1   
 34  18  21  1   
 35  18  41  1   
 36  18  42  1   
 37  19  21  1   
 38  19  43  1   
 39  19  44  1   
 40  20  22  1   
 41  20  45  1   
 42  20  46  1   
 43  22  23  ar  
 44  22  24  ar  
 45  23  25  ar  
 46  23  47  1   
 47  24  26  ar  
 48  24  48  1   
 49  25  27  ar  
 50  25  49  1   
 51  26  27  ar  
 52  26  50  1   
@<TRIPOS>SUBSTRUCTURE
  1 ****  13 GROUP 4 **** **** 0

# MOE 2024.06 (io_trps.svl 2023.06)
