@<TRIPOS>MOLECULE
NONAME
49 52 1 0 0 
SMALL
USER_CHARGES


@<TRIPOS>ATOM
  1 O       -1.5900     1.4300    -2.7130 O.2   1 <1>  -0.5700 
  2 C       -1.4990     1.5570    -1.5060 C.2   1 <1>   0.7160 
  3 N       -1.5160     0.4180    -0.7320 N.am  1 <1>  -0.6600 
  4 C       -1.3430     2.8730    -0.9450 C.2   1 <1>  -0.0860 
  5 C       -2.6450     0.0370     0.1700 C.3   1 <1>   0.2200 
  6 C       -0.7190    -0.7550    -1.1880 C.3   1 <1>   0.0600 
  7 C       -0.4760     3.2610     0.0730 C.2   1 <1>   0.2350 
  8 C       -1.9570     4.0350    -1.2430 C.2   1 <1>  -0.0400 
  9 C       -3.9560    -0.0790    -0.6100 C.3   1 <1>  -0.1600 
 10 C       -2.9410     1.0560     1.2720 C.3   1 <1>  -0.1600 
 11 N       -0.6630     4.5110     0.3380 N.2   1 <1>  -0.4100 
 12 C        0.5120     2.4350     0.7350 C.ar  1 <1>   0.0540 
 13 O       -1.5680     5.0140    -0.4660 O.3   1 <1>  -0.0190 
 14 C       -2.9980     4.3470    -2.3020 C.3   1 <1>  -0.0600 
 15 C       -4.6150     1.3030    -0.5260 C.3   1 <1>  -0.0800 
 16 C       -4.0880     1.9420     0.7630 C.3   1 <1>  -0.0800 
 17 C        1.4080     1.6500     0.0120 C.ar  1 <1>  -0.1500 
 18 C        0.6030     2.4060     2.1250 C.ar  1 <1>  -0.1500 
 19 C       -6.1490     1.2920    -0.4350 C.3   1 <1>  -0.1600 
 20 C       -5.2950     2.0510     1.7000 C.3   1 <1>  -0.1600 
 21 C        2.3400     0.8510     0.6480 C.ar  1 <1>  -0.1500 
 22 C        1.5330     1.6100     2.7690 C.ar  1 <1>  -0.1500 
 23 C       -6.4770     2.1900     0.7530 C.3   1 <1>   0.2000 
 24 C        2.4020     0.8270     2.0300 C.ar  1 <1>  -0.1500 
 25 O       -7.6310     1.7620     1.3700 O.3   1 <1>  -0.6800 
 26 H       -2.4110    -0.9110     0.6260 H     1 <1>   0.0800 
 27 H       -0.2080    -1.1950    -0.3490 H     1 <1>   0.0800 
 28 H        0.0140    -0.4490    -1.9150 H     1 <1>   0.0800 
 29 H       -1.3670    -1.4860    -1.6400 H     1 <1>   0.0800 
 30 H       -3.8030    -0.3970    -1.6260 H     1 <1>   0.0800 
 31 H       -4.5690    -0.8070    -0.1100 H     1 <1>   0.0800 
 32 H       -3.2600     0.5150     2.1440 H     1 <1>   0.0800 
 33 H       -2.0740     1.6240     1.5460 H     1 <1>   0.0800 
 34 H       -3.2090     3.4820    -2.9030 H     1 <1>   0.0800 
 35 H       -2.6340     5.1280    -2.9450 H     1 <1>   0.0800 
 36 H       -3.9070     4.6770    -1.8340 H     1 <1>   0.0800 
 37 H       -4.3040     1.8980    -1.3670 H     1 <1>   0.0800 
 38 H       -3.7290     2.9330     0.5450 H     1 <1>   0.0800 
 39 H        1.3750     1.6700    -1.0630 H     1 <1>   0.1500 
 40 H       -0.0660     3.0200     2.7030 H     1 <1>   0.1500 
 41 H       -6.5130     0.2950    -0.2610 H     1 <1>   0.0800 
 42 H       -6.5920     1.6780    -1.3360 H     1 <1>   0.0800 
 43 H       -5.2100     2.9010     2.3540 H     1 <1>   0.0800 
 44 H       -5.4020     1.1520     2.2800 H     1 <1>   0.0800 
 45 H        3.0210     0.2510     0.0700 H     1 <1>   0.1500 
 46 H        1.5830     1.6010     3.8440 H     1 <1>   0.1500 
 47 H       -6.6040     3.2140     0.4410 H     1 <1>   0.0800 
 48 H        3.1270     0.2070     2.5290 H     1 <1>   0.1500 
 49 H       -7.5270     0.8390     1.6640 H     1 <1>   0.4000 
@<TRIPOS>BOND
  1   1   2  2   
  2   2   3  am  
  3   2   4  1   
  4   3   5  1   
  5   3   6  1   
  6   4   7  1   
  7   4   8  2   
  8   5   9  1   
  9   5  10  1   
 10   5  26  1   
 11   6  27  1   
 12   6  28  1   
 13   6  29  1   
 14   7  11  2   
 15   7  12  1   
 16   8  13  1   
 17   8  14  1   
 18   9  15  1   
 19   9  30  1   
 20   9  31  1   
 21  10  16  1   
 22  10  32  1   
 23  10  33  1   
 24  11  13  1   
 25  12  17  ar  
 26  12  18  ar  
 27  14  34  1   
 28  14  35  1   
 29  14  36  1   
 30  15  16  1   
 31  15  19  1   
 32  15  37  1   
 33  16  20  1   
 34  16  38  1   
 35  17  21  ar  
 36  17  39  1   
 37  18  22  ar  
 38  18  40  1   
 39  19  23  1   
 40  19  41  1   
 41  19  42  1   
 42  20  23  1   
 43  20  43  1   
 44  20  44  1   
 45  21  24  ar  
 46  21  45  1   
 47  22  24  ar  
 48  22  46  1   
 49  23  25  1   
 50  23  47  1   
 51  24  48  1   
 52  25  49  1   
@<TRIPOS>SUBSTRUCTURE
  1 ****   4 GROUP 4 **** **** 0

# MOE 2024.06 (io_trps.svl 2023.06)
