@<TRIPOS>MOLECULE
NONAME
59 61 1 0 0 
SMALL
USER_CHARGES


@<TRIPOS>ATOM
  1 O       -0.2910     0.4950     1.2510 O.2   1 <1>  -0.5700 
  2 C       -0.2190     1.6900     1.1190 C.2   1 <1>   0.5690 
  3 N       -1.1840     2.4970     1.6120 N.am  1 <1>  -0.7300 
  4 C        0.9550     2.3080     0.3530 C.3   1 <1>   0.1810 
  5 C       -1.1550     3.9740     1.4970 C.3   1 <1>   0.3640 
  6 O        1.0980     3.6980     0.5670 O.3   1 <1>  -0.5600 
  7 C       -2.5480     4.4650     1.1080 C.ar  1 <1>  -0.1440 
  8 C       -0.1040     4.4460     0.4590 C.3   1 <1>   0.2610 
  9 C       -3.0980     5.5600     1.7610 C.ar  1 <1>  -0.1500 
 10 C       -3.2800     3.8440     0.1040 C.ar  1 <1>  -0.1500 
 11 C        0.1810     5.9540     0.5830 C.2   1 <1>   0.5690 
 12 C       -4.3540     6.0260     1.4170 C.ar  1 <1>  -0.1500 
 13 C       -4.5370     4.3100    -0.2410 C.ar  1 <1>  -0.1500 
 14 O       -0.0010     6.4950     1.6540 O.2   1 <1>  -0.5700 
 15 N        0.6340     6.6900    -0.4970 N.am  1 <1>  -0.6600 
 16 C       -5.0750     5.4020     0.4160 C.ar  1 <1>  -0.1500 
 17 C        0.7600     8.1700    -0.3550 C.3   1 <1>   0.2200 
 18 C        1.1320     6.0520    -1.7570 C.3   1 <1>   0.0600 
 19 C        0.3780     8.9270    -1.6270 C.3   1 <1>  -0.1600 
 20 C        2.1860     8.5310     0.0520 C.3   1 <1>  -0.1600 
 21 C        0.4830    10.4470    -1.4320 C.3   1 <1>   0.5030 
 22 C        2.3480    10.0360     0.2930 C.3   1 <1>   0.5030 
 23 N        1.7640    10.8240    -0.8080 N.4   1 <1>  -0.9060 
 24 C        0.4760    11.1350    -2.7960 C.3   1 <1>  -0.2400 
 25 C       -0.6840    11.0100    -0.6150 C.3   1 <1>  -0.2400 
 26 C        3.8340    10.3910     0.3060 C.3   1 <1>  -0.2400 
 27 C        1.7450    10.4770     1.6300 C.3   1 <1>  -0.2400 
 28 H       -1.9660     2.0840     2.1210 H     1 <1>   0.3700 
 29 H        0.8200     2.1400    -0.6990 H     1 <1>   0.0800 
 30 H        1.8690     1.8350     0.6640 H     1 <1>   0.0800 
 31 H       -0.8970     4.3700     2.4640 H     1 <1>   0.0800 
 32 H       -0.5060     4.2670    -0.5210 H     1 <1>   0.0800 
 33 H       -2.5480     6.0600     2.5410 H     1 <1>   0.1500 
 34 H       -2.8810     2.9900    -0.4160 H     1 <1>   0.1500 
 35 H       -4.7720     6.8750     1.9300 H     1 <1>   0.1500 
 36 H       -5.0990     3.8210    -1.0180 H     1 <1>   0.1500 
 37 H       -6.0530     5.7630     0.1490 H     1 <1>   0.1500 
 38 H        0.0870     8.4840     0.4240 H     1 <1>   0.0800 
 39 H        2.0210     6.5480    -2.1030 H     1 <1>   0.0800 
 40 H        0.3750     6.1110    -2.5200 H     1 <1>   0.0800 
 41 H        1.3840     5.0190    -1.5980 H     1 <1>   0.0800 
 42 H       -0.6290     8.6700    -1.9040 H     1 <1>   0.0800 
 43 H        1.0260     8.6370    -2.4340 H     1 <1>   0.0800 
 44 H        2.8680     8.2100    -0.7130 H     1 <1>   0.0800 
 45 H        2.4390     7.9990     0.9540 H     1 <1>   0.0800 
 46 H        1.6870    11.7920    -0.4910 H     1 <1>   0.4500 
 47 H        2.4590    10.8240    -1.5560 H     1 <1>   0.4500 
 48 H       -0.4360    10.9020    -3.3190 H     1 <1>   0.0800 
 49 H        1.2940    10.8010    -3.4100 H     1 <1>   0.0800 
 50 H        0.5270    12.2050    -2.6940 H     1 <1>   0.0800 
 51 H       -1.6010    10.8900    -1.1670 H     1 <1>   0.0800 
 52 H       -0.5560    12.0610    -0.4250 H     1 <1>   0.0800 
 53 H       -0.8240    10.4980     0.3150 H     1 <1>   0.0800 
 54 H        4.3320     9.8440     1.0890 H     1 <1>   0.0800 
 55 H        3.9840    11.4390     0.4960 H     1 <1>   0.0800 
 56 H        4.3100    10.1290    -0.6230 H     1 <1>   0.0800 
 57 H        2.3060    10.0390     2.4380 H     1 <1>   0.0800 
 58 H        0.7340    10.1460     1.7570 H     1 <1>   0.0800 
 59 H        1.7880    11.5450     1.7470 H     1 <1>   0.0800 
@<TRIPOS>BOND
  1   1   2  2   
  2   2   3  am  
  3   2   4  1   
  4   3   5  1   
  5   3  28  1   
  6   4   6  1   
  7   4  29  1   
  8   4  30  1   
  9   5   7  1   
 10   5   8  1   
 11   5  31  1   
 12   6   8  1   
 13   7   9  ar  
 14   7  10  ar  
 15   8  11  1   
 16   8  32  1   
 17   9  12  ar  
 18   9  33  1   
 19  10  13  ar  
 20  10  34  1   
 21  11  14  2   
 22  11  15  am  
 23  12  16  ar  
 24  12  35  1   
 25  13  16  ar  
 26  13  36  1   
 27  15  17  1   
 28  15  18  1   
 29  16  37  1   
 30  17  19  1   
 31  17  20  1   
 32  17  38  1   
 33  18  39  1   
 34  18  40  1   
 35  18  41  1   
 36  19  21  1   
 37  19  42  1   
 38  19  43  1   
 39  20  22  1   
 40  20  44  1   
 41  20  45  1   
 42  21  23  1   
 43  21  24  1   
 44  21  25  1   
 45  22  23  1   
 46  22  26  1   
 47  22  27  1   
 48  23  46  1   
 49  23  47  1   
 50  24  48  1   
 51  24  49  1   
 52  24  50  1   
 53  25  51  1   
 54  25  52  1   
 55  25  53  1   
 56  26  54  1   
 57  26  55  1   
 58  26  56  1   
 59  27  57  1   
 60  27  58  1   
 61  27  59  1   
@<TRIPOS>SUBSTRUCTURE
  1 ****  11 GROUP 4 **** **** 0

# MOE 2024.06 (io_trps.svl 2023.06)
