@<TRIPOS>MOLECULE
NONAME
39 41 1 0 0 
SMALL
USER_CHARGES


@<TRIPOS>ATOM
  1 O       -0.4950     0.3070    -0.2900 O.2   1 <1>  -0.5700 
  2 C       -1.4900     0.9600    -0.5690 C.2   1 <1>   0.7160 
  3 N       -2.6840     0.2640    -0.7120 N.am  1 <1>  -0.6600 
  4 C       -1.3700     2.4110    -0.7270 C.2   1 <1>   0.2030 
  5 C       -2.7090    -1.2000    -1.0140 C.3   1 <1>   0.1400 
  6 C       -4.0230     0.9080    -0.6230 C.3   1 <1>   0.1400 
  7 N       -2.1550     3.2110    -1.4400 N.2   1 <1>  -0.7070 
  8 C       -0.3500     3.1750    -0.1370 C.2   1 <1>  -0.1810 
  9 C       -3.5940    -1.9500    -0.0080 C.3   1 <1>   0.2000 
 10 C       -4.8970     0.1680     0.3960 C.3   1 <1>  -0.1600 
 11 N       -1.6450     4.4460    -1.3040 N.pl3 1 <1>   0.3000 
 12 C       -0.5520     4.4410    -0.5250 C.2   1 <1>  -0.3320 
 13 C        0.8050     2.7690     0.7670 C.3   1 <1>   0.3010 
 14 O       -3.6970    -3.2790    -0.3940 O.3   1 <1>  -0.6800 
 15 C       -5.0050    -1.3430     0.0940 C.3   1 <1>  -0.0800 
 16 C        0.3510     5.5770    -0.0930 C.3   1 <1>   0.0200 
 17 O        1.3570     3.9180     1.3700 O.3   1 <1>  -0.5600 
 18 C       -5.8350    -2.0880     1.1540 C.3   1 <1>   0.1200 
 19 C        1.6470     4.9780     0.4940 C.3   1 <1>   0.1200 
 20 O       -7.1120    -1.5530     1.2140 O.3   1 <1>  -0.6800 
 21 H       -3.0980    -1.3320    -2.0070 H     1 <1>   0.0800 
 22 H       -1.7150    -1.6130    -0.9810 H     1 <1>   0.0800 
 23 H       -3.9360     1.9320    -0.3080 H     1 <1>   0.0800 
 24 H       -4.4850     0.8930    -1.5950 H     1 <1>   0.0800 
 25 H       -3.1100    -1.9350     0.9550 H     1 <1>   0.0800 
 26 H       -4.4810     0.3170     1.3780 H     1 <1>   0.0800 
 27 H       -5.8740     0.6170     0.3820 H     1 <1>   0.0800 
 28 H       -2.0600     5.2700    -1.7570 H     1 <1>   0.2700 
 29 H        1.5740     2.2730     0.2010 H     1 <1>   0.0800 
 30 H        0.4650     2.1170     1.5510 H     1 <1>   0.0800 
 31 H       -4.1870    -3.3560    -1.2350 H     1 <1>   0.4000 
 32 H       -5.4900    -1.4600    -0.8600 H     1 <1>   0.0800 
 33 H       -0.1400     6.1710     0.6570 H     1 <1>   0.0800 
 34 H        0.5950     6.2090    -0.9270 H     1 <1>   0.0800 
 35 H       -5.3860    -2.0070     2.1300 H     1 <1>   0.0800 
 36 H       -5.9320    -3.1300     0.9010 H     1 <1>   0.0800 
 37 H        2.1890     5.7250     1.0460 H     1 <1>   0.0800 
 38 H        2.2770     4.5990    -0.2930 H     1 <1>   0.0800 
 39 H       -7.0860    -0.6390     1.5540 H     1 <1>   0.4000 
@<TRIPOS>BOND
  1   1   2  2   
  2   2   3  am  
  3   2   4  1   
  4   3   5  1   
  5   3   6  1   
  6   4   7  2   
  7   4   8  1   
  8   5   9  1   
  9   5  21  1   
 10   5  22  1   
 11   6  10  1   
 12   6  23  1   
 13   6  24  1   
 14   7  11  1   
 15   8  12  2   
 16   8  13  1   
 17   9  14  1   
 18   9  15  1   
 19   9  25  1   
 20  10  15  1   
 21  10  26  1   
 22  10  27  1   
 23  11  12  1   
 24  11  28  1   
 25  12  16  1   
 26  13  17  1   
 27  13  29  1   
 28  13  30  1   
 29  14  31  1   
 30  15  18  1   
 31  15  32  1   
 32  16  19  1   
 33  16  33  1   
 34  16  34  1   
 35  17  19  1   
 36  18  20  1   
 37  18  35  1   
 38  18  36  1   
 39  19  37  1   
 40  19  38  1   
 41  20  39  1   
@<TRIPOS>SUBSTRUCTURE
  1 ****   2 GROUP 4 **** **** 0

# MOE 2024.06 (io_trps.svl 2023.06)
