@<TRIPOS>MOLECULE
NONAME
50 52 1 0 0 
SMALL
USER_CHARGES


@<TRIPOS>ATOM
  1 S       -0.3470     0.3780     0.6500 S.3   1 <1>  -0.0800 
  2 C       -0.6520    -1.3360     0.4120 C.2   1 <1>  -0.1400 
  3 C        1.3870     0.1360     0.5380 C.2   1 <1>  -0.1100 
  4 C        0.5120    -2.0010     0.2680 C.2   1 <1>  -0.1500 
  5 C       -2.1080    -1.7560     0.4140 C.3   1 <1>   0.3200 
  6 C        1.6710    -1.1630     0.3370 C.2   1 <1>  -0.1500 
  7 N       -2.2220    -3.1350    -0.1150 N.am  1 <1>  -0.7300 
  8 C       -3.0260    -4.0910     0.4200 C.2   1 <1>   0.5690 
  9 O       -3.7610    -3.8520     1.3490 O.2   1 <1>  -0.5700 
 10 C       -3.0350    -5.5230    -0.1510 C.3   1 <1>   0.4040 
 11 N       -4.2280    -6.3390     0.2900 N.4   1 <1>  -0.9590 
 12 C       -4.1390    -7.7990    -0.0130 C.3   1 <1>   0.3430 
 13 C       -5.5240    -5.8500    -0.2400 C.3   1 <1>   0.3430 
 14 C       -5.5240    -8.2360    -0.5030 C.3   1 <1>   0.0630 
 15 C       -6.4320    -7.0600    -0.1280 C.3   1 <1>  -0.1600 
 16 C       -5.8980    -9.6230     0.0350 C.ar  1 <1>  -0.1430 
 17 C       -5.0360   -10.6960    -0.2030 C.ar  1 <1>   0.0830 
 18 C       -7.0730    -9.8490     0.7420 C.ar  1 <1>  -0.1500 
 19 O       -3.9300   -10.4460    -0.9650 O.3   1 <1>  -0.3620 
 20 C       -5.3150   -11.9650     0.3300 C.ar  1 <1>   0.0830 
 21 C       -7.3680   -11.1040     1.2380 C.ar  1 <1>  -0.1500 
 22 C       -3.5990   -11.3350    -2.0150 C.3   1 <1>   0.0400 
 23 O       -4.4130   -12.9750     0.1580 O.3   1 <1>  -0.3630 
 24 C       -6.4940   -12.1560     1.0420 C.ar  1 <1>  -0.1500 
 25 C       -4.5790   -14.2400     0.7620 C.3   1 <1>   0.0400 
 26 H        2.0160     1.0030     0.6360 H     1 <1>   0.1500 
 27 H        0.6240    -3.0600     0.1190 H     1 <1>   0.1500 
 28 H       -2.6740    -1.0900    -0.2150 H     1 <1>   0.0800 
 29 H       -2.5010    -1.6960     1.4150 H     1 <1>   0.0800 
 30 H        2.6600    -1.5760     0.2360 H     1 <1>   0.1500 
 31 H       -1.5900    -3.3060    -0.9010 H     1 <1>   0.3700 
 32 H       -2.1340    -6.0090     0.1780 H     1 <1>   0.0800 
 33 H       -3.0120    -5.4680    -1.2250 H     1 <1>   0.0800 
 34 H       -4.2880    -6.2200     1.3150 H     1 <1>   0.4500 
 35 H       -3.8760    -8.3500     0.8760 H     1 <1>   0.0800 
 36 H       -3.4050    -8.0030    -0.7760 H     1 <1>   0.0800 
 37 H       -5.4200    -5.5690    -1.2760 H     1 <1>   0.0800 
 38 H       -5.8940    -5.0100     0.3280 H     1 <1>   0.0800 
 39 H       -5.4820    -8.3030    -1.5770 H     1 <1>   0.0800 
 40 H       -7.2880    -6.9840    -0.7760 H     1 <1>   0.0800 
 41 H       -6.7630    -7.1290     0.8930 H     1 <1>   0.0800 
 42 H       -7.7880    -9.0670     0.9220 H     1 <1>   0.1500 
 43 H       -8.2830   -11.2650     1.7830 H     1 <1>   0.1500 
 44 H       -3.0640   -10.7870    -2.7690 H     1 <1>   0.0800 
 45 H       -4.5010   -11.7490    -2.4300 H     1 <1>   0.0800 
 46 H       -2.9710   -12.1170    -1.6260 H     1 <1>   0.0800 
 47 H       -6.7560   -13.1120     1.4530 H     1 <1>   0.1500 
 48 H       -3.7220   -14.8410     0.5160 H     1 <1>   0.0800 
 49 H       -5.4700   -14.6990     0.3730 H     1 <1>   0.0800 
 50 H       -4.6400   -14.1130     1.8280 H     1 <1>   0.0800 
@<TRIPOS>BOND
  1   1   2  1   
  2   1   3  1   
  3   2   4  2   
  4   2   5  1   
  5   3   6  2   
  6   3  26  1   
  7   4   6  1   
  8   4  27  1   
  9   5   7  1   
 10   5  28  1   
 11   5  29  1   
 12   6  30  1   
 13   7   8  am  
 14   7  31  1   
 15   8   9  2   
 16   8  10  1   
 17  10  11  1   
 18  10  32  1   
 19  10  33  1   
 20  11  12  1   
 21  11  13  1   
 22  11  34  1   
 23  12  14  1   
 24  12  35  1   
 25  12  36  1   
 26  13  15  1   
 27  13  37  1   
 28  13  38  1   
 29  14  15  1   
 30  14  16  1   
 31  14  39  1   
 32  15  40  1   
 33  15  41  1   
 34  16  17  ar  
 35  16  18  ar  
 36  17  19  1   
 37  17  20  ar  
 38  18  21  ar  
 39  18  42  1   
 40  19  22  1   
 41  20  23  1   
 42  20  24  ar  
 43  21  24  ar  
 44  21  43  1   
 45  22  44  1   
 46  22  45  1   
 47  22  46  1   
 48  23  25  1   
 49  24  47  1   
 50  25  48  1   
 51  25  49  1   
 52  25  50  1   
@<TRIPOS>SUBSTRUCTURE
  1 ****  11 GROUP 4 **** **** 0

# MOE 2024.06 (io_trps.svl 2023.06)
