@<TRIPOS>MOLECULE
NONAME
45 47 1 0 0 
SMALL
USER_CHARGES


@<TRIPOS>ATOM
  1 O       -0.5370    -0.7020    -0.3760 O.co2 1 <1>  -0.9000 
  2 C        0.0560    -1.5520    -1.0660 C.2   1 <1>   0.9790 
  3 O       -0.3460    -1.7490    -2.2280 O.co2 1 <1>  -0.9000 
  4 C        1.1890    -2.2590    -0.5350 C.ar  1 <1>  -0.1790 
  5 C        1.1140    -3.5670    -0.0260 C.ar  1 <1>   0.4100 
  6 C        2.4190    -1.6210    -0.5290 C.ar  1 <1>  -0.1500 
  7 N        2.1840    -4.2160     0.4360 N.ar  1 <1>  -0.6200 
  8 N       -0.0580    -4.3100     0.0670 N.pl3 1 <1>  -0.8380 
  9 C        3.5190    -2.2910    -0.0450 C.ar  1 <1>  -0.1430 
 10 C        3.3410    -3.5860     0.4240 C.ar  1 <1>   0.1670 
 11 C       -1.4520    -3.8000    -0.0410 C.3   1 <1>   0.2090 
 12 C       -0.0680    -5.7940     0.0590 C.3   1 <1>   0.2090 
 13 C        4.8710    -1.5910    -0.0490 C.3   1 <1>  -0.0960 
 14 C        4.5070    -4.3890     0.9690 C.3   1 <1>  -0.0970 
 15 C       -2.2950    -4.9510     0.4990 C.3   1 <1>   0.2000 
 16 C       -1.5490    -6.1920    -0.0010 C.3   1 <1>  -0.0800 
 17 O       -2.2200    -4.9090     1.8860 O.3   1 <1>  -0.6800 
 18 C       -1.8740    -7.4930     0.7540 C.3   1 <1>   0.0210 
 19 C       -1.1530    -8.6800     0.1460 C.2   1 <1>   0.1080 
 20 N       -1.6300    -9.3640    -0.8480 N.2   1 <1>  -0.7070 
 21 C        0.0790    -9.1640     0.5730 C.2   1 <1>  -0.1500 
 22 N       -0.7040   -10.3110    -1.0850 N.pl3 1 <1>   0.3000 
 23 C        0.3420   -10.2100    -0.2380 C.2   1 <1>  -0.3320 
 24 C        1.5470   -11.1320    -0.2550 C.3   1 <1>  -0.0600 
 25 H        2.4850    -0.6150    -0.9060 H     1 <1>   0.1500 
 26 H       -1.5980    -2.8960     0.5250 H     1 <1>   0.0800 
 27 H       -1.6870    -3.6220    -1.0770 H     1 <1>   0.0800 
 28 H        0.4770    -6.1710    -0.7890 H     1 <1>   0.0800 
 29 H        0.3910    -6.1480     0.9660 H     1 <1>   0.0800 
 30 H        4.8150    -0.6610    -0.5860 H     1 <1>   0.0800 
 31 H        5.6080    -2.2100    -0.5270 H     1 <1>   0.0800 
 32 H        5.1790    -1.3840     0.9590 H     1 <1>   0.0800 
 33 H        5.1190    -3.7820     1.6080 H     1 <1>   0.0800 
 34 H        5.0960    -4.7630     0.1520 H     1 <1>   0.0800 
 35 H        4.1450    -5.2220     1.5430 H     1 <1>   0.0800 
 36 H       -3.3260    -4.9080     0.1970 H     1 <1>   0.0800 
 37 H       -1.7990    -6.3320    -1.0380 H     1 <1>   0.0800 
 38 H       -1.3060    -4.6100     2.0940 H     1 <1>   0.4000 
 39 H       -2.9330    -7.6740     0.7120 H     1 <1>   0.0800 
 40 H       -1.5950    -7.4080     1.7880 H     1 <1>   0.0800 
 41 H        0.6710    -8.7640     1.3770 H     1 <1>   0.1500 
 42 H       -0.8150   -11.0080    -1.8310 H     1 <1>   0.2700 
 43 H        2.2420   -10.8450     0.5140 H     1 <1>   0.0800 
 44 H        2.0470   -11.0740    -1.2060 H     1 <1>   0.0800 
 45 H        1.2420   -12.1480    -0.0790 H     1 <1>   0.0800 
@<TRIPOS>BOND
  1   1   2  ar  
  2   2   3  ar  
  3   2   4  1   
  4   4   5  ar  
  5   4   6  ar  
  6   5   7  ar  
  7   5   8  1   
  8   6   9  ar  
  9   6  25  1   
 10   7  10  ar  
 11   8  11  1   
 12   8  12  1   
 13   9  10  ar  
 14   9  13  1   
 15  10  14  1   
 16  11  15  1   
 17  11  26  1   
 18  11  27  1   
 19  12  16  1   
 20  12  28  1   
 21  12  29  1   
 22  13  30  1   
 23  13  31  1   
 24  13  32  1   
 25  14  33  1   
 26  14  34  1   
 27  14  35  1   
 28  15  16  1   
 29  15  17  1   
 30  15  36  1   
 31  16  18  1   
 32  16  37  1   
 33  17  38  1   
 34  18  19  1   
 35  18  39  1   
 36  18  40  1   
 37  19  20  2   
 38  19  21  1   
 39  20  22  1   
 40  21  23  2   
 41  21  41  1   
 42  22  23  1   
 43  22  42  1   
 44  23  24  1   
 45  24  43  1   
 46  24  44  1   
 47  24  45  1   
@<TRIPOS>SUBSTRUCTURE
  1 ****  12 GROUP 4 **** **** 0

# MOE 2024.06 (io_trps.svl 2023.06)
