@<TRIPOS>MOLECULE
NONAME
51 53 1 0 0 
SMALL
USER_CHARGES


@<TRIPOS>ATOM
  1 O       -2.6190     0.5150    -1.7140 O.2   1 <1>  -0.5700 
  2 C       -2.4590     0.6560    -0.5260 C.2   1 <1>   0.5690 
  3 N       -2.5680    -0.3960     0.3270 N.am  1 <1>  -0.7300 
  4 C       -2.1300     2.0330     0.0540 C.3   1 <1>  -0.0190 
  5 C       -2.7950    -1.7970    -0.1060 C.3   1 <1>   0.1400 
  6 C       -2.5190     3.1960    -0.8850 C.3   1 <1>  -0.1600 
  7 C       -0.6340     2.1250     0.4410 C.3   1 <1>  -0.1600 
  8 C       -4.2800    -2.0360    -0.3790 C.3   1 <1>   0.0200 
  9 C       -2.3150     4.5770    -0.2260 C.3   1 <1>   0.2000 
 10 C       -0.1110     3.5700     0.5730 C.3   1 <1>  -0.1600 
 11 C       -4.5170    -3.4870    -0.7390 C.2   1 <1>   0.2980 
 12 O       -1.9270     5.4930    -1.2210 O.3   1 <1>  -0.5600 
 13 C       -1.2380     4.5560     0.8900 C.3   1 <1>   0.2000 
 14 O       -4.0910    -3.9290    -1.8920 O.3   1 <1>  -0.0190 
 15 N       -5.0960    -4.3420    -0.0050 N.2   1 <1>  -0.5650 
 16 C       -2.9550     5.9500    -2.0440 C.3   1 <1>   0.0400 
 17 O       -0.6850     5.8130     1.0130 O.3   1 <1>  -0.6800 
 18 N       -4.4290    -5.1800    -1.8930 N.2   1 <1>  -0.4100 
 19 C       -5.0270    -5.4300    -0.7820 C.2   1 <1>   0.4620 
 20 C       -5.5700    -6.7180    -0.3810 C.ar  1 <1>   0.0540 
 21 C       -6.2180    -6.8960     0.8420 C.ar  1 <1>  -0.1500 
 22 C       -5.4630    -7.8380    -1.2090 C.ar  1 <1>  -0.1500 
 23 C       -6.7330    -8.1240     1.2190 C.ar  1 <1>  -0.1500 
 24 C       -5.9760    -9.0670    -0.8370 C.ar  1 <1>  -0.1500 
 25 C       -6.6160    -9.2180     0.3810 C.ar  1 <1>  -0.1440 
 26 C       -7.1780   -10.5670     0.7930 C.3   1 <1>  -0.0970 
 27 H       -2.4180    -0.2540     1.3270 H     1 <1>   0.3700 
 28 H       -2.7170     2.1400     0.9480 H     1 <1>   0.0800 
 29 H       -2.2300    -1.9880    -1.0030 H     1 <1>   0.0800 
 30 H       -2.4490    -2.4690     0.6610 H     1 <1>   0.0800 
 31 H       -3.5490     3.0900    -1.1770 H     1 <1>   0.0800 
 32 H       -1.9120     3.1280    -1.7720 H     1 <1>   0.0800 
 33 H       -0.4870     1.6060     1.3730 H     1 <1>   0.0800 
 34 H       -0.0400     1.6210    -0.3030 H     1 <1>   0.0800 
 35 H       -4.6080    -1.4150    -1.1930 H     1 <1>   0.0800 
 36 H       -4.8540    -1.7960     0.4970 H     1 <1>   0.0800 
 37 H       -3.2360     4.9190     0.2140 H     1 <1>   0.0800 
 38 H        0.3410     3.8620    -0.3600 H     1 <1>   0.0800 
 39 H        0.6430     3.6150     1.3400 H     1 <1>   0.0800 
 40 H       -1.6830     4.2990     1.8360 H     1 <1>   0.0800 
 41 H       -2.5370     6.6600    -2.7360 H     1 <1>   0.0800 
 42 H       -3.7060     6.4320    -1.4420 H     1 <1>   0.0800 
 43 H       -3.3770     5.1240    -2.5890 H     1 <1>   0.0800 
 44 H       -0.7190     6.2070     0.1110 H     1 <1>   0.4000 
 45 H       -6.3230    -6.0600     1.5100 H     1 <1>   0.1500 
 46 H       -4.9700    -7.7440    -2.1610 H     1 <1>   0.1500 
 47 H       -7.2250    -8.2230     2.1710 H     1 <1>   0.1500 
 48 H       -5.8730    -9.9080    -1.5010 H     1 <1>   0.1500 
 49 H       -8.0370   -10.4380     1.4260 H     1 <1>   0.0800 
 50 H       -6.4310   -11.1230     1.3300 H     1 <1>   0.0800 
 51 H       -7.4760   -11.1310    -0.0720 H     1 <1>   0.0800 
@<TRIPOS>BOND
  1   1   2  2   
  2   2   3  am  
  3   2   4  1   
  4   3   5  1   
  5   3  27  1   
  6   4   6  1   
  7   4   7  1   
  8   4  28  1   
  9   5   8  1   
 10   5  29  1   
 11   5  30  1   
 12   6   9  1   
 13   6  31  1   
 14   6  32  1   
 15   7  10  1   
 16   7  33  1   
 17   7  34  1   
 18   8  11  1   
 19   8  35  1   
 20   8  36  1   
 21   9  12  1   
 22   9  13  1   
 23   9  37  1   
 24  10  13  1   
 25  10  38  1   
 26  10  39  1   
 27  11  14  1   
 28  11  15  2   
 29  12  16  1   
 30  13  17  1   
 31  13  40  1   
 32  14  18  1   
 33  15  19  1   
 34  16  41  1   
 35  16  42  1   
 36  16  43  1   
 37  17  44  1   
 38  18  19  2   
 39  19  20  1   
 40  20  21  ar  
 41  20  22  ar  
 42  21  23  ar  
 43  21  45  1   
 44  22  24  ar  
 45  22  46  1   
 46  23  25  ar  
 47  23  47  1   
 48  24  25  ar  
 49  24  48  1   
 50  25  26  1   
 51  26  49  1   
 52  26  50  1   
 53  26  51  1   
@<TRIPOS>SUBSTRUCTURE
  1 ****   8 GROUP 4 **** **** 0

# MOE 2024.06 (io_trps.svl 2023.06)
