@<TRIPOS>MOLECULE
NONAME
46 48 1 0 0 
SMALL
USER_CHARGES


@<TRIPOS>ATOM
  1 CL       1.7530    -1.4710     0.8620 Cl    1 <1>  -0.1770 
  2 C        2.7020    -0.0290     0.5840 C.ar  1 <1>   0.1770 
  3 C        3.9540     0.0800     1.1600 C.ar  1 <1>  -0.1500 
  4 C        2.1850     0.9810    -0.2070 C.ar  1 <1>  -0.1500 
  5 C        4.7020     1.2230     0.9380 C.ar  1 <1>  -0.1500 
  6 C        2.9410     2.1200    -0.4230 C.ar  1 <1>  -0.1500 
  7 C        4.2020     2.2530     0.1440 C.ar  1 <1>   0.1000 
  8 N        4.9340     3.4090    -0.0920 N.pl3 1 <1>  -0.8380 
  9 C        6.1850     3.2380    -0.8960 C.3   1 <1>   0.2090 
 10 C        5.1900     4.2770     1.0990 C.3   1 <1>   0.2090 
 11 C        6.7910     4.5930    -1.3180 C.3   1 <1>   0.2090 
 12 C        5.7570     5.6510     0.6910 C.3   1 <1>   0.2090 
 13 N        6.9800     5.5280    -0.1620 N.pl3 1 <1>  -0.8380 
 14 C        8.1990     5.5450     0.4740 C.ar  1 <1>   0.4100 
 15 N        8.6470     4.3900     0.9230 N.ar  1 <1>  -0.6200 
 16 C        8.9160     6.7230     0.6470 C.ar  1 <1>  -0.1430 
 17 C        9.8050     4.4240     1.5460 C.ar  1 <1>   0.4770 
 18 C       10.1100     6.6170     1.3170 C.ar  1 <1>   0.1600 
 19 C        8.3600     8.0400     0.0960 C.3   1 <1>  -0.0170 
 20 N       10.5720     5.4710     1.7770 N.ar  1 <1>  -0.6200 
 21 C       10.3260     3.1060     2.0640 C.3   1 <1>  -0.0970 
 22 C        9.2870     9.2570     0.2430 C.3   1 <1>  -0.1600 
 23 C        8.6570    10.5140    -0.3670 C.3   1 <1>  -0.2400 
 24 H        4.3330    -0.7180     1.7710 H     1 <1>   0.1500 
 25 H        1.2090     0.8740    -0.6440 H     1 <1>   0.1500 
 26 H        5.6770     1.3260     1.3760 H     1 <1>   0.1500 
 27 H        2.5650     2.9200    -1.0340 H     1 <1>   0.1500 
 28 H        5.9640     2.6590    -1.7760 H     1 <1>   0.0800 
 29 H        6.9130     2.6970    -0.3170 H     1 <1>   0.0800 
 30 H        5.8940     3.7930     1.7530 H     1 <1>   0.0800 
 31 H        4.2710     4.4170     1.6400 H     1 <1>   0.0800 
 32 H        6.1400     5.0550    -2.0370 H     1 <1>   0.0800 
 33 H        7.7400     4.4200    -1.7940 H     1 <1>   0.0800 
 34 H        5.9950     6.2100     1.5790 H     1 <1>   0.0800 
 35 H        5.0030     6.1930     0.1480 H     1 <1>   0.0800 
 36 H       10.7240     7.4820     1.4930 H     1 <1>   0.1500 
 37 H        7.4300     8.2490     0.5930 H     1 <1>   0.0800 
 38 H        8.1400     7.8980    -0.9480 H     1 <1>   0.0800 
 39 H        9.5810     2.3390     1.9630 H     1 <1>   0.0800 
 40 H       10.5890     3.2060     3.1000 H     1 <1>   0.0800 
 41 H       11.1980     2.8260     1.5040 H     1 <1>   0.0800 
 42 H       10.2220     9.0590    -0.2540 H     1 <1>   0.0800 
 43 H        9.4840     9.4390     1.2850 H     1 <1>   0.0800 
 44 H        8.4670    10.3700    -1.4160 H     1 <1>   0.0800 
 45 H        9.3230    11.3510    -0.2530 H     1 <1>   0.0800 
 46 H        7.7280    10.7470     0.1240 H     1 <1>   0.0800 
@<TRIPOS>BOND
  1   1   2  1   
  2   2   3  ar  
  3   2   4  ar  
  4   3   5  ar  
  5   3  24  1   
  6   4   6  ar  
  7   4  25  1   
  8   5   7  ar  
  9   5  26  1   
 10   6   7  ar  
 11   6  27  1   
 12   7   8  1   
 13   8   9  1   
 14   8  10  1   
 15   9  11  1   
 16   9  28  1   
 17   9  29  1   
 18  10  12  1   
 19  10  30  1   
 20  10  31  1   
 21  11  13  1   
 22  11  32  1   
 23  11  33  1   
 24  12  13  1   
 25  12  34  1   
 26  12  35  1   
 27  13  14  1   
 28  14  15  ar  
 29  14  16  ar  
 30  15  17  ar  
 31  16  18  ar  
 32  16  19  1   
 33  17  20  ar  
 34  17  21  1   
 35  18  20  ar  
 36  18  36  1   
 37  19  22  1   
 38  19  37  1   
 39  19  38  1   
 40  21  39  1   
 41  21  40  1   
 42  21  41  1   
 43  22  23  1   
 44  22  42  1   
 45  22  43  1   
 46  23  44  1   
 47  23  45  1   
 48  23  46  1   
@<TRIPOS>SUBSTRUCTURE
  1 ****  10 GROUP 4 **** **** 0

# MOE 2024.06 (io_trps.svl 2023.06)
