@<TRIPOS>MOLECULE
NONAME
55 58 1 0 0 
SMALL
USER_CHARGES


@<TRIPOS>ATOM
  1 S       -1.3050     2.3560     1.3390 S.3   1 <1>  -0.0800 
  2 C       -1.9350     2.5470    -0.2920 C.2   1 <1>  -0.1400 
  3 C        0.3470     2.3610     0.7490 C.2   1 <1>  -0.1100 
  4 C       -0.9250     2.6070    -1.1800 C.2   1 <1>  -0.1500 
  5 C       -3.4400     2.6230    -0.4610 C.3   1 <1>   0.0200 
  6 C        0.3740     2.5000    -0.5890 C.2   1 <1>  -0.1500 
  7 C       -4.1010     1.2620    -0.2050 C.3   1 <1>  -0.1600 
  8 C       -5.6320     1.3330    -0.3660 C.3   1 <1>  -0.0990 
  9 C       -6.3600     0.0100    -0.1450 C.2   1 <1>   0.5690 
 10 O       -5.7030    -0.9770     0.0880 O.2   1 <1>  -0.5700 
 11 N       -7.7310    -0.0410    -0.2140 N.am  1 <1>  -0.6600 
 12 C       -8.6330     1.1290    -0.4700 C.3   1 <1>   0.1400 
 13 C       -8.4670    -1.3260    -0.0350 C.3   1 <1>   0.1400 
 14 C       -9.6390     1.3110     0.6820 C.3   1 <1>   0.1430 
 15 C       -9.4870    -1.1960     1.1040 C.3   1 <1>  -0.1600 
 16 C      -10.5400     2.4830     0.3430 C.ar  1 <1>   0.1670 
 17 C      -10.4300     0.0020     0.8930 C.3   1 <1>  -0.1600 
 18 C       -8.9470     1.7860     1.9900 C.3   1 <1>  -0.1600 
 19 N      -11.4670     2.4800    -0.5810 N.ar  1 <1>  -0.6200 
 20 C      -10.2560     3.5740     1.1070 C.ar  1 <1>  -0.1430 
 21 C       -9.1270     3.3120     2.0710 C.3   1 <1>  -0.0170 
 22 C      -12.1390     3.6260    -0.7190 C.ar  1 <1>   0.7200 
 23 C      -10.9970     4.7090     0.8950 C.ar  1 <1>   0.1600 
 24 N      -11.9400     4.7460    -0.0160 N.ar  1 <1>  -0.6200 
 25 N      -13.1280     3.6570    -1.6820 N.pl3 1 <1>  -0.8380 
 26 C      -13.6810     2.4160    -2.2910 C.3   1 <1>   0.1290 
 27 C      -13.7510     4.9320    -2.1350 C.3   1 <1>   0.1290 
 28 H        1.1320     2.2570     1.4770 H     1 <1>   0.1500 
 29 H       -1.0350     2.7230    -2.2440 H     1 <1>   0.1500 
 30 H       -3.6590     2.9440    -1.4640 H     1 <1>   0.0800 
 31 H       -3.8300     3.3590     0.2190 H     1 <1>   0.0800 
 32 H        1.2610     2.5330    -1.1960 H     1 <1>   0.1500 
 33 H       -3.8650     0.9280     0.7910 H     1 <1>   0.0800 
 34 H       -3.6990     0.5390    -0.8950 H     1 <1>   0.0800 
 35 H       -5.8620     1.6740    -1.3580 H     1 <1>   0.0800 
 36 H       -6.0150     2.0470     0.3390 H     1 <1>   0.0800 
 37 H       -9.1770     0.9490    -1.3820 H     1 <1>   0.0800 
 38 H       -8.0770     2.0370    -0.6030 H     1 <1>   0.0800 
 39 H       -7.7860    -2.1310     0.1850 H     1 <1>   0.0800 
 40 H       -8.9750    -1.5660    -0.9530 H     1 <1>   0.0800 
 41 H       -8.9550    -1.0920     2.0330 H     1 <1>   0.0800 
 42 H      -10.0640    -2.1020     1.1620 H     1 <1>   0.0800 
 43 H      -11.0330    -0.1840     0.0200 H     1 <1>   0.0800 
 44 H      -11.0990     0.1020     1.7290 H     1 <1>   0.0800 
 45 H       -7.9100     1.5040     2.0360 H     1 <1>   0.0800 
 46 H       -9.4460     1.3500     2.8370 H     1 <1>   0.0800 
 47 H       -8.2390     3.8200     1.7360 H     1 <1>   0.0800 
 48 H       -9.3760     3.6280     3.0690 H     1 <1>   0.0800 
 49 H      -10.8130     5.5970     1.4750 H     1 <1>   0.1500 
 50 H      -13.5840     1.5860    -1.6130 H     1 <1>   0.0800 
 51 H      -13.1470     2.1920    -3.1970 H     1 <1>   0.0800 
 52 H      -14.7250     2.5470    -2.5150 H     1 <1>   0.0800 
 53 H      -13.0490     5.7440    -2.0540 H     1 <1>   0.0800 
 54 H      -14.6090     5.1500    -1.5230 H     1 <1>   0.0800 
 55 H      -14.0560     4.8510    -3.1630 H     1 <1>   0.0800 
@<TRIPOS>BOND
  1   1   2  1   
  2   1   3  1   
  3   2   4  2   
  4   2   5  1   
  5   3   6  2   
  6   3  28  1   
  7   4   6  1   
  8   4  29  1   
  9   5   7  1   
 10   5  30  1   
 11   5  31  1   
 12   6  32  1   
 13   7   8  1   
 14   7  33  1   
 15   7  34  1   
 16   8   9  1   
 17   8  35  1   
 18   8  36  1   
 19   9  10  2   
 20   9  11  am  
 21  11  12  1   
 22  11  13  1   
 23  12  14  1   
 24  12  37  1   
 25  12  38  1   
 26  13  15  1   
 27  13  39  1   
 28  13  40  1   
 29  14  16  1   
 30  14  17  1   
 31  14  18  1   
 32  15  17  1   
 33  15  41  1   
 34  15  42  1   
 35  16  19  ar  
 36  16  20  ar  
 37  17  43  1   
 38  17  44  1   
 39  18  21  1   
 40  18  45  1   
 41  18  46  1   
 42  19  22  ar  
 43  20  21  1   
 44  20  23  ar  
 45  21  47  1   
 46  21  48  1   
 47  22  24  ar  
 48  22  25  1   
 49  23  24  ar  
 50  23  49  1   
 51  25  26  1   
 52  25  27  1   
 53  26  50  1   
 54  26  51  1   
 55  26  52  1   
 56  27  53  1   
 57  27  54  1   
 58  27  55  1   
@<TRIPOS>SUBSTRUCTURE
  1 ****  12 GROUP 4 **** **** 0

# MOE 2024.06 (io_trps.svl 2023.06)
