@<TRIPOS>MOLECULE
NONAME
49 51 1 0 0 
SMALL
USER_CHARGES


@<TRIPOS>ATOM
  1 F        3.2260     0.2670     1.0840 F     1 <1>  -0.1900 
  2 C        3.3540     1.5420     1.3280 C.ar  1 <1>   0.1900 
  3 C        2.7300     2.4910     0.5230 C.ar  1 <1>  -0.1440 
  4 C        4.1400     1.8730     2.4130 C.ar  1 <1>  -0.1500 
  5 C        2.9440     3.8420     0.8440 C.ar  1 <1>  -0.1440 
  6 C        1.8360     2.0810    -0.6620 C.3   1 <1>   1.1640 
  7 C        4.3200     3.2040     2.7280 C.ar  1 <1>  -0.1500 
  8 C        3.7220     4.1770     1.9480 C.ar  1 <1>  -0.1500 
  9 C        2.3490     4.9970     0.0350 C.3   1 <1>   0.4860 
 10 F        1.6450     0.7900    -0.8730 F     1 <1>  -0.3400 
 11 F        2.3270     2.5700    -1.7950 F     1 <1>  -0.3400 
 12 F        0.6290     2.6180    -0.5430 F     1 <1>  -0.3400 
 13 N        3.4310     5.7480    -0.6680 N.4   1 <1>  -0.9590 
 14 C        2.8970     6.9590    -1.3690 C.3   1 <1>   0.3430 
 15 C        4.2320     4.9000    -1.5970 C.3   1 <1>   0.3430 
 16 C        3.8710     8.1560    -1.2840 C.3   1 <1>   0.2090 
 17 C        5.6820     5.3790    -1.6510 C.3   1 <1>  -0.1600 
 18 N        5.3040     7.7570    -1.0720 N.pl3 1 <1>  -0.8380 
 19 C        5.8650     6.8290    -2.0990 C.3   1 <1>   0.2090 
 20 C        6.1360     8.6180    -0.4260 C.ar  1 <1>   0.1000 
 21 C        6.3160     8.6100     0.9700 C.ar  1 <1>  -0.1430 
 22 C        6.8590     9.5700    -1.1580 C.ar  1 <1>  -0.1500 
 23 C        7.1740     9.5130     1.5550 C.ar  1 <1>   0.2110 
 24 C        5.5790     7.5950     1.8350 C.3   1 <1>  -0.0970 
 25 C        7.7040    10.4520    -0.5380 C.ar  1 <1>   0.2110 
 26 N        7.8540    10.4180     0.8080 N.ar  1 <1>  -0.1790 
 27 H        4.5980     1.0980     3.0040 H     1 <1>   0.1500 
 28 H        4.9210     3.4760     3.5810 H     1 <1>   0.1500 
 29 H        3.8690     5.2060     2.2260 H     1 <1>   0.1500 
 30 H        1.8280     5.6580     0.7090 H     1 <1>   0.0800 
 31 H        1.6350     4.6380    -0.6860 H     1 <1>   0.0800 
 32 H        4.1150     6.1080     0.0140 H     1 <1>   0.4500 
 33 H        1.9560     7.2600    -0.9370 H     1 <1>   0.0800 
 34 H        2.7130     6.7270    -2.4050 H     1 <1>   0.0800 
 35 H        3.7950     4.9100    -2.5830 H     1 <1>   0.0800 
 36 H        4.2400     3.8800    -1.2510 H     1 <1>   0.0800 
 37 H        3.5630     8.7900    -0.4690 H     1 <1>   0.0800 
 38 H        3.7890     8.7420    -2.1840 H     1 <1>   0.0800 
 39 H        6.2040     4.7500    -2.3500 H     1 <1>   0.0800 
 40 H        6.1530     5.2350    -0.6960 H     1 <1>   0.0800 
 41 H        5.3950     6.9950    -3.0550 H     1 <1>   0.0800 
 42 H        6.9190     7.0190    -2.2170 H     1 <1>   0.0800 
 43 H        6.7360     9.6000    -2.2260 H     1 <1>   0.1500 
 44 H        7.3270     9.5210     2.6230 H     1 <1>   0.1500 
 45 H        5.8390     6.5990     1.5230 H     1 <1>   0.0800 
 46 H        4.5170     7.7320     1.7390 H     1 <1>   0.0800 
 47 H        5.8390     7.7000     2.8740 H     1 <1>   0.0800 
 48 H        8.2590    11.1840    -1.1060 H     1 <1>   0.1500 
 49 H        8.4900    11.0820     1.2660 H     1 <1>   0.4570 
@<TRIPOS>BOND
  1   1   2  1   
  2   2   3  ar  
  3   2   4  ar  
  4   3   5  ar  
  5   3   6  1   
  6   4   7  ar  
  7   4  27  1   
  8   5   8  ar  
  9   5   9  1   
 10   6  10  1   
 11   6  11  1   
 12   6  12  1   
 13   7   8  ar  
 14   7  28  1   
 15   8  29  1   
 16   9  13  1   
 17   9  30  1   
 18   9  31  1   
 19  13  14  1   
 20  13  15  1   
 21  13  32  1   
 22  14  16  1   
 23  14  33  1   
 24  14  34  1   
 25  15  17  1   
 26  15  35  1   
 27  15  36  1   
 28  16  18  1   
 29  16  37  1   
 30  16  38  1   
 31  17  19  1   
 32  17  39  1   
 33  17  40  1   
 34  18  19  1   
 35  18  20  1   
 36  19  41  1   
 37  19  42  1   
 38  20  21  ar  
 39  20  22  ar  
 40  21  23  ar  
 41  21  24  1   
 42  22  25  ar  
 43  22  43  1   
 44  23  26  ar  
 45  23  44  1   
 46  24  45  1   
 47  24  46  1   
 48  24  47  1   
 49  25  26  ar  
 50  25  48  1   
 51  26  49  1   
@<TRIPOS>SUBSTRUCTURE
  1 ****  13 GROUP 4 **** **** 0

# MOE 2024.06 (io_trps.svl 2023.06)
