@<TRIPOS>MOLECULE
NONAME
51 53 1 0 0 
SMALL
USER_CHARGES


@<TRIPOS>ATOM
  1 CL      -0.6190     0.4560     1.3430 Cl    1 <1>  -0.1770 
  2 C       -0.7280     2.1670     1.0100 C.ar  1 <1>   0.1770 
  3 C       -1.9140     2.6930     0.5390 C.ar  1 <1>  -0.1500 
  4 C        0.3780     2.9640     1.2280 C.ar  1 <1>  -0.1500 
  5 C       -2.0110     4.0540     0.2700 C.ar  1 <1>   0.1170 
  6 C        0.2960     4.3220     0.9700 C.ar  1 <1>  -0.1500 
  7 N       -3.1880     4.6550    -0.2080 N.am  1 <1>  -0.5470 
  8 C       -0.8930     4.8710     0.4940 C.ar  1 <1>   0.0830 
  9 C       -4.3240     4.1670    -0.7840 C.2   1 <1>   0.6900 
 10 O       -1.0340     6.2050     0.2280 O.3   1 <1>  -0.3630 
 11 O       -4.4310     2.9870    -1.0570 O.2   1 <1>  -0.5700 
 12 N       -5.3460     5.0400    -1.0680 N.am  1 <1>  -0.6600 
 13 C        0.0680     7.0850     0.2950 C.3   1 <1>   0.0400 
 14 C       -5.5640     6.3400    -0.3820 C.3   1 <1>   0.1400 
 15 C       -6.4720     4.6500    -1.9570 C.3   1 <1>   0.1400 
 16 C       -6.8340     6.2450     0.4710 C.3   1 <1>  -0.1600 
 17 C       -7.7530     4.5420    -1.1270 C.3   1 <1>  -0.1600 
 18 C       -8.0700     5.8380    -0.3610 C.3   1 <1>   0.2800 
 19 O       -8.2810     6.8100    -1.3440 O.3   1 <1>  -0.5600 
 20 C       -9.3400     5.6230     0.5100 C.3   1 <1>  -0.1600 
 21 C       -8.8130     8.0730    -1.0180 C.3   1 <1>   0.1200 
 22 C      -10.4730     6.6370     0.2830 C.3   1 <1>   0.2800 
 23 C       -9.8750     8.0500     0.0990 C.3   1 <1>   0.2000 
 24 O      -11.1490     6.2880    -0.8720 O.3   1 <1>  -0.6800 
 25 C      -11.5190     6.5680     1.4000 C.3   1 <1>  -0.2400 
 26 O       -9.2800     8.4860     1.2870 O.3   1 <1>  -0.6800 
 27 H       -2.7500     2.0380     0.3880 H     1 <1>   0.1500 
 28 H        1.2880     2.5240     1.5950 H     1 <1>   0.1500 
 29 H        1.1640     4.9270     1.1500 H     1 <1>   0.1500 
 30 H       -3.1060     5.6650    -0.2850 H     1 <1>   0.3700 
 31 H       -0.2650     8.0620    -0.0050 H     1 <1>   0.0800 
 32 H        0.8330     6.7390    -0.3770 H     1 <1>   0.0800 
 33 H        0.4290     7.1190     1.3080 H     1 <1>   0.0800 
 34 H       -4.7300     6.5920     0.2490 H     1 <1>   0.0800 
 35 H       -5.6740     7.1140    -1.1220 H     1 <1>   0.0800 
 36 H       -6.5930     5.3970    -2.7230 H     1 <1>   0.0800 
 37 H       -6.2690     3.7100    -2.4410 H     1 <1>   0.0800 
 38 H       -6.9940     7.1860     0.9590 H     1 <1>   0.0800 
 39 H       -6.6630     5.5110     1.2370 H     1 <1>   0.0800 
 40 H       -7.6330     3.7270    -0.4350 H     1 <1>   0.0800 
 41 H       -8.5750     4.3020    -1.7770 H     1 <1>   0.0800 
 42 H       -9.7270     4.6290     0.3800 H     1 <1>   0.0800 
 43 H       -9.0440     5.6750     1.5420 H     1 <1>   0.0800 
 44 H       -8.0040     8.7350    -0.7680 H     1 <1>   0.0800 
 45 H       -9.2760     8.4360    -1.9190 H     1 <1>   0.0800 
 46 H      -10.6570     8.7540    -0.1260 H     1 <1>   0.0800 
 47 H      -11.4700     5.3710    -0.8030 H     1 <1>   0.4000 
 48 H      -11.0760     6.8280     2.3450 H     1 <1>   0.0800 
 49 H      -11.9280     5.5780     1.4830 H     1 <1>   0.0800 
 50 H      -12.3130     7.2670     1.2060 H     1 <1>   0.0800 
 51 H       -8.5810     7.8610     1.5510 H     1 <1>   0.4000 
@<TRIPOS>BOND
  1   1   2  1   
  2   2   3  ar  
  3   2   4  ar  
  4   3   5  ar  
  5   3  27  1   
  6   4   6  ar  
  7   4  28  1   
  8   5   7  1   
  9   5   8  ar  
 10   6   8  ar  
 11   6  29  1   
 12   7   9  am  
 13   7  30  1   
 14   8  10  1   
 15   9  11  2   
 16   9  12  am  
 17  10  13  1   
 18  12  14  1   
 19  12  15  1   
 20  13  31  1   
 21  13  32  1   
 22  13  33  1   
 23  14  16  1   
 24  14  34  1   
 25  14  35  1   
 26  15  17  1   
 27  15  36  1   
 28  15  37  1   
 29  16  18  1   
 30  16  38  1   
 31  16  39  1   
 32  17  18  1   
 33  17  40  1   
 34  17  41  1   
 35  18  19  1   
 36  18  20  1   
 37  19  21  1   
 38  20  22  1   
 39  20  42  1   
 40  20  43  1   
 41  21  23  1   
 42  21  44  1   
 43  21  45  1   
 44  22  23  1   
 45  22  24  1   
 46  22  25  1   
 47  23  26  1   
 48  23  46  1   
 49  24  47  1   
 50  25  48  1   
 51  25  49  1   
 52  25  50  1   
 53  26  51  1   
@<TRIPOS>SUBSTRUCTURE
  1 ****  12 GROUP 4 **** **** 0

# MOE 2024.06 (io_trps.svl 2023.06)
