@<TRIPOS>MOLECULE
NONAME
39 41 1 0 0 
SMALL
USER_CHARGES


@<TRIPOS>ATOM
  1 F       -1.9830    -2.3210     1.3910 F     1 <1>  -0.3400 
  2 C       -0.9740    -3.1680     1.5720 C.3   1 <1>   1.1640 
  3 F        0.0250    -2.4340     2.0610 F     1 <1>  -0.3400 
  4 F       -1.3390    -3.9770     2.5620 F     1 <1>  -0.3400 
  5 C       -0.5950    -3.9360     0.2720 C.ar  1 <1>   0.1660 
  6 N       -1.4890    -4.7840    -0.2540 N.ar  1 <1>  -0.6200 
  7 C        0.6540    -3.7210    -0.3070 C.ar  1 <1>  -0.1500 
  8 C       -1.1410    -5.4150    -1.3680 C.ar  1 <1>   0.4100 
  9 C        1.0130    -4.3860    -1.4620 C.ar  1 <1>  -0.1500 
 10 N       -2.0650    -6.2790    -1.9100 N.pl3 1 <1>  -0.8380 
 11 C        0.0870    -5.2480    -1.9930 C.ar  1 <1>  -0.1500 
 12 C       -3.3890    -5.6980    -2.2770 C.3   1 <1>   0.2090 
 13 C       -2.3100    -7.5420    -1.1540 C.3   1 <1>   0.2090 
 14 C       -4.3730    -6.2920    -1.2710 C.3   1 <1>   0.2000 
 15 C       -3.8320    -7.7050    -1.0620 C.3   1 <1>  -0.0800 
 16 O       -4.2610    -5.5730    -0.0920 O.3   1 <1>  -0.6800 
 17 C       -4.3060    -8.4060     0.2240 C.3   1 <1>  -0.0170 
 18 C       -3.7840    -9.8340     0.2880 C.ar  1 <1>  -0.1430 
 19 C       -2.7010   -10.1860     1.0680 C.ar  1 <1>  -0.1500 
 20 C       -4.3700   -10.8530    -0.4350 C.ar  1 <1>  -0.1500 
 21 C       -2.2660   -11.5010     1.0830 C.ar  1 <1>   0.1600 
 22 C       -3.8560   -12.1370    -0.3500 C.ar  1 <1>   0.1600 
 23 N       -2.8170   -12.4850     0.3900 N.ar  1 <1>  -0.6200 
 24 H        1.3610    -3.0350     0.1280 H     1 <1>   0.1500 
 25 H        1.9730    -4.2350    -1.9260 H     1 <1>   0.1500 
 26 H        0.2870    -5.8010    -2.8910 H     1 <1>   0.1500 
 27 H       -3.3860    -4.6210    -2.2390 H     1 <1>   0.0800 
 28 H       -3.6430    -6.0150    -3.2730 H     1 <1>   0.0800 
 29 H       -1.8630    -8.3790    -1.6630 H     1 <1>   0.0800 
 30 H       -1.8810    -7.4650    -0.1680 H     1 <1>   0.0800 
 31 H       -5.3970    -6.2630    -1.6010 H     1 <1>   0.0800 
 32 H       -4.1390    -8.2980    -1.9050 H     1 <1>   0.0800 
 33 H       -3.3050    -5.3260     0.0060 H     1 <1>   0.4000 
 34 H       -5.3810    -8.4190     0.2480 H     1 <1>   0.0800 
 35 H       -3.9730    -7.8610     1.0900 H     1 <1>   0.0800 
 36 H       -2.1920    -9.4510     1.6650 H     1 <1>   0.1500 
 37 H       -5.2200   -10.6620    -1.0630 H     1 <1>   0.1500 
 38 H       -1.4200   -11.7570     1.6980 H     1 <1>   0.1500 
 39 H       -4.3260   -12.9190    -0.9220 H     1 <1>   0.1500 
@<TRIPOS>BOND
  1   1   2  1   
  2   2   3  1   
  3   2   4  1   
  4   2   5  1   
  5   5   6  ar  
  6   5   7  ar  
  7   6   8  ar  
  8   7   9  ar  
  9   7  24  1   
 10   8  10  1   
 11   8  11  ar  
 12   9  11  ar  
 13   9  25  1   
 14  10  12  1   
 15  10  13  1   
 16  11  26  1   
 17  12  14  1   
 18  12  27  1   
 19  12  28  1   
 20  13  15  1   
 21  13  29  1   
 22  13  30  1   
 23  14  15  1   
 24  14  16  1   
 25  14  31  1   
 26  15  17  1   
 27  15  32  1   
 28  16  33  1   
 29  17  18  1   
 30  17  34  1   
 31  17  35  1   
 32  18  19  ar  
 33  18  20  ar  
 34  19  21  ar  
 35  19  36  1   
 36  20  22  ar  
 37  20  37  1   
 38  21  23  ar  
 39  21  38  1   
 40  22  23  ar  
 41  22  39  1   
@<TRIPOS>SUBSTRUCTURE
  1 ****  13 GROUP 4 **** **** 0

# MOE 2024.06 (io_trps.svl 2023.06)
