@<TRIPOS>MOLECULE
NONAME
42 43 1 0 0 
SMALL
USER_CHARGES


@<TRIPOS>ATOM
  1 O       -0.3150    -0.0350     0.4100 O.2   1 <1>  -0.5700 
  2 C       -1.3640    -0.6470     0.3650 C.2   1 <1>   0.7800 
  3 O       -1.3930    -1.9450     0.0510 O.3   1 <1>  -0.4300 
  4 N       -2.5640    -0.0370     0.6260 N.am  1 <1>  -0.6600 
  5 C       -0.2940    -2.7750    -0.2590 C.3   1 <1>   0.2800 
  6 C       -3.8670    -0.7520     0.5680 C.3   1 <1>   0.1400 
  7 C       -2.5880     1.4180     0.9570 C.3   1 <1>   0.1400 
  8 C        0.6540    -2.8730     0.9420 C.3   1 <1>  -0.2400 
  9 C       -0.9010    -4.1520    -0.5340 C.3   1 <1>  -0.2400 
 10 C        0.4110    -2.2730    -1.5240 C.3   1 <1>  -0.2400 
 11 C       -4.8080    -0.0080    -0.3950 C.3   1 <1>  -0.0800 
 12 C       -4.0190     1.9680     1.0440 C.3   1 <1>  -0.1600 
 13 C       -4.8580     1.5180    -0.1650 C.3   1 <1>  -0.0800 
 14 C       -6.2600    -0.4950    -0.3170 C.3   1 <1>  -0.1600 
 15 C       -6.3410     1.8900    -0.0360 C.3   1 <1>  -0.1600 
 16 C       -7.0860     0.7300    -0.6820 C.3   1 <1>   0.4230 
 17 N       -8.4520     0.6220    -0.1550 N.4   1 <1>  -0.8530 
 18 H       -3.7400    -1.7680     0.2360 H     1 <1>   0.0800 
 19 H       -4.2830    -0.7790     1.5600 H     1 <1>   0.0800 
 20 H       -2.0740     1.5770     1.8900 H     1 <1>   0.0800 
 21 H       -2.0470     1.9490     0.1900 H     1 <1>   0.0800 
 22 H        1.4100    -3.6120     0.7520 H     1 <1>   0.0800 
 23 H        0.1110    -3.1590     1.8250 H     1 <1>   0.0800 
 24 H        1.1520    -1.9380     1.1200 H     1 <1>   0.0800 
 25 H       -0.1290    -4.8580    -0.7810 H     1 <1>   0.0800 
 26 H       -1.5870    -4.0990    -1.3600 H     1 <1>   0.0800 
 27 H       -1.4220    -4.5100     0.3350 H     1 <1>   0.0800 
 28 H        1.1540    -2.9830    -1.8360 H     1 <1>   0.0800 
 29 H        0.9120    -1.3390    -1.3440 H     1 <1>   0.0800 
 30 H       -0.2980    -2.1460    -2.3220 H     1 <1>   0.0800 
 31 H       -4.4450    -0.1800    -1.3950 H     1 <1>   0.0800 
 32 H       -4.4590     1.6230     1.9630 H     1 <1>   0.0800 
 33 H       -3.9790     3.0420     1.0870 H     1 <1>   0.0800 
 34 H       -4.4530     1.9940    -1.0450 H     1 <1>   0.0800 
 35 H       -6.4780    -0.8070     0.6900 H     1 <1>   0.0800 
 36 H       -6.4280    -1.3130    -0.9960 H     1 <1>   0.0800 
 37 H       -6.5460     2.8230    -0.5320 H     1 <1>   0.0800 
 38 H       -6.6020     1.9690     1.0050 H     1 <1>   0.0800 
 39 H       -7.0890     0.8560    -1.7550 H     1 <1>   0.0800 
 40 H       -8.4340     0.5080     0.8630 H     1 <1>   0.4500 
 41 H       -8.9340    -0.1860    -0.5630 H     1 <1>   0.4500 
 42 H       -8.9900     1.4660    -0.3760 H     1 <1>   0.4500 
@<TRIPOS>BOND
  1   1   2  2   
  2   2   3  1   
  3   2   4  am  
  4   3   5  1   
  5   4   6  1   
  6   4   7  1   
  7   5   8  1   
  8   5   9  1   
  9   5  10  1   
 10   6  11  1   
 11   6  18  1   
 12   6  19  1   
 13   7  12  1   
 14   7  20  1   
 15   7  21  1   
 16   8  22  1   
 17   8  23  1   
 18   8  24  1   
 19   9  25  1   
 20   9  26  1   
 21   9  27  1   
 22  10  28  1   
 23  10  29  1   
 24  10  30  1   
 25  11  13  1   
 26  11  14  1   
 27  11  31  1   
 28  12  13  1   
 29  12  32  1   
 30  12  33  1   
 31  13  15  1   
 32  13  34  1   
 33  14  16  1   
 34  14  35  1   
 35  14  36  1   
 36  15  16  1   
 37  15  37  1   
 38  15  38  1   
 39  16  17  1   
 40  16  39  1   
 41  17  40  1   
 42  17  41  1   
 43  17  42  1   
@<TRIPOS>SUBSTRUCTURE
  1 ****   6 GROUP 4 **** **** 0

# MOE 2024.06 (io_trps.svl 2023.06)
