@<TRIPOS>MOLECULE
NONAME
40 42 1 0 0 
SMALL
USER_CHARGES


@<TRIPOS>ATOM
  1 O        0.1780     1.4190     1.9010 O.2   1 <1>  -0.5700 
  2 C        0.0010     1.8710     0.7870 C.2   1 <1>   0.5440 
  3 N       -1.2600     1.8080     0.2670 N.am  1 <1>  -0.7300 
  4 C        1.1010     2.4230     0.0140 C.ar  1 <1>   0.0860 
  5 C       -2.4660     1.3150     0.9790 C.3   1 <1>   0.2200 
  6 C        2.4130     2.0010     0.2330 C.ar  1 <1>  -0.1500 
  7 C        0.8970     3.3910    -0.9730 C.ar  1 <1>  -0.1500 
  8 C       -2.5240    -0.2320     0.9830 C.3   1 <1>   0.2000 
  9 C       -3.7010     1.9430     0.3200 C.3   1 <1>  -0.1600 
 10 C        3.4690     2.5070    -0.5020 C.ar  1 <1>  -0.1500 
 11 C        1.9490     3.9010    -1.7130 C.ar  1 <1>  -0.1500 
 12 O       -1.5190    -0.7270     1.8040 O.3   1 <1>  -0.6800 
 13 C       -3.8670    -0.7500     1.5090 C.3   1 <1>   0.1400 
 14 C       -4.9960     1.4040     0.9320 C.3   1 <1>   0.1400 
 15 C        3.2380     3.4580    -1.4790 C.ar  1 <1>  -0.1500 
 16 N       -4.9970    -0.0740     0.7990 N.am  1 <1>  -0.6600 
 17 C       -5.9490    -0.7360     0.0430 C.2   1 <1>   0.7160 
 18 O       -7.0340    -0.1960    -0.1010 O.2   1 <1>  -0.5700 
 19 C       -5.7170    -2.0240    -0.5890 C.2   1 <1>   0.1410 
 20 N       -4.5050    -2.4720    -0.9950 N.2   1 <1>  -0.2270 
 21 C       -6.6260    -2.9730    -0.9190 C.2   1 <1>  -0.3020 
 22 N       -4.6450    -3.6290    -1.5340 N.2   1 <1>  -0.4180 
 23 N       -5.9380    -3.9500    -1.4970 N.pl3 1 <1>   0.3000 
 24 H       -1.3830     1.9720    -0.7320 H     1 <1>   0.3700 
 25 H       -2.4300     1.6480     2.0040 H     1 <1>   0.0800 
 26 H        2.6020     1.2630     0.9940 H     1 <1>   0.1500 
 27 H       -0.0950     3.7590    -1.1610 H     1 <1>   0.1500 
 28 H       -2.3600    -0.6120    -0.0100 H     1 <1>   0.0800 
 29 H       -3.6720     3.0100     0.4510 H     1 <1>   0.0800 
 30 H       -3.7080     1.7270    -0.7340 H     1 <1>   0.0800 
 31 H        4.4710     2.1620    -0.3130 H     1 <1>   0.1500 
 32 H        1.7690     4.6460    -2.4690 H     1 <1>   0.1500 
 33 H       -0.7840    -0.0600     1.8530 H     1 <1>   0.4000 
 34 H       -3.9430    -0.5280     2.5590 H     1 <1>   0.0800 
 35 H       -3.9160    -1.8170     1.3910 H     1 <1>   0.0800 
 36 H       -5.8430     1.8340     0.4230 H     1 <1>   0.0800 
 37 H       -5.0610     1.6690     1.9740 H     1 <1>   0.0800 
 38 H        4.0590     3.8530    -2.0530 H     1 <1>   0.1500 
 39 H       -7.6900    -2.9770    -0.7720 H     1 <1>   0.1500 
 40 H       -6.2980    -4.8320    -1.8780 H     1 <1>   0.2700 
@<TRIPOS>BOND
  1   1   2  2   
  2   2   3  am  
  3   2   4  1   
  4   3   5  1   
  5   3  24  1   
  6   4   6  ar  
  7   4   7  ar  
  8   5   8  1   
  9   5   9  1   
 10   5  25  1   
 11   6  10  ar  
 12   6  26  1   
 13   7  11  ar  
 14   7  27  1   
 15   8  12  1   
 16   8  13  1   
 17   8  28  1   
 18   9  14  1   
 19   9  29  1   
 20   9  30  1   
 21  10  15  ar  
 22  10  31  1   
 23  11  15  ar  
 24  11  32  1   
 25  12  33  1   
 26  13  16  1   
 27  13  34  1   
 28  13  35  1   
 29  14  16  1   
 30  14  36  1   
 31  14  37  1   
 32  15  38  1   
 33  16  17  am  
 34  17  18  2   
 35  17  19  1   
 36  19  20  1   
 37  19  21  2   
 38  20  22  2   
 39  21  23  1   
 40  21  39  1   
 41  22  23  1   
 42  23  40  1   
@<TRIPOS>SUBSTRUCTURE
  1 ****   8 GROUP 4 **** **** 0

# MOE 2024.06 (io_trps.svl 2023.06)
