@<TRIPOS>MOLECULE
NONAME
53 54 1 0 0 
SMALL
USER_CHARGES


@<TRIPOS>ATOM
  1 O       -0.0280     0.5430    -1.3680 O.2   1 <1>  -0.5700 
  2 C       -1.0770     1.1220    -1.2140 C.2   1 <1>   0.5690 
  3 N       -2.1660     0.5420    -0.6320 N.am  1 <1>  -0.7300 
  4 C       -1.1810     2.5880    -1.6680 C.3   1 <1>   0.1710 
  5 C       -2.3130    -0.8270    -0.1250 C.3   1 <1>   0.3000 
  6 N       -0.3500     3.5830    -0.9160 N.3   1 <1>  -0.8100 
  7 C       -3.7400    -0.9410     0.4070 C.3   1 <1>  -0.2400 
  8 C       -2.1090    -1.8270    -1.2630 C.3   1 <1>  -0.2400 
  9 C       -1.3220    -1.0660     1.0140 C.3   1 <1>  -0.2400 
 10 C       -0.5650     3.5050     0.5500 C.3   1 <1>   0.1100 
 11 C        1.0960     3.4260    -1.2280 C.3   1 <1>   0.1100 
 12 C        0.3290     4.5010     1.3320 C.3   1 <1>   0.3430 
 13 C        1.9730     4.4770    -0.5080 C.3   1 <1>   0.3430 
 14 N        1.1490     5.3460     0.4040 N.4   1 <1>  -0.9590 
 15 C        1.9520     6.4050     1.0980 C.3   1 <1>   0.4860 
 16 C        2.6770     7.3250     0.1170 C.ar  1 <1>   0.1670 
 17 N        3.8200     6.9040    -0.3880 N.ar  1 <1>  -0.6200 
 18 C        2.1520     8.5520    -0.2220 C.ar  1 <1>  -0.1500 
 19 C        4.4270     7.7330    -1.2260 C.ar  1 <1>   0.4770 
 20 C        2.8620     9.3240    -1.1080 C.ar  1 <1>   0.1600 
 21 N        4.0020     8.9210    -1.6190 N.ar  1 <1>  -0.6200 
 22 C        5.7580     7.2710    -1.8000 C.3   1 <1>  -0.0170 
 23 C        6.9410     7.6460    -0.8940 C.3   1 <1>  -0.2400 
 24 H       -3.0360     1.0680    -0.5810 H     1 <1>   0.3700 
 25 H       -2.2110     2.8900    -1.5990 H     1 <1>   0.0800 
 26 H       -0.9160     2.6280    -2.7100 H     1 <1>   0.0800 
 27 H       -4.4540    -0.7680    -0.3790 H     1 <1>   0.0800 
 28 H       -3.9080    -0.2380     1.2030 H     1 <1>   0.0800 
 29 H       -3.9090    -1.9290     0.7960 H     1 <1>   0.0800 
 30 H       -2.7820    -1.6190    -2.0750 H     1 <1>   0.0800 
 31 H       -2.2950    -2.8270    -0.9150 H     1 <1>   0.0800 
 32 H       -1.0990    -1.7890    -1.6280 H     1 <1>   0.0800 
 33 H       -1.4510    -0.3330     1.7890 H     1 <1>   0.0800 
 34 H       -0.3100    -1.0240     0.6540 H     1 <1>   0.0800 
 35 H       -1.4770    -2.0410     1.4390 H     1 <1>   0.0800 
 36 H       -0.3530     2.5090     0.9040 H     1 <1>   0.0800 
 37 H       -1.5980     3.7130     0.7690 H     1 <1>   0.0800 
 38 H        1.2480     3.5150    -2.2900 H     1 <1>   0.0800 
 39 H        1.4370     2.4470    -0.9380 H     1 <1>   0.0800 
 40 H        0.9760     3.9450     1.9900 H     1 <1>   0.0800 
 41 H       -0.3010     5.1270     1.9430 H     1 <1>   0.0800 
 42 H        2.4590     5.0840    -1.2540 H     1 <1>   0.0800 
 43 H        2.7440     3.9740     0.0510 H     1 <1>   0.0800 
 44 H        0.4690     5.7770    -0.2380 H     1 <1>   0.4500 
 45 H        2.6890     5.9430     1.7340 H     1 <1>   0.0800 
 46 H        1.3040     7.0010     1.7160 H     1 <1>   0.0800 
 47 H        1.2240     8.9110     0.1820 H     1 <1>   0.1500 
 48 H        2.4920    10.2920    -1.4060 H     1 <1>   0.1500 
 49 H        5.8960     7.7190    -2.7680 H     1 <1>   0.0800 
 50 H        5.7330     6.2050    -1.9340 H     1 <1>   0.0800 
 51 H        6.9840     8.7150    -0.7700 H     1 <1>   0.0800 
 52 H        7.8640     7.3120    -1.3320 H     1 <1>   0.0800 
 53 H        6.8280     7.1900     0.0730 H     1 <1>   0.0800 
@<TRIPOS>BOND
  1   1   2  2   
  2   2   3  am  
  3   2   4  1   
  4   3   5  1   
  5   3  24  1   
  6   4   6  1   
  7   4  25  1   
  8   4  26  1   
  9   5   7  1   
 10   5   8  1   
 11   5   9  1   
 12   6  10  1   
 13   6  11  1   
 14   7  27  1   
 15   7  28  1   
 16   7  29  1   
 17   8  30  1   
 18   8  31  1   
 19   8  32  1   
 20   9  33  1   
 21   9  34  1   
 22   9  35  1   
 23  10  12  1   
 24  10  36  1   
 25  10  37  1   
 26  11  13  1   
 27  11  38  1   
 28  11  39  1   
 29  12  14  1   
 30  12  40  1   
 31  12  41  1   
 32  13  14  1   
 33  13  42  1   
 34  13  43  1   
 35  14  15  1   
 36  14  44  1   
 37  15  16  1   
 38  15  45  1   
 39  15  46  1   
 40  16  17  ar  
 41  16  18  ar  
 42  17  19  ar  
 43  18  20  ar  
 44  18  47  1   
 45  19  21  ar  
 46  19  22  1   
 47  20  21  ar  
 48  20  48  1   
 49  22  23  1   
 50  22  49  1   
 51  22  50  1   
 52  23  51  1   
 53  23  52  1   
 54  23  53  1   
@<TRIPOS>SUBSTRUCTURE
  1 ****  13 GROUP 4 **** **** 0

# MOE 2024.06 (io_trps.svl 2023.06)
