@<TRIPOS>MOLECULE
NONAME
54 55 1 0 0 
SMALL
USER_CHARGES


@<TRIPOS>ATOM
  1 S       -0.3070     0.1300     0.0760 S.o2  1 <1>   1.3330 
  2 O        0.2230     1.2130    -0.7100 O.2   1 <1>  -0.6500 
  3 O       -0.1630     0.1170     1.5080 O.2   1 <1>  -0.6500 
  4 N        0.5690    -1.1860    -0.4110 N.am  1 <1>  -0.9780 
  5 C       -1.9950    -0.2400    -0.4170 C.3   1 <1>  -0.0550 
  6 C       -2.5750    -1.5180     0.2190 C.3   1 <1>  -0.1600 
  7 C       -4.0340    -1.7640    -0.2150 C.3   1 <1>  -0.0990 
  8 C       -4.6590    -3.0320     0.3660 C.2   1 <1>   0.5690 
  9 O       -3.9620    -3.7550     1.0380 O.2   1 <1>  -0.5700 
 10 N       -5.9800    -3.3230     0.1300 N.am  1 <1>  -0.6600 
 11 C       -6.5920    -4.5790     0.6640 C.3   1 <1>   0.1400 
 12 C       -6.9300    -2.4370    -0.5960 C.3   1 <1>   0.1400 
 13 C       -7.6710    -4.2880     1.7200 C.3   1 <1>   0.1400 
 14 C       -7.7100    -1.6010     0.4230 C.3   1 <1>  -0.1600 
 15 N       -8.9270    -3.7460     1.1020 N.am  1 <1>  -0.6600 
 16 C       -9.0000    -2.2600     0.9340 C.3   1 <1>   0.1400 
 17 C      -10.0220    -4.5270     0.7810 C.2   1 <1>   0.5690 
 18 O      -11.0370    -4.0130     0.3630 O.2   1 <1>  -0.5700 
 19 C      -10.0440    -6.0540     0.9970 C.3   1 <1>   0.2610 
 20 O       -8.8970    -6.6960     0.4590 O.3   1 <1>  -0.2170 
 21 C      -11.2040    -6.8220     0.3510 C.3   1 <1>  -0.0990 
 22 N       -9.1990    -7.8180    -0.1650 N.2   1 <1>  -0.5130 
 23 C      -10.4420    -7.9570    -0.2640 C.2   1 <1>   0.3280 
 24 C      -11.2090    -9.1130    -0.9140 C.3   1 <1>  -0.0190 
 25 C      -10.2980   -10.3080    -1.2380 C.3   1 <1>  -0.2400 
 26 C      -11.9270    -8.6560    -2.1930 C.3   1 <1>  -0.2400 
 27 H        0.8150    -1.6480     0.4630 H     1 <1>   0.4200 
 28 H        1.4320    -0.7820    -0.7650 H     1 <1>   0.4200 
 29 H       -2.0270    -0.3390    -1.4850 H     1 <1>   0.0800 
 30 H       -2.6170     0.5920    -0.1500 H     1 <1>   0.0800 
 31 H       -2.5320    -1.4360     1.2920 H     1 <1>   0.0800 
 32 H       -1.9730    -2.3640    -0.0690 H     1 <1>   0.0800 
 33 H       -4.0710    -1.8420    -1.2860 H     1 <1>   0.0800 
 34 H       -4.6320    -0.9250     0.0890 H     1 <1>   0.0800 
 35 H       -5.8350    -5.1950     1.1160 H     1 <1>   0.0800 
 36 H       -7.0130    -5.1440    -0.1490 H     1 <1>   0.0800 
 37 H       -7.6020    -3.0290    -1.1960 H     1 <1>   0.0800 
 38 H       -6.3940    -1.7870    -1.2640 H     1 <1>   0.0800 
 39 H       -7.2840    -3.5930     2.4440 H     1 <1>   0.0800 
 40 H       -7.8880    -5.1990     2.2470 H     1 <1>   0.0800 
 41 H       -7.9900    -0.6740    -0.0420 H     1 <1>   0.0800 
 42 H       -7.0760    -1.3500     1.2550 H     1 <1>   0.0800 
 43 H       -9.7810    -2.0240     0.2300 H     1 <1>   0.0800 
 44 H       -9.2790    -1.8170     1.8740 H     1 <1>   0.0800 
 45 H      -10.0350    -6.2500     2.0530 H     1 <1>   0.0800 
 46 H      -11.7000    -6.2530    -0.4130 H     1 <1>   0.0800 
 47 H      -11.9100    -7.1540     1.0880 H     1 <1>   0.0800 
 48 H      -11.9500    -9.4500    -0.2090 H     1 <1>   0.0800 
 49 H       -9.5440   -10.0220    -1.9520 H     1 <1>   0.0800 
 50 H      -10.8690   -11.1230    -1.6450 H     1 <1>   0.0800 
 51 H       -9.8040   -10.6490    -0.3450 H     1 <1>   0.0800 
 52 H      -11.2130    -8.2830    -2.9070 H     1 <1>   0.0800 
 53 H      -12.6350    -7.8770    -1.9760 H     1 <1>   0.0800 
 54 H      -12.4600    -9.4780    -2.6380 H     1 <1>   0.0800 
@<TRIPOS>BOND
  1   1   2  2   
  2   1   3  2   
  3   1   4  am  
  4   1   5  1   
  5   4  27  1   
  6   4  28  1   
  7   5   6  1   
  8   5  29  1   
  9   5  30  1   
 10   6   7  1   
 11   6  31  1   
 12   6  32  1   
 13   7   8  1   
 14   7  33  1   
 15   7  34  1   
 16   8   9  2   
 17   8  10  am  
 18  10  11  1   
 19  10  12  1   
 20  11  13  1   
 21  11  35  1   
 22  11  36  1   
 23  12  14  1   
 24  12  37  1   
 25  12  38  1   
 26  13  15  1   
 27  13  39  1   
 28  13  40  1   
 29  14  16  1   
 30  14  41  1   
 31  14  42  1   
 32  15  16  1   
 33  15  17  am  
 34  16  43  1   
 35  16  44  1   
 36  17  18  2   
 37  17  19  1   
 38  19  20  1   
 39  19  21  1   
 40  19  45  1   
 41  20  22  1   
 42  21  23  1   
 43  21  46  1   
 44  21  47  1   
 45  22  23  2   
 46  23  24  1   
 47  24  25  1   
 48  24  26  1   
 49  24  48  1   
 50  25  49  1   
 51  25  50  1   
 52  25  51  1   
 53  26  52  1   
 54  26  53  1   
 55  26  54  1   
@<TRIPOS>SUBSTRUCTURE
  1 ****  11 GROUP 4 **** **** 0

# MOE 2024.06 (io_trps.svl 2023.06)
