@<TRIPOS>MOLECULE
NONAME
46 47 1 0 0 
SMALL
USER_CHARGES


@<TRIPOS>ATOM
  1 O       -0.5140     0.1110     1.4900 O.2   1 <1>  -0.5700 
  2 C       -1.4880     0.6090     0.9810 C.2   1 <1>   0.5690 
  3 N       -2.7190     0.0570     1.1070 N.am  1 <1>  -0.7300 
  4 C       -1.3280     1.8900     0.1670 C.3   1 <1>  -0.0190 
  5 C       -2.9950    -1.2520     1.7190 C.3   1 <1>   0.2840 
  6 C       -2.1710     3.0480     0.7370 C.3   1 <1>  -0.1600 
  7 C       -1.6260     1.6600    -1.3350 C.3   1 <1>  -0.1600 
  8 C       -4.0090    -1.9700     0.8420 C.ar  1 <1>  -0.1440 
  9 C       -1.8820     4.3820     0.0170 C.3   1 <1>   0.2000 
 10 C       -2.0090     2.9470    -2.0940 C.3   1 <1>  -0.1600 
 11 C       -3.6290    -2.6960    -0.2830 C.ar  1 <1>  -0.1430 
 12 C       -5.3530    -1.8860     1.1760 C.ar  1 <1>  -0.1500 
 13 O       -3.0680     5.1380     0.0130 O.3   1 <1>  -0.5600 
 14 C       -1.3930     4.1880    -1.4430 C.3   1 <1>   0.2000 
 15 C       -4.6000    -3.3260    -1.0480 C.ar  1 <1>  -0.1500 
 16 C       -2.1690    -2.8160    -0.7010 C.3   1 <1>  -0.0970 
 17 C       -6.3130    -2.5160     0.4060 C.ar  1 <1>  -0.1500 
 18 C       -3.3290     5.8360     1.1900 C.3   1 <1>   0.0400 
 19 O       -1.7560     5.2870    -2.1940 O.3   1 <1>  -0.6800 
 20 C       -5.9400    -3.2420    -0.7110 C.ar  1 <1>  -0.1430 
 21 C       -6.9870    -3.9380    -1.5620 C.3   1 <1>  -0.0970 
 22 H       -3.5090     0.4450     0.5910 H     1 <1>   0.3700 
 23 H       -0.2940     2.1780     0.2540 H     1 <1>   0.0800 
 24 H       -2.0890    -1.8260     1.8090 H     1 <1>   0.0800 
 25 H       -3.3930    -1.1040     2.7080 H     1 <1>   0.0800 
 26 H       -1.9600     3.1590     1.7860 H     1 <1>   0.0800 
 27 H       -3.2120     2.8020     0.6250 H     1 <1>   0.0800 
 28 H       -0.7510     1.2250    -1.7880 H     1 <1>   0.0800 
 29 H       -2.4270     0.9510    -1.4550 H     1 <1>   0.0800 
 30 H       -1.1210     4.9310     0.5450 H     1 <1>   0.0800 
 31 H       -3.0800     3.0530    -2.0830 H     1 <1>   0.0800 
 32 H       -1.6870     2.8710    -3.1180 H     1 <1>   0.0800 
 33 H       -5.6630    -1.3260     2.0410 H     1 <1>   0.1500 
 34 H       -0.3200     4.1090    -1.4710 H     1 <1>   0.0800 
 35 H       -4.3120    -3.8890    -1.9180 H     1 <1>   0.1500 
 36 H       -2.0770    -3.3330    -1.6390 H     1 <1>   0.0800 
 37 H       -1.6180    -3.3640     0.0420 H     1 <1>   0.0800 
 38 H       -1.7310    -1.8410    -0.8120 H     1 <1>   0.0800 
 39 H       -7.3500    -2.4390     0.6800 H     1 <1>   0.1500 
 40 H       -4.2520     6.3740     1.0620 H     1 <1>   0.0800 
 41 H       -2.5290     6.5320     1.3760 H     1 <1>   0.0800 
 42 H       -3.4270     5.1430     2.0070 H     1 <1>   0.0800 
 43 H       -2.5860     5.6250    -1.7860 H     1 <1>   0.4000 
 44 H       -7.8640    -4.1550    -0.9800 H     1 <1>   0.0800 
 45 H       -6.5990    -4.8640    -1.9480 H     1 <1>   0.0800 
 46 H       -7.2630    -3.3060    -2.3860 H     1 <1>   0.0800 
@<TRIPOS>BOND
  1   1   2  2   
  2   2   3  am  
  3   2   4  1   
  4   3   5  1   
  5   3  22  1   
  6   4   6  1   
  7   4   7  1   
  8   4  23  1   
  9   5   8  1   
 10   5  24  1   
 11   5  25  1   
 12   6   9  1   
 13   6  26  1   
 14   6  27  1   
 15   7  10  1   
 16   7  28  1   
 17   7  29  1   
 18   8  11  ar  
 19   8  12  ar  
 20   9  13  1   
 21   9  14  1   
 22   9  30  1   
 23  10  14  1   
 24  10  31  1   
 25  10  32  1   
 26  11  15  ar  
 27  11  16  1   
 28  12  17  ar  
 29  12  33  1   
 30  13  18  1   
 31  14  19  1   
 32  14  34  1   
 33  15  20  ar  
 34  15  35  1   
 35  16  36  1   
 36  16  37  1   
 37  16  38  1   
 38  17  20  ar  
 39  17  39  1   
 40  18  40  1   
 41  18  41  1   
 42  18  42  1   
 43  19  43  1   
 44  20  21  1   
 45  21  44  1   
 46  21  45  1   
 47  21  46  1   
@<TRIPOS>SUBSTRUCTURE
  1 ****   3 GROUP 4 **** **** 0

# MOE 2024.06 (io_trps.svl 2023.06)
