@<TRIPOS>MOLECULE
NONAME
54 56 1 0 0 
SMALL
USER_CHARGES


@<TRIPOS>ATOM
  1 O       -1.3330     0.5520     2.3670 O.2   1 <1>  -0.5700 
  2 C       -2.0750     1.2280     1.6800 C.2   1 <1>   0.5440 
  3 N       -1.9150     2.6000     1.6770 N.am  1 <1>  -0.6600 
  4 C       -3.1130     0.5690     0.9080 C.ar  1 <1>   0.0860 
  5 C       -0.6680     3.2320     2.1860 C.3   1 <1>   0.1400 
  6 C       -2.9950     3.5560     1.3090 C.3   1 <1>   0.1400 
  7 C       -3.9480    -0.3740     1.5030 C.ar  1 <1>  -0.1500 
  8 C       -3.3050     0.8450    -0.4440 C.ar  1 <1>  -0.1500 
  9 C       -0.1330     4.2200     1.1460 C.3   1 <1>  -0.1600 
 10 C       -2.4750     4.5400     0.2580 C.3   1 <1>  -0.1600 
 11 C       -4.9550    -1.0040     0.7810 C.ar  1 <1>   0.0820 
 12 C       -4.3050     0.2310    -1.1750 C.ar  1 <1>   0.0820 
 13 C       -1.1970     5.2560     0.7380 C.3   1 <1>  -0.0190 
 14 O       -5.7960    -1.9260     1.3110 O.3   1 <1>  -0.3630 
 15 C       -5.1350    -0.6960    -0.5560 C.ar  1 <1>  -0.1500 
 16 O       -4.4120     0.5850    -2.4800 O.3   1 <1>  -0.3630 
 17 C       -0.6500     6.2150    -0.3190 C.2   1 <1>   0.5690 
 18 C       -5.6390    -2.3820     2.6370 C.3   1 <1>   0.0400 
 19 C       -5.3610    -0.0250    -3.3270 C.3   1 <1>   0.0400 
 20 O       -0.4920     5.8090    -1.4470 O.2   1 <1>  -0.5700 
 21 N       -0.3590     7.4910     0.0690 N.am  1 <1>  -0.4930 
 22 C        0.1560     8.5640    -0.7030 C.2   1 <1>   0.0630 
 23 C        0.4470     9.8570    -0.2590 C.2   1 <1>   0.1080 
 24 C        0.4760     8.5840    -2.0120 C.2   1 <1>  -0.3020 
 25 N        0.9070    10.6120    -1.2070 N.2   1 <1>  -0.7070 
 26 C        0.2660    10.3670     1.1530 C.3   1 <1>  -0.0590 
 27 N        0.9250     9.8220    -2.2940 N.pl3 1 <1>   0.3140 
 28 C        1.3840    10.3040    -3.6010 C.3   1 <1>   0.0160 
 29 H        0.0820     2.4840     2.3840 H     1 <1>   0.0800 
 30 H       -0.8840     3.7400     3.1100 H     1 <1>   0.0800 
 31 H       -3.2950     4.0930     2.1920 H     1 <1>   0.0800 
 32 H       -3.8600     3.0410     0.9310 H     1 <1>   0.0800 
 33 H       -3.7830    -0.5950     2.5410 H     1 <1>   0.1500 
 34 H       -2.6600     1.5490    -0.9370 H     1 <1>   0.1500 
 35 H        0.1840     3.6670     0.2780 H     1 <1>   0.0800 
 36 H        0.7320     4.7200     1.5450 H     1 <1>   0.0800 
 37 H       -3.2380     5.2660     0.0410 H     1 <1>   0.0800 
 38 H       -2.2720     4.0020    -0.6520 H     1 <1>   0.0800 
 39 H       -1.4530     5.8280     1.6120 H     1 <1>   0.0800 
 40 H       -5.9230    -1.1950    -1.0860 H     1 <1>   0.1500 
 41 H       -6.3860    -3.1330     2.8230 H     1 <1>   0.0800 
 42 H       -5.7760    -1.5550     3.3110 H     1 <1>   0.0800 
 43 H       -4.6570    -2.8090     2.7460 H     1 <1>   0.0800 
 44 H       -5.2480     0.3920    -4.3110 H     1 <1>   0.0800 
 45 H       -6.3480     0.1820    -2.9520 H     1 <1>   0.0800 
 46 H       -5.1730    -1.0840    -3.3550 H     1 <1>   0.0800 
 47 H       -0.5220     7.7180     1.0460 H     1 <1>   0.3700 
 48 H        0.4070     7.7960    -2.7400 H     1 <1>   0.1500 
 49 H        0.8750     9.7970     1.8290 H     1 <1>   0.0800 
 50 H       -0.7660    10.2900     1.4390 H     1 <1>   0.0800 
 51 H        0.5630    11.3990     1.2060 H     1 <1>   0.0800 
 52 H        2.1490     9.6470    -3.9690 H     1 <1>   0.0800 
 53 H        1.7810    11.2960    -3.4900 H     1 <1>   0.0800 
 54 H        0.5530    10.3210    -4.2800 H     1 <1>   0.0800 
@<TRIPOS>BOND
  1   1   2  2   
  2   2   3  am  
  3   2   4  1   
  4   3   5  1   
  5   3   6  1   
  6   4   7  ar  
  7   4   8  ar  
  8   5   9  1   
  9   5  29  1   
 10   5  30  1   
 11   6  10  1   
 12   6  31  1   
 13   6  32  1   
 14   7  11  ar  
 15   7  33  1   
 16   8  12  ar  
 17   8  34  1   
 18   9  13  1   
 19   9  35  1   
 20   9  36  1   
 21  10  13  1   
 22  10  37  1   
 23  10  38  1   
 24  11  14  1   
 25  11  15  ar  
 26  12  15  ar  
 27  12  16  1   
 28  13  17  1   
 29  13  39  1   
 30  14  18  1   
 31  15  40  1   
 32  16  19  1   
 33  17  20  2   
 34  17  21  am  
 35  18  41  1   
 36  18  42  1   
 37  18  43  1   
 38  19  44  1   
 39  19  45  1   
 40  19  46  1   
 41  21  22  1   
 42  21  47  1   
 43  22  23  1   
 44  22  24  2   
 45  23  25  2   
 46  23  26  1   
 47  24  27  1   
 48  24  48  1   
 49  25  27  1   
 50  26  49  1   
 51  26  50  1   
 52  26  51  1   
 53  27  28  1   
 54  28  52  1   
 55  28  53  1   
 56  28  54  1   
@<TRIPOS>SUBSTRUCTURE
  1 ****  10 GROUP 4 **** **** 0

# MOE 2024.06 (io_trps.svl 2023.06)
