@<TRIPOS>MOLECULE
NONAME
50 53 1 0 0 
SMALL
USER_CHARGES


@<TRIPOS>ATOM
  1 O        1.9770     0.1880     1.8170 O.co2 1 <1>  -0.9000 
  2 C        1.8300     0.8700     0.7900 C.2   1 <1>   0.9060 
  3 O        1.1940     1.9210     0.8000 O.co2 1 <1>  -0.9000 
  4 C        2.4460     0.3620    -0.5270 C.3   1 <1>  -0.1060 
  5 C        3.7640    -0.3780    -0.1940 C.3   1 <1>   0.4230 
  6 C        2.8000     1.5530    -1.4650 C.3   1 <1>  -0.1600 
  7 C        1.4370    -0.5850    -1.2420 C.3   1 <1>  -0.1600 
  8 N        3.4590    -1.6110     0.6170 N.4   1 <1>  -0.9590 
  9 C        4.7880     0.5950     0.4420 C.3   1 <1>   0.2090 
 10 C        3.8440     2.4940    -0.8470 C.3   1 <1>   0.2090 
 11 C        1.9510    -2.0290    -1.3610 C.3   1 <1>  -0.1600 
 12 C        2.5090    -2.5610    -0.0340 C.3   1 <1>   0.3430 
 13 C        4.6150    -2.2910     1.2570 C.3   1 <1>   0.2630 
 14 N        5.0680     1.7090    -0.5090 N.pl3 1 <1>  -0.8380 
 15 C        6.2780     2.3760    -0.4020 C.ar  1 <1>   0.4100 
 16 N        6.2790     3.6490     0.0100 N.ar  1 <1>  -0.3100 
 17 C        7.4540     1.7190    -0.7120 C.ar  1 <1>  -0.1500 
 18 N        7.4050     4.3080     0.1370 N.ar  1 <1>  -0.3100 
 19 C        8.6320     2.4090    -0.5780 C.ar  1 <1>  -0.1500 
 20 C        8.5770     3.7250    -0.1460 C.ar  1 <1>   0.3100 
 21 C        9.7890     4.4990     0.0180 C.ar  1 <1>   0.0000 
 22 C       10.7870     4.5060    -0.9570 C.ar  1 <1>  -0.1500 
 23 C       10.0030     5.2660     1.1630 C.ar  1 <1>  -0.1500 
 24 C       11.9510     5.2340    -0.7900 C.ar  1 <1>  -0.1500 
 25 C       11.1640     5.9960     1.3350 C.ar  1 <1>  -0.1500 
 26 C       12.1430     5.9800     0.3580 C.ar  1 <1>  -0.1500 
 27 H        4.1990    -0.6990    -1.1240 H     1 <1>   0.0800 
 28 H        1.9110     2.1250    -1.6700 H     1 <1>   0.0800 
 29 H        3.1790     1.1940    -2.4040 H     1 <1>   0.0800 
 30 H        0.5120    -0.5920    -0.6870 H     1 <1>   0.0800 
 31 H        1.1970    -0.2160    -2.2250 H     1 <1>   0.0800 
 32 H        2.8850    -1.1660     1.3860 H     1 <1>   0.4500 
 33 H        5.7070     0.0800     0.6520 H     1 <1>   0.0800 
 34 H        4.4050     1.0050     1.3620 H     1 <1>   0.0800 
 35 H        3.4530     2.9620     0.0440 H     1 <1>   0.0800 
 36 H        4.0910     3.2740    -1.5480 H     1 <1>   0.0800 
 37 H        2.7190    -2.0820    -2.1130 H     1 <1>   0.0800 
 38 H        1.1480    -2.6670    -1.6840 H     1 <1>   0.0800 
 39 H        2.9980    -3.5040    -0.2150 H     1 <1>   0.0800 
 40 H        1.6860    -2.7370     0.6410 H     1 <1>   0.0800 
 41 H        5.2790    -2.6840     0.5060 H     1 <1>   0.0800 
 42 H        4.2680    -3.1020     1.8770 H     1 <1>   0.0800 
 43 H        5.1560    -1.5990     1.8810 H     1 <1>   0.0800 
 44 H        7.4310     0.7040    -1.0530 H     1 <1>   0.1500 
 45 H        9.5760     1.9470    -0.7980 H     1 <1>   0.1500 
 46 H       10.6500     3.9400    -1.8620 H     1 <1>   0.1500 
 47 H        9.2440     5.2880     1.9270 H     1 <1>   0.1500 
 48 H       12.7080     5.2240    -1.5550 H     1 <1>   0.1500 
 49 H       11.3050     6.5790     2.2290 H     1 <1>   0.1500 
 50 H       13.0480     6.5480     0.4900 H     1 <1>   0.1500 
@<TRIPOS>BOND
  1   1   2  ar  
  2   2   3  ar  
  3   2   4  1   
  4   4   5  1   
  5   4   6  1   
  6   4   7  1   
  7   5   8  1   
  8   5   9  1   
  9   5  27  1   
 10   6  10  1   
 11   6  28  1   
 12   6  29  1   
 13   7  11  1   
 14   7  30  1   
 15   7  31  1   
 16   8  12  1   
 17   8  13  1   
 18   8  32  1   
 19   9  14  1   
 20   9  33  1   
 21   9  34  1   
 22  10  14  1   
 23  10  35  1   
 24  10  36  1   
 25  11  12  1   
 26  11  37  1   
 27  11  38  1   
 28  12  39  1   
 29  12  40  1   
 30  13  41  1   
 31  13  42  1   
 32  13  43  1   
 33  14  15  1   
 34  15  16  ar  
 35  15  17  ar  
 36  16  18  ar  
 37  17  19  ar  
 38  17  44  1   
 39  18  20  ar  
 40  19  20  ar  
 41  19  45  1   
 42  20  21  1   
 43  21  22  ar  
 44  21  23  ar  
 45  22  24  ar  
 46  22  46  1   
 47  23  25  ar  
 48  23  47  1   
 49  24  26  ar  
 50  24  48  1   
 51  25  26  ar  
 52  25  49  1   
 53  26  50  1   
@<TRIPOS>SUBSTRUCTURE
  1 ****  15 GROUP 4 **** **** 0

# MOE 2024.06 (io_trps.svl 2023.06)
