@<TRIPOS>MOLECULE
NONAME
52 55 1 0 0 
SMALL
USER_CHARGES


@<TRIPOS>ATOM
  1 O       -1.0570     0.2210     2.5410 O.2   1 <1>  -0.5700 
  2 C       -1.8070     0.9360     1.9010 C.2   1 <1>   0.7160 
  3 N       -2.8490     0.3640     1.2070 N.am  1 <1>  -0.6600 
  4 C       -1.5780     2.3570     1.8500 C.2   1 <1>  -0.0860 
  5 C       -3.4440     0.9610    -0.0180 C.3   1 <1>   0.1400 
  6 C       -3.1390    -1.0890     1.2370 C.3   1 <1>   0.1400 
  7 C       -2.5500     3.3580     1.9250 C.2   1 <1>   0.1390 
  8 C       -0.4210     3.0630     1.7270 C.2   1 <1>  -0.3020 
  9 C       -4.1360    -0.1920    -0.7600 C.3   1 <1>   0.2000 
 10 C       -3.4500    -1.4480    -0.2160 C.3   1 <1>  -0.0800 
 11 N       -2.0580     4.5530     1.8350 N.2   1 <1>  -0.7070 
 12 N       -0.7280     4.3700     1.7140 N.pl3 1 <1>   0.3140 
 13 O       -5.4900    -0.2320    -0.4100 O.3   1 <1>  -0.5600 
 14 C       -4.2640    -2.7460    -0.3690 C.3   1 <1>   0.0200 
 15 C        0.2110     5.5070     1.6130 C.3   1 <1>   0.2390 
 16 C       -6.3260     0.5830    -1.1700 C.3   1 <1>   0.0400 
 17 C       -3.4820    -3.9890     0.0230 C.2   1 <1>  -0.0400 
 18 C        1.1860     5.3170     0.4580 C.ar  1 <1>  -0.1430 
 19 O       -4.0980    -5.1420     0.0260 O.3   1 <1>  -0.0190 
 20 C       -2.2090    -4.2070     0.3930 C.2   1 <1>  -0.1500 
 21 C        2.4930     4.9170     0.6950 C.ar  1 <1>  -0.1500 
 22 C        0.7670     5.5370    -0.8450 C.ar  1 <1>  -0.1500 
 23 N       -3.3090    -6.1160     0.3790 N.2   1 <1>  -0.4100 
 24 C       -2.1640    -5.5810     0.6070 C.2   1 <1>   0.1080 
 25 C        3.3710     4.7410    -0.3610 C.ar  1 <1>  -0.1500 
 26 C        1.6440     5.3620    -1.9010 C.ar  1 <1>  -0.1500 
 27 C       -0.9390    -6.3490     1.0500 C.3   1 <1>  -0.0590 
 28 C        2.9470     4.9630    -1.6590 C.ar  1 <1>  -0.1500 
 29 H       -4.1430     1.7380     0.2340 H     1 <1>   0.0800 
 30 H       -2.6550     1.3680    -0.6280 H     1 <1>   0.0800 
 31 H       -2.3090    -1.6560     1.6210 H     1 <1>   0.0800 
 32 H       -4.0030    -1.2560     1.8590 H     1 <1>   0.0800 
 33 H       -3.6010     3.1600     2.0500 H     1 <1>   0.1500 
 34 H        0.5830     2.6880     1.6460 H     1 <1>   0.1500 
 35 H       -4.0460    -0.1150    -1.8300 H     1 <1>   0.0800 
 36 H       -2.5140    -1.5610    -0.7350 H     1 <1>   0.0800 
 37 H       -4.5760    -2.8510    -1.3920 H     1 <1>   0.0800 
 38 H       -5.1510    -2.6940     0.2380 H     1 <1>   0.0800 
 39 H       -0.3590     6.4050     1.4650 H     1 <1>   0.0800 
 40 H        0.7390     5.5910     2.5440 H     1 <1>   0.0800 
 41 H       -7.3290     0.4740    -0.7940 H     1 <1>   0.0800 
 42 H       -6.2920     0.2670    -2.1980 H     1 <1>   0.0800 
 43 H       -6.0160     1.6090    -1.0770 H     1 <1>   0.0800 
 44 H       -1.3890    -3.5240     0.5080 H     1 <1>   0.1500 
 45 H        2.8380     4.7380     1.6990 H     1 <1>   0.1500 
 46 H       -0.2470     5.8430    -1.0440 H     1 <1>   0.1500 
 47 H        4.3840     4.4290    -0.1740 H     1 <1>   0.1500 
 48 H        1.3140     5.5360    -2.9100 H     1 <1>   0.1500 
 49 H       -0.5780    -5.9540     1.9810 H     1 <1>   0.0800 
 50 H       -0.1690    -6.2660     0.3050 H     1 <1>   0.0800 
 51 H       -1.1850    -7.3870     1.1830 H     1 <1>   0.0800 
 52 H        3.6290     4.8260    -2.4800 H     1 <1>   0.1500 
@<TRIPOS>BOND
  1   1   2  2   
  2   2   3  am  
  3   2   4  1   
  4   3   5  1   
  5   3   6  1   
  6   4   7  1   
  7   4   8  2   
  8   5   9  1   
  9   5  29  1   
 10   5  30  1   
 11   6  10  1   
 12   6  31  1   
 13   6  32  1   
 14   7  11  2   
 15   7  33  1   
 16   8  12  1   
 17   8  34  1   
 18   9  10  1   
 19   9  13  1   
 20   9  35  1   
 21  10  14  1   
 22  10  36  1   
 23  11  12  1   
 24  12  15  1   
 25  13  16  1   
 26  14  17  1   
 27  14  37  1   
 28  14  38  1   
 29  15  18  1   
 30  15  39  1   
 31  15  40  1   
 32  16  41  1   
 33  16  42  1   
 34  16  43  1   
 35  17  19  1   
 36  17  20  2   
 37  18  21  ar  
 38  18  22  ar  
 39  19  23  1   
 40  20  24  1   
 41  20  44  1   
 42  21  25  ar  
 43  21  45  1   
 44  22  26  ar  
 45  22  46  1   
 46  23  24  2   
 47  24  27  1   
 48  25  28  ar  
 49  25  47  1   
 50  26  28  ar  
 51  26  48  1   
 52  27  49  1   
 53  27  50  1   
 54  27  51  1   
 55  28  52  1   
@<TRIPOS>SUBSTRUCTURE
  1 ****   3 GROUP 4 **** **** 0

# MOE 2024.06 (io_trps.svl 2023.06)
