@<TRIPOS>MOLECULE
NONAME
52 53 1 0 0 
SMALL
USER_CHARGES


@<TRIPOS>ATOM
  1 S        2.5510     1.8410     1.0450 S.o2  1 <1>   1.0900 
  2 O        3.2820     1.8180     2.2900 O.2   1 <1>  -0.6500 
  3 O        1.8530     0.6780     0.5480 O.2   1 <1>  -0.6500 
  4 C        1.4230     3.2070     1.0370 C.3   1 <1>  -0.0550 
  5 C        3.5720     2.4850    -0.2670 C.3   1 <1>  -0.0550 
  6 C        1.4150     3.7360    -0.3980 C.3   1 <1>   0.1900 
  7 C        2.8900     3.7370    -0.8430 C.3   1 <1>  -0.1600 
  8 N        0.8540     5.0990    -0.4780 N.3   1 <1>  -0.8100 
  9 C        0.7290     5.5970    -1.8920 C.3   1 <1>   0.1710 
 10 C       -0.4550     5.2420     0.1910 C.3   1 <1>   0.0300 
 11 C        0.8740     7.1160    -2.0360 C.2   1 <1>   0.5690 
 12 O        0.5740     7.6480    -3.0780 O.2   1 <1>  -0.5700 
 13 N        1.3780     7.8100    -0.9910 N.am  1 <1>  -0.7300 
 14 C        1.8520     9.1980    -1.0170 C.3   1 <1>   0.3210 
 15 C        3.2460     9.2090    -0.4220 C.2   1 <1>  -0.1810 
 16 C        4.4140     8.8940    -1.1070 C.2   1 <1>   0.1080 
 17 C        3.6500     9.4980     0.8370 C.2   1 <1>  -0.3320 
 18 N        5.4610     8.9780    -0.3540 N.2   1 <1>  -0.7070 
 19 C        4.5080     8.4980    -2.5640 C.3   1 <1>  -0.0590 
 20 N        4.9990     9.3570     0.8570 N.pl3 1 <1>   0.3140 
 21 C        2.8080     9.9020     2.0390 C.3   1 <1>  -0.0600 
 22 C        5.9160     9.5730     2.0180 C.3   1 <1>   0.1760 
 23 C        6.9590    10.6530     1.6970 C.3   1 <1>  -0.2400 
 24 C        6.5990     8.2580     2.4190 C.3   1 <1>  -0.2400 
 25 H        1.7890     3.9760     1.6910 H     1 <1>   0.0800 
 26 H        0.4470     2.8940     1.3500 H     1 <1>   0.0800 
 27 H        3.6790     1.7400    -1.0330 H     1 <1>   0.0800 
 28 H        4.5490     2.7360     0.1010 H     1 <1>   0.0800 
 29 H        0.8450     3.0600    -1.0170 H     1 <1>   0.0800 
 30 H        2.9880     3.7410    -1.9130 H     1 <1>   0.0800 
 31 H        3.3780     4.6100    -0.4420 H     1 <1>   0.0800 
 32 H       -0.2180     5.3000    -2.3070 H     1 <1>   0.0800 
 33 H        1.4910     5.1690    -2.5140 H     1 <1>   0.0800 
 34 H       -0.3570     5.0990     1.2530 H     1 <1>   0.0800 
 35 H       -1.1590     4.5270    -0.2000 H     1 <1>   0.0800 
 36 H       -0.8460     6.2330     0.0340 H     1 <1>   0.0800 
 37 H        1.6680     7.2640    -0.1750 H     1 <1>   0.3700 
 38 H        1.1890     9.8140    -0.4360 H     1 <1>   0.0800 
 39 H        1.8700     9.5720    -2.0260 H     1 <1>   0.0800 
 40 H        3.6960     7.8480    -2.8300 H     1 <1>   0.0800 
 41 H        5.4350     7.9840    -2.7400 H     1 <1>   0.0800 
 42 H        4.4760     9.3780    -3.1790 H     1 <1>   0.0800 
 43 H        1.7630     9.9110     1.7880 H     1 <1>   0.0800 
 44 H        3.0860    10.8860     2.3700 H     1 <1>   0.0800 
 45 H        2.9550     9.2040     2.8440 H     1 <1>   0.0800 
 46 H        5.3270     9.9140     2.8480 H     1 <1>   0.0800 
 47 H        7.5820    10.3370     0.8780 H     1 <1>   0.0800 
 48 H        7.5830    10.8370     2.5530 H     1 <1>   0.0800 
 49 H        6.4670    11.5700     1.4260 H     1 <1>   0.0800 
 50 H        7.2090     7.8940     1.6100 H     1 <1>   0.0800 
 51 H        5.8590     7.5160     2.6590 H     1 <1>   0.0800 
 52 H        7.2250     8.4100     3.2790 H     1 <1>   0.0800 
@<TRIPOS>BOND
  1   1   2  2   
  2   1   3  2   
  3   1   4  1   
  4   1   5  1   
  5   4   6  1   
  6   4  25  1   
  7   4  26  1   
  8   5   7  1   
  9   5  27  1   
 10   5  28  1   
 11   6   7  1   
 12   6   8  1   
 13   6  29  1   
 14   7  30  1   
 15   7  31  1   
 16   8   9  1   
 17   8  10  1   
 18   9  11  1   
 19   9  32  1   
 20   9  33  1   
 21  10  34  1   
 22  10  35  1   
 23  10  36  1   
 24  11  12  2   
 25  11  13  am  
 26  13  14  1   
 27  13  37  1   
 28  14  15  1   
 29  14  38  1   
 30  14  39  1   
 31  15  16  1   
 32  15  17  2   
 33  16  18  2   
 34  16  19  1   
 35  17  20  1   
 36  17  21  1   
 37  18  20  1   
 38  19  40  1   
 39  19  41  1   
 40  19  42  1   
 41  20  22  1   
 42  21  43  1   
 43  21  44  1   
 44  21  45  1   
 45  22  23  1   
 46  22  24  1   
 47  22  46  1   
 48  23  47  1   
 49  23  48  1   
 50  23  49  1   
 51  24  50  1   
 52  24  51  1   
 53  24  52  1   
@<TRIPOS>SUBSTRUCTURE
  1 ****  13 GROUP 4 **** **** 0

# MOE 2024.06 (io_trps.svl 2023.06)
