@<TRIPOS>MOLECULE
NONAME
45 47 1 0 0 
SMALL
USER_CHARGES


@<TRIPOS>ATOM
  1 F        0.6080    -2.6170    -0.8990 F     1 <1>  -0.3400 
  2 C        0.8490    -3.7460    -0.2440 C.3   1 <1>   1.1640 
  3 F        1.4100    -4.5730    -1.1180 F     1 <1>  -0.3400 
  4 F        1.7810    -3.4680     0.6580 F     1 <1>  -0.3400 
  5 C       -0.4050    -4.3680     0.3920 C.ar  1 <1>  -0.1440 
  6 C       -1.6580    -3.7700     0.2880 C.ar  1 <1>  -0.1500 
  7 C       -0.2990    -5.5640     1.0920 C.ar  1 <1>  -0.1500 
  8 C       -2.7720    -4.3560     0.8630 C.ar  1 <1>  -0.1500 
  9 C       -1.4120    -6.1530     1.6640 C.ar  1 <1>  -0.1500 
 10 C       -2.6570    -5.5540     1.5490 C.ar  1 <1>  -0.1430 
 11 C       -3.8720    -6.2240     2.1580 C.3   1 <1>   0.4870 
 12 N       -4.3380    -7.2240     1.1780 N.4   1 <1>  -0.9590 
 13 C       -5.1370    -6.7000     0.0340 C.3   1 <1>   0.3430 
 14 C       -5.0360    -8.4220     1.6880 C.3   1 <1>   0.3430 
 15 C       -5.9650    -7.8910    -0.4700 C.3   1 <1>   0.2000 
 16 C       -5.6060    -9.0820     0.4320 C.3   1 <1>  -0.0800 
 17 O       -7.3170    -7.6050    -0.3240 O.3   1 <1>  -0.6800 
 18 C       -4.5980   -10.0530    -0.2320 C.3   1 <1>   0.0210 
 19 C       -3.1670    -9.5400    -0.3410 C.2   1 <1>   0.1080 
 20 N       -2.8410    -8.4350    -0.9410 N.2   1 <1>  -0.7070 
 21 C       -2.0570   -10.1890     0.1870 C.2   1 <1>  -0.1500 
 22 N       -1.4940    -8.3720    -0.8490 N.pl3 1 <1>   0.3000 
 23 C       -1.0040    -9.4140    -0.1490 C.2   1 <1>  -0.3320 
 24 C        0.4720    -9.6230     0.1390 C.3   1 <1>  -0.0600 
 25 H       -1.7770    -2.8380    -0.2410 H     1 <1>   0.1500 
 26 H        0.6630    -6.0420     1.1970 H     1 <1>   0.1500 
 27 H       -3.7260    -3.8640     0.7660 H     1 <1>   0.1500 
 28 H       -1.2940    -7.0820     2.1970 H     1 <1>   0.1500 
 29 H       -4.6450    -5.5030     2.3670 H     1 <1>   0.0800 
 30 H       -3.5850    -6.7070     3.0770 H     1 <1>   0.0800 
 31 H       -3.4850    -7.5870     0.6970 H     1 <1>   0.4500 
 32 H       -5.7910    -5.9030     0.3460 H     1 <1>   0.0800 
 33 H       -4.4770    -6.3480    -0.7430 H     1 <1>   0.0800 
 34 H       -4.3610    -9.0810     2.2110 H     1 <1>   0.0800 
 35 H       -5.8380    -8.1280     2.3440 H     1 <1>   0.0800 
 36 H       -5.7800    -8.0820    -1.5150 H     1 <1>   0.0800 
 37 H       -6.4870    -9.6510     0.6750 H     1 <1>   0.0800 
 38 H       -7.6100    -7.5840     0.6070 H     1 <1>   0.4000 
 39 H       -4.9430   -10.3080    -1.2200 H     1 <1>   0.0800 
 40 H       -4.5810   -10.9680     0.3330 H     1 <1>   0.0800 
 41 H       -2.0540   -11.1170     0.7330 H     1 <1>   0.1500 
 42 H       -0.9390    -7.6180    -1.2780 H     1 <1>   0.2700 
 43 H        0.6170   -10.5290     0.7020 H     1 <1>   0.0800 
 44 H        0.8660    -8.8000     0.7090 H     1 <1>   0.0800 
 45 H        1.0230    -9.7050    -0.7810 H     1 <1>   0.0800 
@<TRIPOS>BOND
  1   1   2  1   
  2   2   3  1   
  3   2   4  1   
  4   2   5  1   
  5   5   6  ar  
  6   5   7  ar  
  7   6   8  ar  
  8   6  25  1   
  9   7   9  ar  
 10   7  26  1   
 11   8  10  ar  
 12   8  27  1   
 13   9  10  ar  
 14   9  28  1   
 15  10  11  1   
 16  11  12  1   
 17  11  29  1   
 18  11  30  1   
 19  12  13  1   
 20  12  14  1   
 21  12  31  1   
 22  13  15  1   
 23  13  32  1   
 24  13  33  1   
 25  14  16  1   
 26  14  34  1   
 27  14  35  1   
 28  15  16  1   
 29  15  17  1   
 30  15  36  1   
 31  16  18  1   
 32  16  37  1   
 33  17  38  1   
 34  18  19  1   
 35  18  39  1   
 36  18  40  1   
 37  19  20  2   
 38  19  21  1   
 39  20  22  1   
 40  21  23  2   
 41  21  41  1   
 42  22  23  1   
 43  22  42  1   
 44  23  24  1   
 45  24  43  1   
 46  24  44  1   
 47  24  45  1   
@<TRIPOS>SUBSTRUCTURE
  1 ****   9 GROUP 4 **** **** 0

# MOE 2024.06 (io_trps.svl 2023.06)
