@<TRIPOS>MOLECULE
NONAME
49 52 1 0 0 
SMALL
USER_CHARGES


@<TRIPOS>ATOM
  1 CL      -0.0530     3.5460    -2.5530 Cl    1 <1>  -0.1770 
  2 C        1.1370     2.6170    -1.6750 C.ar  1 <1>   0.1770 
  3 C        1.1180     2.5740    -0.2780 C.ar  1 <1>   0.0860 
  4 C        2.0780     1.9300    -2.4190 C.ar  1 <1>  -0.1500 
  5 C        0.1470     3.3040     0.5060 C.2   1 <1>   0.5440 
  6 C        2.0820     1.7850     0.3590 C.ar  1 <1>  -0.1500 
  7 C        3.0160     1.1760    -1.7450 C.ar  1 <1>   0.1900 
  8 O       -0.5800     2.6820     1.2560 O.2   1 <1>  -0.5700 
  9 N        0.0590     4.6800     0.4590 N.am  1 <1>  -0.6600 
 10 C        3.0340     1.0870    -0.3650 C.ar  1 <1>  -0.1500 
 11 F        3.9120     0.5250    -2.4300 F     1 <1>  -0.1900 
 12 C       -1.1350     5.4050     1.0270 C.3   1 <1>   0.2200 
 13 C        1.2390     5.5190     0.0830 C.3   1 <1>   0.1400 
 14 C       -1.0160     6.9620     0.9890 C.3   1 <1>   0.1380 
 15 C       -2.4790     4.8900     0.4770 C.3   1 <1>  -0.1600 
 16 C        1.5310     6.6180     1.1220 C.3   1 <1>  -0.1600 
 17 C       -0.9570     7.6300    -0.4210 C.2   1 <1>  -0.2760 
 18 C       -2.2450     7.5300     1.7610 C.3   1 <1>   0.1200 
 19 C        0.2860     7.2700     1.7620 C.3   1 <1>  -0.1600 
 20 C       -3.5760     5.9500     0.6120 C.3   1 <1>   0.1200 
 21 C       -1.1400     7.0260    -1.6040 C.2   1 <1>  -0.2880 
 22 C       -0.6280     9.1290    -0.4490 C.3   1 <1>  -0.0220 
 23 O       -3.3540     6.6660     1.7860 O.3   1 <1>  -0.5600 
 24 C       -1.0400     7.7150    -2.9580 C.3   1 <1>   0.2580 
 25 C       -0.9770     9.7550    -1.8050 C.3   1 <1>   0.1200 
 26 O       -0.4450     8.9720    -2.8270 O.3   1 <1>  -0.5600 
 27 H        2.0800     1.9780    -3.4930 H     1 <1>   0.1500 
 28 H        2.0720     1.7240     1.4340 H     1 <1>   0.1500 
 29 H        3.7760     0.4820     0.1260 H     1 <1>   0.1500 
 30 H       -1.1550     5.1480     2.0740 H     1 <1>   0.0800 
 31 H        2.1190     4.9110    -0.0230 H     1 <1>   0.0800 
 32 H        1.0540     5.9700    -0.8750 H     1 <1>   0.0800 
 33 H       -2.7760     4.0320     1.0510 H     1 <1>   0.0800 
 34 H       -2.4020     4.5740    -0.5440 H     1 <1>   0.0800 
 35 H        2.1450     6.2010     1.9010 H     1 <1>   0.0800 
 36 H        2.1170     7.3780     0.6360 H     1 <1>   0.0800 
 37 H       -2.5820     8.4550     1.3340 H     1 <1>   0.0800 
 38 H       -1.9880     7.7150     2.7890 H     1 <1>   0.0800 
 39 H        0.4390     8.3280     1.8730 H     1 <1>   0.0800 
 40 H        0.1890     6.8740     2.7590 H     1 <1>   0.0800 
 41 H       -4.5450     5.4870     0.6790 H     1 <1>   0.0800 
 42 H       -3.5710     6.6380    -0.2170 H     1 <1>   0.0800 
 43 H       -1.3610     5.9850    -1.7240 H     1 <1>   0.1500 
 44 H        0.4230     9.2700    -0.2750 H     1 <1>   0.0800 
 45 H       -1.1600     9.6690     0.3100 H     1 <1>   0.0800 
 46 H       -2.0140     7.8400    -3.3980 H     1 <1>   0.0800 
 47 H       -0.4240     7.1390    -3.6260 H     1 <1>   0.0800 
 48 H       -0.5540    10.7410    -1.8880 H     1 <1>   0.0800 
 49 H       -2.0440     9.8160    -1.9400 H     1 <1>   0.0800 
@<TRIPOS>BOND
  1   1   2  1   
  2   2   3  ar  
  3   2   4  ar  
  4   3   5  1   
  5   3   6  ar  
  6   4   7  ar  
  7   4  27  1   
  8   5   8  2   
  9   5   9  am  
 10   6  10  ar  
 11   6  28  1   
 12   7  10  ar  
 13   7  11  1   
 14   9  12  1   
 15   9  13  1   
 16  10  29  1   
 17  12  14  1   
 18  12  15  1   
 19  12  30  1   
 20  13  16  1   
 21  13  31  1   
 22  13  32  1   
 23  14  17  1   
 24  14  18  1   
 25  14  19  1   
 26  15  20  1   
 27  15  33  1   
 28  15  34  1   
 29  16  19  1   
 30  16  35  1   
 31  16  36  1   
 32  17  21  2   
 33  17  22  1   
 34  18  23  1   
 35  18  37  1   
 36  18  38  1   
 37  19  39  1   
 38  19  40  1   
 39  20  23  1   
 40  20  41  1   
 41  20  42  1   
 42  21  24  1   
 43  21  43  1   
 44  22  25  1   
 45  22  44  1   
 46  22  45  1   
 47  24  26  1   
 48  24  46  1   
 49  24  47  1   
 50  25  26  1   
 51  25  48  1   
 52  25  49  1   
@<TRIPOS>SUBSTRUCTURE
  1 ****   9 GROUP 4 **** **** 0

# MOE 2024.06 (io_trps.svl 2023.06)
