@<TRIPOS>MOLECULE
NONAME
47 49 1 0 0 
SMALL
USER_CHARGES


@<TRIPOS>ATOM
  1 O       -0.6300     0.1440    -2.5880 O.2   1 <1>  -0.5700 
  2 C       -1.1890     0.8970    -1.8240 C.2   1 <1>   0.5690 
  3 N       -2.0560     0.4210    -0.8740 N.am  1 <1>  -0.6600 
  4 C       -0.9330     2.3930    -1.9900 C.3   1 <1>   0.1810 
  5 C       -2.8060     1.2310     0.1180 C.3   1 <1>   0.1400 
  6 C       -2.3010    -1.0260    -0.6700 C.3   1 <1>   0.1400 
  7 O       -0.5510     3.0040    -0.7650 O.3   1 <1>  -0.3620 
  8 C       -3.7260     0.2300     0.8160 C.3   1 <1>   0.2000 
  9 C       -3.0350    -1.1240     0.6690 C.3   1 <1>  -0.0800 
 10 C       -0.4110     4.3490    -0.6660 C.ar  1 <1>   0.0830 
 11 O       -3.9000     0.5370     2.1550 O.3   1 <1>  -0.6800 
 12 C       -4.0110    -2.3070     0.7520 C.3   1 <1>   0.0200 
 13 C       -0.2300     4.8640     0.6060 C.ar  1 <1>  -0.1500 
 14 C       -0.4440     5.2130    -1.7580 C.ar  1 <1>  -0.1500 
 15 C       -3.2940    -3.6230     0.5250 C.2   1 <1>  -0.0400 
 16 C       -0.0900     6.2260     0.8060 C.ar  1 <1>   0.0830 
 17 C       -0.3040     6.5760    -1.5630 C.ar  1 <1>  -0.1500 
 18 O       -2.3700    -4.0170     1.3610 O.3   1 <1>  -0.0190 
 19 C       -3.4060    -4.5520    -0.4350 C.2   1 <1>  -0.1500 
 20 O        0.0780     6.6420     2.0870 O.3   1 <1>  -0.3630 
 21 C       -0.1280     7.0860    -0.2880 C.ar  1 <1>  -0.1500 
 22 N       -1.8560    -5.1600     1.0090 N.2   1 <1>  -0.4100 
 23 C       -2.4610    -5.5070    -0.0700 C.2   1 <1>   0.1080 
 24 C        0.2330     8.0080     2.4010 C.3   1 <1>   0.0400 
 25 C       -2.1750    -6.7810    -0.8320 C.3   1 <1>  -0.0590 
 26 H       -1.8290     2.8670    -2.3420 H     1 <1>   0.0800 
 27 H       -0.1380     2.5410    -2.6970 H     1 <1>   0.0800 
 28 H       -2.1130     1.6640     0.8180 H     1 <1>   0.0800 
 29 H       -3.3740     2.0040    -0.3700 H     1 <1>   0.0800 
 30 H       -2.9120    -1.3920    -1.4770 H     1 <1>   0.0800 
 31 H       -1.3730    -1.5730    -0.6510 H     1 <1>   0.0800 
 32 H       -4.6920     0.2330     0.3390 H     1 <1>   0.0800 
 33 H       -2.2840    -1.2260     1.4340 H     1 <1>   0.0800 
 34 H       -3.0420     0.5190     2.6230 H     1 <1>   0.4000 
 35 H       -4.7870    -2.1960     0.0160 H     1 <1>   0.0800 
 36 H       -4.4740    -2.3240     1.7240 H     1 <1>   0.0800 
 37 H       -0.1980     4.2010     1.4500 H     1 <1>   0.1500 
 38 H       -0.5730     4.8480    -2.7590 H     1 <1>   0.1500 
 39 H       -0.3300     7.2430    -2.4080 H     1 <1>   0.1500 
 40 H       -4.0510    -4.5870    -1.2930 H     1 <1>   0.1500 
 41 H       -0.0230     8.1470    -0.1680 H     1 <1>   0.1500 
 42 H        0.3500     8.0950     3.4660 H     1 <1>   0.0800 
 43 H       -0.6470     8.5400     2.0860 H     1 <1>   0.0800 
 44 H        1.1100     8.3840     1.9050 H     1 <1>   0.0800 
 45 H       -3.0680    -7.3740    -0.9000 H     1 <1>   0.0800 
 46 H       -1.4170    -7.3500    -0.3240 H     1 <1>   0.0800 
 47 H       -1.8280    -6.5440    -1.8210 H     1 <1>   0.0800 
@<TRIPOS>BOND
  1   1   2  2   
  2   2   3  am  
  3   2   4  1   
  4   3   5  1   
  5   3   6  1   
  6   4   7  1   
  7   4  26  1   
  8   4  27  1   
  9   5   8  1   
 10   5  28  1   
 11   5  29  1   
 12   6   9  1   
 13   6  30  1   
 14   6  31  1   
 15   7  10  1   
 16   8   9  1   
 17   8  11  1   
 18   8  32  1   
 19   9  12  1   
 20   9  33  1   
 21  10  13  ar  
 22  10  14  ar  
 23  11  34  1   
 24  12  15  1   
 25  12  35  1   
 26  12  36  1   
 27  13  16  ar  
 28  13  37  1   
 29  14  17  ar  
 30  14  38  1   
 31  15  18  1   
 32  15  19  2   
 33  16  20  1   
 34  16  21  ar  
 35  17  21  ar  
 36  17  39  1   
 37  18  22  1   
 38  19  23  1   
 39  19  40  1   
 40  20  24  1   
 41  21  41  1   
 42  22  23  2   
 43  23  25  1   
 44  24  42  1   
 45  24  43  1   
 46  24  44  1   
 47  25  45  1   
 48  25  46  1   
 49  25  47  1   
@<TRIPOS>SUBSTRUCTURE
  1 ****   3 GROUP 4 **** **** 0

# MOE 2024.06 (io_trps.svl 2023.06)
