@<TRIPOS>MOLECULE
NONAME
42 44 1 0 0 
SMALL
USER_CHARGES


@<TRIPOS>ATOM
  1 O       -0.1310     1.2410     1.9300 O.2   1 <1>  -0.5700 
  2 C        0.0470     2.2770     1.3070 C.2   1 <1>   0.5440 
  3 N       -1.0590     3.0650     1.0260 N.am  1 <1>  -0.6600 
  4 C        1.3960     2.6200     0.8460 C.ar  1 <1>   0.3960 
  5 C       -2.4280     2.7260     1.5160 C.3   1 <1>   0.1400 
  6 C       -1.0220     4.2740     0.1600 C.3   1 <1>   0.1400 
  7 N        1.9730     3.7390     1.3230 N.ar  1 <1>  -0.6200 
  8 C        2.0510     1.7940    -0.0830 C.ar  1 <1>  -0.1440 
  9 C       -3.3590     2.4220     0.3270 C.3   1 <1>   0.0000 
 10 C       -1.9260     4.0570    -1.0590 C.3   1 <1>  -0.1600 
 11 C        3.1870     4.0210     0.8980 C.ar  1 <1>   0.1600 
 12 C        3.3220     2.1150    -0.5160 C.ar  1 <1>  -0.1500 
 13 C        1.3900     0.5360    -0.6380 C.3   1 <1>  -0.0970 
 14 C       -4.7670     2.0500     0.8300 C.3   1 <1>   0.2000 
 15 C       -3.3510     3.6300    -0.6550 C.3   1 <1>  -0.1600 
 16 C       -2.9540     1.1240    -0.3960 C.3   1 <1>  -0.1600 
 17 C        3.8980     3.2560    -0.0070 C.ar  1 <1>  -0.1500 
 18 O       -5.5610     3.1530     1.0860 O.3   1 <1>  -0.6800 
 19 C       -5.4010     1.1850    -0.2590 C.3   1 <1>  -0.1600 
 20 C       -4.2310     0.5990    -1.0610 C.3   1 <1>  -0.1600 
 21 H       -2.3950     1.8840     2.1850 H     1 <1>   0.0800 
 22 H       -2.8150     3.5630     2.0710 H     1 <1>   0.0800 
 23 H       -1.3700     5.1180     0.7300 H     1 <1>   0.0800 
 24 H       -0.0220     4.4890    -0.1710 H     1 <1>   0.0800 
 25 H       -1.9750     4.9710    -1.6230 H     1 <1>   0.0800 
 26 H       -1.4780     3.3160    -1.6950 H     1 <1>   0.0800 
 27 H        3.6470     4.9120     1.2910 H     1 <1>   0.1500 
 28 H        3.8530     1.5010    -1.2230 H     1 <1>   0.1500 
 29 H        1.9700     0.1090    -1.4360 H     1 <1>   0.0800 
 30 H        0.4100     0.7640    -1.0180 H     1 <1>   0.0800 
 31 H        1.2930    -0.2000     0.1420 H     1 <1>   0.0800 
 32 H       -4.6920     1.4780     1.7400 H     1 <1>   0.0800 
 33 H       -3.9220     3.4050    -1.5380 H     1 <1>   0.0800 
 34 H       -3.8080     4.4780    -0.1760 H     1 <1>   0.0800 
 35 H       -2.1600     1.2600    -1.1060 H     1 <1>   0.0800 
 36 H       -2.6230     0.4020     0.3320 H     1 <1>   0.0800 
 37 H        4.8870     3.5520    -0.3060 H     1 <1>   0.1500 
 38 H       -5.6730     3.6680     0.2660 H     1 <1>   0.4000 
 39 H       -5.9880     0.4020     0.1880 H     1 <1>   0.0800 
 40 H       -6.0240     1.7730    -0.9090 H     1 <1>   0.0800 
 41 H       -4.2500    -0.4770    -1.0590 H     1 <1>   0.0800 
 42 H       -4.2810     0.9440    -2.0790 H     1 <1>   0.0800 
@<TRIPOS>BOND
  1   1   2  2   
  2   2   3  am  
  3   2   4  1   
  4   3   5  1   
  5   3   6  1   
  6   4   7  ar  
  7   4   8  ar  
  8   5   9  1   
  9   5  21  1   
 10   5  22  1   
 11   6  10  1   
 12   6  23  1   
 13   6  24  1   
 14   7  11  ar  
 15   8  12  ar  
 16   8  13  1   
 17   9  14  1   
 18   9  15  1   
 19   9  16  1   
 20  10  15  1   
 21  10  25  1   
 22  10  26  1   
 23  11  17  ar  
 24  11  27  1   
 25  12  17  ar  
 26  12  28  1   
 27  13  29  1   
 28  13  30  1   
 29  13  31  1   
 30  14  18  1   
 31  14  19  1   
 32  14  32  1   
 33  15  33  1   
 34  15  34  1   
 35  16  20  1   
 36  16  35  1   
 37  16  36  1   
 38  17  37  1   
 39  18  38  1   
 40  19  20  1   
 41  19  39  1   
 42  19  40  1   
 43  20  41  1   
 44  20  42  1   
@<TRIPOS>SUBSTRUCTURE
  1 ****   3 GROUP 4 **** **** 0

# MOE 2024.06 (io_trps.svl 2023.06)
