@<TRIPOS>MOLECULE
NONAME
49 51 1 0 0 
SMALL
USER_CHARGES


@<TRIPOS>ATOM
  1 N        0.1250    -1.0440     0.5670 N.ar  1 <1>  -0.6200 
  2 C        0.9710    -0.0240     0.6510 C.ar  1 <1>   0.7710 
  3 C        0.5630    -2.1750     0.0690 C.ar  1 <1>   0.4100 
  4 N        2.2470    -0.1380     0.2380 N.ar  1 <1>  -0.1790 
  5 N        0.5460     1.1660     1.1580 N.pl3 1 <1>  -0.8380 
  6 N       -0.3580    -3.1450     0.0100 N.pl3 1 <1>  -0.8690 
  7 C        1.8910    -2.3410    -0.3620 C.ar  1 <1>  -0.1500 
  8 C        2.7420    -1.2900    -0.2740 C.ar  1 <1>   0.2170 
  9 C        1.3780     2.3730     1.4580 C.3   1 <1>   0.2090 
 10 C       -0.9030     1.4250     1.4530 C.3   1 <1>   0.2090 
 11 C       -0.3170    -4.4450    -0.6910 C.3   1 <1>   0.4690 
 12 C        4.1950    -1.3400    -0.7120 C.3   1 <1>  -0.0970 
 13 C        0.9410     3.5220     0.5450 C.3   1 <1>  -0.1600 
 14 C       -1.3990     2.5630     0.5550 C.3   1 <1>  -0.1600 
 15 C       -1.6760    -4.8030    -1.2850 C.2   1 <1>   0.0060 
 16 C        0.1810    -5.5130     0.2780 C.3   1 <1>  -0.2400 
 17 C       -0.5530     3.8340     0.7200 C.3   1 <1>  -0.1600 
 18 N       -1.8210    -5.1920    -2.5040 N.2   1 <1>  -0.5650 
 19 N       -2.8590    -4.7720    -0.6450 N.pl3 1 <1>   0.3140 
 20 C       -3.1400    -5.3980    -2.5710 C.2   1 <1>   0.3660 
 21 N       -3.8030    -5.1650    -1.4890 N.2   1 <1>  -0.7070 
 22 C       -3.2100    -4.3860     0.7440 C.3   1 <1>   0.0960 
 23 C       -3.7890    -2.9650     0.7990 C.3   1 <1>  -0.2400 
 24 H        2.8030     0.7030     0.3140 H     1 <1>   0.4570 
 25 H       -1.2990    -2.8630     0.2880 H     1 <1>   0.4000 
 26 H        2.2030    -3.2910    -0.7510 H     1 <1>   0.1500 
 27 H        2.4290     2.1860     1.3320 H     1 <1>   0.0800 
 28 H        1.2240     2.6590     2.4870 H     1 <1>   0.0800 
 29 H       -1.0110     1.7050     2.4880 H     1 <1>   0.0800 
 30 H       -1.5170     0.5570     1.2880 H     1 <1>   0.0800 
 31 H        0.3770    -4.3780    -1.5120 H     1 <1>   0.0800 
 32 H        4.3790    -0.6190    -1.4890 H     1 <1>   0.0800 
 33 H        4.4390    -2.3150    -1.0970 H     1 <1>   0.0800 
 34 H        4.8470    -1.1350     0.1190 H     1 <1>   0.0800 
 35 H        1.1390     3.2620    -0.4800 H     1 <1>   0.0800 
 36 H        1.5150     4.4020     0.7780 H     1 <1>   0.0800 
 37 H       -2.4250     2.7820     0.7950 H     1 <1>   0.0800 
 38 H       -1.3700     2.2350    -0.4690 H     1 <1>   0.0800 
 39 H       -0.4730    -5.6120     1.1220 H     1 <1>   0.0800 
 40 H        1.1690    -5.2710     0.6240 H     1 <1>   0.0800 
 41 H        0.2230    -6.4600    -0.2300 H     1 <1>   0.0800 
 42 H       -0.8600     4.5730    -0.0010 H     1 <1>   0.0800 
 43 H       -0.7190     4.2450     1.7020 H     1 <1>   0.0800 
 44 H       -3.6010    -5.7390    -3.4850 H     1 <1>   0.1500 
 45 H       -2.3420    -4.4560     1.3700 H     1 <1>   0.0800 
 46 H       -3.9420    -5.0870     1.1050 H     1 <1>   0.0800 
 47 H       -3.0880    -2.2420     0.4220 H     1 <1>   0.0800 
 48 H       -4.0330    -2.7100     1.8140 H     1 <1>   0.0800 
 49 H       -4.6910    -2.9160     0.2130 H     1 <1>   0.0800 
@<TRIPOS>BOND
  1   1   2  ar  
  2   1   3  ar  
  3   2   4  ar  
  4   2   5  1   
  5   3   6  1   
  6   3   7  ar  
  7   4   8  ar  
  8   4  24  1   
  9   5   9  1   
 10   5  10  1   
 11   6  11  1   
 12   6  25  1   
 13   7   8  ar  
 14   7  26  1   
 15   8  12  1   
 16   9  13  1   
 17   9  27  1   
 18   9  28  1   
 19  10  14  1   
 20  10  29  1   
 21  10  30  1   
 22  11  15  1   
 23  11  16  1   
 24  11  31  1   
 25  12  32  1   
 26  12  33  1   
 27  12  34  1   
 28  13  17  1   
 29  13  35  1   
 30  13  36  1   
 31  14  17  1   
 32  14  37  1   
 33  14  38  1   
 34  15  18  2   
 35  15  19  1   
 36  16  39  1   
 37  16  40  1   
 38  16  41  1   
 39  17  42  1   
 40  17  43  1   
 41  18  20  1   
 42  19  21  1   
 43  19  22  1   
 44  20  21  2   
 45  20  44  1   
 46  22  23  1   
 47  22  45  1   
 48  22  46  1   
 49  23  47  1   
 50  23  48  1   
 51  23  49  1   
@<TRIPOS>SUBSTRUCTURE
  1 ****   1 GROUP 4 **** **** 0

# MOE 2024.06 (io_trps.svl 2023.06)
