@<TRIPOS>MOLECULE
NONAME
41 42 1 0 0 
SMALL
USER_CHARGES


@<TRIPOS>ATOM
  1 S        4.0330    -0.0280     1.1530 S.3   1 <1>  -0.0800 
  2 C        2.6070     0.1580     0.1400 C.2   1 <1>  -0.1400 
  3 C        3.1260    -0.9520     2.3370 C.2   1 <1>  -0.1100 
  4 C        1.5490    -0.4540     0.7030 C.2   1 <1>  -0.1500 
  5 C        2.7580     0.9330    -1.1550 C.3   1 <1>   0.0200 
  6 C        1.8440    -1.0850     1.9540 C.2   1 <1>  -0.1500 
  7 C        2.9800     2.4230    -0.8690 C.3   1 <1>  -0.1600 
  8 C        3.1910     3.2310    -2.1630 C.3   1 <1>  -0.0990 
  9 C        3.3380     4.7250    -1.9300 C.2   1 <1>   0.5690 
 10 O        2.7400     5.4770    -2.6600 O.2   1 <1>  -0.5700 
 11 N        4.1480     5.1390    -0.9090 N.am  1 <1>  -0.4940 
 12 C        4.4790     6.4530    -0.4980 C.2   1 <1>  -0.0880 
 13 N        5.1470     6.7670     0.6450 N.pl3 1 <1>   0.3140 
 14 C        4.2260     7.6300    -1.1160 C.2   1 <1>  -0.1500 
 15 N        5.3280     8.1010     0.7660 N.2   1 <1>  -0.7070 
 16 C        5.6010     5.8370     1.6980 C.3   1 <1>   0.0960 
 17 C        4.7740     8.6030    -0.2910 C.2   1 <1>   0.1080 
 18 C        6.8980     5.1240     1.2880 C.3   1 <1>  -0.1600 
 19 C        4.7450    10.0890    -0.5610 C.3   1 <1>  -0.0590 
 20 C        7.3260     4.0970     2.3420 C.3   1 <1>  -0.2400 
 21 H        3.6560    -1.3030     3.2040 H     1 <1>   0.1500 
 22 H        0.5560    -0.4940     0.2900 H     1 <1>   0.1500 
 23 H        1.8670     0.8070    -1.7460 H     1 <1>   0.0800 
 24 H        3.5880     0.5300    -1.7090 H     1 <1>   0.0800 
 25 H        1.0790    -1.6070     2.5010 H     1 <1>   0.1500 
 26 H        3.8380     2.5260    -0.2290 H     1 <1>   0.0800 
 27 H        2.1230     2.8080    -0.3420 H     1 <1>   0.0800 
 28 H        2.3510     3.0780    -2.8180 H     1 <1>   0.0800 
 29 H        4.0700     2.8840    -2.6750 H     1 <1>   0.0800 
 30 H        4.5670     4.3850    -0.3690 H     1 <1>   0.3700 
 31 H        3.7120     7.7920    -2.0460 H     1 <1>   0.1500 
 32 H        4.8180     5.1260     1.8830 H     1 <1>   0.0800 
 33 H        5.7630     6.4040     2.5970 H     1 <1>   0.0800 
 34 H        7.6780     5.8580     1.1710 H     1 <1>   0.0800 
 35 H        6.7620     4.6240     0.3450 H     1 <1>   0.0800 
 36 H        4.2360    10.2920    -1.4850 H     1 <1>   0.0800 
 37 H        5.7500    10.4610    -0.6210 H     1 <1>   0.0800 
 38 H        4.2340    10.5880     0.2420 H     1 <1>   0.0800 
 39 H        7.4930     4.5780     3.2900 H     1 <1>   0.0800 
 40 H        8.2410     3.6190     2.0390 H     1 <1>   0.0800 
 41 H        6.5710     3.3390     2.4650 H     1 <1>   0.0800 
@<TRIPOS>BOND
  1   1   2  1   
  2   1   3  1   
  3   2   4  2   
  4   2   5  1   
  5   3   6  2   
  6   3  21  1   
  7   4   6  1   
  8   4  22  1   
  9   5   7  1   
 10   5  23  1   
 11   5  24  1   
 12   6  25  1   
 13   7   8  1   
 14   7  26  1   
 15   7  27  1   
 16   8   9  1   
 17   8  28  1   
 18   8  29  1   
 19   9  10  2   
 20   9  11  am  
 21  11  12  1   
 22  11  30  1   
 23  12  13  1   
 24  12  14  2   
 25  13  15  1   
 26  13  16  1   
 27  14  17  1   
 28  14  31  1   
 29  15  17  2   
 30  16  18  1   
 31  16  32  1   
 32  16  33  1   
 33  17  19  1   
 34  18  20  1   
 35  18  34  1   
 36  18  35  1   
 37  19  36  1   
 38  19  37  1   
 39  19  38  1   
 40  20  39  1   
 41  20  40  1   
 42  20  41  1   
@<TRIPOS>SUBSTRUCTURE
  1 ****  11 GROUP 4 **** **** 0

# MOE 2024.06 (io_trps.svl 2023.06)
