@<TRIPOS>MOLECULE
NONAME
47 49 1 0 0 
SMALL
USER_CHARGES


@<TRIPOS>ATOM
  1 O        1.1610    -0.8240    -1.6970 O.2   1 <1>  -0.5700 
  2 C        1.9270    -0.9550    -0.7770 C.2   1 <1>   0.5690 
  3 N        2.6040     0.0810    -0.1960 N.am  1 <1>  -0.4940 
  4 C        2.1370    -2.3710    -0.2360 C.3   1 <1>  -0.0190 
  5 C        2.5940     1.4390    -0.5410 C.2   1 <1>   0.2040 
  6 C        2.6600    -3.3040    -1.3480 C.3   1 <1>  -0.1600 
  7 C        0.8220    -2.9260     0.3480 C.3   1 <1>  -0.1600 
  8 O        1.9600     1.8890    -1.5980 O.3   1 <1>  -0.0190 
  9 C        3.1840     2.4920     0.0590 C.2   1 <1>  -0.1810 
 10 C        2.7250    -4.7650    -0.9090 C.3   1 <1>   0.3430 
 11 C        0.9270    -4.3970     0.7470 C.3   1 <1>   0.3430 
 12 N        2.0970     3.1830    -1.7340 N.2   1 <1>  -0.4100 
 13 C        2.8270     3.5690    -0.7510 C.2   1 <1>   0.1080 
 14 C        4.0350     2.5370     1.3170 C.3   1 <1>   0.0210 
 15 N        1.3860    -5.1970    -0.4250 N.4   1 <1>  -0.9590 
 16 C        3.2240     5.0140    -0.5360 C.3   1 <1>  -0.0590 
 17 C        5.5230     2.4950     0.9640 C.3   1 <1>  -0.2400 
 18 C        1.3480    -6.6640    -0.1450 C.3   1 <1>   0.5230 
 19 C       -0.0890    -7.1550    -0.1380 C.2   1 <1>  -0.0400 
 20 O       -0.8860    -6.8040     0.8550 O.3   1 <1>  -0.2800 
 21 C       -0.7490    -7.9440    -1.0150 C.2   1 <1>  -0.1500 
 22 C       -2.0630    -7.3550     0.6370 C.2   1 <1>  -0.0100 
 23 C       -2.0470    -8.0730    -0.5060 C.2   1 <1>  -0.1500 
 24 H        3.2070    -0.1400     0.5900 H     1 <1>   0.3700 
 25 H        2.8710    -2.3370     0.5500 H     1 <1>   0.0800 
 26 H        3.6420    -2.9820    -1.6510 H     1 <1>   0.0800 
 27 H        2.0250    -3.2320    -2.2160 H     1 <1>   0.0800 
 28 H        0.0280    -2.8200    -0.3720 H     1 <1>   0.0800 
 29 H        0.5410    -2.3470     1.2120 H     1 <1>   0.0800 
 30 H        3.4530    -4.8760    -0.1210 H     1 <1>   0.0800 
 31 H        3.0320    -5.3740    -1.7450 H     1 <1>   0.0800 
 32 H       -0.0410    -4.7360     1.0790 H     1 <1>   0.0800 
 33 H        1.6210    -4.5070     1.5640 H     1 <1>   0.0800 
 34 H        3.7930     1.7010     1.9490 H     1 <1>   0.0800 
 35 H        3.8170     3.4350     1.8700 H     1 <1>   0.0800 
 36 H        0.7010    -5.0340    -1.1760 H     1 <1>   0.4500 
 37 H        4.2910     5.1140    -0.5920 H     1 <1>   0.0800 
 38 H        2.8820     5.3500     0.4250 H     1 <1>   0.0800 
 39 H        2.7790     5.6320    -1.2950 H     1 <1>   0.0800 
 40 H        5.7530     1.5970     0.4190 H     1 <1>   0.0800 
 41 H        6.1180     2.5190     1.8600 H     1 <1>   0.0800 
 42 H        5.7880     3.3410     0.3550 H     1 <1>   0.0800 
 43 H        1.8120    -6.8820     0.8020 H     1 <1>   0.0800 
 44 H        1.8820    -7.1940    -0.9160 H     1 <1>   0.0800 
 45 H       -0.4030    -8.4050    -1.9250 H     1 <1>   0.1500 
 46 H       -2.8600    -7.1900     1.3430 H     1 <1>   0.1500 
 47 H       -2.8450    -8.6390    -0.9550 H     1 <1>   0.1500 
@<TRIPOS>BOND
  1   1   2  2   
  2   2   3  am  
  3   2   4  1   
  4   3   5  1   
  5   3  24  1   
  6   4   6  1   
  7   4   7  1   
  8   4  25  1   
  9   5   8  1   
 10   5   9  2   
 11   6  10  1   
 12   6  26  1   
 13   6  27  1   
 14   7  11  1   
 15   7  28  1   
 16   7  29  1   
 17   8  12  1   
 18   9  13  1   
 19   9  14  1   
 20  10  15  1   
 21  10  30  1   
 22  10  31  1   
 23  11  15  1   
 24  11  32  1   
 25  11  33  1   
 26  12  13  2   
 27  13  16  1   
 28  14  17  1   
 29  14  34  1   
 30  14  35  1   
 31  15  18  1   
 32  15  36  1   
 33  16  37  1   
 34  16  38  1   
 35  16  39  1   
 36  17  40  1   
 37  17  41  1   
 38  17  42  1   
 39  18  19  1   
 40  18  43  1   
 41  18  44  1   
 42  19  20  1   
 43  19  21  2   
 44  20  22  1   
 45  21  23  1   
 46  21  45  1   
 47  22  23  2   
 48  22  46  1   
 49  23  47  1   
@<TRIPOS>SUBSTRUCTURE
  1 ****   4 GROUP 4 **** **** 0

# MOE 2024.06 (io_trps.svl 2023.06)
