@<TRIPOS>MOLECULE
NONAME
53 56 1 0 0 
SMALL
USER_CHARGES


@<TRIPOS>ATOM
  1 O       -1.7540     2.2650    -1.9060 O.2   1 <1>  -0.5700 
  2 C       -2.3350     2.0320    -0.8700 C.2   1 <1>   0.5690 
  3 N       -3.3580     1.1060    -0.8240 N.am  1 <1>  -0.6600 
  4 C       -1.8830     2.8390     0.3440 C.3   1 <1>   0.0820 
  5 C       -3.6420     0.2430    -2.0100 C.3   1 <1>   0.1400 
  6 C       -4.3680     0.9220     0.2600 C.3   1 <1>   0.1400 
  7 C       -0.4360     2.5520     0.7320 C.2   1 <1>  -0.1810 
  8 C       -3.6250    -1.2280    -1.5880 C.3   1 <1>  -0.1600 
  9 C       -4.3740    -0.5380     0.7250 C.3   1 <1>  -0.1600 
 10 C        0.6600     3.3180     0.6090 C.2   1 <1>  -0.0400 
 11 C        0.0580     1.3850     1.3140 C.2   1 <1>   0.1080 
 12 C       -4.6100    -1.5160    -0.4420 C.3   1 <1>   0.4240 
 13 O        1.6740     2.6520     1.0940 O.3   1 <1>  -0.0190 
 14 C        0.8910     4.7030     0.0410 C.3   1 <1>  -0.0600 
 15 N        1.3220     1.4770     1.5260 N.2   1 <1>  -0.4100 
 16 C       -0.7530     0.1560     1.6520 C.3   1 <1>  -0.0590 
 17 O       -5.8690    -1.1900    -0.9910 O.3   1 <1>  -0.5600 
 18 C       -4.5450    -3.0030     0.0110 C.ar  1 <1>  -0.1440 
 19 C       -7.0020    -1.7400    -0.4030 C.3   1 <1>   0.1200 
 20 C       -3.3770    -3.5770     0.5320 C.ar  1 <1>   0.0820 
 21 C       -5.6780    -3.8100    -0.0950 C.ar  1 <1>  -0.1440 
 22 C       -6.9740    -3.2420    -0.6340 C.3   1 <1>  -0.0170 
 23 O       -2.2560    -2.8190     0.6570 O.3   1 <1>  -0.3630 
 24 C       -3.3640    -4.9130     0.9240 C.ar  1 <1>  -0.1500 
 25 C       -5.6510    -5.1400     0.2900 C.ar  1 <1>  -0.1500 
 26 C       -0.9700    -3.4040     0.6510 C.3   1 <1>   0.0400 
 27 C       -4.4950    -5.6930     0.8000 C.ar  1 <1>  -0.1500 
 28 H       -2.4950     2.6640     1.2010 H     1 <1>   0.0800 
 29 H       -1.9820     3.8770     0.0930 H     1 <1>   0.0800 
 30 H       -2.9090     0.3950    -2.7830 H     1 <1>   0.0800 
 31 H       -4.6060     0.5020    -2.4130 H     1 <1>   0.0800 
 32 H       -5.3390     1.1750    -0.1320 H     1 <1>   0.0800 
 33 H       -4.1860     1.5620     1.0990 H     1 <1>   0.0800 
 34 H       -2.6210    -1.4690    -1.3060 H     1 <1>   0.0800 
 35 H       -3.8760    -1.8500    -2.4270 H     1 <1>   0.0800 
 36 H       -5.1260    -0.6800     1.4770 H     1 <1>   0.0800 
 37 H       -3.4350    -0.7440     1.1920 H     1 <1>   0.0800 
 38 H       -0.0200     5.1090    -0.3560 H     1 <1>   0.0800 
 39 H        1.6170     4.6480    -0.7500 H     1 <1>   0.0800 
 40 H        1.2620     5.3540     0.8110 H     1 <1>   0.0800 
 41 H       -1.5630     0.4170     2.3060 H     1 <1>   0.0800 
 42 H       -0.1330    -0.5730     2.1400 H     1 <1>   0.0800 
 43 H       -1.1440    -0.2700     0.7470 H     1 <1>   0.0800 
 44 H       -7.8650    -1.3010    -0.8740 H     1 <1>   0.0800 
 45 H       -7.0130    -1.5060     0.6460 H     1 <1>   0.0800 
 46 H       -7.0520    -3.4460    -1.6870 H     1 <1>   0.0800 
 47 H       -7.8160    -3.6900    -0.1380 H     1 <1>   0.0800 
 48 H       -2.4820    -5.3640     1.3360 H     1 <1>   0.1500 
 49 H       -6.5310    -5.7520     0.1950 H     1 <1>   0.1500 
 50 H       -0.2450    -2.6230     0.5080 H     1 <1>   0.0800 
 51 H       -0.9090    -4.1080    -0.1600 H     1 <1>   0.0800 
 52 H       -0.8010    -3.8890     1.5960 H     1 <1>   0.0800 
 53 H       -4.4780    -6.7260     1.1020 H     1 <1>   0.1500 
@<TRIPOS>BOND
  1   1   2  2   
  2   2   3  am  
  3   2   4  1   
  4   3   5  1   
  5   3   6  1   
  6   4   7  1   
  7   4  28  1   
  8   4  29  1   
  9   5   8  1   
 10   5  30  1   
 11   5  31  1   
 12   6   9  1   
 13   6  32  1   
 14   6  33  1   
 15   7  10  2   
 16   7  11  1   
 17   8  12  1   
 18   8  34  1   
 19   8  35  1   
 20   9  12  1   
 21   9  36  1   
 22   9  37  1   
 23  10  13  1   
 24  10  14  1   
 25  11  15  2   
 26  11  16  1   
 27  12  17  1   
 28  12  18  1   
 29  13  15  1   
 30  14  38  1   
 31  14  39  1   
 32  14  40  1   
 33  16  41  1   
 34  16  42  1   
 35  16  43  1   
 36  17  19  1   
 37  18  20  ar  
 38  18  21  ar  
 39  19  22  1   
 40  19  44  1   
 41  19  45  1   
 42  20  23  1   
 43  20  24  ar  
 44  21  22  1   
 45  21  25  ar  
 46  22  46  1   
 47  22  47  1   
 48  23  26  1   
 49  24  27  ar  
 50  24  48  1   
 51  25  27  ar  
 52  25  49  1   
 53  26  50  1   
 54  26  51  1   
 55  26  52  1   
 56  27  53  1   
@<TRIPOS>SUBSTRUCTURE
  1 ****   9 GROUP 4 **** **** 0

# MOE 2024.06 (io_trps.svl 2023.06)
