@<TRIPOS>MOLECULE
NONAME
50 52 1 0 0 
SMALL
USER_CHARGES


@<TRIPOS>ATOM
  1 O        4.4770     0.6970    -2.2360 O.2   1 <1>  -0.5700 
  2 C        3.8570    -0.1610    -1.6160 C.2   1 <1>   0.6160 
  3 N        3.0500     0.1850    -0.5370 N.am  1 <1>  -0.4690 
  4 C        3.9610    -1.5300    -1.9800 C.2   1 <1>  -0.1360 
  5 C        2.3850    -0.8080     0.1790 C.2   1 <1>  -0.0290 
  6 C        2.9390     1.6340    -0.1910 C.3   1 <1>   0.1400 
  7 C        3.3050    -2.4950    -1.2850 C.2   1 <1>  -0.1500 
  8 C        2.5060    -2.1150    -0.1820 C.2   1 <1>  -0.1500 
  9 C        1.5200    -0.4280     1.3740 C.3   1 <1>  -0.1020 
 10 C        4.1150     2.0520     0.6910 C.3   1 <1>  -0.0990 
 11 C        3.9970     3.5190     1.0190 C.2   1 <1>   0.5690 
 12 O        3.3450     3.8270     1.9890 O.2   1 <1>  -0.5700 
 13 N        4.6270     4.4000     0.1980 N.am  1 <1>  -0.4930 
 14 C        4.8050     5.8040     0.2880 C.2   1 <1>   0.0630 
 15 C        5.9570     6.4380    -0.1900 C.2   1 <1>   0.3720 
 16 C        4.0350     6.8060     0.7710 C.2   1 <1>  -0.3320 
 17 N        5.9360     7.7200    -0.0050 N.2   1 <1>  -0.7070 
 18 N        7.0260     5.7590    -0.8070 N.pl3 1 <1>  -0.8210 
 19 N        4.7490     7.9470     0.6000 N.pl3 1 <1>   0.3140 
 20 C        2.6410     6.7610     1.3810 C.3   1 <1>  -0.0600 
 21 C        8.2530     5.7930     0.0320 C.3   1 <1>   0.2090 
 22 C        7.3640     6.3240    -2.1430 C.3   1 <1>   0.2090 
 23 C        4.3570     9.3070     0.9900 C.3   1 <1>   0.0160 
 24 C        9.4090     6.0400    -0.9250 C.3   1 <1>  -0.1600 
 25 C        8.7830     6.8640    -2.0370 C.3   1 <1>  -0.1600 
 26 H        4.5830    -1.7530    -2.8250 H     1 <1>   0.1500 
 27 H        2.0120     1.8390     0.3120 H     1 <1>   0.0800 
 28 H        2.9400     2.2190    -1.0960 H     1 <1>   0.0800 
 29 H        3.3740    -3.5370    -1.5460 H     1 <1>   0.1500 
 30 H        2.0010    -2.8970     0.3570 H     1 <1>   0.1500 
 31 H        2.0970     0.1210     2.0960 H     1 <1>   0.0800 
 32 H        1.1310    -1.3060     1.8570 H     1 <1>   0.0800 
 33 H        0.6880     0.1720     1.0530 H     1 <1>   0.0800 
 34 H        5.0440     1.8700     0.1830 H     1 <1>   0.0800 
 35 H        4.1060     1.4910     1.6060 H     1 <1>   0.0800 
 36 H        5.2670     4.0060    -0.4950 H     1 <1>   0.3700 
 37 H        2.1400     5.8520     1.1020 H     1 <1>   0.0800 
 38 H        2.0450     7.5840     1.0320 H     1 <1>   0.0800 
 39 H        2.7080     6.7990     2.4540 H     1 <1>   0.0800 
 40 H        8.3730     4.8620     0.5590 H     1 <1>   0.0800 
 41 H        8.1940     6.5980     0.7480 H     1 <1>   0.0800 
 42 H        6.6750     7.0990    -2.4380 H     1 <1>   0.0800 
 43 H        7.3240     5.5300    -2.8680 H     1 <1>   0.0800 
 44 H        4.0340     9.3020     2.0130 H     1 <1>   0.0800 
 45 H        3.5610     9.6390     0.3520 H     1 <1>   0.0800 
 46 H        5.2030     9.9610     0.8820 H     1 <1>   0.0800 
 47 H        9.7530     5.0970    -1.3110 H     1 <1>   0.0800 
 48 H       10.2250     6.5490    -0.4440 H     1 <1>   0.0800 
 49 H        8.7350     7.8980    -1.7440 H     1 <1>   0.0800 
 50 H        9.3150     6.7820    -2.9670 H     1 <1>   0.0800 
@<TRIPOS>BOND
  1   1   2  2   
  2   2   3  am  
  3   2   4  1   
  4   3   5  1   
  5   3   6  1   
  6   4   7  2   
  7   4  26  1   
  8   5   8  2   
  9   5   9  1   
 10   6  10  1   
 11   6  27  1   
 12   6  28  1   
 13   7   8  1   
 14   7  29  1   
 15   8  30  1   
 16   9  31  1   
 17   9  32  1   
 18   9  33  1   
 19  10  11  1   
 20  10  34  1   
 21  10  35  1   
 22  11  12  2   
 23  11  13  am  
 24  13  14  1   
 25  13  36  1   
 26  14  15  1   
 27  14  16  2   
 28  15  17  2   
 29  15  18  1   
 30  16  19  1   
 31  16  20  1   
 32  17  19  1   
 33  18  21  1   
 34  18  22  1   
 35  19  23  1   
 36  20  37  1   
 37  20  38  1   
 38  20  39  1   
 39  21  24  1   
 40  21  40  1   
 41  21  41  1   
 42  22  25  1   
 43  22  42  1   
 44  22  43  1   
 45  23  44  1   
 46  23  45  1   
 47  23  46  1   
 48  24  25  1   
 49  24  47  1   
 50  24  48  1   
 51  25  49  1   
 52  25  50  1   
@<TRIPOS>SUBSTRUCTURE
  1 ****  13 GROUP 4 **** **** 0

# MOE 2024.06 (io_trps.svl 2023.06)
