@<TRIPOS>MOLECULE
NONAME
48 51 1 0 0 
SMALL
USER_CHARGES


@<TRIPOS>ATOM
  1 N       -1.1940    -0.1170    -1.3780 N.ar  1 <1>  -0.6200 
  2 C       -1.6290    -1.2920    -0.9660 C.ar  1 <1>   0.4100 
  3 C        0.0270    -0.0850    -1.8730 C.ar  1 <1>   0.4760 
  4 N       -2.9030    -1.3580    -0.4350 N.pl3 1 <1>  -0.8380 
  5 C       -0.8240    -2.4110    -1.0750 C.ar  1 <1>  -0.1500 
  6 N        0.8760    -1.0870    -2.0090 N.ar  1 <1>  -0.6200 
  7 C        0.5210     1.2640    -2.3370 C.3   1 <1>  -0.0970 
  8 C       -3.9850    -0.4080    -0.8570 C.3   1 <1>   0.2090 
  9 C       -3.2600    -2.2260     0.7170 C.3   1 <1>   0.2090 
 10 C        0.4270    -2.2570    -1.6030 C.ar  1 <1>   0.1600 
 11 C       -4.4220     0.5020     0.3090 C.3   1 <1>   0.1440 
 12 C       -3.6810    -1.3590     1.9090 C.3   1 <1>  -0.1600 
 13 C       -5.6140     1.3500    -0.0930 C.ar  1 <1>   0.1670 
 14 C       -4.7910    -0.3550     1.5420 C.3   1 <1>  -0.1600 
 15 C       -3.3580     1.5800     0.6520 C.3   1 <1>  -0.1600 
 16 N       -6.6890     0.9090    -0.6980 N.ar  1 <1>  -0.6200 
 17 C       -5.4430     2.6550     0.2560 C.ar  1 <1>  -0.1430 
 18 C       -4.1200     2.8850     0.9410 C.3   1 <1>  -0.0170 
 19 C       -7.6170     1.8330    -0.9580 C.ar  1 <1>   0.7200 
 20 C       -6.4510     3.5340    -0.0480 C.ar  1 <1>   0.1600 
 21 N       -7.5430     3.1340    -0.6560 N.ar  1 <1>  -0.6200 
 22 N       -8.7610     1.4030    -1.6020 N.pl3 1 <1>  -0.8380 
 23 C       -8.8390     0.0790    -2.2770 C.3   1 <1>   0.1290 
 24 C       -9.9860     2.2470    -1.6820 C.3   1 <1>   0.1290 
 25 H       -1.1790    -3.3710    -0.7640 H     1 <1>   0.1500 
 26 H       -0.3060     1.9300    -2.4970 H     1 <1>   0.0800 
 27 H        1.0640     1.1550    -3.2570 H     1 <1>   0.0800 
 28 H        1.1710     1.6780    -1.5900 H     1 <1>   0.0800 
 29 H       -4.8310    -0.9860    -1.1860 H     1 <1>   0.0800 
 30 H       -3.6670     0.1910    -1.6910 H     1 <1>   0.0800 
 31 H       -2.4240    -2.8380     1.0050 H     1 <1>   0.0800 
 32 H       -4.0720    -2.8720     0.4280 H     1 <1>   0.0800 
 33 H        1.0820    -3.1060    -1.7030 H     1 <1>   0.1500 
 34 H       -2.8140    -0.8390     2.2730 H     1 <1>   0.0800 
 35 H       -4.0280    -1.9990     2.7010 H     1 <1>   0.0800 
 36 H       -5.6890    -0.9040     1.3180 H     1 <1>   0.0800 
 37 H       -5.0030     0.2820     2.3820 H     1 <1>   0.0800 
 38 H       -2.7380     1.7470    -0.2110 H     1 <1>   0.0800 
 39 H       -2.7180     1.2980     1.4670 H     1 <1>   0.0800 
 40 H       -3.6030     3.7400     0.5420 H     1 <1>   0.0800 
 41 H       -4.2750     3.0080     1.9990 H     1 <1>   0.0800 
 42 H       -6.3610     4.5750     0.2080 H     1 <1>   0.1500 
 43 H       -7.8650    -0.2300    -2.6160 H     1 <1>   0.0800 
 44 H       -9.4900     0.1370    -3.1320 H     1 <1>   0.0800 
 45 H       -9.2190    -0.6540    -1.5880 H     1 <1>   0.0800 
 46 H      -10.0520     2.8980    -0.8280 H     1 <1>   0.0800 
 47 H      -10.8630     1.6250    -1.7020 H     1 <1>   0.0800 
 48 H       -9.9510     2.8450    -2.5760 H     1 <1>   0.0800 
@<TRIPOS>BOND
  1   1   2  ar  
  2   1   3  ar  
  3   2   4  1   
  4   2   5  ar  
  5   3   6  ar  
  6   3   7  1   
  7   4   8  1   
  8   4   9  1   
  9   5  10  ar  
 10   5  25  1   
 11   6  10  ar  
 12   7  26  1   
 13   7  27  1   
 14   7  28  1   
 15   8  11  1   
 16   8  29  1   
 17   8  30  1   
 18   9  12  1   
 19   9  31  1   
 20   9  32  1   
 21  10  33  1   
 22  11  13  1   
 23  11  14  1   
 24  11  15  1   
 25  12  14  1   
 26  12  34  1   
 27  12  35  1   
 28  13  16  ar  
 29  13  17  ar  
 30  14  36  1   
 31  14  37  1   
 32  15  18  1   
 33  15  38  1   
 34  15  39  1   
 35  16  19  ar  
 36  17  18  1   
 37  17  20  ar  
 38  18  40  1   
 39  18  41  1   
 40  19  21  ar  
 41  19  22  1   
 42  20  21  ar  
 43  20  42  1   
 44  22  23  1   
 45  22  24  1   
 46  23  43  1   
 47  23  44  1   
 48  23  45  1   
 49  24  46  1   
 50  24  47  1   
 51  24  48  1   
@<TRIPOS>SUBSTRUCTURE
  1 ****   8 GROUP 4 **** **** 0

# MOE 2024.06 (io_trps.svl 2023.06)
