@<TRIPOS>MOLECULE
NONAME
49 52 1 0 0 
SMALL
USER_CHARGES


@<TRIPOS>ATOM
  1 O       -0.6340     2.2830    -1.0010 O.2   1 <1>  -0.5700 
  2 C       -1.7770     2.1010    -0.6080 C.2   1 <1>   0.5440 
  3 N       -2.7240     3.0870    -0.7720 N.am  1 <1>  -0.4200 
  4 C       -2.1760     0.8820     0.0380 C.ar  1 <1>   0.0860 
  5 C       -4.0010     2.8840    -0.3060 C.2   1 <1>   0.4500 
  6 C       -2.3790     4.3650    -1.4420 C.3   1 <1>   0.1400 
  7 C       -3.5050     0.7860     0.4680 C.ar  1 <1>   0.1790 
  8 C       -1.3150    -0.1980     0.2580 C.ar  1 <1>  -0.1500 
  9 N       -4.4010     1.8210     0.2780 N.2   1 <1>  -0.6290 
 10 C       -1.7620     5.3330    -0.4280 C.3   1 <1>  -0.1600 
 11 C       -3.9370    -0.3740     1.1000 C.ar  1 <1>  -0.1500 
 12 C       -1.7580    -1.3430     0.8870 C.ar  1 <1>  -0.1500 
 13 C       -1.2380     6.6040    -1.1160 C.3   1 <1>  -0.0990 
 14 C       -3.0760    -1.4320     1.3100 C.ar  1 <1>  -0.1500 
 15 C       -0.5910     7.5520    -0.1210 C.2   1 <1>   0.5690 
 16 O       -1.3010     8.3700     0.4130 O.2   1 <1>  -0.5700 
 17 N        0.7420     7.4670     0.1560 N.am  1 <1>  -0.6600 
 18 C        1.3930     8.3570     1.1470 C.3   1 <1>   0.4010 
 19 C        1.6800     6.4160    -0.3080 C.3   1 <1>   0.1400 
 20 C        1.8770     9.6450     0.4680 C.2   1 <1>   0.1080 
 21 C        2.5220     7.4850     1.6990 C.3   1 <1>  -0.1600 
 22 C        2.9480     6.6080     0.5220 C.3   1 <1>  -0.1600 
 23 N        3.1030     9.9740     0.2270 N.2   1 <1>  -0.4100 
 24 C        1.0160    10.6470     0.0220 C.2   1 <1>  -0.1500 
 25 O        3.0640    11.1380    -0.3550 O.3   1 <1>  -0.0190 
 26 C        1.8400    11.5700    -0.4930 C.2   1 <1>  -0.0400 
 27 C        1.5780    12.9080    -1.1490 C.3   1 <1>  -0.0600 
 28 H       -4.6960     3.6930    -0.4540 H     1 <1>   0.0600 
 29 H       -3.2620     4.7990    -1.8780 H     1 <1>   0.0800 
 30 H       -1.6790     4.1680    -2.2370 H     1 <1>   0.0800 
 31 H       -0.2930    -0.1250    -0.0730 H     1 <1>   0.1500 
 32 H       -0.9460     4.8460     0.0770 H     1 <1>   0.0800 
 33 H       -2.4990     5.6070     0.3070 H     1 <1>   0.0800 
 34 H       -4.9610    -0.4320     1.4240 H     1 <1>   0.1500 
 35 H       -1.0860    -2.1680     1.0500 H     1 <1>   0.1500 
 36 H       -2.0550     7.1210    -1.5860 H     1 <1>   0.0800 
 37 H       -0.5300     6.3510    -1.8840 H     1 <1>   0.0800 
 38 H       -3.4240    -2.3250     1.8010 H     1 <1>   0.1500 
 39 H        0.7040     8.6130     1.9340 H     1 <1>   0.0800 
 40 H        1.8890     6.5320    -1.3580 H     1 <1>   0.0800 
 41 H        1.2600     5.4420    -0.1240 H     1 <1>   0.0800 
 42 H        2.1250     6.8690     2.4850 H     1 <1>   0.0800 
 43 H        3.3350     8.0680     2.0950 H     1 <1>   0.0800 
 44 H        3.6790     7.1290    -0.0730 H     1 <1>   0.0800 
 45 H        3.3640     5.6690     0.8400 H     1 <1>   0.0800 
 46 H       -0.0570    10.6400     0.0920 H     1 <1>   0.1500 
 47 H        0.5220    13.1040    -1.1800 H     1 <1>   0.0800 
 48 H        1.9630    12.9030    -2.1520 H     1 <1>   0.0800 
 49 H        2.0630    13.6880    -0.5910 H     1 <1>   0.0800 
@<TRIPOS>BOND
  1   1   2  2   
  2   2   3  am  
  3   2   4  1   
  4   3   5  1   
  5   3   6  1   
  6   4   7  ar  
  7   4   8  ar  
  8   5   9  2   
  9   5  28  1   
 10   6  10  1   
 11   6  29  1   
 12   6  30  1   
 13   7   9  1   
 14   7  11  ar  
 15   8  12  ar  
 16   8  31  1   
 17  10  13  1   
 18  10  32  1   
 19  10  33  1   
 20  11  14  ar  
 21  11  34  1   
 22  12  14  ar  
 23  12  35  1   
 24  13  15  1   
 25  13  36  1   
 26  13  37  1   
 27  14  38  1   
 28  15  16  2   
 29  15  17  am  
 30  17  18  1   
 31  17  19  1   
 32  18  20  1   
 33  18  21  1   
 34  18  39  1   
 35  19  22  1   
 36  19  40  1   
 37  19  41  1   
 38  20  23  2   
 39  20  24  1   
 40  21  22  1   
 41  21  42  1   
 42  21  43  1   
 43  22  44  1   
 44  22  45  1   
 45  23  25  1   
 46  24  26  2   
 47  24  46  1   
 48  25  26  1   
 49  26  27  1   
 50  27  47  1   
 51  27  48  1   
 52  27  49  1   
@<TRIPOS>SUBSTRUCTURE
  1 ****  10 GROUP 4 **** **** 0

# MOE 2024.06 (io_trps.svl 2023.06)
