@<TRIPOS>MOLECULE
NONAME
60 64 1 0 0 
SMALL
USER_CHARGES


@<TRIPOS>ATOM
  1 O       -0.7290     0.8770    -1.6720 O.2   1 <1>  -0.5700 
  2 C       -1.0020     0.5780    -0.5300 C.2   1 <1>   0.5690 
  3 N       -1.2670    -0.7150    -0.1590 N.am  1 <1>  -0.6600 
  4 C       -1.0420     1.7350     0.4850 C.3   1 <1>   0.4040 
  5 C       -1.5370    -1.7350    -1.2230 C.3   1 <1>   0.1400 
  6 C       -1.5210    -1.1800     1.2340 C.3   1 <1>   0.1400 
  7 N       -0.4150     3.0080    -0.0380 N.4   1 <1>  -0.9590 
  8 C       -2.5390    -2.8010    -0.7580 C.3   1 <1>  -0.1600 
  9 C       -2.9940    -1.5790     1.4100 C.3   1 <1>  -0.1600 
 10 C        1.0700     2.8810    -0.0940 C.3   1 <1>   0.3430 
 11 C       -0.9320     4.2090     0.6690 C.3   1 <1>   0.3430 
 12 C       -3.6220    -2.2130     0.1520 C.3   1 <1>   0.4600 
 13 C        1.6200     3.7360    -1.2340 C.3   1 <1>  -0.1600 
 14 C       -0.5140     5.5130    -0.0130 C.3   1 <1>  -0.1600 
 15 O       -4.2570    -1.1960    -0.5960 O.3   1 <1>  -0.5600 
 16 C       -4.6390    -3.2920     0.5080 C.2   1 <1>  -0.3320 
 17 C        1.8980     5.2060    -0.8770 C.3   1 <1>  -0.1600 
 18 C        0.9750     5.8410     0.1720 C.3   1 <1>  -0.1600 
 19 C       -5.5740    -0.8300    -0.2520 C.3   1 <1>   0.1200 
 20 N       -4.3800    -4.4880     1.1230 N.pl3 1 <1>   0.0330 
 21 C       -5.9580    -3.2110     0.2420 C.2   1 <1>  -0.1810 
 22 C       -6.5480    -2.0030    -0.4400 C.3   1 <1>   0.0210 
 23 C       -5.5660    -5.1710     1.2430 C.ar  1 <1>  -0.1520 
 24 C       -6.5810    -4.3920     0.6930 C.ar  1 <1>   0.0000 
 25 C       -5.8440    -6.4250     1.7920 C.ar  1 <1>  -0.1500 
 26 C       -7.8950    -4.8700     0.6890 C.ar  1 <1>  -0.1500 
 27 C       -7.1410    -6.8830     1.7820 C.ar  1 <1>  -0.1500 
 28 C       -8.1670    -6.1060     1.2300 C.ar  1 <1>  -0.1500 
 29 H       -0.5440     1.4300     1.3870 H     1 <1>   0.0800 
 30 H       -2.0780     1.9150     0.7150 H     1 <1>   0.0800 
 31 H       -0.6140    -2.2000    -1.5250 H     1 <1>   0.0800 
 32 H       -1.9540    -1.2380    -2.0850 H     1 <1>   0.0800 
 33 H       -1.2530    -0.4350     1.9610 H     1 <1>   0.0800 
 34 H       -0.8990    -2.0410     1.4150 H     1 <1>   0.0800 
 35 H       -0.7150     3.0460    -1.0270 H     1 <1>   0.4500 
 36 H       -2.0110    -3.5760    -0.2360 H     1 <1>   0.0800 
 37 H       -3.0030    -3.2570    -1.6140 H     1 <1>   0.0800 
 38 H       -3.5680    -0.7260     1.7160 H     1 <1>   0.0800 
 39 H       -3.0380    -2.2830     2.2200 H     1 <1>   0.0800 
 40 H        1.3280     1.8540    -0.3020 H     1 <1>   0.0800 
 41 H        1.5210     3.1610     0.8450 H     1 <1>   0.0800 
 42 H       -0.5850     4.2120     1.6890 H     1 <1>   0.0800 
 43 H       -2.0100     4.1690     0.6860 H     1 <1>   0.0800 
 44 H        0.9550     3.6800    -2.0790 H     1 <1>   0.0800 
 45 H        2.5510     3.3010    -1.5550 H     1 <1>   0.0800 
 46 H       -1.0770     6.3020     0.4530 H     1 <1>   0.0800 
 47 H       -0.7860     5.5090    -1.0550 H     1 <1>   0.0800 
 48 H        1.8470     5.7860    -1.7840 H     1 <1>   0.0800 
 49 H        2.9100     5.2910    -0.5170 H     1 <1>   0.0800 
 50 H        1.2920     5.5540     1.1610 H     1 <1>   0.0800 
 51 H        1.1010     6.9100     0.1080 H     1 <1>   0.0800 
 52 H       -5.8610    -0.0070    -0.8820 H     1 <1>   0.0800 
 53 H       -5.5840    -0.5050     0.7730 H     1 <1>   0.0800 
 54 H       -3.4710    -4.8440     1.4280 H     1 <1>   0.2700 
 55 H       -6.6860    -2.2050    -1.4860 H     1 <1>   0.0800 
 56 H       -7.4990    -1.7590    -0.0050 H     1 <1>   0.0800 
 57 H       -5.0510    -7.0170     2.2130 H     1 <1>   0.1500 
 58 H       -8.6710    -4.2640     0.2610 H     1 <1>   0.1500 
 59 H       -7.3810    -7.8460     2.1980 H     1 <1>   0.1500 
 60 H       -9.1730    -6.4870     1.2340 H     1 <1>   0.1500 
@<TRIPOS>BOND
  1   1   2  2   
  2   2   3  am  
  3   2   4  1   
  4   3   5  1   
  5   3   6  1   
  6   4   7  1   
  7   4  29  1   
  8   4  30  1   
  9   5   8  1   
 10   5  31  1   
 11   5  32  1   
 12   6   9  1   
 13   6  33  1   
 14   6  34  1   
 15   7  10  1   
 16   7  11  1   
 17   7  35  1   
 18   8  12  1   
 19   8  36  1   
 20   8  37  1   
 21   9  12  1   
 22   9  38  1   
 23   9  39  1   
 24  10  13  1   
 25  10  40  1   
 26  10  41  1   
 27  11  14  1   
 28  11  42  1   
 29  11  43  1   
 30  12  15  1   
 31  12  16  1   
 32  13  17  1   
 33  13  44  1   
 34  13  45  1   
 35  14  18  1   
 36  14  46  1   
 37  14  47  1   
 38  15  19  1   
 39  16  20  1   
 40  16  21  2   
 41  17  18  1   
 42  17  48  1   
 43  17  49  1   
 44  18  50  1   
 45  18  51  1   
 46  19  22  1   
 47  19  52  1   
 48  19  53  1   
 49  20  23  1   
 50  20  54  1   
 51  21  22  1   
 52  21  24  1   
 53  22  55  1   
 54  22  56  1   
 55  23  24  ar  
 56  23  25  ar  
 57  24  26  ar  
 58  25  27  ar  
 59  25  57  1   
 60  26  28  ar  
 61  26  58  1   
 62  27  28  ar  
 63  27  59  1   
 64  28  60  1   
@<TRIPOS>SUBSTRUCTURE
  1 ****   9 GROUP 4 **** **** 0

# MOE 2024.06 (io_trps.svl 2023.06)
