@<TRIPOS>MOLECULE
NONAME
48 51 1 0 0 
SMALL
USER_CHARGES


@<TRIPOS>ATOM
  1 O       -0.8640     0.1520     0.6060 O.2   1 <1>  -0.5700 
  2 C       -1.8790     0.8230     0.5910 C.2   1 <1>   0.5440 
  3 N       -3.0530     0.2360     1.0100 N.am  1 <1>  -0.6600 
  4 C       -1.8060     2.1980     0.1560 C.ar  1 <1>   0.0860 
  5 C       -4.3400     0.9060     1.2980 C.3   1 <1>   0.1400 
  6 C       -3.1900    -1.2110     1.2540 C.3   1 <1>   0.1400 
  7 C       -0.8470     3.0490     0.7000 C.ar  1 <1>   0.1600 
  8 C       -2.6430     2.7370    -0.8180 C.ar  1 <1>  -0.1500 
  9 C       -5.4040    -0.1800     1.0910 C.3   1 <1>  -0.0800 
 10 C       -4.6480    -1.5220     0.9090 C.3   1 <1>  -0.0800 
 11 N       -0.6730     4.3260     0.3980 N.ar  1 <1>  -0.6200 
 12 C       -2.4790     4.0610    -1.1470 C.ar  1 <1>  -0.1500 
 13 C       -6.4300     0.1630    -0.0190 C.3   1 <1>   0.4240 
 14 C       -4.7630    -2.1180    -0.5070 C.3   1 <1>  -0.1600 
 15 C       -1.4920     4.8110    -0.5160 C.ar  1 <1>   0.4100 
 16 O       -5.7490     0.6110    -1.1390 O.3   1 <1>  -0.6800 
 17 C       -7.4080     1.2560     0.4600 C.ar  1 <1>  -0.1440 
 18 C       -7.1540    -1.1200    -0.4600 C.3   1 <1>  -0.1600 
 19 C       -6.2180    -2.2250    -1.0010 C.3   1 <1>  -0.1600 
 20 N       -1.2900     6.1140    -0.8130 N.pl3 1 <1>  -0.9000 
 21 C       -7.3830     2.5520    -0.0520 C.ar  1 <1>  -0.1500 
 22 C       -8.3480     0.9670     1.4470 C.ar  1 <1>  -0.1500 
 23 C       -8.2640     3.5180     0.4000 C.ar  1 <1>  -0.1500 
 24 C       -9.2320     1.9310     1.9000 C.ar  1 <1>  -0.1500 
 25 C       -9.1920     3.2090     1.3770 C.ar  1 <1>  -0.1500 
 26 H       -4.3420     1.2300     2.3250 H     1 <1>   0.0800 
 27 H       -4.5030     1.7630     0.6710 H     1 <1>   0.0800 
 28 H       -2.4970    -1.7770     0.6540 H     1 <1>   0.0800 
 29 H       -2.9970    -1.4060     2.2950 H     1 <1>   0.0800 
 30 H       -0.1810     2.6320     1.4370 H     1 <1>   0.1500 
 31 H       -3.3920     2.1290    -1.2940 H     1 <1>   0.1500 
 32 H       -5.9500    -0.2550     2.0130 H     1 <1>   0.0800 
 33 H       -5.0270    -2.2500     1.6060 H     1 <1>   0.0800 
 34 H       -3.1030     4.5280    -1.8850 H     1 <1>   0.1500 
 35 H       -4.1960    -1.5100    -1.1910 H     1 <1>   0.0800 
 36 H       -4.3120    -3.0960    -0.5240 H     1 <1>   0.0800 
 37 H       -5.1840    -0.1230    -1.4410 H     1 <1>   0.4000 
 38 H       -7.6750    -1.5240     0.3880 H     1 <1>   0.0800 
 39 H       -7.9010    -0.8750    -1.1940 H     1 <1>   0.0800 
 40 H       -6.6210    -3.1820    -0.7130 H     1 <1>   0.0800 
 41 H       -6.2180    -2.1960    -2.0780 H     1 <1>   0.0800 
 42 H       -0.4570     6.5140    -0.3770 H     1 <1>   0.4000 
 43 H       -1.4760     6.4500    -1.7560 H     1 <1>   0.4000 
 44 H       -6.6750     2.8270    -0.8140 H     1 <1>   0.1500 
 45 H       -8.4050    -0.0150     1.8790 H     1 <1>   0.1500 
 46 H       -8.2280     4.5120    -0.0110 H     1 <1>   0.1500 
 47 H       -9.9520     1.6860     2.6610 H     1 <1>   0.1500 
 48 H       -9.8790     3.9600     1.7270 H     1 <1>   0.1500 
@<TRIPOS>BOND
  1   1   2  2   
  2   2   3  am  
  3   2   4  1   
  4   3   5  1   
  5   3   6  1   
  6   4   7  ar  
  7   4   8  ar  
  8   5   9  1   
  9   5  26  1   
 10   5  27  1   
 11   6  10  1   
 12   6  28  1   
 13   6  29  1   
 14   7  11  ar  
 15   7  30  1   
 16   8  12  ar  
 17   8  31  1   
 18   9  10  1   
 19   9  13  1   
 20   9  32  1   
 21  10  14  1   
 22  10  33  1   
 23  11  15  ar  
 24  12  15  ar  
 25  12  34  1   
 26  13  16  1   
 27  13  17  1   
 28  13  18  1   
 29  14  19  1   
 30  14  35  1   
 31  14  36  1   
 32  15  20  1   
 33  16  37  1   
 34  17  21  ar  
 35  17  22  ar  
 36  18  19  1   
 37  18  38  1   
 38  18  39  1   
 39  19  40  1   
 40  19  41  1   
 41  20  42  1   
 42  20  43  1   
 43  21  23  ar  
 44  21  44  1   
 45  22  24  ar  
 46  22  45  1   
 47  23  25  ar  
 48  23  46  1   
 49  24  25  ar  
 50  24  47  1   
 51  25  48  1   
@<TRIPOS>SUBSTRUCTURE
  1 ****   5 GROUP 4 **** **** 0

# MOE 2024.06 (io_trps.svl 2023.06)
