@<TRIPOS>MOLECULE
NONAME
53 56 1 0 0 
SMALL
USER_CHARGES


@<TRIPOS>ATOM
  1 O        0.0490     3.4390    -2.3190 O.co2 1 <1>  -0.9000 
  2 C       -0.5600     2.4790    -1.8170 C.2   1 <1>   0.9060 
  3 O       -1.2340     1.7100    -2.4960 O.co2 1 <1>  -0.9000 
  4 C       -0.5520     2.2910    -0.3040 C.3   1 <1>  -0.1060 
  5 C       -1.9970     2.5270     0.1850 C.3   1 <1>   0.2000 
  6 C        0.3580     3.3510     0.3250 C.3   1 <1>   0.3430 
  7 C       -0.0230     0.8590    -0.0070 C.3   1 <1>  -0.0650 
  8 O       -2.0750     2.3140     1.5510 O.3   1 <1>  -0.6800 
  9 C       -2.4630     3.9690    -0.0470 C.3   1 <1>  -0.1600 
 10 N       -0.1300     4.7190    -0.0170 N.4   1 <1>  -0.9590 
 11 C        0.5700     0.6380     1.3960 C.3   1 <1>  -0.1950 
 12 C       -1.4780     4.9740     0.5470 C.3   1 <1>   0.3430 
 13 C        0.8670     5.7850     0.2430 C.3   1 <1>   0.3430 
 14 C        2.0120     0.9270     1.6810 C.3   1 <1>  -0.2000 
 15 C        1.5220    -0.4910     1.6230 C.3   1 <1>  -0.2000 
 16 C        1.9540     5.7680    -0.8370 C.3   1 <1>   0.0200 
 17 C        2.9420     6.8890    -0.5940 C.2   1 <1>   0.0060 
 18 N        2.9470     7.6300     0.4580 N.2   1 <1>  -0.5650 
 19 N        3.9170     7.1960    -1.4890 N.pl3 1 <1>   0.0330 
 20 C        3.9870     8.4890     0.2610 C.ar  1 <1>   0.2270 
 21 C        4.6030     8.2320    -0.9490 C.ar  1 <1>  -0.1520 
 22 C        4.4620     9.5140     1.0760 C.ar  1 <1>  -0.1500 
 23 C        5.7000     8.9820    -1.3790 C.ar  1 <1>  -0.1500 
 24 C        5.5440    10.2580     0.6580 C.ar  1 <1>  -0.1500 
 25 C        6.1670     9.9960    -0.5700 C.ar  1 <1>  -0.1430 
 26 C        7.3550    10.8440    -0.9850 C.3   1 <1>  -0.0970 
 27 H       -2.6750     1.8410    -0.3000 H     1 <1>   0.0800 
 28 H        1.3540     3.2110    -0.0580 H     1 <1>   0.0800 
 29 H        0.3760     3.2250     1.3940 H     1 <1>   0.0800 
 30 H       -0.8140     0.1500    -0.1790 H     1 <1>   0.0800 
 31 H        0.7450     0.6280    -0.7280 H     1 <1>   0.0800 
 32 H       -1.9900     1.3560     1.7310 H     1 <1>   0.4000 
 33 H       -2.5670     4.1540    -1.1030 H     1 <1>   0.0800 
 34 H       -3.4340     4.1060     0.3930 H     1 <1>   0.0800 
 35 H       -0.2270     4.6420    -1.0620 H     1 <1>   0.4500 
 36 H       -0.1320     0.8080     2.1920 H     1 <1>   0.1000 
 37 H       -1.4520     4.8610     1.6190 H     1 <1>   0.0800 
 38 H       -1.7960     5.9760     0.3090 H     1 <1>   0.0800 
 39 H        0.3860     6.7490     0.2200 H     1 <1>   0.0800 
 40 H        1.3120     5.6570     1.2160 H     1 <1>   0.0800 
 41 H        2.6630     1.2590     0.8910 H     1 <1>   0.1000 
 42 H        2.2860     1.3320     2.6400 H     1 <1>   0.1000 
 43 H        1.4520    -1.0520     2.5400 H     1 <1>   0.1000 
 44 H        1.8170    -1.1050     0.7890 H     1 <1>   0.1000 
 45 H        1.5000     5.8970    -1.8030 H     1 <1>   0.0800 
 46 H        2.4820     4.8330    -0.8230 H     1 <1>   0.0800 
 47 H        4.1040     6.7480    -2.3900 H     1 <1>   0.2700 
 48 H        3.9710     9.6990     2.0120 H     1 <1>   0.1500 
 49 H        6.1610     8.7630    -2.3250 H     1 <1>   0.1500 
 50 H        5.9180    11.0520     1.2810 H     1 <1>   0.1500 
 51 H        8.1430    10.7490    -0.2600 H     1 <1>   0.0800 
 52 H        7.0630    11.8770    -1.0490 H     1 <1>   0.0800 
 53 H        7.7330    10.5350    -1.9440 H     1 <1>   0.0800 
@<TRIPOS>BOND
  1   1   2  ar  
  2   2   3  ar  
  3   2   4  1   
  4   4   5  1   
  5   4   6  1   
  6   4   7  1   
  7   5   8  1   
  8   5   9  1   
  9   5  27  1   
 10   6  10  1   
 11   6  28  1   
 12   6  29  1   
 13   7  11  1   
 14   7  30  1   
 15   7  31  1   
 16   8  32  1   
 17   9  12  1   
 18   9  33  1   
 19   9  34  1   
 20  10  12  1   
 21  10  13  1   
 22  10  35  1   
 23  11  14  1   
 24  11  15  1   
 25  11  36  1   
 26  12  37  1   
 27  12  38  1   
 28  13  16  1   
 29  13  39  1   
 30  13  40  1   
 31  14  15  1   
 32  14  41  1   
 33  14  42  1   
 34  15  43  1   
 35  15  44  1   
 36  16  17  1   
 37  16  45  1   
 38  16  46  1   
 39  17  18  2   
 40  17  19  1   
 41  18  20  1   
 42  19  21  1   
 43  19  47  1   
 44  20  21  ar  
 45  20  22  ar  
 46  21  23  ar  
 47  22  24  ar  
 48  22  48  1   
 49  23  25  ar  
 50  23  49  1   
 51  24  25  ar  
 52  24  50  1   
 53  25  26  1   
 54  26  51  1   
 55  26  52  1   
 56  26  53  1   
@<TRIPOS>SUBSTRUCTURE
  1 ****  16 GROUP 4 **** **** 0

# MOE 2024.06 (io_trps.svl 2023.06)
