@<TRIPOS>MOLECULE
NONAME
50 52 1 0 0 
SMALL
USER_CHARGES


@<TRIPOS>ATOM
  1 N        0.1270    -0.5430     0.5710 N.ar  1 <1>  -0.6200 
  2 C        1.1490     0.3030     0.6020 C.ar  1 <1>   0.7710 
  3 C        0.3370    -1.7580     0.1220 C.ar  1 <1>   0.4100 
  4 N        2.3720    -0.0640     0.1750 N.ar  1 <1>  -0.1790 
  5 N        0.9650     1.5700     1.0640 N.pl3 1 <1>  -0.8380 
  6 N       -0.7360    -2.5590     0.1270 N.pl3 1 <1>  -0.8690 
  7 C        1.5990    -2.1820    -0.3300 C.ar  1 <1>  -0.1500 
  8 C        2.6310    -1.3060    -0.2980 C.ar  1 <1>   0.2170 
  9 C        2.0110     2.6160     1.2900 C.3   1 <1>   0.2090 
 10 C       -0.4020     2.0960     1.3930 C.3   1 <1>   0.2090 
 11 C       -0.8750    -3.9730    -0.2600 C.3   1 <1>   0.3900 
 12 C        4.0390    -1.6410    -0.7610 C.3   1 <1>  -0.0970 
 13 C        1.7530     3.7940     0.3470 C.3   1 <1>  -0.1600 
 14 C       -0.7190     3.2760     0.4670 C.3   1 <1>  -0.1600 
 15 C       -2.3060    -4.3880     0.0010 C.2   1 <1>  -0.1810 
 16 C        0.3480     4.3770     0.5560 C.3   1 <1>  -0.1600 
 17 C       -3.4250    -4.0840    -0.7700 C.2   1 <1>   0.1080 
 18 C       -2.7900    -5.1310     1.0210 C.2   1 <1>  -0.3020 
 19 N       -4.5090    -4.5960    -0.2790 N.2   1 <1>  -0.7070 
 20 C       -3.4420    -3.2640    -2.0400 C.3   1 <1>  -0.0590 
 21 N       -4.1190    -5.2440     0.8320 N.pl3 1 <1>   0.3140 
 22 C       -5.0780    -5.9650     1.6920 C.3   1 <1>   0.0960 
 23 C       -5.0440    -7.4740     1.4180 C.3   1 <1>  -0.2400 
 24 H        3.0770     0.6590     0.2140 H     1 <1>   0.4570 
 25 H       -1.6090    -2.1780     0.5100 H     1 <1>   0.4000 
 26 H        1.7140    -3.1870    -0.6900 H     1 <1>   0.1500 
 27 H        3.0050     2.2390     1.1380 H     1 <1>   0.0800 
 28 H        1.9500     2.9580     2.3110 H     1 <1>   0.0800 
 29 H       -0.4210     2.4240     2.4190 H     1 <1>   0.0800 
 30 H       -1.1680     1.3480     1.2800 H     1 <1>   0.0800 
 31 H       -0.2100    -4.5790     0.3310 H     1 <1>   0.0800 
 32 H       -0.6410    -4.0990    -1.3020 H     1 <1>   0.0800 
 33 H        4.3340    -0.9950    -1.5690 H     1 <1>   0.0800 
 34 H        4.0890    -2.6580    -1.1090 H     1 <1>   0.0800 
 35 H        4.7380    -1.5310     0.0500 H     1 <1>   0.0800 
 36 H        1.8610     3.4690    -0.6720 H     1 <1>   0.0800 
 37 H        2.4840     4.5630     0.5260 H     1 <1>   0.0800 
 38 H       -1.6790     3.6830     0.7310 H     1 <1>   0.0800 
 39 H       -0.7880     2.9140    -0.5440 H     1 <1>   0.0800 
 40 H        0.1510     5.1350    -0.1830 H     1 <1>   0.0800 
 41 H        0.2950     4.8420     1.5260 H     1 <1>   0.0800 
 42 H       -2.2800    -5.5770     1.8530 H     1 <1>   0.1500 
 43 H       -2.6620    -2.5260    -2.0280 H     1 <1>   0.0800 
 44 H       -4.3890    -2.7630    -2.1300 H     1 <1>   0.0800 
 45 H       -3.3120    -3.9100    -2.8880 H     1 <1>   0.0800 
 46 H       -6.0610    -5.5780     1.4930 H     1 <1>   0.0800 
 47 H       -4.8330    -5.7650     2.7190 H     1 <1>   0.0800 
 48 H       -5.2930    -7.6650     0.3890 H     1 <1>   0.0800 
 49 H       -5.7610    -7.9750     2.0430 H     1 <1>   0.0800 
 50 H       -4.0670    -7.8720     1.6280 H     1 <1>   0.0800 
@<TRIPOS>BOND
  1   1   2  ar  
  2   1   3  ar  
  3   2   4  ar  
  4   2   5  1   
  5   3   6  1   
  6   3   7  ar  
  7   4   8  ar  
  8   4  24  1   
  9   5   9  1   
 10   5  10  1   
 11   6  11  1   
 12   6  25  1   
 13   7   8  ar  
 14   7  26  1   
 15   8  12  1   
 16   9  13  1   
 17   9  27  1   
 18   9  28  1   
 19  10  14  1   
 20  10  29  1   
 21  10  30  1   
 22  11  15  1   
 23  11  31  1   
 24  11  32  1   
 25  12  33  1   
 26  12  34  1   
 27  12  35  1   
 28  13  16  1   
 29  13  36  1   
 30  13  37  1   
 31  14  16  1   
 32  14  38  1   
 33  14  39  1   
 34  15  17  1   
 35  15  18  2   
 36  16  40  1   
 37  16  41  1   
 38  17  19  2   
 39  17  20  1   
 40  18  21  1   
 41  18  42  1   
 42  19  21  1   
 43  20  43  1   
 44  20  44  1   
 45  20  45  1   
 46  21  22  1   
 47  22  23  1   
 48  22  46  1   
 49  22  47  1   
 50  23  48  1   
 51  23  49  1   
 52  23  50  1   
@<TRIPOS>SUBSTRUCTURE
  1 ****   6 GROUP 4 **** **** 0

# MOE 2024.06 (io_trps.svl 2023.06)
