@<TRIPOS>MOLECULE
NONAME
38 39 1 0 0 
SMALL
USER_CHARGES


@<TRIPOS>ATOM
  1 O       -2.5310     0.5310    -2.0420 O.2   1 <1>  -0.5700 
  2 C       -2.2650     0.5310    -0.8660 C.2   1 <1>   0.5690 
  3 N       -2.1110    -0.6180    -0.1680 N.am  1 <1>  -0.7300 
  4 C       -2.1100     1.8500    -0.1350 C.3   1 <1>  -0.0990 
  5 C       -2.1720    -1.9790    -0.7510 C.3   1 <1>   0.2200 
  6 C       -0.6380     2.1710     0.1730 C.3   1 <1>  -0.1600 
  7 C       -3.4640    -2.6880    -0.3690 C.3   1 <1>  -0.0800 
  8 C       -1.1520    -2.8600    -0.0450 C.3   1 <1>   0.1200 
  9 C       -0.5010     3.5090     0.9070 C.3   1 <1>  -0.2400 
 10 C       -3.1420    -3.2750     1.0110 C.3   1 <1>   0.1200 
 11 C       -4.7420    -1.8300    -0.4130 C.3   1 <1>  -0.0160 
 12 O       -1.7530    -3.2120     1.1640 O.3   1 <1>  -0.5600 
 13 C       -5.9710    -2.6730    -0.1130 C.ar  1 <1>  -0.1440 
 14 C       -6.5730    -3.4460    -1.0850 C.ar  1 <1>  -0.1500 
 15 C       -6.5480    -2.7120     1.1410 C.ar  1 <1>  -0.1500 
 16 C       -7.6880    -4.2040    -0.7640 C.ar  1 <1>   0.1600 
 17 C       -7.6630    -3.5050     1.3570 C.ar  1 <1>   0.1600 
 18 N       -8.2450    -4.2540     0.4350 N.ar  1 <1>  -0.6200 
 19 H       -1.8940    -0.6020     0.8310 H     1 <1>   0.3700 
 20 H       -2.5270     2.6280    -0.7480 H     1 <1>   0.0800 
 21 H       -2.6760     1.8080     0.7770 H     1 <1>   0.0800 
 22 H       -2.0150    -1.9440    -1.8160 H     1 <1>   0.0800 
 23 H       -0.2130     1.3890     0.7770 H     1 <1>   0.0800 
 24 H       -0.0860     2.2140    -0.7510 H     1 <1>   0.0800 
 25 H       -3.5940    -3.5150    -1.0450 H     1 <1>   0.0800 
 26 H       -0.2200    -2.3550     0.1430 H     1 <1>   0.0800 
 27 H       -0.9750    -3.7640    -0.6020 H     1 <1>   0.0800 
 28 H       -1.0300     3.4830     1.8440 H     1 <1>   0.0800 
 29 H       -0.8970     4.3100     0.3070 H     1 <1>   0.0800 
 30 H        0.5360     3.7140     1.1060 H     1 <1>   0.0800 
 31 H       -3.4580    -4.3010     1.0910 H     1 <1>   0.0800 
 32 H       -3.5830    -2.6960     1.8030 H     1 <1>   0.0800 
 33 H       -4.8410    -1.3890    -1.3900 H     1 <1>   0.0800 
 34 H       -4.6800    -1.0250     0.2980 H     1 <1>   0.0800 
 35 H       -6.1880    -3.4650    -2.0880 H     1 <1>   0.1500 
 36 H       -6.1430    -2.1350     1.9510 H     1 <1>   0.1500 
 37 H       -8.1440    -4.8010    -1.5350 H     1 <1>   0.1500 
 38 H       -8.0990    -3.5240     2.3410 H     1 <1>   0.1500 
@<TRIPOS>BOND
  1   1   2  2   
  2   2   3  am  
  3   2   4  1   
  4   3   5  1   
  5   3  19  1   
  6   4   6  1   
  7   4  20  1   
  8   4  21  1   
  9   5   7  1   
 10   5   8  1   
 11   5  22  1   
 12   6   9  1   
 13   6  23  1   
 14   6  24  1   
 15   7  10  1   
 16   7  11  1   
 17   7  25  1   
 18   8  12  1   
 19   8  26  1   
 20   8  27  1   
 21   9  28  1   
 22   9  29  1   
 23   9  30  1   
 24  10  12  1   
 25  10  31  1   
 26  10  32  1   
 27  11  13  1   
 28  11  33  1   
 29  11  34  1   
 30  13  14  ar  
 31  13  15  ar  
 32  14  16  ar  
 33  14  35  1   
 34  15  17  ar  
 35  15  36  1   
 36  16  18  ar  
 37  16  37  1   
 38  17  18  ar  
 39  17  38  1   
@<TRIPOS>SUBSTRUCTURE
  1 ****  11 GROUP 4 **** **** 0

# MOE 2024.06 (io_trps.svl 2023.06)
