@<TRIPOS>MOLECULE
NONAME
47 49 1 0 0 
SMALL
USER_CHARGES


@<TRIPOS>ATOM
  1 O       -1.4250     0.1250     2.0280 O.2   1 <1>  -0.5700 
  2 C       -1.6920     0.5760     0.9290 C.2   1 <1>   0.7160 
  3 N       -2.5420    -0.1240     0.1080 N.am  1 <1>  -0.6600 
  4 C       -1.1620     1.8510     0.5180 C.2   1 <1>  -0.0860 
  5 C       -2.5520    -1.6220     0.2080 C.3   1 <1>   0.3640 
  6 C       -3.7900     0.5430    -0.3570 C.3   1 <1>   0.1400 
  7 C       -0.9660     2.2780    -0.7970 C.2   1 <1>   0.1390 
  8 C       -0.7270     2.9120     1.2520 C.2   1 <1>  -0.3020 
  9 C       -1.1620    -2.1220    -0.2040 C.ar  1 <1>  -0.1440 
 10 C       -3.6290    -2.3360    -0.6670 C.3   1 <1>   0.2000 
 11 C       -4.5200    -0.2930    -1.4090 C.3   1 <1>   0.1200 
 12 N       -0.4870     3.4780    -0.8770 N.2   1 <1>  -0.7070 
 13 N       -0.3290     3.8740     0.4040 N.pl3 1 <1>   0.3140 
 14 C       -0.4100    -2.8890     0.6740 C.ar  1 <1>  -0.1500 
 15 C       -0.6330    -1.8160    -1.4520 C.ar  1 <1>  -0.1500 
 16 O       -4.7760    -1.5560    -0.8860 O.3   1 <1>  -0.5600 
 17 C       -4.1240    -3.6570    -0.0530 C.3   1 <1>   0.1200 
 18 C        0.2220     5.2060     0.7870 C.3   1 <1>   0.1760 
 19 C        0.8420    -3.3530     0.3090 C.ar  1 <1>  -0.1500 
 20 C        0.6190    -2.2780    -1.8180 C.ar  1 <1>  -0.1500 
 21 O       -3.0750    -4.4950     0.3130 O.3   1 <1>  -0.6800 
 22 C       -0.6890     6.3350     0.2830 C.3   1 <1>  -0.2400 
 23 C        1.6510     5.3770     0.2540 C.3   1 <1>  -0.2400 
 24 C        1.3570    -3.0490    -0.9380 C.ar  1 <1>  -0.1500 
 25 H       -2.7310    -1.8860     1.2360 H     1 <1>   0.0800 
 26 H       -4.4450     0.6890     0.4860 H     1 <1>   0.0800 
 27 H       -3.5640     1.5100    -0.7690 H     1 <1>   0.0800 
 28 H       -1.1870     1.6730    -1.6590 H     1 <1>   0.1500 
 29 H       -0.6890     3.0050     2.3210 H     1 <1>   0.1500 
 30 H       -3.2170    -2.5520    -1.6370 H     1 <1>   0.0800 
 31 H       -3.9360    -0.3890    -2.3080 H     1 <1>   0.0800 
 32 H       -5.4650     0.1600    -1.6510 H     1 <1>   0.0800 
 33 H       -0.7990    -3.1280     1.6500 H     1 <1>   0.1500 
 34 H       -1.1920    -1.2100    -2.1420 H     1 <1>   0.1500 
 35 H       -4.7390    -4.1850    -0.7610 H     1 <1>   0.0800 
 36 H       -4.6980    -3.4580     0.8350 H     1 <1>   0.0800 
 37 H        0.2520     5.2450     1.8620 H     1 <1>   0.0800 
 38 H        1.4140    -3.9470     1.0000 H     1 <1>   0.1500 
 39 H        1.0220    -2.0350    -2.7860 H     1 <1>   0.1500 
 40 H       -2.4370    -4.6140    -0.4210 H     1 <1>   0.4000 
 41 H       -0.7340     6.3240    -0.7930 H     1 <1>   0.0800 
 42 H       -0.3090     7.2890     0.6000 H     1 <1>   0.0800 
 43 H       -1.6820     6.2130     0.6770 H     1 <1>   0.0800 
 44 H        1.6540     5.3470    -0.8220 H     1 <1>   0.0800 
 45 H        2.2810     4.5890     0.6280 H     1 <1>   0.0800 
 46 H        2.0570     6.3200     0.5730 H     1 <1>   0.0800 
 47 H        2.3310    -3.4080    -1.2200 H     1 <1>   0.1500 
@<TRIPOS>BOND
  1   1   2  2   
  2   2   3  am  
  3   2   4  1   
  4   3   5  1   
  5   3   6  1   
  6   4   7  1   
  7   4   8  2   
  8   5   9  1   
  9   5  10  1   
 10   5  25  1   
 11   6  11  1   
 12   6  26  1   
 13   6  27  1   
 14   7  12  2   
 15   7  28  1   
 16   8  13  1   
 17   8  29  1   
 18   9  14  ar  
 19   9  15  ar  
 20  10  16  1   
 21  10  17  1   
 22  10  30  1   
 23  11  16  1   
 24  11  31  1   
 25  11  32  1   
 26  12  13  1   
 27  13  18  1   
 28  14  19  ar  
 29  14  33  1   
 30  15  20  ar  
 31  15  34  1   
 32  17  21  1   
 33  17  35  1   
 34  17  36  1   
 35  18  22  1   
 36  18  23  1   
 37  18  37  1   
 38  19  24  ar  
 39  19  38  1   
 40  20  24  ar  
 41  20  39  1   
 42  21  40  1   
 43  22  41  1   
 44  22  42  1   
 45  22  43  1   
 46  23  44  1   
 47  23  45  1   
 48  23  46  1   
 49  24  47  1   
@<TRIPOS>SUBSTRUCTURE
  1 ****   2 GROUP 4 **** **** 0

# MOE 2024.06 (io_trps.svl 2023.06)
