@<TRIPOS>MOLECULE
NONAME
47 50 1 0 0 
SMALL
USER_CHARGES


@<TRIPOS>ATOM
  1 O       -1.7800    -0.5270    -2.6230 O.2   1 <1>  -0.5700 
  2 C       -1.9870    -0.8890    -1.4930 C.2   1 <1>   0.5690 
  3 N       -2.0200    -0.0180    -0.4410 N.am  1 <1>  -0.6600 
  4 C       -2.2640    -2.3540    -1.2780 C.3   1 <1>  -0.0190 
  5 C       -2.3620    -0.4370     0.9470 C.3   1 <1>   0.2200 
  6 C       -1.6670     1.4250    -0.6190 C.3   1 <1>   0.0600 
  7 C       -1.2510    -3.0060    -0.3130 C.3   1 <1>   0.1200 
  8 C       -3.7520    -2.5290    -0.9520 C.3   1 <1>   0.3430 
  9 C       -1.3250    -1.4490     1.4930 C.3   1 <1>   0.1200 
 10 C       -3.8340    -0.9280     1.0310 C.3   1 <1>   0.3430 
 11 O       -1.5410    -2.7580     1.0350 O.3   1 <1>  -0.5600 
 12 N       -4.0870    -2.3150     0.4960 N.4   1 <1>  -0.9590 
 13 C       -5.4370    -2.8230     0.8530 C.3   1 <1>   0.4860 
 14 C       -5.5160    -4.3100     0.5510 C.ar  1 <1>  -0.1440 
 15 C       -6.3330    -4.7700    -0.4710 C.ar  1 <1>  -0.1500 
 16 C       -4.7800    -5.2240     1.2920 C.ar  1 <1>  -0.1500 
 17 C       -6.4130    -6.1230    -0.7470 C.ar  1 <1>  -0.1500 
 18 C       -4.8630    -6.5770     1.0140 C.ar  1 <1>  -0.1500 
 19 C       -5.6820    -7.0460    -0.0080 C.ar  1 <1>  -0.0230 
 20 N       -5.7810    -8.4370    -0.2860 N.pl3 1 <1>   0.3260 
 21 C       -4.7890    -9.3670    -0.3390 C.2   1 <1>   0.0360 
 22 C       -6.8940    -9.1520    -0.5670 C.2   1 <1>  -0.3020 
 23 N       -5.1820   -10.5660    -0.6220 N.2   1 <1>  -0.5650 
 24 C       -6.5140   -10.4320    -0.7670 C.2   1 <1>   0.0770 
 25 H       -2.1090    -2.8210    -2.2340 H     1 <1>   0.0800 
 26 H       -2.2920     0.4400     1.5670 H     1 <1>   0.0800 
 27 H       -0.8280     1.6780     0.0070 H     1 <1>   0.0800 
 28 H       -2.5060     2.0460    -0.3580 H     1 <1>   0.0800 
 29 H       -1.3960     1.6340    -1.6410 H     1 <1>   0.0800 
 30 H       -0.2480    -2.6690    -0.5230 H     1 <1>   0.0800 
 31 H       -1.2730    -4.0750    -0.4430 H     1 <1>   0.0800 
 32 H       -4.0240    -3.5360    -1.2240 H     1 <1>   0.0800 
 33 H       -4.3310    -1.8590    -1.5670 H     1 <1>   0.0800 
 34 H       -1.3980    -1.4840     2.5660 H     1 <1>   0.0800 
 35 H       -0.3220    -1.1460     1.2410 H     1 <1>   0.0800 
 36 H       -4.4600    -0.2180     0.5160 H     1 <1>   0.0800 
 37 H       -4.1160    -0.9130     2.0700 H     1 <1>   0.0800 
 38 H       -3.3930    -2.9130     0.9860 H     1 <1>   0.4500 
 39 H       -5.6240    -2.6700     1.9040 H     1 <1>   0.0800 
 40 H       -6.1920    -2.2950     0.2940 H     1 <1>   0.0800 
 41 H       -6.9210    -4.0850    -1.0610 H     1 <1>   0.1500 
 42 H       -4.1400    -4.9000     2.0960 H     1 <1>   0.1500 
 43 H       -7.0520    -6.4650    -1.5450 H     1 <1>   0.1500 
 44 H       -4.2920    -7.2750     1.6040 H     1 <1>   0.1500 
 45 H       -3.7640    -9.0990    -0.1590 H     1 <1>   0.1500 
 46 H       -7.8730    -8.7140    -0.6030 H     1 <1>   0.1500 
 47 H       -7.1350   -11.2790    -1.0090 H     1 <1>   0.1500 
@<TRIPOS>BOND
  1   1   2  2   
  2   2   3  am  
  3   2   4  1   
  4   3   5  1   
  5   3   6  1   
  6   4   7  1   
  7   4   8  1   
  8   4  25  1   
  9   5   9  1   
 10   5  10  1   
 11   5  26  1   
 12   6  27  1   
 13   6  28  1   
 14   6  29  1   
 15   7  11  1   
 16   7  30  1   
 17   7  31  1   
 18   8  12  1   
 19   8  32  1   
 20   8  33  1   
 21   9  11  1   
 22   9  34  1   
 23   9  35  1   
 24  10  12  1   
 25  10  36  1   
 26  10  37  1   
 27  12  13  1   
 28  12  38  1   
 29  13  14  1   
 30  13  39  1   
 31  13  40  1   
 32  14  15  ar  
 33  14  16  ar  
 34  15  17  ar  
 35  15  41  1   
 36  16  18  ar  
 37  16  42  1   
 38  17  19  ar  
 39  17  43  1   
 40  18  19  ar  
 41  18  44  1   
 42  19  20  1   
 43  20  21  1   
 44  20  22  1   
 45  21  23  2   
 46  21  45  1   
 47  22  24  2   
 48  22  46  1   
 49  23  24  1   
 50  24  47  1   
@<TRIPOS>SUBSTRUCTURE
  1 ****  14 GROUP 4 **** **** 0

# MOE 2024.06 (io_trps.svl 2023.06)
