@<TRIPOS>MOLECULE
NONAME
41 43 1 0 0 
SMALL
USER_CHARGES


@<TRIPOS>ATOM
  1 O       -0.3920     0.1610     0.2950 O.2   1 <1>  -0.5700 
  2 C       -1.4700     0.7230     0.3250 C.2   1 <1>   0.7800 
  3 O       -1.5300     2.0490     0.1990 O.3   1 <1>  -0.4300 
  4 N       -2.6480     0.0450     0.4740 N.am  1 <1>  -0.6600 
  5 C       -0.3560     2.8140     0.0470 C.3   1 <1>   0.1200 
  6 C       -2.7040    -1.4420     0.5970 C.3   1 <1>   0.1400 
  7 C       -3.9950     0.6850     0.3930 C.3   1 <1>   0.1400 
  8 C       -0.7600     4.2800    -0.0750 C.3   1 <1>  -0.2400 
  9 C       -3.6600    -2.0450    -0.4490 C.3   1 <1>   0.3440 
 10 C       -4.8820    -0.0340    -0.6500 C.3   1 <1>   0.2950 
 11 O       -4.9110    -1.4090    -0.3890 O.3   1 <1>  -0.5600 
 12 C       -3.8350    -3.5430    -0.2150 C.ar  1 <1>  -0.1440 
 13 C       -6.3460     0.4400    -0.6880 C.3   1 <1>  -0.1950 
 14 C       -4.8190    -4.0340     0.6340 C.ar  1 <1>  -0.1500 
 15 C       -2.9880    -4.4400    -0.8510 C.ar  1 <1>  -0.1500 
 16 C       -6.7740     1.8430    -0.3750 C.3   1 <1>  -0.2000 
 17 C       -7.1680     0.7110     0.5340 C.3   1 <1>  -0.2000 
 18 C       -4.9530    -5.3950     0.8440 C.ar  1 <1>  -0.1500 
 19 C       -3.1200    -5.8020    -0.6420 C.ar  1 <1>  -0.1500 
 20 C       -4.1030    -6.2810     0.2060 C.ar  1 <1>  -0.1500 
 21 H        0.2690     2.6550     0.9100 H     1 <1>   0.0800 
 22 H        0.1580     2.4790    -0.8390 H     1 <1>   0.0800 
 23 H       -1.7250    -1.8710     0.4680 H     1 <1>   0.0800 
 24 H       -3.0490    -1.7040     1.5810 H     1 <1>   0.0800 
 25 H       -4.4610     0.6330     1.3600 H     1 <1>   0.0800 
 26 H       -3.9060     1.7210     0.1230 H     1 <1>   0.0800 
 27 H       -1.2800     4.5960     0.8110 H     1 <1>   0.0800 
 28 H       -1.3910     4.4210    -0.9340 H     1 <1>   0.0800 
 29 H        0.1190     4.8890    -0.1910 H     1 <1>   0.0800 
 30 H       -3.2580    -1.8880    -1.4350 H     1 <1>   0.0800 
 31 H       -4.4540     0.1110    -1.6270 H     1 <1>   0.0800 
 32 H       -6.8610    -0.0330    -1.5070 H     1 <1>   0.1000 
 33 H       -5.4880    -3.3520     1.1320 H     1 <1>   0.1500 
 34 H       -2.2180    -4.0840    -1.5130 H     1 <1>   0.1500 
 35 H       -6.0720     2.5670     0.0000 H     1 <1>   0.1000 
 36 H       -7.5340     2.2960    -0.9870 H     1 <1>   0.1000 
 37 H       -8.1910     0.3770     0.5390 H     1 <1>   0.1000 
 38 H       -6.7150     0.6370     1.5070 H     1 <1>   0.1000 
 39 H       -5.7200    -5.7630     1.5020 H     1 <1>   0.1500 
 40 H       -2.4590    -6.4900    -1.1390 H     1 <1>   0.1500 
 41 H       -4.2070    -7.3390     0.3690 H     1 <1>   0.1500 
@<TRIPOS>BOND
  1   1   2  2   
  2   2   3  1   
  3   2   4  am  
  4   3   5  1   
  5   4   6  1   
  6   4   7  1   
  7   5   8  1   
  8   5  21  1   
  9   5  22  1   
 10   6   9  1   
 11   6  23  1   
 12   6  24  1   
 13   7  10  1   
 14   7  25  1   
 15   7  26  1   
 16   8  27  1   
 17   8  28  1   
 18   8  29  1   
 19   9  11  1   
 20   9  12  1   
 21   9  30  1   
 22  10  11  1   
 23  10  13  1   
 24  10  31  1   
 25  12  14  ar  
 26  12  15  ar  
 27  13  16  1   
 28  13  17  1   
 29  13  32  1   
 30  14  18  ar  
 31  14  33  1   
 32  15  19  ar  
 33  15  34  1   
 34  16  17  1   
 35  16  35  1   
 36  16  36  1   
 37  17  37  1   
 38  17  38  1   
 39  18  20  ar  
 40  18  39  1   
 41  19  20  ar  
 42  19  40  1   
 43  20  41  1   
@<TRIPOS>SUBSTRUCTURE
  1 ****   9 GROUP 4 **** **** 0

# MOE 2024.06 (io_trps.svl 2023.06)
