@<TRIPOS>MOLECULE
NONAME
61 62 1 0 0 
SMALL
USER_CHARGES


@<TRIPOS>ATOM
  1 O       -0.2670     0.8720    -0.2150 O.2   1 <1>  -0.5700 
  2 C       -0.3510     2.0650    -0.3930 C.2   1 <1>   0.5690 
  3 N       -1.0250     2.8920     0.4620 N.am  1 <1>  -0.6600 
  4 C        0.3040     2.6540    -1.6410 C.3   1 <1>   0.1810 
  5 C       -1.1560     4.3600     0.1920 C.3   1 <1>   0.3640 
  6 C       -1.6580     2.3960     1.7190 C.3   1 <1>   0.0600 
  7 O        0.6440     4.0090    -1.4780 O.3   1 <1>  -0.5600 
  8 C       -2.6360     4.7850     0.2110 C.ar  1 <1>  -0.1430 
  9 C       -0.4360     4.8520    -1.0960 C.3   1 <1>   0.2610 
 10 C       -3.6460     4.2010    -0.5640 C.ar  1 <1>  -0.1430 
 11 C       -2.9750     5.8240     1.0710 C.ar  1 <1>  -0.1500 
 12 C        0.0940     6.2820    -0.9080 C.2   1 <1>   0.5690 
 13 C       -4.9470     4.6720    -0.4560 C.ar  1 <1>  -0.1500 
 14 C       -3.4140     3.0450    -1.5310 C.3   1 <1>  -0.0960 
 15 C       -4.2740     6.2830     1.1700 C.ar  1 <1>  -0.1500 
 16 O       -0.6000     7.1470    -0.4300 O.2   1 <1>  -0.5700 
 17 N        1.3720     6.5690    -1.2870 N.am  1 <1>  -0.7300 
 18 C       -5.2640     5.7050     0.4030 C.ar  1 <1>  -0.1500 
 19 C        1.9810     7.9200    -1.3490 C.3   1 <1>   0.1400 
 20 C        1.9060     8.6280     0.0180 C.3   1 <1>   0.3430 
 21 N        2.3860    10.0540    -0.0430 N.4   1 <1>  -0.9590 
 22 C        3.5210    10.1690     0.9240 C.3   1 <1>   0.4230 
 23 C        1.2400    11.0250     0.0780 C.3   1 <1>   0.4230 
 24 C        3.0660    10.5260     2.3390 C.3   1 <1>  -0.2400 
 25 C        4.6040    11.1030     0.3920 C.3   1 <1>  -0.2400 
 26 C        0.1470    10.7090    -0.9510 C.3   1 <1>  -0.2400 
 27 C        1.7000    12.4620    -0.1740 C.3   1 <1>  -0.2400 
 28 H       -0.3590     2.5610    -2.4800 H     1 <1>   0.0800 
 29 H        1.2080     2.1130    -1.8520 H     1 <1>   0.0800 
 30 H       -0.6670     4.8510     1.0160 H     1 <1>   0.0800 
 31 H       -1.3180     2.9790     2.5570 H     1 <1>   0.0800 
 32 H       -1.4020     1.3640     1.8930 H     1 <1>   0.0800 
 33 H       -2.7290     2.4750     1.6460 H     1 <1>   0.0800 
 34 H       -1.1340     4.8740    -1.9110 H     1 <1>   0.0800 
 35 H       -2.2230     6.2970     1.6770 H     1 <1>   0.1500 
 36 H       -5.7350     4.2320    -1.0420 H     1 <1>   0.1500 
 37 H       -4.2890     2.8600    -2.1270 H     1 <1>   0.0800 
 38 H       -3.1960     2.1450    -0.9850 H     1 <1>   0.0800 
 39 H       -2.6070     3.2590    -2.2030 H     1 <1>   0.0800 
 40 H       -4.5140     7.0900     1.8410 H     1 <1>   0.1500 
 41 H        1.8980     5.7840    -1.6990 H     1 <1>   0.3700 
 42 H       -6.2790     6.0580     0.4740 H     1 <1>   0.1500 
 43 H        3.0090     7.8240    -1.6520 H     1 <1>   0.0800 
 44 H        1.4490     8.4910    -2.0900 H     1 <1>   0.0800 
 45 H        2.5020     8.0650     0.7170 H     1 <1>   0.0800 
 46 H        0.8920     8.6070     0.3780 H     1 <1>   0.0800 
 47 H        2.7860    10.2150    -0.9720 H     1 <1>   0.4500 
 48 H        3.9890     9.1990     0.9890 H     1 <1>   0.0800 
 49 H        0.8100    10.9590     1.0660 H     1 <1>   0.0800 
 50 H        2.7070    11.5350     2.4100 H     1 <1>   0.0800 
 51 H        3.9020    10.4370     3.0100 H     1 <1>   0.0800 
 52 H        2.3030     9.8480     2.6780 H     1 <1>   0.0800 
 53 H        4.3190    12.1350     0.4240 H     1 <1>   0.0800 
 54 H        4.8800    10.8370    -0.6130 H     1 <1>   0.0800 
 55 H        5.4820    11.0020     1.0060 H     1 <1>   0.0800 
 56 H        0.5410    10.7110    -1.9510 H     1 <1>   0.0800 
 57 H       -0.6230    11.4580    -0.9010 H     1 <1>   0.0800 
 58 H       -0.3410     9.7730    -0.7520 H     1 <1>   0.0800 
 59 H        2.2630    12.5370    -1.0870 H     1 <1>   0.0800 
 60 H        2.2750    12.8430     0.6460 H     1 <1>   0.0800 
 61 H        0.8450    13.1100    -0.2600 H     1 <1>   0.0800 
@<TRIPOS>BOND
  1   1   2  2   
  2   2   3  am  
  3   2   4  1   
  4   3   5  1   
  5   3   6  1   
  6   4   7  1   
  7   4  28  1   
  8   4  29  1   
  9   5   8  1   
 10   5   9  1   
 11   5  30  1   
 12   6  31  1   
 13   6  32  1   
 14   6  33  1   
 15   7   9  1   
 16   8  10  ar  
 17   8  11  ar  
 18   9  12  1   
 19   9  34  1   
 20  10  13  ar  
 21  10  14  1   
 22  11  15  ar  
 23  11  35  1   
 24  12  16  2   
 25  12  17  am  
 26  13  18  ar  
 27  13  36  1   
 28  14  37  1   
 29  14  38  1   
 30  14  39  1   
 31  15  18  ar  
 32  15  40  1   
 33  17  19  1   
 34  17  41  1   
 35  18  42  1   
 36  19  20  1   
 37  19  43  1   
 38  19  44  1   
 39  20  21  1   
 40  20  45  1   
 41  20  46  1   
 42  21  22  1   
 43  21  23  1   
 44  21  47  1   
 45  22  24  1   
 46  22  25  1   
 47  22  48  1   
 48  23  26  1   
 49  23  27  1   
 50  23  49  1   
 51  24  50  1   
 52  24  51  1   
 53  24  52  1   
 54  25  53  1   
 55  25  54  1   
 56  25  55  1   
 57  26  56  1   
 58  26  57  1   
 59  26  58  1   
 60  27  59  1   
 61  27  60  1   
 62  27  61  1   
@<TRIPOS>SUBSTRUCTURE
  1 ****  16 GROUP 4 **** **** 0

# MOE 2024.06 (io_trps.svl 2023.06)
