@<TRIPOS>MOLECULE
NONAME
44 46 1 0 0 
SMALL
USER_CHARGES


@<TRIPOS>ATOM
  1 O       -1.6980     1.5780    -0.8620 O.2   1 <1>  -0.5700 
  2 C       -2.8670     1.5030    -0.5880 C.2   1 <1>   0.4230 
  3 C       -3.4970     0.2650    -0.2270 C.ar  1 <1>   0.0860 
  4 C       -3.6770     2.7790    -0.7070 C.3   1 <1>  -0.1790 
  5 C       -4.3970     0.0730     0.8190 C.ar  1 <1>   0.1660 
  6 C       -3.2150    -0.8730    -0.9630 C.ar  1 <1>   0.1600 
  7 N       -4.9830    -1.0760     1.0380 N.ar  1 <1>  -0.6200 
  8 C       -4.7560     1.1720     1.8050 C.3   1 <1>  -0.0960 
  9 N       -3.7830    -2.0330    -0.7590 N.ar  1 <1>  -0.6200 
 10 C       -4.6740    -2.0880     0.2280 C.ar  1 <1>   0.7200 
 11 N       -5.3290    -3.2780     0.4180 N.pl3 1 <1>  -0.8380 
 12 C       -6.1000    -3.5820     1.6480 C.3   1 <1>   0.2090 
 13 C       -5.4370    -4.2770    -0.6810 C.3   1 <1>   0.2090 
 14 C       -7.5950    -3.6040     1.3150 C.3   1 <1>  -0.1600 
 15 C       -6.7650    -5.0420    -0.5940 C.3   1 <1>  -0.1600 
 16 C       -7.9260    -4.1430    -0.1020 C.3   1 <1>   0.3430 
 17 C       -8.0790    -2.9970    -1.0720 C.1   1 <1>   0.3570 
 18 C       -9.2790    -4.8910    -0.0230 C.ar  1 <1>  -0.1440 
 19 N       -8.2080    -2.1370    -1.8090 N.1   1 <1>  -0.5570 
 20 C       -9.4120    -6.2630    -0.2350 C.ar  1 <1>  -0.1500 
 21 C      -10.4280    -4.1690     0.2860 C.ar  1 <1>  -0.1500 
 22 C      -10.6460    -6.8830    -0.1410 C.ar  1 <1>  -0.1500 
 23 C      -11.6630    -4.7860     0.3800 C.ar  1 <1>  -0.1500 
 24 C      -11.7740    -6.1460     0.1670 C.ar  1 <1>  -0.1500 
 25 H       -4.7250     2.5610    -0.7910 H     1 <1>   0.0800 
 26 H       -3.3690     3.3130    -1.5870 H     1 <1>   0.0800 
 27 H       -3.5020     3.4040     0.1490 H     1 <1>   0.0800 
 28 H       -2.4910    -0.8030    -1.7580 H     1 <1>   0.1500 
 29 H       -3.9160     1.8150     1.9900 H     1 <1>   0.0800 
 30 H       -5.0510     0.7390     2.7440 H     1 <1>   0.0800 
 31 H       -5.5800     1.7490     1.4270 H     1 <1>   0.0800 
 32 H       -5.9020    -2.8680     2.4300 H     1 <1>   0.0800 
 33 H       -5.7920    -4.5470     2.0120 H     1 <1>   0.0800 
 34 H       -4.6050    -4.9590    -0.6300 H     1 <1>   0.0800 
 35 H       -5.3900    -3.7680    -1.6310 H     1 <1>   0.0800 
 36 H       -7.9860    -2.6080     1.4290 H     1 <1>   0.0800 
 37 H       -8.0770    -4.2130     2.0590 H     1 <1>   0.0800 
 38 H       -6.6320    -5.8650     0.0840 H     1 <1>   0.0800 
 39 H       -6.9920    -5.4470    -1.5640 H     1 <1>   0.0800 
 40 H       -8.5700    -6.8850    -0.4760 H     1 <1>   0.1500 
 41 H      -10.3790    -3.1060     0.4570 H     1 <1>   0.1500 
 42 H      -10.7310    -7.9430    -0.3080 H     1 <1>   0.1500 
 43 H      -12.5380    -4.2060     0.6180 H     1 <1>   0.1500 
 44 H      -12.7330    -6.6290     0.2390 H     1 <1>   0.1500 
@<TRIPOS>BOND
  1   1   2  2   
  2   2   3  1   
  3   2   4  1   
  4   3   5  ar  
  5   3   6  ar  
  6   4  25  1   
  7   4  26  1   
  8   4  27  1   
  9   5   7  ar  
 10   5   8  1   
 11   6   9  ar  
 12   6  28  1   
 13   7  10  ar  
 14   8  29  1   
 15   8  30  1   
 16   8  31  1   
 17   9  10  ar  
 18  10  11  1   
 19  11  12  1   
 20  11  13  1   
 21  12  14  1   
 22  12  32  1   
 23  12  33  1   
 24  13  15  1   
 25  13  34  1   
 26  13  35  1   
 27  14  16  1   
 28  14  36  1   
 29  14  37  1   
 30  15  16  1   
 31  15  38  1   
 32  15  39  1   
 33  16  17  1   
 34  16  18  1   
 35  17  19  3   
 36  18  20  ar  
 37  18  21  ar  
 38  20  22  ar  
 39  20  40  1   
 40  21  23  ar  
 41  21  41  1   
 42  22  24  ar  
 43  22  42  1   
 44  23  24  ar  
 45  23  43  1   
 46  24  44  1   
@<TRIPOS>SUBSTRUCTURE
  1 ****  11 GROUP 4 **** **** 0

# MOE 2024.06 (io_trps.svl 2023.06)
