@<TRIPOS>MOLECULE
NONAME
40 42 1 0 0 
SMALL
USER_CHARGES


@<TRIPOS>ATOM
  1 O       -0.3920     2.0970     2.5380 O.2   1 <1>  -0.5700 
  2 C       -0.2160     2.5060     1.4010 C.2   1 <1>   0.7150 
  3 N       -1.3040     3.0470     0.7370 N.am  1 <1>  -0.6600 
  4 C        1.1160     2.4040     0.8320 C.2   1 <1>   0.0550 
  5 C       -2.6920     2.8310     1.2630 C.3   1 <1>   0.1400 
  6 C       -1.1710     3.8980    -0.4810 C.3   1 <1>   0.1400 
  7 O        1.3640     2.5180    -0.4740 O.3   1 <1>  -0.2800 
  8 C        2.2990     2.1640     1.4640 C.2   1 <1>  -0.1500 
  9 C       -3.7530     2.8090     0.1370 C.3   1 <1>   0.0000 
 10 C       -2.3490     4.8660    -0.6030 C.3   1 <1>  -0.1600 
 11 C        2.6520     2.3640    -0.6810 C.2   1 <1>  -0.0100 
 12 C        3.2930     2.1410     0.4850 C.2   1 <1>  -0.1500 
 13 C       -5.1380     2.5180     0.7550 C.3   1 <1>   0.2000 
 14 C       -3.7130     4.1510    -0.6450 C.3   1 <1>  -0.1600 
 15 C       -3.5430     1.5790    -0.7720 C.3   1 <1>  -0.1600 
 16 O       -6.1400     2.8590    -0.1620 O.3   1 <1>  -0.5600 
 17 C       -5.1750     0.9990     0.9650 C.3   1 <1>  -0.1600 
 18 C       -4.1860     0.3960    -0.0410 C.3   1 <1>  -0.1600 
 19 C       -7.3830     3.1420     0.3990 C.3   1 <1>   0.0400 
 20 H       -2.7220     1.9060     1.8120 H     1 <1>   0.0800 
 21 H       -2.9180     3.6260     1.9520 H     1 <1>   0.0800 
 22 H       -0.2570     4.4650    -0.4280 H     1 <1>   0.0800 
 23 H       -1.1270     3.2660    -1.3510 H     1 <1>   0.0800 
 24 H        2.4490     2.0140     2.5190 H     1 <1>   0.1500 
 25 H       -2.3210     5.5340     0.2410 H     1 <1>   0.0800 
 26 H       -2.2320     5.4660    -1.4890 H     1 <1>   0.0800 
 27 H        3.0330     2.4260    -1.6860 H     1 <1>   0.1500 
 28 H        4.3420     1.9750     0.6570 H     1 <1>   0.1500 
 29 H       -5.2890     3.0710     1.6670 H     1 <1>   0.0800 
 30 H       -3.9980     3.9790    -1.6680 H     1 <1>   0.0800 
 31 H       -4.4430     4.8270    -0.2340 H     1 <1>   0.0800 
 32 H       -4.0720     1.7250    -1.6980 H     1 <1>   0.0800 
 33 H       -2.5090     1.3880    -0.9980 H     1 <1>   0.0800 
 34 H       -4.8420     0.7720     1.9630 H     1 <1>   0.0800 
 35 H       -6.1630     0.5970     0.8350 H     1 <1>   0.0800 
 36 H       -3.4330    -0.1720     0.4790 H     1 <1>   0.0800 
 37 H       -4.6890    -0.2490    -0.7410 H     1 <1>   0.0800 
 38 H       -8.0680     3.3560    -0.4020 H     1 <1>   0.0800 
 39 H       -7.2950     4.0020     1.0390 H     1 <1>   0.0800 
 40 H       -7.7320     2.2890     0.9540 H     1 <1>   0.0800 
@<TRIPOS>BOND
  1   1   2  2   
  2   2   3  am  
  3   2   4  1   
  4   3   5  1   
  5   3   6  1   
  6   4   7  1   
  7   4   8  2   
  8   5   9  1   
  9   5  20  1   
 10   5  21  1   
 11   6  10  1   
 12   6  22  1   
 13   6  23  1   
 14   7  11  1   
 15   8  12  1   
 16   8  24  1   
 17   9  13  1   
 18   9  14  1   
 19   9  15  1   
 20  10  14  1   
 21  10  25  1   
 22  10  26  1   
 23  11  12  2   
 24  11  27  1   
 25  12  28  1   
 26  13  16  1   
 27  13  17  1   
 28  13  29  1   
 29  14  30  1   
 30  14  31  1   
 31  15  18  1   
 32  15  32  1   
 33  15  33  1   
 34  16  19  1   
 35  17  18  1   
 36  17  34  1   
 37  17  35  1   
 38  18  36  1   
 39  18  37  1   
 40  19  38  1   
 41  19  39  1   
 42  19  40  1   
@<TRIPOS>SUBSTRUCTURE
  1 ****   3 GROUP 4 **** **** 0

# MOE 2024.06 (io_trps.svl 2023.06)
