@<TRIPOS>MOLECULE
NONAME
47 49 1 0 0 
SMALL
USER_CHARGES


@<TRIPOS>ATOM
  1 F        0.2790     0.9120    -1.0720 F     1 <1>  -0.1900 
  2 C        1.4280     1.4210    -0.7170 C.ar  1 <1>   0.1900 
  3 C        1.6320     1.7510     0.6080 C.ar  1 <1>  -0.1500 
  4 C        2.3980     1.6110    -1.6820 C.ar  1 <1>  -0.1500 
  5 C        2.8550     2.2870     0.9730 C.ar  1 <1>  -0.1500 
  6 C        3.6170     2.1490    -1.3030 C.ar  1 <1>  -0.1500 
  7 C        3.8540     2.4900     0.0260 C.ar  1 <1>  -0.1430 
  8 C        5.2070     3.0780     0.4480 C.3   1 <1>   0.3950 
  9 N        5.8110     2.2540     1.5500 N.3   1 <1>  -0.8100 
 10 C        5.1040     4.5990     0.7460 C.2   1 <1>   0.5690 
 11 C        7.0310     2.8280     2.1310 C.3   1 <1>   0.0300 
 12 C        6.0350     0.8550     1.1530 C.3   1 <1>   0.0300 
 13 O        4.1820     5.0430     1.3940 O.2   1 <1>  -0.5700 
 14 N        6.1080     5.4080     0.2600 N.am  1 <1>  -0.4940 
 15 C        6.2630     6.8150     0.3770 C.2   1 <1>  -0.0880 
 16 N        7.3700     7.5260     0.0160 N.pl3 1 <1>   0.3140 
 17 C        5.3770     7.7200     0.8570 C.2   1 <1>  -0.1500 
 18 N        7.2020     8.8520     0.2570 N.2   1 <1>  -0.7070 
 19 C        8.6400     6.9770    -0.5410 C.3   1 <1>   0.1760 
 20 C        6.0100     8.9500     0.7570 C.2   1 <1>   0.1390 
 21 C        9.8400     7.1840     0.3840 C.3   1 <1>  -0.1600 
 22 C        9.0710     7.6360    -1.8520 C.3   1 <1>  -0.1600 
 23 C       11.0660     7.0860    -0.5290 C.3   1 <1>  -0.1600 
 24 C       10.5720     7.3500    -1.9580 C.3   1 <1>  -0.1600 
 25 H        0.8550     1.5930     1.3330 H     1 <1>   0.1500 
 26 H        2.1980     1.3420    -2.7030 H     1 <1>   0.1500 
 27 H        3.0390     2.5540     2.0020 H     1 <1>   0.1500 
 28 H        4.3760     2.2990    -2.0500 H     1 <1>   0.1500 
 29 H        5.8620     2.9860    -0.3980 H     1 <1>   0.0800 
 30 H        6.8230     3.7950     2.5600 H     1 <1>   0.0800 
 31 H        7.8020     2.9220     1.3860 H     1 <1>   0.0800 
 32 H        7.3890     2.1930     2.9240 H     1 <1>   0.0800 
 33 H        5.1080     0.3940     0.8570 H     1 <1>   0.0800 
 34 H        6.4250     0.2970     1.9880 H     1 <1>   0.0800 
 35 H        6.7330     0.7980     0.3360 H     1 <1>   0.0800 
 36 H        6.8530     4.9190    -0.2300 H     1 <1>   0.3700 
 37 H        4.3870     7.5490     1.2410 H     1 <1>   0.1500 
 38 H        8.5220     5.9250    -0.7150 H     1 <1>   0.0800 
 39 H        5.5690     9.8850     1.0590 H     1 <1>   0.1500 
 40 H        9.8690     6.4560     1.1750 H     1 <1>   0.0800 
 41 H        9.8000     8.1730     0.8080 H     1 <1>   0.0800 
 42 H        8.9250     8.7020    -1.7880 H     1 <1>   0.0800 
 43 H        8.5280     7.2500    -2.6960 H     1 <1>   0.0800 
 44 H       11.4960     6.1000    -0.4700 H     1 <1>   0.0800 
 45 H       11.8130     7.8050    -0.2370 H     1 <1>   0.0800 
 46 H       11.0890     8.1830    -2.4030 H     1 <1>   0.0800 
 47 H       10.7380     6.4760    -2.5650 H     1 <1>   0.0800 
@<TRIPOS>BOND
  1   1   2  1   
  2   2   3  ar  
  3   2   4  ar  
  4   3   5  ar  
  5   3  25  1   
  6   4   6  ar  
  7   4  26  1   
  8   5   7  ar  
  9   5  27  1   
 10   6   7  ar  
 11   6  28  1   
 12   7   8  1   
 13   8   9  1   
 14   8  10  1   
 15   8  29  1   
 16   9  11  1   
 17   9  12  1   
 18  10  13  2   
 19  10  14  am  
 20  11  30  1   
 21  11  31  1   
 22  11  32  1   
 23  12  33  1   
 24  12  34  1   
 25  12  35  1   
 26  14  15  1   
 27  14  36  1   
 28  15  16  1   
 29  15  17  2   
 30  16  18  1   
 31  16  19  1   
 32  17  20  1   
 33  17  37  1   
 34  18  20  2   
 35  19  21  1   
 36  19  22  1   
 37  19  38  1   
 38  20  39  1   
 39  21  23  1   
 40  21  40  1   
 41  21  41  1   
 42  22  24  1   
 43  22  42  1   
 44  22  43  1   
 45  23  24  1   
 46  23  44  1   
 47  23  45  1   
 48  24  46  1   
 49  24  47  1   
@<TRIPOS>SUBSTRUCTURE
  1 ****  14 GROUP 4 **** **** 0

# MOE 2024.06 (io_trps.svl 2023.06)
