@<TRIPOS>MOLECULE
NONAME
62 64 1 0 0 
SMALL
USER_CHARGES


@<TRIPOS>ATOM
  1 O       -0.0120    -0.1890     0.4170 O.3   1 <1>  -0.3630 
  2 C       -0.3760    -1.3540    -0.1810 C.ar  1 <1>   0.0820 
  3 C       -0.6720     1.0430     0.2200 C.3   1 <1>   0.2000 
  4 C        0.3860    -2.4820     0.1020 C.ar  1 <1>  -0.1440 
  5 C       -1.4620    -1.4640    -1.0470 C.ar  1 <1>  -0.1500 
  6 C        0.3210     2.1430     0.5880 C.3   1 <1>  -0.2400 
  7 C       -1.9060     1.0930     1.1240 C.3   1 <1>  -0.2400 
  8 C        0.0580    -3.6950    -0.4760 C.ar  1 <1>  -0.1500 
  9 C        1.5810    -2.4330     1.0430 C.3   1 <1>   0.2630 
 10 C       -1.7910    -2.6840    -1.6090 C.ar  1 <1>  -0.1500 
 11 C       -1.0380    -3.8110    -1.3160 C.ar  1 <1>  -0.1440 
 12 O        1.2830    -3.2350     2.1320 O.3   1 <1>  -0.6800 
 13 C       -1.4080    -5.1700    -1.8650 C.3   1 <1>   0.4860 
 14 N       -1.8740    -5.9710    -0.6960 N.4   1 <1>  -0.9590 
 15 C       -1.7410    -7.4580    -0.9060 C.3   1 <1>   0.3430 
 16 C       -3.2470    -5.5380    -0.2920 C.3   1 <1>   0.3430 
 17 C       -2.2910    -8.3170     0.2830 C.3   1 <1>   0.4230 
 18 C       -3.6660    -6.3290     0.9450 C.3   1 <1>  -0.1600 
 19 N       -2.1660    -9.8340     0.1060 N.4   1 <1>  -0.9590 
 20 C       -3.7230    -7.8600     0.6830 C.3   1 <1>   0.0000 
 21 C       -3.0840   -10.6360     0.9890 C.3   1 <1>   0.3430 
 22 C       -2.2730   -10.3620    -1.2980 C.3   1 <1>   0.2630 
 23 C       -4.1520    -8.5580     2.0030 C.3   1 <1>  -0.1600 
 24 C       -4.7270    -8.2090    -0.4590 C.3   1 <1>   0.1200 
 25 C       -3.4100    -9.8800     2.2750 C.3   1 <1>  -0.1600 
 26 O       -5.8180    -7.3620    -0.4470 O.3   1 <1>  -0.6800 
 27 H       -0.9330     1.1400    -0.8190 H     1 <1>   0.0800 
 28 H       -2.0640    -0.6100    -1.2940 H     1 <1>   0.1500 
 29 H        0.6250     2.0470     1.6150 H     1 <1>   0.0800 
 30 H       -0.1320     3.1080     0.4510 H     1 <1>   0.0800 
 31 H        1.1860     2.0810    -0.0460 H     1 <1>   0.0800 
 32 H       -1.6170     0.9880     2.1540 H     1 <1>   0.0800 
 33 H       -2.5980     0.3110     0.8710 H     1 <1>   0.0800 
 34 H       -2.4070     2.0360     1.0040 H     1 <1>   0.0800 
 35 H        0.6770    -4.5470    -0.2480 H     1 <1>   0.1500 
 36 H        1.7960    -1.4400     1.3990 H     1 <1>   0.0800 
 37 H        2.4580    -2.8300     0.5630 H     1 <1>   0.0800 
 38 H       -2.6400    -2.7370    -2.2720 H     1 <1>   0.1500 
 39 H        0.6010    -2.7860     2.6690 H     1 <1>   0.4000 
 40 H       -0.5350    -5.6160    -2.3130 H     1 <1>   0.0800 
 41 H       -2.1820    -5.0850    -2.6110 H     1 <1>   0.0800 
 42 H       -1.2490    -5.6590     0.0660 H     1 <1>   0.4500 
 43 H       -2.2800    -7.7230    -1.7990 H     1 <1>   0.0800 
 44 H       -0.7010    -7.6990    -1.0560 H     1 <1>   0.0800 
 45 H       -3.2500    -4.4820    -0.0630 H     1 <1>   0.0800 
 46 H       -3.9520    -5.7110    -1.0910 H     1 <1>   0.0800 
 47 H       -1.6720    -8.0670     1.1290 H     1 <1>   0.0800 
 48 H       -2.9840    -6.1030     1.7470 H     1 <1>   0.0800 
 49 H       -4.6310    -5.9690     1.2640 H     1 <1>   0.0800 
 50 H       -1.2190   -10.0810     0.4380 H     1 <1>   0.4500 
 51 H       -4.0070   -10.8420     0.4710 H     1 <1>   0.0800 
 52 H       -2.6260   -11.5840     1.2310 H     1 <1>   0.0800 
 53 H       -3.2460   -10.1500    -1.7120 H     1 <1>   0.0800 
 54 H       -2.1320   -11.4320    -1.3030 H     1 <1>   0.0800 
 55 H       -1.5190    -9.9260    -1.9330 H     1 <1>   0.0800 
 56 H       -3.9800    -7.9160     2.8530 H     1 <1>   0.0800 
 57 H       -5.2140    -8.7430     1.9860 H     1 <1>   0.0800 
 58 H       -5.0920    -9.2190    -0.3830 H     1 <1>   0.0800 
 59 H       -4.2780    -8.0900    -1.4280 H     1 <1>   0.0800 
 60 H       -4.0240   -10.5030     2.9040 H     1 <1>   0.0800 
 61 H       -2.4990    -9.6940     2.8170 H     1 <1>   0.0800 
 62 H       -6.5180    -7.6620     0.1730 H     1 <1>   0.4000 
@<TRIPOS>BOND
  1   1   2  1   
  2   1   3  1   
  3   2   4  ar  
  4   2   5  ar  
  5   3   6  1   
  6   3   7  1   
  7   3  27  1   
  8   4   8  ar  
  9   4   9  1   
 10   5  10  ar  
 11   5  28  1   
 12   6  29  1   
 13   6  30  1   
 14   6  31  1   
 15   7  32  1   
 16   7  33  1   
 17   7  34  1   
 18   8  11  ar  
 19   8  35  1   
 20   9  12  1   
 21   9  36  1   
 22   9  37  1   
 23  10  11  ar  
 24  10  38  1   
 25  11  13  1   
 26  12  39  1   
 27  13  14  1   
 28  13  40  1   
 29  13  41  1   
 30  14  15  1   
 31  14  16  1   
 32  14  42  1   
 33  15  17  1   
 34  15  43  1   
 35  15  44  1   
 36  16  18  1   
 37  16  45  1   
 38  16  46  1   
 39  17  19  1   
 40  17  20  1   
 41  17  47  1   
 42  18  20  1   
 43  18  48  1   
 44  18  49  1   
 45  19  21  1   
 46  19  22  1   
 47  19  50  1   
 48  20  23  1   
 49  20  24  1   
 50  21  25  1   
 51  21  51  1   
 52  21  52  1   
 53  22  53  1   
 54  22  54  1   
 55  22  55  1   
 56  23  25  1   
 57  23  56  1   
 58  23  57  1   
 59  24  26  1   
 60  24  58  1   
 61  24  59  1   
 62  25  60  1   
 63  25  61  1   
 64  26  62  1   
@<TRIPOS>SUBSTRUCTURE
  1 ****  14 GROUP 4 **** **** 0

# MOE 2024.06 (io_trps.svl 2023.06)
