@<TRIPOS>MOLECULE
NONAME
62 65 1 0 0 
SMALL
USER_CHARGES


@<TRIPOS>ATOM
  1 O        0.0900     3.8780     0.4180 O.2   1 <1>  -0.5700 
  2 C        0.1980     3.2100    -0.5950 C.2   1 <1>   0.5440 
  3 N       -0.8250     2.4600    -1.1210 N.am  1 <1>  -0.6600 
  4 C        1.3650     3.1030    -1.4200 C.ar  1 <1>   0.0860 
  5 C       -2.1930     2.3440    -0.5360 C.3   1 <1>   0.3000 
  6 C       -0.3700     1.8180    -2.3930 C.3   1 <1>   0.2840 
  7 C        1.0700     2.2880    -2.4960 C.ar  1 <1>  -0.1440 
  8 C        2.6350     3.6540    -1.3000 C.ar  1 <1>  -0.1500 
  9 C       -2.0150     1.6200     0.8230 C.3   1 <1>  -0.1600 
 10 C       -3.0880     1.4330    -1.3960 C.3   1 <1>  -0.1600 
 11 C       -2.8090     3.7770    -0.5140 C.3   1 <1>  -0.0990 
 12 C        2.0160     2.0060    -3.4640 C.ar  1 <1>  -0.1500 
 13 C        3.5900     3.3780    -2.2640 C.ar  1 <1>  -0.1500 
 14 C       -3.3150     1.2130     1.5180 C.3   1 <1>   0.3430 
 15 C       -4.4350     1.2120    -0.7090 C.3   1 <1>   0.3430 
 16 C       -3.3280     4.2070     0.8290 C.2   1 <1>   0.5690 
 17 C        3.2820     2.5570    -3.3410 C.ar  1 <1>  -0.1500 
 18 N       -4.2370     0.5020     0.5880 N.4   1 <1>  -0.9590 
 19 O       -4.4870     3.9820     1.0920 O.2   1 <1>  -0.5700 
 20 N       -2.4570     4.7610     1.6990 N.am  1 <1>  -0.7300 
 21 C       -5.5480     0.2900     1.2600 C.3   1 <1>   0.4860 
 22 C       -2.7670     5.2880     3.0280 C.3   1 <1>   0.2200 
 23 C       -6.4000    -0.6140     0.3910 C.ar  1 <1>  -0.1430 
 24 C       -2.2540     6.7220     3.0970 C.3   1 <1>  -0.2400 
 25 C       -2.0790     4.4030     4.0610 C.3   1 <1>  -0.2400 
 26 C       -6.1200    -1.9700     0.3000 C.ar  1 <1>  -0.1500 
 27 C       -7.4640    -0.0860    -0.3270 C.ar  1 <1>  -0.1500 
 28 C       -6.8880    -2.7860    -0.5130 C.ar  1 <1>  -0.1500 
 29 C       -8.2300    -0.9030    -1.1390 C.ar  1 <1>  -0.1500 
 30 C       -7.9410    -2.2520    -1.2340 C.ar  1 <1>  -0.1500 
 31 H       -0.9480     2.1730    -3.2300 H     1 <1>   0.0800 
 32 H       -0.4130     0.7450    -2.3210 H     1 <1>   0.0800 
 33 H        2.8600     4.2880    -0.4610 H     1 <1>   0.1500 
 34 H       -1.4590     2.2320     1.5070 H     1 <1>   0.0800 
 35 H       -1.4340     0.7280     0.6690 H     1 <1>   0.0800 
 36 H       -2.6270     0.4740    -1.5540 H     1 <1>   0.0800 
 37 H       -3.2620     1.8840    -2.3560 H     1 <1>   0.0800 
 38 H       -3.6210     3.8600    -1.2110 H     1 <1>   0.0800 
 39 H       -2.0940     4.5130    -0.8300 H     1 <1>   0.0800 
 40 H        1.7810     1.3710    -4.3010 H     1 <1>   0.1500 
 41 H        4.5770     3.8000    -2.1790 H     1 <1>   0.1500 
 42 H       -3.8030     2.0860     1.9150 H     1 <1>   0.0800 
 43 H       -3.0790     0.5760     2.3550 H     1 <1>   0.0800 
 44 H       -5.0710     0.6250    -1.3540 H     1 <1>   0.0800 
 45 H       -4.9190     2.1600    -0.5340 H     1 <1>   0.0800 
 46 H        4.0320     2.3490    -4.0850 H     1 <1>   0.1500 
 47 H       -3.8570    -0.4280     0.3780 H     1 <1>   0.4500 
 48 H       -1.4610     4.8100     1.4310 H     1 <1>   0.3700 
 49 H       -6.0450     1.2360     1.4100 H     1 <1>   0.0800 
 50 H       -5.4050    -0.1750     2.2220 H     1 <1>   0.0800 
 51 H       -3.8340     5.2780     3.1880 H     1 <1>   0.0800 
 52 H       -1.1910     6.7560     2.9370 H     1 <1>   0.0800 
 53 H       -2.4680     7.1410     4.0640 H     1 <1>   0.0800 
 54 H       -2.7450     7.3240     2.3540 H     1 <1>   0.0800 
 55 H       -1.0150     4.3920     3.9030 H     1 <1>   0.0800 
 56 H       -2.4600     3.4010     4.0020 H     1 <1>   0.0800 
 57 H       -2.2730     4.7790     5.0500 H     1 <1>   0.0800 
 58 H       -5.3120    -2.4120     0.8580 H     1 <1>   0.1500 
 59 H       -7.7110     0.9610    -0.2640 H     1 <1>   0.1500 
 60 H       -6.6720    -3.8390    -0.5850 H     1 <1>   0.1500 
 61 H       -9.0560    -0.4930    -1.6970 H     1 <1>   0.1500 
 62 H       -8.5390    -2.8880    -1.8650 H     1 <1>   0.1500 
@<TRIPOS>BOND
  1   1   2  2   
  2   2   3  am  
  3   2   4  1   
  4   3   5  1   
  5   3   6  1   
  6   4   7  ar  
  7   4   8  ar  
  8   5   9  1   
  9   5  10  1   
 10   5  11  1   
 11   6   7  1   
 12   6  31  1   
 13   6  32  1   
 14   7  12  ar  
 15   8  13  ar  
 16   8  33  1   
 17   9  14  1   
 18   9  34  1   
 19   9  35  1   
 20  10  15  1   
 21  10  36  1   
 22  10  37  1   
 23  11  16  1   
 24  11  38  1   
 25  11  39  1   
 26  12  17  ar  
 27  12  40  1   
 28  13  17  ar  
 29  13  41  1   
 30  14  18  1   
 31  14  42  1   
 32  14  43  1   
 33  15  18  1   
 34  15  44  1   
 35  15  45  1   
 36  16  19  2   
 37  16  20  am  
 38  17  46  1   
 39  18  21  1   
 40  18  47  1   
 41  20  22  1   
 42  20  48  1   
 43  21  23  1   
 44  21  49  1   
 45  21  50  1   
 46  22  24  1   
 47  22  25  1   
 48  22  51  1   
 49  23  26  ar  
 50  23  27  ar  
 51  24  52  1   
 52  24  53  1   
 53  24  54  1   
 54  25  55  1   
 55  25  56  1   
 56  25  57  1   
 57  26  28  ar  
 58  26  58  1   
 59  27  29  ar  
 60  27  59  1   
 61  28  30  ar  
 62  28  60  1   
 63  29  30  ar  
 64  29  61  1   
 65  30  62  1   
@<TRIPOS>SUBSTRUCTURE
  1 ****   5 GROUP 4 **** **** 0

# MOE 2024.06 (io_trps.svl 2023.06)
