@<TRIPOS>MOLECULE
NONAME
40 41 1 0 0 
SMALL
USER_CHARGES


@<TRIPOS>ATOM
  1 CL      -0.9040     0.1360    -1.6140 Cl    1 <1>  -0.1770 
  2 C       -1.9150    -0.8130    -0.5550 C.ar  1 <1>   0.1770 
  3 C       -2.7870    -0.1840     0.3170 C.ar  1 <1>   0.1600 
  4 C       -1.8420    -2.1860    -0.5950 C.ar  1 <1>  -0.1500 
  5 N       -3.5860    -0.8300     1.1570 N.ar  1 <1>  -0.6200 
  6 C       -2.6730    -2.8930     0.2640 C.ar  1 <1>   0.0860 
  7 C       -3.4970    -2.1520     1.1130 C.ar  1 <1>   0.1600 
  8 C       -2.6860    -4.3380     0.2910 C.2   1 <1>   0.5440 
  9 O       -1.6340    -4.9450     0.2960 O.2   1 <1>  -0.5700 
 10 N       -3.8630    -5.0510     0.2980 N.am  1 <1>  -0.6600 
 11 C       -5.1570    -4.5520    -0.2380 C.3   1 <1>   0.1400 
 12 C       -3.8820    -6.5330     0.4060 C.3   1 <1>   0.1400 
 13 C       -5.8850    -5.8070    -0.7100 C.3   1 <1>   0.2000 
 14 C       -5.3380    -6.9340     0.1590 C.3   1 <1>  -0.0800 
 15 O       -7.2560    -5.7020    -0.5500 O.3   1 <1>  -0.6800 
 16 C       -5.5110    -8.3170    -0.4920 C.3   1 <1>  -0.0550 
 17 S       -5.0120    -9.6620     0.5790 S.o2  1 <1>   1.3330 
 18 O       -3.5750    -9.6330     0.7330 O.2   1 <1>  -0.6500 
 19 O       -5.8580    -9.6220     1.7500 O.2   1 <1>  -0.6500 
 20 N       -5.4130   -11.0380    -0.3290 N.am  1 <1>  -0.8490 
 21 C       -4.3800   -11.4180    -1.2990 C.3   1 <1>   0.1160 
 22 C       -5.7450   -12.1860     0.5200 C.3   1 <1>   0.1160 
 23 H       -2.8230     0.8920     0.3210 H     1 <1>   0.1500 
 24 H       -1.1670    -2.6940    -1.2610 H     1 <1>   0.1500 
 25 H       -4.1210    -2.6970     1.8020 H     1 <1>   0.1500 
 26 H       -5.7060    -4.0700     0.5520 H     1 <1>   0.0800 
 27 H       -4.9990    -3.8700    -1.0570 H     1 <1>   0.0800 
 28 H       -3.2300    -6.9490    -0.3440 H     1 <1>   0.0800 
 29 H       -3.5410    -6.8470     1.3790 H     1 <1>   0.0800 
 30 H       -5.6770    -5.9780    -1.7530 H     1 <1>   0.0800 
 31 H       -5.8400    -6.9230     1.1120 H     1 <1>   0.0800 
 32 H       -7.4930    -5.6390     0.3970 H     1 <1>   0.4000 
 33 H       -4.9510    -8.3560    -1.4050 H     1 <1>   0.0800 
 34 H       -6.5480    -8.4480    -0.7390 H     1 <1>   0.0800 
 35 H       -4.7260   -12.2390    -1.9040 H     1 <1>   0.0800 
 36 H       -3.4760   -11.7140    -0.7910 H     1 <1>   0.0800 
 37 H       -4.1560   -10.5890    -1.9480 H     1 <1>   0.0800 
 38 H       -6.0100   -13.0350    -0.0860 H     1 <1>   0.0800 
 39 H       -6.5870   -11.9480     1.1500 H     1 <1>   0.0800 
 40 H       -4.9070   -12.4430     1.1470 H     1 <1>   0.0800 
@<TRIPOS>BOND
  1   1   2  1   
  2   2   3  ar  
  3   2   4  ar  
  4   3   5  ar  
  5   3  23  1   
  6   4   6  ar  
  7   4  24  1   
  8   5   7  ar  
  9   6   7  ar  
 10   6   8  1   
 11   7  25  1   
 12   8   9  2   
 13   8  10  am  
 14  10  11  1   
 15  10  12  1   
 16  11  13  1   
 17  11  26  1   
 18  11  27  1   
 19  12  14  1   
 20  12  28  1   
 21  12  29  1   
 22  13  14  1   
 23  13  15  1   
 24  13  30  1   
 25  14  16  1   
 26  14  31  1   
 27  15  32  1   
 28  16  17  1   
 29  16  33  1   
 30  16  34  1   
 31  17  18  2   
 32  17  19  2   
 33  17  20  am  
 34  20  21  1   
 35  20  22  1   
 36  21  35  1   
 37  21  36  1   
 38  21  37  1   
 39  22  38  1   
 40  22  39  1   
 41  22  40  1   
@<TRIPOS>SUBSTRUCTURE
  1 ****  10 GROUP 4 **** **** 0

# MOE 2024.06 (io_trps.svl 2023.06)
