@<TRIPOS>MOLECULE
NONAME
54 57 1 0 0 
SMALL
USER_CHARGES


@<TRIPOS>ATOM
  1 O       -0.0660    -0.7340     0.0160 O.3   1 <1>  -0.5600 
  2 C        0.7140     0.3900     0.2440 C.3   1 <1>   0.1200 
  3 C       -1.3830    -0.5090     0.4190 C.3   1 <1>   0.1200 
  4 C       -0.2420     1.5530     0.0260 C.3   1 <1>   0.2890 
  5 C       -1.5370     1.0070     0.6080 C.3   1 <1>  -0.0800 
  6 N        0.1860     2.8020     0.7190 N.pl3 1 <1>  -0.8690 
  7 C       -2.7920     1.5910    -0.0700 C.3   1 <1>  -0.0170 
  8 C        0.7780     3.9220     0.2320 C.ar  1 <1>   0.4610 
  9 C       -4.1430     1.1260     0.4880 C.ar  1 <1>  -0.1440 
 10 N        1.2560     3.9660    -1.0230 N.ar  1 <1>  -0.1790 
 11 C        0.9350     5.0630     0.9820 C.ar  1 <1>  -0.1500 
 12 C       -5.3380     1.4480    -0.2050 C.ar  1 <1>   0.0000 
 13 C       -4.2750     0.4120     1.6470 C.ar  1 <1>  -0.1500 
 14 C        1.8500     5.0710    -1.5170 C.ar  1 <1>   0.7710 
 15 C        1.5490     6.1610     0.4180 C.ar  1 <1>   0.3930 
 16 C       -6.5650     0.9880     0.3340 C.ar  1 <1>   0.3100 
 17 C       -5.3910     2.2060    -1.4000 C.ar  1 <1>  -0.1500 
 18 C       -5.5390     0.0100     2.0950 C.ar  1 <1>   0.1600 
 19 N        2.0070     6.1750    -0.8320 N.ar  1 <1>  -0.6200 
 20 N        2.3160     5.0740    -2.7660 N.pl3 1 <1>  -0.9000 
 21 O        1.6790     7.2460     1.1770 O.3   1 <1>  -0.3630 
 22 N       -6.6470     0.2720     1.4820 N.ar  1 <1>  -0.6200 
 23 C       -7.7620     1.2840    -0.3370 C.ar  1 <1>  -0.1500 
 24 C       -6.5760     2.4790    -2.0290 C.ar  1 <1>  -0.1500 
 25 C        2.3140     8.4430     0.7770 C.3   1 <1>   0.2000 
 26 C       -7.7780     2.0130    -1.4940 C.ar  1 <1>  -0.1500 
 27 C        3.8200     8.2960     1.0020 C.3   1 <1>  -0.2400 
 28 C        1.7340     9.5690     1.6290 C.3   1 <1>  -0.2400 
 29 H        1.0630     0.3470     1.2620 H     1 <1>   0.0800 
 30 H        1.5400     0.3840    -0.4440 H     1 <1>   0.0800 
 31 H       -2.0340    -0.8950    -0.3480 H     1 <1>   0.0800 
 32 H       -1.5540    -1.0450     1.3370 H     1 <1>   0.0800 
 33 H       -0.3530     1.7140    -1.0330 H     1 <1>   0.0800 
 34 H       -1.5640     1.2110     1.6630 H     1 <1>   0.0800 
 35 H       -0.0730     2.7930     1.7160 H     1 <1>   0.4000 
 36 H       -2.7520     1.3340    -1.1140 H     1 <1>   0.0800 
 37 H       -2.7590     2.6650     0.0060 H     1 <1>   0.0800 
 38 H        1.2010     3.1520    -1.6140 H     1 <1>   0.4570 
 39 H        0.5870     5.1150     1.9970 H     1 <1>   0.1500 
 40 H       -3.4440     0.1280     2.2600 H     1 <1>   0.1500 
 41 H       -4.4860     2.5830    -1.8330 H     1 <1>   0.1500 
 42 H       -5.5930    -0.5540     3.0110 H     1 <1>   0.1500 
 43 H        2.3040     4.3260    -3.4620 H     1 <1>   0.4000 
 44 H        2.7630     5.9360    -3.0980 H     1 <1>   0.4000 
 45 H       -8.6740     0.9160     0.0950 H     1 <1>   0.1500 
 46 H       -6.6010     3.0550    -2.9390 H     1 <1>   0.1500 
 47 H        2.0960     8.6290    -0.2620 H     1 <1>   0.0800 
 48 H       -8.7030     2.2330    -1.9980 H     1 <1>   0.1500 
 49 H        4.0280     8.0850     2.0360 H     1 <1>   0.0800 
 50 H        4.3190     9.2100     0.7340 H     1 <1>   0.0800 
 51 H        4.2160     7.5080     0.3890 H     1 <1>   0.0800 
 52 H        1.9210     9.3880     2.6720 H     1 <1>   0.0800 
 53 H        0.6740     9.6470     1.4640 H     1 <1>   0.0800 
 54 H        2.1870    10.5050     1.3570 H     1 <1>   0.0800 
@<TRIPOS>BOND
  1   1   2  1   
  2   1   3  1   
  3   2   4  1   
  4   2  29  1   
  5   2  30  1   
  6   3   5  1   
  7   3  31  1   
  8   3  32  1   
  9   4   5  1   
 10   4   6  1   
 11   4  33  1   
 12   5   7  1   
 13   5  34  1   
 14   6   8  1   
 15   6  35  1   
 16   7   9  1   
 17   7  36  1   
 18   7  37  1   
 19   8  10  ar  
 20   8  11  ar  
 21   9  12  ar  
 22   9  13  ar  
 23  10  14  ar  
 24  10  38  1   
 25  11  15  ar  
 26  11  39  1   
 27  12  16  ar  
 28  12  17  ar  
 29  13  18  ar  
 30  13  40  1   
 31  14  19  ar  
 32  14  20  1   
 33  15  19  ar  
 34  15  21  1   
 35  16  22  ar  
 36  16  23  ar  
 37  17  24  ar  
 38  17  41  1   
 39  18  22  ar  
 40  18  42  1   
 41  20  43  1   
 42  20  44  1   
 43  21  25  1   
 44  23  26  ar  
 45  23  45  1   
 46  24  26  ar  
 47  24  46  1   
 48  25  27  1   
 49  25  28  1   
 50  25  47  1   
 51  26  48  1   
 52  27  49  1   
 53  27  50  1   
 54  27  51  1   
 55  28  52  1   
 56  28  53  1   
 57  28  54  1   
@<TRIPOS>SUBSTRUCTURE
  1 ****   6 GROUP 4 **** **** 0

# MOE 2024.06 (io_trps.svl 2023.06)
