@<TRIPOS>MOLECULE
NONAME
47 48 1 0 0 
SMALL
USER_CHARGES


@<TRIPOS>ATOM
  1 F       -0.1530     1.5680     2.1580 F     1 <1>  -0.1900 
  2 C        0.1320     2.6880     1.5470 C.ar  1 <1>   0.1900 
  3 C        0.5040     2.6450     0.2160 C.ar  1 <1>  -0.1500 
  4 C        0.0500     3.8720     2.2550 C.ar  1 <1>  -0.1500 
  5 C        0.8090     3.8320    -0.4290 C.ar  1 <1>  -0.1500 
  6 C        0.3560     5.0530     1.6020 C.ar  1 <1>  -0.1500 
  7 C        0.7390     5.0400     0.2670 C.ar  1 <1>   0.0830 
  8 O        1.0330     6.2410    -0.2880 O.3   1 <1>  -0.3630 
  9 C        1.6960     6.3280    -1.5420 C.3   1 <1>   0.1810 
 10 C        2.1110     7.7630    -1.8620 C.2   1 <1>   0.5690 
 11 O        1.6830     8.2280    -2.8950 O.2   1 <1>  -0.5700 
 12 N        2.9600     8.4820    -1.0480 N.am  1 <1>  -0.6600 
 13 C        3.5850     7.9450     0.2060 C.3   1 <1>   0.1400 
 14 C        3.2680     9.9090    -1.3540 C.3   1 <1>   0.1400 
 15 C        5.1170     8.0280     0.1790 C.3   1 <1>   0.1400 
 16 C        4.6760    10.0270    -1.9480 C.3   1 <1>  -0.1600 
 17 N        5.5830     9.4360     0.3440 N.am  1 <1>  -0.6600 
 18 C        5.7860    10.2260    -0.9060 C.3   1 <1>   0.1400 
 19 C        5.8590     9.9200     1.6040 C.2   1 <1>   0.5690 
 20 O        5.5860     9.2710     2.5900 O.2   1 <1>  -0.5700 
 21 C        6.4780    11.3040     1.8440 C.3   1 <1>   0.1810 
 22 O        7.6220    11.5410     1.0590 O.3   1 <1>  -0.5600 
 23 C        8.2720    12.7300     1.3500 C.3   1 <1>   0.1200 
 24 C        9.4440    12.8580     0.3860 C.3   1 <1>  -0.2400 
 25 H        0.5500     1.7010    -0.2970 H     1 <1>   0.1500 
 26 H       -0.2470     3.8650     3.2880 H     1 <1>   0.1500 
 27 H        1.0900     3.7960    -1.4650 H     1 <1>   0.1500 
 28 H        0.3000     5.9930     2.1230 H     1 <1>   0.1500 
 29 H        1.0200     5.9760    -2.2990 H     1 <1>   0.0800 
 30 H        2.5690     5.7030    -1.5140 H     1 <1>   0.0800 
 31 H        3.3190     6.9150     0.3490 H     1 <1>   0.0800 
 32 H        3.2140     8.4910     1.0560 H     1 <1>   0.0800 
 33 H        3.1780    10.5040    -0.4610 H     1 <1>   0.0800 
 34 H        2.5540    10.2880    -2.0660 H     1 <1>   0.0800 
 35 H        5.4970     7.6100    -0.7360 H     1 <1>   0.0800 
 36 H        5.5060     7.4330     0.9880 H     1 <1>   0.0800 
 37 H        4.6960    10.8790    -2.6030 H     1 <1>   0.0800 
 38 H        4.8860     9.1670    -2.5590 H     1 <1>   0.0800 
 39 H        5.8180    11.2730    -0.6620 H     1 <1>   0.0800 
 40 H        6.7390     9.9660    -1.3340 H     1 <1>   0.0800 
 41 H        6.7590    11.3770     2.8790 H     1 <1>   0.0800 
 42 H        5.7480    12.0590     1.6220 H     1 <1>   0.0800 
 43 H        8.6210    12.6960     2.3690 H     1 <1>   0.0800 
 44 H        7.5830    13.5490     1.2210 H     1 <1>   0.0800 
 45 H       10.1170    12.0280     0.5130 H     1 <1>   0.0800 
 46 H        9.9810    13.7680     0.5820 H     1 <1>   0.0800 
 47 H        9.0890    12.8790    -0.6280 H     1 <1>   0.0800 
@<TRIPOS>BOND
  1   1   2  1   
  2   2   3  ar  
  3   2   4  ar  
  4   3   5  ar  
  5   3  25  1   
  6   4   6  ar  
  7   4  26  1   
  8   5   7  ar  
  9   5  27  1   
 10   6   7  ar  
 11   6  28  1   
 12   7   8  1   
 13   8   9  1   
 14   9  10  1   
 15   9  29  1   
 16   9  30  1   
 17  10  11  2   
 18  10  12  am  
 19  12  13  1   
 20  12  14  1   
 21  13  15  1   
 22  13  31  1   
 23  13  32  1   
 24  14  16  1   
 25  14  33  1   
 26  14  34  1   
 27  15  17  1   
 28  15  35  1   
 29  15  36  1   
 30  16  18  1   
 31  16  37  1   
 32  16  38  1   
 33  17  18  1   
 34  17  19  am  
 35  18  39  1   
 36  18  40  1   
 37  19  20  2   
 38  19  21  1   
 39  21  22  1   
 40  21  41  1   
 41  21  42  1   
 42  22  23  1   
 43  23  24  1   
 44  23  43  1   
 45  23  44  1   
 46  24  45  1   
 47  24  46  1   
 48  24  47  1   
@<TRIPOS>SUBSTRUCTURE
  1 ****  13 GROUP 4 **** **** 0

# MOE 2024.06 (io_trps.svl 2023.06)
