@<TRIPOS>MOLECULE
NONAME
46 49 1 0 0 
SMALL
USER_CHARGES


@<TRIPOS>ATOM
  1 O        2.4730    -0.9610     2.7530 O.2   1 <1>  -0.5700 
  2 C        2.3500    -1.3290     1.6070 C.2   1 <1>   0.5690 
  3 N        2.5500    -0.4510     0.5590 N.am  1 <1>  -0.6600 
  4 C        1.9800    -2.7850     1.4060 C.3   1 <1>   0.1570 
  5 C        2.8470     0.9890     0.8640 C.3   1 <1>   0.1400 
  6 C        2.6200    -0.8960    -0.8740 C.3   1 <1>   0.1400 
  7 N        0.6440    -2.8790     0.8020 N.pl3 1 <1>   0.3140 
  8 C        4.3120     1.4130     0.5820 C.3   1 <1>   0.4230 
  9 C        3.8490    -0.3880    -1.6560 C.3   1 <1>  -0.0800 
 10 N        0.4780    -3.2510    -0.4770 N.2   1 <1>  -0.7070 
 11 C       -0.5180    -2.6160     1.4140 C.2   1 <1>  -0.3020 
 12 N        4.5310     1.9030    -0.8290 N.4   1 <1>  -0.9590 
 13 C        5.3730     0.3410     0.9530 C.3   1 <1>   0.1200 
 14 C        5.2120    -0.8980    -1.1380 C.3   1 <1>   0.1200 
 15 C        3.7960     1.1250    -1.8700 C.3   1 <1>   0.3430 
 16 C       -0.8260    -3.2220    -0.6540 C.ar  1 <1>   0.2890 
 17 C       -1.5100    -2.8220     0.5080 C.ar  1 <1>   0.0000 
 18 C        4.2270     3.3620    -0.9570 C.3   1 <1>   0.2630 
 19 O        5.2940    -0.8760     0.2530 O.3   1 <1>  -0.5600 
 20 C       -1.5670    -3.5290    -1.8190 C.ar  1 <1>  -0.1500 
 21 C       -2.9250    -2.7250     0.5000 C.ar  1 <1>  -0.1500 
 22 C       -2.9270    -3.4310    -1.8110 C.ar  1 <1>  -0.1500 
 23 C       -3.6130    -3.0240    -0.6390 C.ar  1 <1>  -0.1500 
 24 H        1.9610    -3.2860     2.3550 H     1 <1>   0.0800 
 25 H        2.6980    -3.2730     0.7770 H     1 <1>   0.0800 
 26 H        2.1630     1.6160     0.3210 H     1 <1>   0.0800 
 27 H        2.6570     1.1800     1.9060 H     1 <1>   0.0800 
 28 H        2.6450    -1.9680    -0.9270 H     1 <1>   0.0800 
 29 H        1.7150    -0.5840    -1.3700 H     1 <1>   0.0800 
 30 H        4.5050     2.2480     1.2340 H     1 <1>   0.0800 
 31 H        3.7400    -0.8060    -2.6410 H     1 <1>   0.0800 
 32 H       -0.6000    -2.2990     2.4370 H     1 <1>   0.1500 
 33 H        5.5350     1.7660    -1.0110 H     1 <1>   0.4500 
 34 H        5.2600     0.0950     1.9950 H     1 <1>   0.0800 
 35 H        6.3640     0.7360     0.8190 H     1 <1>   0.0800 
 36 H        6.0410    -0.3490    -1.5490 H     1 <1>   0.0800 
 37 H        5.3280    -1.9310    -1.4240 H     1 <1>   0.0800 
 38 H        2.7620     1.4310    -1.8940 H     1 <1>   0.0800 
 39 H        4.2220     1.3510    -2.8350 H     1 <1>   0.0800 
 40 H        3.1820     3.5470    -0.7680 H     1 <1>   0.0800 
 41 H        4.4630     3.7080    -1.9510 H     1 <1>   0.0800 
 42 H        4.8110     3.9310    -0.2520 H     1 <1>   0.0800 
 43 H       -1.0150    -3.8370    -2.6870 H     1 <1>   0.1500 
 44 H       -3.4180    -2.4160     1.4030 H     1 <1>   0.1500 
 45 H       -3.5070    -3.6610    -2.6880 H     1 <1>   0.1500 
 46 H       -4.6870    -2.9580    -0.6730 H     1 <1>   0.1500 
@<TRIPOS>BOND
  1   1   2  2   
  2   2   3  am  
  3   2   4  1   
  4   3   5  1   
  5   3   6  1   
  6   4   7  1   
  7   4  24  1   
  8   4  25  1   
  9   5   8  1   
 10   5  26  1   
 11   5  27  1   
 12   6   9  1   
 13   6  28  1   
 14   6  29  1   
 15   7  10  1   
 16   7  11  1   
 17   8  12  1   
 18   8  13  1   
 19   8  30  1   
 20   9  14  1   
 21   9  15  1   
 22   9  31  1   
 23  10  16  2   
 24  11  17  2   
 25  11  32  1   
 26  12  15  1   
 27  12  18  1   
 28  12  33  1   
 29  13  19  1   
 30  13  34  1   
 31  13  35  1   
 32  14  19  1   
 33  14  36  1   
 34  14  37  1   
 35  15  38  1   
 36  15  39  1   
 37  16  17  ar  
 38  16  20  ar  
 39  17  21  ar  
 40  18  40  1   
 41  18  41  1   
 42  18  42  1   
 43  20  22  ar  
 44  20  43  1   
 45  21  23  ar  
 46  21  44  1   
 47  22  23  ar  
 48  22  45  1   
 49  23  46  1   
@<TRIPOS>SUBSTRUCTURE
  1 ****   3 GROUP 4 **** **** 0

# MOE 2024.06 (io_trps.svl 2023.06)
