@<TRIPOS>MOLECULE
NONAME
57 59 1 0 0 
SMALL
USER_CHARGES


@<TRIPOS>ATOM
  1 O       -2.9140     0.6860    -2.0860 O.2   1 <1>  -0.5700 
  2 C       -2.9320     0.7080    -0.8790 C.2   1 <1>   0.5690 
  3 N       -3.5280    -0.2810    -0.1590 N.am  1 <1>  -0.6600 
  4 C       -2.3420     1.9010    -0.1560 C.3   1 <1>  -0.0990 
  5 C       -3.0040    -1.6890    -0.2160 C.3   1 <1>   0.3640 
  6 C       -5.0120    -0.2520    -0.1090 C.3   1 <1>   0.1400 
  7 C       -1.0190     1.5510     0.5290 C.3   1 <1>   0.0210 
  8 C       -1.4700    -1.6860    -0.3070 C.ar  1 <1>  -0.1440 
  9 C       -3.7190    -2.5200    -1.3250 C.3   1 <1>   0.2000 
 10 C       -5.5870    -1.0580    -1.2830 C.3   1 <1>   0.1200 
 11 C       -0.3050     2.7140     1.2130 C.2   1 <1>  -0.1810 
 12 C       -0.7300    -1.9180     0.8430 C.ar  1 <1>  -0.1500 
 13 C       -0.7900    -1.4600    -1.4970 C.ar  1 <1>  -0.1500 
 14 O       -5.1170    -2.3730    -1.2330 O.3   1 <1>  -0.5600 
 15 C       -3.4770    -4.0420    -1.2510 C.3   1 <1>   0.1200 
 16 C       -0.5570     4.0290     1.3810 C.2   1 <1>  -0.0400 
 17 C        0.9190     2.5480     1.8680 C.2   1 <1>   0.1080 
 18 C        0.6540    -1.9150     0.8220 C.ar  1 <1>   0.0830 
 19 C        0.5930    -1.4430    -1.5330 C.ar  1 <1>  -0.1500 
 20 O       -2.1380    -4.3900    -1.1080 O.3   1 <1>  -0.6800 
 21 O        0.4340     4.5410     2.0600 O.3   1 <1>  -0.0190 
 22 C       -1.6650     4.9870     0.9840 C.3   1 <1>  -0.0600 
 23 N        1.3340     3.6570     2.3620 N.2   1 <1>  -0.4100 
 24 C        1.6830     1.2480     2.0010 C.3   1 <1>  -0.0590 
 25 O        1.2660    -2.1530     2.0120 O.3   1 <1>  -0.3630 
 26 C        1.3350    -1.6540    -0.3750 C.ar  1 <1>   0.0830 
 27 C        2.3130    -3.0970     2.0630 C.3   1 <1>   0.0400 
 28 O        2.6970    -1.5830    -0.3700 O.3   1 <1>  -0.3630 
 29 C        3.4140    -1.0480    -1.4610 C.3   1 <1>   0.0400 
 30 H       -2.1730     2.6780    -0.8780 H     1 <1>   0.0800 
 31 H       -3.0480     2.2460     0.5740 H     1 <1>   0.0800 
 32 H       -3.2600    -2.1590     0.7180 H     1 <1>   0.0800 
 33 H       -5.3550    -0.6680     0.8220 H     1 <1>   0.0800 
 34 H       -5.3600     0.7650    -0.1720 H     1 <1>   0.0800 
 35 H       -0.3530     1.1340    -0.2060 H     1 <1>   0.0800 
 36 H       -1.2060     0.7930     1.2690 H     1 <1>   0.0800 
 37 H       -3.4230    -2.1610    -2.2940 H     1 <1>   0.0800 
 38 H       -5.3020    -0.6210    -2.2260 H     1 <1>   0.0800 
 39 H       -6.6600    -1.0900    -1.2240 H     1 <1>   0.0800 
 40 H       -1.2220    -2.1070     1.7800 H     1 <1>   0.1500 
 41 H       -1.3320    -1.2770    -2.4100 H     1 <1>   0.1500 
 42 H       -3.8450    -4.5100    -2.1470 H     1 <1>   0.0800 
 43 H       -3.9990    -4.4520    -0.4040 H     1 <1>   0.0800 
 44 H        1.0700    -1.2560    -2.4760 H     1 <1>   0.1500 
 45 H       -1.5690    -3.9120    -1.7460 H     1 <1>   0.4000 
 46 H       -2.4700     4.4950     0.4790 H     1 <1>   0.0800 
 47 H       -1.2640     5.7450     0.3350 H     1 <1>   0.0800 
 48 H       -2.0570     5.4620     1.8650 H     1 <1>   0.0800 
 49 H        1.9220     0.8590     1.0290 H     1 <1>   0.0800 
 50 H        1.0910     0.5290     2.5360 H     1 <1>   0.0800 
 51 H        2.5980     1.4100     2.5420 H     1 <1>   0.0800 
 52 H        2.3790    -3.4710     3.0680 H     1 <1>   0.0800 
 53 H        3.2340    -2.6120     1.7950 H     1 <1>   0.0800 
 54 H        2.0970    -3.9020     1.3820 H     1 <1>   0.0800 
 55 H        4.4500    -0.9890    -1.1830 H     1 <1>   0.0800 
 56 H        3.0370    -0.0630    -1.6780 H     1 <1>   0.0800 
 57 H        3.3010    -1.7000    -2.3090 H     1 <1>   0.0800 
@<TRIPOS>BOND
  1   1   2  2   
  2   2   3  am  
  3   2   4  1   
  4   3   5  1   
  5   3   6  1   
  6   4   7  1   
  7   4  30  1   
  8   4  31  1   
  9   5   8  1   
 10   5   9  1   
 11   5  32  1   
 12   6  10  1   
 13   6  33  1   
 14   6  34  1   
 15   7  11  1   
 16   7  35  1   
 17   7  36  1   
 18   8  12  ar  
 19   8  13  ar  
 20   9  14  1   
 21   9  15  1   
 22   9  37  1   
 23  10  14  1   
 24  10  38  1   
 25  10  39  1   
 26  11  16  2   
 27  11  17  1   
 28  12  18  ar  
 29  12  40  1   
 30  13  19  ar  
 31  13  41  1   
 32  15  20  1   
 33  15  42  1   
 34  15  43  1   
 35  16  21  1   
 36  16  22  1   
 37  17  23  2   
 38  17  24  1   
 39  18  25  1   
 40  18  26  ar  
 41  19  26  ar  
 42  19  44  1   
 43  20  45  1   
 44  21  23  1   
 45  22  46  1   
 46  22  47  1   
 47  22  48  1   
 48  24  49  1   
 49  24  50  1   
 50  24  51  1   
 51  25  27  1   
 52  26  28  1   
 53  27  52  1   
 54  27  53  1   
 55  27  54  1   
 56  28  29  1   
 57  29  55  1   
 58  29  56  1   
 59  29  57  1   
@<TRIPOS>SUBSTRUCTURE
  1 ****   8 GROUP 4 **** **** 0

# MOE 2024.06 (io_trps.svl 2023.06)
