@<TRIPOS>MOLECULE
NONAME
48 50 1 0 0 
SMALL
USER_CHARGES


@<TRIPOS>ATOM
  1 CL       1.7290     0.5900    -1.8330 Cl    1 <1>  -0.1770 
  2 C        0.7180     1.6400    -0.8650 C.ar  1 <1>   0.1770 
  3 C        1.2080     2.2860     0.2680 C.ar  1 <1>  -0.1440 
  4 C       -0.5920     1.8010    -1.2800 C.ar  1 <1>  -0.1500 
  5 C        0.3390     3.1110     0.9720 C.ar  1 <1>  -0.1500 
  6 C        2.6430     2.1320     0.7690 C.3   1 <1>   0.3640 
  7 C       -1.4420     2.6230    -0.5630 C.ar  1 <1>  -0.1500 
  8 C       -0.9730     3.2780     0.5610 C.ar  1 <1>  -0.1500 
  9 N        2.8700     0.7080     1.1160 N.am  1 <1>  -0.7300 
 10 C        3.7030     2.7030    -0.2170 C.3   1 <1>   0.2610 
 11 C        3.9300    -0.0080     0.6830 C.2   1 <1>   0.5690 
 12 O        4.9720     2.0700    -0.0600 O.3   1 <1>  -0.5600 
 13 C        3.8320     4.2160    -0.0080 C.2   1 <1>   0.5690 
 14 O        4.0660    -1.1630     0.9990 O.2   1 <1>  -0.5700 
 15 C        4.9510     0.6700    -0.2310 C.3   1 <1>   0.1810 
 16 O        2.8520     4.9160    -0.1090 O.2   1 <1>  -0.5700 
 17 N        5.0500     4.7390     0.2940 N.am  1 <1>  -0.7300 
 18 C        5.3550     6.1720     0.5090 C.3   1 <1>   0.1400 
 19 C        6.1580     6.7150    -0.6740 C.3   1 <1>  -0.0220 
 20 C        6.5450     8.1730    -0.4610 C.2   1 <1>  -0.2760 
 21 C        7.7880     8.5490    -0.1430 C.2   1 <1>  -0.2880 
 22 C        5.4080     9.1730    -0.6580 C.3   1 <1>  -0.0220 
 23 C        8.2270     9.9920     0.0460 C.3   1 <1>  -0.0220 
 24 C        5.7650    10.5600    -0.1030 C.3   1 <1>  -0.1600 
 25 C        7.1850    10.9730    -0.5110 C.3   1 <1>  -0.1600 
 26 H       -0.9390     1.2860    -2.1570 H     1 <1>   0.1500 
 27 H        0.6780     3.6420     1.8460 H     1 <1>   0.1500 
 28 H        2.7390     2.6900     1.6850 H     1 <1>   0.0800 
 29 H       -2.4630     2.7540    -0.8800 H     1 <1>   0.1500 
 30 H       -1.6310     3.9230     1.1180 H     1 <1>   0.1500 
 31 H        2.1620     0.2360     1.6800 H     1 <1>   0.3700 
 32 H        3.3900     2.5460    -1.2310 H     1 <1>   0.0800 
 33 H        4.7180     0.4520    -1.2580 H     1 <1>   0.0800 
 34 H        5.9330     0.2950    -0.0090 H     1 <1>   0.0800 
 35 H        5.8370     4.0830     0.3420 H     1 <1>   0.3700 
 36 H        4.4380     6.7250     0.6160 H     1 <1>   0.0800 
 37 H        5.9240     6.2840     1.4160 H     1 <1>   0.0800 
 38 H        7.0520     6.1270    -0.7830 H     1 <1>   0.0800 
 39 H        5.5830     6.6230    -1.5790 H     1 <1>   0.0800 
 40 H        8.5920     7.8500     0.0100 H     1 <1>   0.1500 
 41 H        5.1990     9.2520    -1.7110 H     1 <1>   0.0800 
 42 H        4.5120     8.8340    -0.1700 H     1 <1>   0.0800 
 43 H        8.3730    10.1740     1.0960 H     1 <1>   0.0800 
 44 H        9.1640    10.1530    -0.4560 H     1 <1>   0.0800 
 45 H        5.0540    11.2840    -0.4590 H     1 <1>   0.0800 
 46 H        5.7040    10.5340     0.9720 H     1 <1>   0.0800 
 47 H        7.3990    11.9660    -0.1570 H     1 <1>   0.0800 
 48 H        7.2510    10.9800    -1.5860 H     1 <1>   0.0800 
@<TRIPOS>BOND
  1   1   2  1   
  2   2   3  ar  
  3   2   4  ar  
  4   3   5  ar  
  5   3   6  1   
  6   4   7  ar  
  7   4  26  1   
  8   5   8  ar  
  9   5  27  1   
 10   6   9  1   
 11   6  10  1   
 12   6  28  1   
 13   7   8  ar  
 14   7  29  1   
 15   8  30  1   
 16   9  11  am  
 17   9  31  1   
 18  10  12  1   
 19  10  13  1   
 20  10  32  1   
 21  11  14  2   
 22  11  15  1   
 23  12  15  1   
 24  13  16  2   
 25  13  17  am  
 26  15  33  1   
 27  15  34  1   
 28  17  18  1   
 29  17  35  1   
 30  18  19  1   
 31  18  36  1   
 32  18  37  1   
 33  19  20  1   
 34  19  38  1   
 35  19  39  1   
 36  20  21  2   
 37  20  22  1   
 38  21  23  1   
 39  21  40  1   
 40  22  24  1   
 41  22  41  1   
 42  22  42  1   
 43  23  25  1   
 44  23  43  1   
 45  23  44  1   
 46  24  25  1   
 47  24  45  1   
 48  24  46  1   
 49  25  47  1   
 50  25  48  1   
@<TRIPOS>SUBSTRUCTURE
  1 ****  13 GROUP 4 **** **** 0

# MOE 2024.06 (io_trps.svl 2023.06)
