@<TRIPOS>MOLECULE
NONAME
41 43 1 0 0 
SMALL
USER_CHARGES


@<TRIPOS>ATOM
  1 O       -0.5090     0.1520    -0.1100 O.2   1 <1>  -0.5700 
  2 C       -1.5460     0.7390     0.0890 C.2   1 <1>   0.5690 
  3 N       -2.7220     0.0610     0.2820 N.am  1 <1>  -0.6600 
  4 C       -1.5240     2.2590     0.1020 C.3   1 <1>  -0.0990 
  5 C       -2.7540    -1.4330     0.3980 C.3   1 <1>   0.1400 
  6 C       -4.0900     0.6680     0.3230 C.3   1 <1>   0.1400 
  7 C       -0.1210     2.8180     0.3430 C.3   1 <1>   0.1200 
  8 C       -3.7830    -2.0480    -0.5680 C.3   1 <1>   0.3440 
  9 C       -5.0510    -0.0600    -0.6460 C.3   1 <1>   0.2950 
 10 O       -0.1920     4.2010     0.3470 O.3   1 <1>  -0.6800 
 11 O       -5.0340    -1.4350    -0.3950 O.3   1 <1>  -0.5600 
 12 C       -3.9100    -3.5500    -0.3300 C.ar  1 <1>  -0.1440 
 13 C       -6.5190     0.3900    -0.5560 C.3   1 <1>  -0.1950 
 14 C       -4.8210    -4.0660     0.5810 C.ar  1 <1>  -0.1500 
 15 C       -3.0880    -4.4240    -1.0280 C.ar  1 <1>  -0.1500 
 16 C       -6.9450     1.7810    -0.1900 C.3   1 <1>  -0.2000 
 17 C       -7.2390     0.6320     0.7350 C.3   1 <1>  -0.2000 
 18 C       -4.9090    -5.4320     0.7920 C.ar  1 <1>  -0.1500 
 19 C       -3.1750    -5.7900    -0.8190 C.ar  1 <1>  -0.1500 
 20 C       -4.0850    -6.2950     0.0920 C.ar  1 <1>  -0.1500 
 21 H       -1.8940     2.6070    -0.8430 H     1 <1>   0.0800 
 22 H       -2.1610     2.6090     0.8920 H     1 <1>   0.0800 
 23 H       -1.7860    -1.8540     0.1890 H     1 <1>   0.0800 
 24 H       -3.0150    -1.7040     1.4050 H     1 <1>   0.0800 
 25 H       -4.4700     0.5960     1.3260 H     1 <1>   0.0800 
 26 H       -4.0550     1.7060     0.0530 H     1 <1>   0.0800 
 27 H        0.5680     2.5100    -0.4260 H     1 <1>   0.0800 
 28 H        0.2540     2.4990     1.3010 H     1 <1>   0.0800 
 29 H       -3.4690    -1.8780    -1.5830 H     1 <1>   0.0800 
 30 H       -4.7110     0.0970    -1.6560 H     1 <1>   0.0800 
 31 H       -0.3170     4.5450    -0.5580 H     1 <1>   0.4000 
 32 H       -7.0950    -0.0850    -1.3320 H     1 <1>   0.1000 
 33 H       -5.4700    -3.4040     1.1290 H     1 <1>   0.1500 
 34 H       -2.3730    -4.0480    -1.7390 H     1 <1>   0.1500 
 35 H       -6.2320     2.5160     0.1380 H     1 <1>   0.1000 
 36 H       -7.7650     2.2250    -0.7280 H     1 <1>   0.1000 
 37 H       -8.2520     0.2780     0.8230 H     1 <1>   0.1000 
 38 H       -6.7040     0.5550     1.6650 H     1 <1>   0.1000 
 39 H       -5.6210    -5.8200     1.4990 H     1 <1>   0.1500 
 40 H       -2.5330    -6.4600    -1.3640 H     1 <1>   0.1500 
 41 H       -4.1540    -7.3560     0.2550 H     1 <1>   0.1500 
@<TRIPOS>BOND
  1   1   2  2   
  2   2   3  am  
  3   2   4  1   
  4   3   5  1   
  5   3   6  1   
  6   4   7  1   
  7   4  21  1   
  8   4  22  1   
  9   5   8  1   
 10   5  23  1   
 11   5  24  1   
 12   6   9  1   
 13   6  25  1   
 14   6  26  1   
 15   7  10  1   
 16   7  27  1   
 17   7  28  1   
 18   8  11  1   
 19   8  12  1   
 20   8  29  1   
 21   9  11  1   
 22   9  13  1   
 23   9  30  1   
 24  10  31  1   
 25  12  14  ar  
 26  12  15  ar  
 27  13  16  1   
 28  13  17  1   
 29  13  32  1   
 30  14  18  ar  
 31  14  33  1   
 32  15  19  ar  
 33  15  34  1   
 34  16  17  1   
 35  16  35  1   
 36  16  36  1   
 37  17  37  1   
 38  17  38  1   
 39  18  20  ar  
 40  18  39  1   
 41  19  20  ar  
 42  19  40  1   
 43  20  41  1   
@<TRIPOS>SUBSTRUCTURE
  1 ****   5 GROUP 4 **** **** 0

# MOE 2024.06 (io_trps.svl 2023.06)
