@<TRIPOS>MOLECULE
NONAME
47 48 1 0 0 
SMALL
USER_CHARGES


@<TRIPOS>ATOM
  1 S        1.0380     0.6110     3.0740 S.3   1 <1>  -0.4600 
  2 C        0.0720    -0.8720     2.6740 C.3   1 <1>   0.2140 
  3 C       -0.1940     1.9620     3.0230 C.3   1 <1>   0.1310 
  4 C       -0.4570    -0.7050     1.2630 C.ar  1 <1>  -0.1440 
  5 C        0.0070     2.8660     1.8130 C.2   1 <1>   0.5690 
  6 C       -1.7890    -0.3980     1.0300 C.ar  1 <1>  -0.1500 
  7 C        0.4080    -0.8460     0.1910 C.ar  1 <1>  -0.1500 
  8 O        0.3240     4.0110     2.0220 O.2   1 <1>  -0.5700 
  9 N       -0.1770     2.3650     0.5590 N.am  1 <1>  -0.7300 
 10 C       -2.2500    -0.2140    -0.2630 C.ar  1 <1>  -0.1430 
 11 C       -0.0460    -0.6790    -1.1050 C.ar  1 <1>  -0.1430 
 12 C       -0.1890     3.0350    -0.7690 C.3   1 <1>   0.4000 
 13 C       -1.3740    -0.3570    -1.3260 C.ar  1 <1>  -0.1500 
 14 C       -3.7050     0.1350    -0.5150 C.3   1 <1>  -0.0970 
 15 C        0.9120    -0.8570    -2.2680 C.3   1 <1>  -0.0970 
 16 C        1.0430     2.7060    -1.6100 C.2   1 <1>   0.0070 
 17 C       -0.4100     4.5470    -0.7030 C.3   1 <1>  -0.2400 
 18 N        0.9740     2.4580    -2.8740 N.2   1 <1>  -0.5650 
 19 N        2.3150     2.6540    -1.1740 N.pl3 1 <1>   0.3140 
 20 C        2.2570     2.2490    -3.1820 C.2   1 <1>   0.3660 
 21 N        3.0960     2.3450    -2.2090 N.2   1 <1>  -0.7070 
 22 C        2.8470     2.9010     0.1950 C.3   1 <1>   0.0960 
 23 C        4.3730     3.0720     0.2480 C.3   1 <1>  -0.2400 
 24 H       -0.7170    -0.9580     3.4010 H     1 <1>   0.0800 
 25 H        0.7340    -1.7170     2.7490 H     1 <1>   0.0800 
 26 H       -0.0650     2.5290     3.9260 H     1 <1>   0.0800 
 27 H       -1.1730     1.5240     3.0120 H     1 <1>   0.0800 
 28 H       -2.4730    -0.3000     1.8550 H     1 <1>   0.1500 
 29 H        1.4430    -1.0860     0.3650 H     1 <1>   0.1500 
 30 H       -0.3400     1.3510     0.4660 H     1 <1>   0.3700 
 31 H       -1.0340     2.6300    -1.3000 H     1 <1>   0.0800 
 32 H       -1.7260    -0.2230    -2.3340 H     1 <1>   0.1500 
 33 H       -4.0960     0.7300     0.2900 H     1 <1>   0.0800 
 34 H       -4.2860    -0.7670    -0.5950 H     1 <1>   0.0800 
 35 H       -3.8060     0.6930    -1.4290 H     1 <1>   0.0800 
 36 H        1.8750    -0.4450    -2.0250 H     1 <1>   0.0800 
 37 H        0.5420    -0.3550    -3.1440 H     1 <1>   0.0800 
 38 H        1.0260    -1.9020    -2.4900 H     1 <1>   0.0800 
 39 H        0.4490     5.0420    -0.2900 H     1 <1>   0.0800 
 40 H       -1.2780     4.7730    -0.1110 H     1 <1>   0.0800 
 41 H       -0.5640     4.9250    -1.6970 H     1 <1>   0.0800 
 42 H        2.5500     2.0140    -4.1930 H     1 <1>   0.1500 
 43 H        2.5600     2.0740     0.8180 H     1 <1>   0.0800 
 44 H        2.3860     3.7930     0.5750 H     1 <1>   0.0800 
 45 H        4.8610     2.1730    -0.0870 H     1 <1>   0.0800 
 46 H        4.6810     3.2710     1.2590 H     1 <1>   0.0800 
 47 H        4.6770     3.8950    -0.3730 H     1 <1>   0.0800 
@<TRIPOS>BOND
  1   1   2  1   
  2   1   3  1   
  3   2   4  1   
  4   2  24  1   
  5   2  25  1   
  6   3   5  1   
  7   3  26  1   
  8   3  27  1   
  9   4   6  ar  
 10   4   7  ar  
 11   5   8  2   
 12   5   9  am  
 13   6  10  ar  
 14   6  28  1   
 15   7  11  ar  
 16   7  29  1   
 17   9  12  1   
 18   9  30  1   
 19  10  13  ar  
 20  10  14  1   
 21  11  13  ar  
 22  11  15  1   
 23  12  16  1   
 24  12  17  1   
 25  12  31  1   
 26  13  32  1   
 27  14  33  1   
 28  14  34  1   
 29  14  35  1   
 30  15  36  1   
 31  15  37  1   
 32  15  38  1   
 33  16  18  2   
 34  16  19  1   
 35  17  39  1   
 36  17  40  1   
 37  17  41  1   
 38  18  20  1   
 39  19  21  1   
 40  19  22  1   
 41  20  21  2   
 42  20  42  1   
 43  22  23  1   
 44  22  43  1   
 45  22  44  1   
 46  23  45  1   
 47  23  46  1   
 48  23  47  1   
@<TRIPOS>SUBSTRUCTURE
  1 ****   9 GROUP 4 **** **** 0

# MOE 2024.06 (io_trps.svl 2023.06)
