@<TRIPOS>MOLECULE
NONAME
56 59 1 0 0 
SMALL
USER_CHARGES


@<TRIPOS>ATOM
  1 O        1.1620     0.1730    -1.0860 O.2   1 <1>  -0.5700 
  2 C        1.8020    -0.0880    -0.0900 C.2   1 <1>   0.5690 
  3 N        2.5820     0.8780     0.5070 N.am  1 <1>  -0.6600 
  4 C        1.6750    -1.5060     0.4990 C.3   1 <1>   0.2610 
  5 C        3.4030     0.6900     1.7500 C.3   1 <1>   0.1400 
  6 C        2.7300     2.2250    -0.1100 C.3   1 <1>   0.1400 
  7 O        2.9450    -2.0950     0.7500 O.3   1 <1>  -0.2170 
  8 C        0.9720    -2.5540    -0.3720 C.3   1 <1>  -0.0990 
  9 C        4.8940     0.4810     1.4410 C.3   1 <1>   0.1400 
 10 C        3.8160     2.2260    -1.1950 C.3   1 <1>  -0.1600 
 11 N        2.9900    -3.3590     0.3790 N.2   1 <1>  -0.5130 
 12 C        1.9470    -3.6850    -0.2400 C.2   1 <1>   0.3280 
 13 N        5.4470     1.5830     0.5930 N.am  1 <1>  -0.6600 
 14 C        5.0980     1.4560    -0.8510 C.3   1 <1>   0.1400 
 15 C        1.6060    -5.0470    -0.8520 C.3   1 <1>  -0.0190 
 16 C        6.1750     2.6070     1.1470 C.2   1 <1>   0.5690 
 17 C        0.4870    -5.7470    -0.0660 C.3   1 <1>  -0.2400 
 18 C        2.8310    -5.9730    -0.9300 C.3   1 <1>  -0.2400 
 19 O        6.3430     2.6760     2.3440 O.2   1 <1>  -0.5700 
 20 C        6.7680     3.7220     0.3020 C.3   1 <1>   0.0820 
 21 C        7.9070     3.2480    -0.5800 C.2   1 <1>   0.1080 
 22 N        7.9390     3.4660    -1.8540 N.2   1 <1>  -0.7070 
 23 C        9.0370     2.5460    -0.1160 C.ar  1 <1>   0.0000 
 24 N        9.0990     2.9090    -2.2720 N.pl3 1 <1>   0.3000 
 25 C        9.7950     2.3400    -1.2490 C.ar  1 <1>  -0.1520 
 26 C        9.5000     2.0680     1.1180 C.ar  1 <1>  -0.1500 
 27 C       11.0190     1.6640    -1.1960 C.ar  1 <1>  -0.1500 
 28 C       10.7010     1.4020     1.1780 C.ar  1 <1>  -0.1500 
 29 C       11.4630     1.1990     0.0190 C.ar  1 <1>  -0.1500 
 30 H        1.1770    -1.4400     1.4480 H     1 <1>   0.0800 
 31 H        3.0420    -0.1470     2.3180 H     1 <1>   0.0800 
 32 H        3.3020     1.5580     2.3780 H     1 <1>   0.0800 
 33 H        2.9880     2.9400     0.6530 H     1 <1>   0.0800 
 34 H        1.7920     2.5340    -0.5390 H     1 <1>   0.0800 
 35 H        0.8930    -2.2560    -1.4010 H     1 <1>   0.0800 
 36 H        0.0030    -2.7930     0.0230 H     1 <1>   0.0800 
 37 H        5.0290    -0.4630     0.9420 H     1 <1>   0.0800 
 38 H        5.4360     0.4250     2.3690 H     1 <1>   0.0800 
 39 H        4.0670     3.2450    -1.4250 H     1 <1>   0.0800 
 40 H        3.4020     1.8040    -2.0930 H     1 <1>   0.0800 
 41 H        5.9080     1.7950    -1.4710 H     1 <1>   0.0800 
 42 H        4.9460     0.4140    -1.0810 H     1 <1>   0.0800 
 43 H        1.2630    -4.8760    -1.8580 H     1 <1>   0.0800 
 44 H        0.7900    -5.9000     0.9560 H     1 <1>   0.0800 
 45 H        0.2630    -6.7030    -0.5040 H     1 <1>   0.0800 
 46 H       -0.4120    -5.1570    -0.0740 H     1 <1>   0.0800 
 47 H        3.2070    -6.1830     0.0570 H     1 <1>   0.0800 
 48 H        3.6150    -5.5000    -1.4960 H     1 <1>   0.0800 
 49 H        2.5760    -6.9010    -1.4090 H     1 <1>   0.0800 
 50 H        7.1410     4.4910     0.9510 H     1 <1>   0.0800 
 51 H        5.9970     4.1560    -0.3040 H     1 <1>   0.0800 
 52 H        9.4040     2.9330    -3.2510 H     1 <1>   0.2700 
 53 H        8.9100     2.2280     2.0030 H     1 <1>   0.1500 
 54 H       11.5960     1.5150    -2.0920 H     1 <1>   0.1500 
 55 H       11.0680     1.0290     2.1180 H     1 <1>   0.1500 
 56 H       12.4000     0.6750     0.0950 H     1 <1>   0.1500 
@<TRIPOS>BOND
  1   1   2  2   
  2   2   3  am  
  3   2   4  1   
  4   3   5  1   
  5   3   6  1   
  6   4   7  1   
  7   4   8  1   
  8   4  30  1   
  9   5   9  1   
 10   5  31  1   
 11   5  32  1   
 12   6  10  1   
 13   6  33  1   
 14   6  34  1   
 15   7  11  1   
 16   8  12  1   
 17   8  35  1   
 18   8  36  1   
 19   9  13  1   
 20   9  37  1   
 21   9  38  1   
 22  10  14  1   
 23  10  39  1   
 24  10  40  1   
 25  11  12  2   
 26  12  15  1   
 27  13  14  1   
 28  13  16  am  
 29  14  41  1   
 30  14  42  1   
 31  15  17  1   
 32  15  18  1   
 33  15  43  1   
 34  16  19  2   
 35  16  20  1   
 36  17  44  1   
 37  17  45  1   
 38  17  46  1   
 39  18  47  1   
 40  18  48  1   
 41  18  49  1   
 42  20  21  1   
 43  20  50  1   
 44  20  51  1   
 45  21  22  2   
 46  21  23  1   
 47  22  24  1   
 48  23  25  ar  
 49  23  26  ar  
 50  24  25  1   
 51  24  52  1   
 52  25  27  ar  
 53  26  28  ar  
 54  26  53  1   
 55  27  29  ar  
 56  27  54  1   
 57  28  29  ar  
 58  28  55  1   
 59  29  56  1   
@<TRIPOS>SUBSTRUCTURE
  1 ****  14 GROUP 4 **** **** 0

# MOE 2024.06 (io_trps.svl 2023.06)
