@<TRIPOS>MOLECULE
NONAME
24 24 1 0 0 
SMALL
USER_CHARGES


@<TRIPOS>ATOM
  1 CL       1.9320    -0.0720     2.7960 Cl    1 <1>  -0.1770 
  2 C        2.2840    -0.8360     1.2640 C.ar  1 <1>   0.1770 
  3 C        2.4540    -0.0510     0.1320 C.ar  1 <1>  -0.1440 
  4 C        2.4030    -2.2120     1.2270 C.ar  1 <1>  -0.1500 
  5 C        2.7600    -0.6910    -1.0650 C.ar  1 <1>  -0.1500 
  6 C        2.3010     1.4550     0.2750 C.3   1 <1>   0.5660 
  7 C        2.7080    -2.8380     0.0310 C.ar  1 <1>  -0.1440 
  8 C        2.8850    -2.0710    -1.1080 C.ar  1 <1>  -0.1500 
  9 N        3.5520     1.9600     0.8370 N.4   1 <1>  -0.8530 
 10 C        2.0290     2.2030    -1.0260 C.3   1 <1>  -0.2400 
 11 C        2.8430    -4.3490    -0.0370 C.3   1 <1>  -0.0970 
 12 H        2.2590    -2.7840     2.1270 H     1 <1>   0.1500 
 13 H        2.9040    -0.1500    -1.9840 H     1 <1>   0.1500 
 14 H        1.4890     1.6560     0.9590 H     1 <1>   0.0800 
 15 H        3.1180    -2.5540    -2.0430 H     1 <1>   0.1500 
 16 H        4.3290     1.6880     0.2290 H     1 <1>   0.4500 
 17 H        3.6980     1.5250     1.7550 H     1 <1>   0.4500 
 18 H        3.5290     2.9770     0.9420 H     1 <1>   0.4500 
 19 H        2.8530     2.1250    -1.7130 H     1 <1>   0.0800 
 20 H        1.8300     3.2410    -0.8280 H     1 <1>   0.0800 
 21 H        1.1540     1.7900    -1.4970 H     1 <1>   0.0800 
 22 H        3.6510    -4.6240    -0.6910 H     1 <1>   0.0800 
 23 H        1.9320    -4.7800    -0.4140 H     1 <1>   0.0800 
 24 H        3.0420    -4.7610     0.9360 H     1 <1>   0.0800 
@<TRIPOS>BOND
  1   1   2  1   
  2   2   3  ar  
  3   2   4  ar  
  4   3   5  ar  
  5   3   6  1   
  6   4   7  ar  
  7   4  12  1   
  8   5   8  ar  
  9   5  13  1   
 10   6   9  1   
 11   6  10  1   
 12   6  14  1   
 13   7   8  ar  
 14   7  11  1   
 15   8  15  1   
 16   9  16  1   
 17   9  17  1   
 18   9  18  1   
 19  10  19  1   
 20  10  20  1   
 21  10  21  1   
 22  11  22  1   
 23  11  23  1   
 24  11  24  1   
@<TRIPOS>SUBSTRUCTURE
  1 ****   3 GROUP 4 **** **** 0

# MOE 2024.06 (io_trps.svl 2023.06)
