@<TRIPOS>MOLECULE
NONAME
51 53 1 0 0 
SMALL
USER_CHARGES


@<TRIPOS>ATOM
  1 O       -1.1570     0.6440     2.1680 O.2   1 <1>  -0.5700 
  2 C       -1.8010     1.1850     1.2910 C.2   1 <1>   0.5440 
  3 N       -2.6010     0.4090     0.4870 N.am  1 <1>  -0.6600 
  4 C       -1.7100     2.6180     1.1000 C.ar  1 <1>   0.0860 
  5 C       -3.3200     0.8690    -0.7270 C.3   1 <1>   0.1400 
  6 C       -2.6610    -1.0700     0.5930 C.3   1 <1>   0.1400 
  7 C       -0.5260     3.2040     0.6630 C.ar  1 <1>  -0.1500 
  8 C       -2.8010     3.4530     1.3380 C.ar  1 <1>  -0.1500 
  9 C       -4.2310    -0.3030    -1.0860 C.3   1 <1>   0.2000 
 10 C       -3.4210    -1.5320    -0.6560 C.3   1 <1>  -0.0800 
 11 C       -0.4200     4.5690     0.4450 C.ar  1 <1>   0.0730 
 12 C       -2.7140     4.8170     1.1300 C.ar  1 <1>  -0.1500 
 13 O       -5.3750    -0.2080    -0.3100 O.3   1 <1>  -0.6800 
 14 C       -4.2390    -2.8210    -0.4470 C.3   1 <1>  -0.0170 
 15 C        0.8040     5.1460    -0.0180 C.1   1 <1>  -0.0730 
 16 C       -1.5280     5.3700     0.6830 C.ar  1 <1>  -0.1500 
 17 C       -3.3290    -3.9940    -0.1180 C.ar  1 <1>  -0.1430 
 18 C        1.8150     5.6410    -0.4080 C.1   1 <1>  -0.2000 
 19 C       -3.0880    -4.3930     1.1810 C.ar  1 <1>  -0.1500 
 20 C       -2.6940    -4.7190    -1.1050 C.ar  1 <1>  -0.1500 
 21 C        3.0760     6.2680    -0.8920 C.3   1 <1>   0.4800 
 22 C       -2.2440    -5.4650     1.4230 C.ar  1 <1>   0.1600 
 23 C       -1.8700    -5.7760    -0.7570 C.ar  1 <1>   0.1600 
 24 O        2.7540     7.4880    -1.4250 O.3   1 <1>  -0.6800 
 25 C        4.0420     6.5160     0.2590 C.3   1 <1>  -0.2400 
 26 C        3.7100     5.4410    -2.0040 C.3   1 <1>  -0.2400 
 27 N       -1.6280    -6.1660     0.4850 N.ar  1 <1>  -0.6200 
 28 H       -3.8840     1.7690    -0.5530 H     1 <1>   0.0800 
 29 H       -2.6060     1.0360    -1.5140 H     1 <1>   0.0800 
 30 H       -1.6700    -1.4930     0.6320 H     1 <1>   0.0800 
 31 H       -3.1920    -1.3320     1.4920 H     1 <1>   0.0800 
 32 H        0.3300     2.5760     0.4900 H     1 <1>   0.1500 
 33 H       -3.7210     3.0230     1.6910 H     1 <1>   0.1500 
 34 H       -4.5180    -0.3170    -2.1240 H     1 <1>   0.0800 
 35 H       -2.6890    -1.7210    -1.4210 H     1 <1>   0.0800 
 36 H       -3.5650     5.4490     1.3170 H     1 <1>   0.1500 
 37 H       -5.1070    -0.0630     0.6200 H     1 <1>   0.4000 
 38 H       -4.7930    -3.0410    -1.3430 H     1 <1>   0.0800 
 39 H       -4.9530    -2.6890     0.3470 H     1 <1>   0.0800 
 40 H       -1.4560     6.4310     0.5170 H     1 <1>   0.1500 
 41 H       -3.5450    -3.8830     2.0090 H     1 <1>   0.1500 
 42 H       -2.8320    -4.4740    -2.1420 H     1 <1>   0.1500 
 43 H       -2.0660    -5.7610     2.4430 H     1 <1>   0.1500 
 44 H       -1.3830    -6.3310    -1.5400 H     1 <1>   0.1500 
 45 H        3.5650     7.9160    -1.7470 H     1 <1>   0.4000 
 46 H        4.3030     5.5810     0.7200 H     1 <1>   0.0800 
 47 H        3.5760     7.1370     1.0030 H     1 <1>   0.0800 
 48 H        4.9430     6.9880    -0.0900 H     1 <1>   0.0800 
 49 H        3.9620     4.4650    -1.6300 H     1 <1>   0.0800 
 50 H        4.6070     5.9080    -2.3660 H     1 <1>   0.0800 
 51 H        3.0150     5.3210    -2.8160 H     1 <1>   0.0800 
@<TRIPOS>BOND
  1   1   2  2   
  2   2   3  am  
  3   2   4  1   
  4   3   5  1   
  5   3   6  1   
  6   4   7  ar  
  7   4   8  ar  
  8   5   9  1   
  9   5  28  1   
 10   5  29  1   
 11   6  10  1   
 12   6  30  1   
 13   6  31  1   
 14   7  11  ar  
 15   7  32  1   
 16   8  12  ar  
 17   8  33  1   
 18   9  10  1   
 19   9  13  1   
 20   9  34  1   
 21  10  14  1   
 22  10  35  1   
 23  11  15  1   
 24  11  16  ar  
 25  12  16  ar  
 26  12  36  1   
 27  13  37  1   
 28  14  17  1   
 29  14  38  1   
 30  14  39  1   
 31  15  18  3   
 32  16  40  1   
 33  17  19  ar  
 34  17  20  ar  
 35  18  21  1   
 36  19  22  ar  
 37  19  41  1   
 38  20  23  ar  
 39  20  42  1   
 40  21  24  1   
 41  21  25  1   
 42  21  26  1   
 43  22  27  ar  
 44  22  43  1   
 45  23  27  ar  
 46  23  44  1   
 47  24  45  1   
 48  25  46  1   
 49  25  47  1   
 50  25  48  1   
 51  26  49  1   
 52  26  50  1   
 53  26  51  1   
@<TRIPOS>SUBSTRUCTURE
  1 ****   2 GROUP 4 **** **** 0

# MOE 2024.06 (io_trps.svl 2023.06)
