@<TRIPOS>MOLECULE
NONAME
51 55 1 0 0 
SMALL
USER_CHARGES


@<TRIPOS>ATOM
  1 S        1.1960     0.1490    -1.7590 S.3   1 <1>  -0.0800 
  2 C        2.0370    -0.6900    -0.4800 C.2   1 <1>  -0.1400 
  3 C        0.1510    -1.2280    -2.0020 C.2   1 <1>  -0.1100 
  4 C        1.5430    -1.9250    -0.2920 C.2   1 <1>  -0.1810 
  5 C        3.1720    -0.0070     0.2490 C.3   1 <1>   0.0200 
  6 C        0.4250    -2.2530    -1.1540 C.2   1 <1>  -0.0860 
  7 C        2.1550    -2.8470     0.7580 C.3   1 <1>   0.0210 
  8 C        3.5030    -0.8040     1.5230 C.3   1 <1>  -0.1600 
  9 C       -0.3250    -3.4960    -1.1210 C.2   1 <1>   0.7160 
 10 C        3.5170    -2.3220     1.2550 C.3   1 <1>  -0.1600 
 11 O       -0.0510    -4.4320    -0.3890 O.2   1 <1>  -0.5700 
 12 N       -1.4720    -3.6360    -1.8640 N.am  1 <1>  -0.6600 
 13 C       -2.7220    -3.0780    -1.2640 C.3   1 <1>   0.1400 
 14 C       -1.7060    -4.9400    -2.5670 C.3   1 <1>   0.1400 
 15 C       -3.3210    -4.0550    -0.2120 C.3   1 <1>   0.4230 
 16 C       -2.5990    -5.8980    -1.7390 C.3   1 <1>   0.3430 
 17 N       -2.7090    -5.4370    -0.3120 N.4   1 <1>  -0.9590 
 18 C       -4.8620    -4.1210    -0.3180 C.3   1 <1>   0.1200 
 19 C       -3.3680    -6.3820     0.6380 C.3   1 <1>   0.5180 
 20 O       -5.3850    -5.0330     0.6070 O.3   1 <1>  -0.5600 
 21 C       -2.7950    -7.7920     0.4560 C.3   1 <1>  -0.1950 
 22 C       -4.9050    -6.3470     0.4940 C.3   1 <1>   0.1200 
 23 C       -2.4930    -8.6390     1.6540 C.3   1 <1>  -0.2000 
 24 C       -1.3730    -8.1080     0.8080 C.3   1 <1>  -0.2000 
 25 H       -0.5920    -1.1360    -2.7740 H     1 <1>   0.1500 
 26 H        4.0290     0.0300    -0.3990 H     1 <1>   0.0800 
 27 H        2.8940     0.9990     0.5090 H     1 <1>   0.0800 
 28 H        1.4730    -2.9290     1.5870 H     1 <1>   0.0800 
 29 H        2.3040    -3.8290     0.3450 H     1 <1>   0.0800 
 30 H        4.4580    -0.4880     1.9050 H     1 <1>   0.0800 
 31 H        2.7600    -0.5900     2.2710 H     1 <1>   0.0800 
 32 H        3.7960    -2.8480     2.1510 H     1 <1>   0.0800 
 33 H        4.2620    -2.5320     0.5070 H     1 <1>   0.0800 
 34 H       -2.5150    -2.1320    -0.7930 H     1 <1>   0.0800 
 35 H       -3.4320    -2.8930    -2.0520 H     1 <1>   0.0800 
 36 H       -2.1570    -4.7590    -3.5280 H     1 <1>   0.0800 
 37 H       -0.7570    -5.4200    -2.7480 H     1 <1>   0.0800 
 38 H       -3.0910    -3.6540     0.7620 H     1 <1>   0.0800 
 39 H       -2.1700    -6.8860    -1.7830 H     1 <1>   0.0800 
 40 H       -3.5790    -5.9450    -2.1840 H     1 <1>   0.0800 
 41 H       -1.7200    -5.3240    -0.0090 H     1 <1>   0.4500 
 42 H       -5.1760    -4.4160    -1.3040 H     1 <1>   0.0800 
 43 H       -5.2900    -3.1580    -0.0980 H     1 <1>   0.0800 
 44 H       -3.1350    -6.0650     1.6420 H     1 <1>   0.0800 
 45 H       -3.2350    -8.3170    -0.3760 H     1 <1>   0.1000 
 46 H       -5.3590    -6.9290     1.2770 H     1 <1>   0.0800 
 47 H       -5.2180    -6.7500    -0.4540 H     1 <1>   0.0800 
 48 H       -2.6060    -8.2390     2.6480 H     1 <1>   0.1000 
 49 H       -2.7000    -9.6960     1.6170 H     1 <1>   0.1000 
 50 H       -0.8210    -8.8090     0.2030 H     1 <1>   0.1000 
 51 H       -0.7350    -7.3510     1.2330 H     1 <1>   0.1000 
@<TRIPOS>BOND
  1   1   2  1   
  2   1   3  1   
  3   2   4  2   
  4   2   5  1   
  5   3   6  2   
  6   3  25  1   
  7   4   6  1   
  8   4   7  1   
  9   5   8  1   
 10   5  26  1   
 11   5  27  1   
 12   6   9  1   
 13   7  10  1   
 14   7  28  1   
 15   7  29  1   
 16   8  10  1   
 17   8  30  1   
 18   8  31  1   
 19   9  11  2   
 20   9  12  am  
 21  10  32  1   
 22  10  33  1   
 23  12  13  1   
 24  12  14  1   
 25  13  15  1   
 26  13  34  1   
 27  13  35  1   
 28  14  16  1   
 29  14  36  1   
 30  14  37  1   
 31  15  17  1   
 32  15  18  1   
 33  15  38  1   
 34  16  17  1   
 35  16  39  1   
 36  16  40  1   
 37  17  19  1   
 38  17  41  1   
 39  18  20  1   
 40  18  42  1   
 41  18  43  1   
 42  19  21  1   
 43  19  22  1   
 44  19  44  1   
 45  20  22  1   
 46  21  23  1   
 47  21  24  1   
 48  21  45  1   
 49  22  46  1   
 50  22  47  1   
 51  23  24  1   
 52  23  48  1   
 53  23  49  1   
 54  24  50  1   
 55  24  51  1   
@<TRIPOS>SUBSTRUCTURE
  1 ****  11 GROUP 4 **** **** 0

# MOE 2024.06 (io_trps.svl 2023.06)
