@<TRIPOS>MOLECULE
NONAME
48 51 1 0 0 
SMALL
USER_CHARGES


@<TRIPOS>ATOM
  1 O        1.8590     0.1200     0.8800 O.2   1 <1>  -0.5700 
  2 C        2.5620    -0.8740     0.8900 C.2   1 <1>   0.5440 
  3 N        3.9160    -0.6670     1.0070 N.am  1 <1>  -0.6600 
  4 C        1.9910    -2.1990     0.7160 C.ar  1 <1>   0.0860 
  5 C        4.4390     0.4460     1.8840 C.3   1 <1>   0.1400 
  6 C        4.8590    -1.2340    -0.0070 C.3   1 <1>   0.1400 
  7 C        0.7940    -2.3770     0.0300 C.ar  1 <1>  -0.1500 
  8 C        2.6330    -3.3420     1.2380 C.ar  1 <1>  -0.1500 
  9 C        4.7810     1.7380     1.0990 C.3   1 <1>   0.4230 
 10 C        5.4500    -0.1960    -0.9960 C.3   1 <1>  -0.0800 
 11 C        0.2630    -3.6520    -0.1500 C.ar  1 <1>   0.0000 
 12 C        2.1170    -4.6090     1.0680 C.ar  1 <1>  -0.1500 
 13 N        3.9700     1.7400    -0.1730 N.4   1 <1>  -0.9590 
 14 C        6.3150     1.9000     0.9320 C.3   1 <1>   0.1200 
 15 C        6.8790     0.2320    -0.6290 C.3   1 <1>   0.1200 
 16 C        4.5890     1.0370    -1.3370 C.3   1 <1>   0.3430 
 17 C        0.9290    -4.7480     0.3660 C.ar  1 <1>   0.1400 
 18 C       -0.8810    -4.1920    -0.7740 C.2   1 <1>  -0.1500 
 19 C        3.5740     3.1570    -0.5650 C.3   1 <1>   0.2370 
 20 O        6.9490     0.6770     0.6810 O.3   1 <1>  -0.5600 
 21 O        0.2690    -5.8690     0.0870 O.3   1 <1>  -0.2800 
 22 C       -0.8170    -5.5250    -0.5960 C.2   1 <1>  -0.0400 
 23 C        4.7500     4.0980    -0.8280 C.2   1 <1>   0.9060 
 24 C       -1.7530    -6.6280    -1.0380 C.3   1 <1>  -0.0600 
 25 O        5.1840     4.7520     0.1250 O.co2 1 <1>  -0.9000 
 26 O        5.3150     4.0290    -1.9230 O.co2 1 <1>  -0.9000 
 27 H        3.6860     0.6930     2.6120 H     1 <1>   0.0800 
 28 H        5.2960     0.1000     2.4360 H     1 <1>   0.0800 
 29 H        5.6580    -1.7400     0.5080 H     1 <1>   0.0800 
 30 H        4.3360    -1.9790    -0.5830 H     1 <1>   0.0800 
 31 H        0.2640    -1.5300    -0.3690 H     1 <1>   0.1500 
 32 H        3.5490    -3.2170     1.7900 H     1 <1>   0.1500 
 33 H        4.4580     2.5770     1.6940 H     1 <1>   0.0800 
 34 H        5.5700    -0.7150    -1.9290 H     1 <1>   0.0800 
 35 H        2.6020    -5.4850     1.4620 H     1 <1>   0.1500 
 36 H        3.1160     1.2070     0.0860 H     1 <1>   0.4500 
 37 H        6.7170     2.2640     1.8600 H     1 <1>   0.0800 
 38 H        6.5800     2.6100     0.1690 H     1 <1>   0.0800 
 39 H        7.2440     1.0100    -1.2820 H     1 <1>   0.0800 
 40 H        7.5440    -0.6100    -0.7070 H     1 <1>   0.0800 
 41 H        3.7990     0.7330    -2.0040 H     1 <1>   0.0800 
 42 H        5.2080     1.7350    -1.8800 H     1 <1>   0.0800 
 43 H       -1.6300    -3.6110    -1.2800 H     1 <1>   0.1500 
 44 H        2.9760     3.1340    -1.4580 H     1 <1>   0.0800 
 45 H        2.9890     3.5980     0.2210 H     1 <1>   0.0800 
 46 H       -2.5860    -6.2160    -1.5780 H     1 <1>   0.0800 
 47 H       -2.1200    -7.1580    -0.1780 H     1 <1>   0.0800 
 48 H       -1.2280    -7.3160    -1.6750 H     1 <1>   0.0800 
@<TRIPOS>BOND
  1   1   2  2   
  2   2   3  am  
  3   2   4  1   
  4   3   5  1   
  5   3   6  1   
  6   4   7  ar  
  7   4   8  ar  
  8   5   9  1   
  9   5  27  1   
 10   5  28  1   
 11   6  10  1   
 12   6  29  1   
 13   6  30  1   
 14   7  11  ar  
 15   7  31  1   
 16   8  12  ar  
 17   8  32  1   
 18   9  13  1   
 19   9  14  1   
 20   9  33  1   
 21  10  15  1   
 22  10  16  1   
 23  10  34  1   
 24  11  17  ar  
 25  11  18  1   
 26  12  17  ar  
 27  12  35  1   
 28  13  16  1   
 29  13  19  1   
 30  13  36  1   
 31  14  20  1   
 32  14  37  1   
 33  14  38  1   
 34  15  20  1   
 35  15  39  1   
 36  15  40  1   
 37  16  41  1   
 38  16  42  1   
 39  17  21  1   
 40  18  22  2   
 41  18  43  1   
 42  19  23  1   
 43  19  44  1   
 44  19  45  1   
 45  21  22  1   
 46  22  24  1   
 47  23  25  ar  
 48  23  26  ar  
 49  24  46  1   
 50  24  47  1   
 51  24  48  1   
@<TRIPOS>SUBSTRUCTURE
  1 ****   2 GROUP 4 **** **** 0

# MOE 2024.06 (io_trps.svl 2023.06)
