@<TRIPOS>MOLECULE
NONAME
44 46 1 0 0 
SMALL
USER_CHARGES


@<TRIPOS>ATOM
  1 O       -0.0930    -0.1080     1.6190 O.3   1 <1>  -0.5600 
  2 C        0.6130     1.0850     1.6010 C.3   1 <1>   0.1200 
  3 C       -1.4440     0.1260     1.3660 C.3   1 <1>   0.1200 
  4 C       -0.0740     1.9000     0.5150 C.3   1 <1>   0.2890 
  5 C       -1.5320     1.5010     0.6910 C.3   1 <1>  -0.0800 
  6 N        0.1150     3.3640     0.6860 N.pl3 1 <1>  -0.8690 
  7 C       -2.3220     1.4920    -0.6290 C.3   1 <1>  -0.0170 
  8 C        0.8320     4.2770     0.0260 C.ar  1 <1>   0.7710 
  9 C       -3.7630     1.0620    -0.4020 C.ar  1 <1>  -0.1440 
 10 N        0.7330     5.5100     0.4720 N.ar  1 <1>  -0.6200 
 11 N        1.6040     3.9350    -1.0220 N.ar  1 <1>  -0.1790 
 12 C       -4.6990     1.9180     0.1430 C.ar  1 <1>  -0.1500 
 13 C       -4.2110    -0.2030    -0.7280 C.ar  1 <1>  -0.1500 
 14 C        1.4190     6.4560    -0.1470 C.ar  1 <1>   0.4100 
 15 C        2.3350     4.8690    -1.6760 C.ar  1 <1>   0.2110 
 16 C       -5.9980     1.4790     0.3370 C.ar  1 <1>   0.1600 
 17 C       -5.5330    -0.5420    -0.4930 C.ar  1 <1>   0.1600 
 18 N        1.2970     7.7320     0.3080 N.pl3 1 <1>  -0.8380 
 19 C        2.2530     6.1490    -1.2420 C.ar  1 <1>  -0.1500 
 20 N       -6.4360     0.2680     0.0340 N.ar  1 <1>  -0.6200 
 21 C        1.5900     8.9530    -0.5010 C.3   1 <1>   0.1290 
 22 C        0.7560     8.0490     1.6670 C.3   1 <1>   0.1290 
 23 H        0.5120     1.5440     2.5690 H     1 <1>   0.0800 
 24 H        1.6450     0.8760     1.3830 H     1 <1>   0.0800 
 25 H       -1.8060    -0.6710     0.7400 H     1 <1>   0.0800 
 26 H       -1.9750     0.1140     2.3040 H     1 <1>   0.0800 
 27 H        0.2880     1.5670    -0.4420 H     1 <1>   0.0800 
 28 H       -2.0150     2.1670     1.3860 H     1 <1>   0.0800 
 29 H       -0.4060     3.7570     1.4790 H     1 <1>   0.4000 
 30 H       -1.8570     0.8250    -1.3340 H     1 <1>   0.0800 
 31 H       -2.3190     2.4790    -1.0590 H     1 <1>   0.0800 
 32 H        1.6170     2.9550    -1.2790 H     1 <1>   0.4570 
 33 H       -4.4360     2.9220     0.4190 H     1 <1>   0.1500 
 34 H       -3.5520    -0.9320    -1.1620 H     1 <1>   0.1500 
 35 H        2.9560     4.5720    -2.5070 H     1 <1>   0.1500 
 36 H       -6.7150     2.1600     0.7630 H     1 <1>   0.1500 
 37 H       -5.8660    -1.5330    -0.7520 H     1 <1>   0.1500 
 38 H        2.8190     6.9330    -1.7080 H     1 <1>   0.1500 
 39 H        0.8710     9.7230    -0.2780 H     1 <1>   0.0800 
 40 H        1.5300     8.7410    -1.5540 H     1 <1>   0.0800 
 41 H        2.5750     9.3190    -0.2650 H     1 <1>   0.0800 
 42 H        1.3020     8.8710     2.0990 H     1 <1>   0.0800 
 43 H        0.8500     7.2040     2.3270 H     1 <1>   0.0800 
 44 H       -0.2830     8.3180     1.5910 H     1 <1>   0.0800 
@<TRIPOS>BOND
  1   1   2  1   
  2   1   3  1   
  3   2   4  1   
  4   2  23  1   
  5   2  24  1   
  6   3   5  1   
  7   3  25  1   
  8   3  26  1   
  9   4   5  1   
 10   4   6  1   
 11   4  27  1   
 12   5   7  1   
 13   5  28  1   
 14   6   8  1   
 15   6  29  1   
 16   7   9  1   
 17   7  30  1   
 18   7  31  1   
 19   8  10  ar  
 20   8  11  ar  
 21   9  12  ar  
 22   9  13  ar  
 23  10  14  ar  
 24  11  15  ar  
 25  11  32  1   
 26  12  16  ar  
 27  12  33  1   
 28  13  17  ar  
 29  13  34  1   
 30  14  18  1   
 31  14  19  ar  
 32  15  19  ar  
 33  15  35  1   
 34  16  20  ar  
 35  16  36  1   
 36  17  20  ar  
 37  17  37  1   
 38  18  21  1   
 39  18  22  1   
 40  19  38  1   
 41  21  39  1   
 42  21  40  1   
 43  21  41  1   
 44  22  42  1   
 45  22  43  1   
 46  22  44  1   
@<TRIPOS>SUBSTRUCTURE
  1 ****   6 GROUP 4 **** **** 0

# MOE 2024.06 (io_trps.svl 2023.06)
