@<TRIPOS>MOLECULE
NONAME
46 48 1 0 0 
SMALL
USER_CHARGES


@<TRIPOS>ATOM
  1 CL       0.2410    -0.2140     0.2900 Cl    1 <1>  -0.1770 
  2 C       -0.0960    -1.9260     0.2260 C.ar  1 <1>   0.1770 
  3 C        0.6760    -2.7970     0.9700 C.ar  1 <1>  -0.1500 
  4 C       -1.1300    -2.3830    -0.5700 C.ar  1 <1>  -0.1500 
  5 C        0.4040    -4.1530     0.9160 C.ar  1 <1>  -0.1500 
  6 C       -1.4010    -3.7410    -0.6230 C.ar  1 <1>  -0.1500 
  7 C       -0.6310    -4.6320     0.1250 C.ar  1 <1>   0.0830 
  8 O       -0.8300    -5.9730     0.1370 O.3   1 <1>  -0.3630 
  9 C       -1.9120    -6.5630    -0.5410 C.3   1 <1>   0.1200 
 10 C       -1.8780    -8.0620    -0.2320 C.3   1 <1>   0.3430 
 11 N       -2.9120    -8.8450    -0.9910 N.4   1 <1>  -0.9590 
 12 C       -4.3080    -8.5250    -0.5430 C.3   1 <1>   0.3430 
 13 C       -2.7120   -10.3020    -0.6990 C.3   1 <1>   0.3430 
 14 C       -4.6430    -9.5410     0.5510 C.3   1 <1>   0.2000 
 15 C       -3.9540   -10.8070     0.0450 C.3   1 <1>  -0.0800 
 16 O       -4.0580    -9.1110     1.7380 O.3   1 <1>  -0.6800 
 17 C       -3.6130   -11.8680     1.1100 C.3   1 <1>   0.0210 
 18 C       -2.9650   -13.0870     0.4800 C.2   1 <1>   0.1080 
 19 N       -1.8630   -13.0270    -0.2040 N.2   1 <1>  -0.7070 
 20 C       -3.4620   -14.3820     0.5650 C.2   1 <1>  -0.1500 
 21 N       -1.6190   -14.3040    -0.5660 N.pl3 1 <1>   0.3000 
 22 C       -2.5780   -15.1390    -0.1160 C.2   1 <1>  -0.3320 
 23 C       -2.5870   -16.6370    -0.3640 C.3   1 <1>  -0.0600 
 24 H        1.4750    -2.4170     1.5810 H     1 <1>   0.1500 
 25 H       -1.7120    -1.6790    -1.1380 H     1 <1>   0.1500 
 26 H        0.9950    -4.8460     1.4890 H     1 <1>   0.1500 
 27 H       -2.2060    -4.0750    -1.2480 H     1 <1>   0.1500 
 28 H       -2.8170    -6.1130    -0.1760 H     1 <1>   0.0800 
 29 H       -1.7820    -6.3820    -1.5930 H     1 <1>   0.0800 
 30 H       -2.0270    -8.2010     0.8270 H     1 <1>   0.0800 
 31 H       -0.8980    -8.4340    -0.4850 H     1 <1>   0.0800 
 32 H       -2.7990    -8.6820    -2.0010 H     1 <1>   0.4500 
 33 H       -4.4050    -7.5180    -0.1750 H     1 <1>   0.0800 
 34 H       -4.9880    -8.6670    -1.3670 H     1 <1>   0.0800 
 35 H       -2.5670   -10.8700    -1.6040 H     1 <1>   0.0800 
 36 H       -1.8430   -10.4430    -0.0760 H     1 <1>   0.0800 
 37 H       -5.7040    -9.6520     0.7030 H     1 <1>   0.0800 
 38 H       -4.5940   -11.2690    -0.6870 H     1 <1>   0.0800 
 39 H       -4.3920    -9.6180     2.5080 H     1 <1>   0.4000 
 40 H       -4.5080   -12.1710     1.6230 H     1 <1>   0.0800 
 41 H       -2.9280   -11.4700     1.8380 H     1 <1>   0.0800 
 42 H       -4.3570   -14.6940     1.0740 H     1 <1>   0.1500 
 43 H       -0.7930   -14.5780    -1.1130 H     1 <1>   0.2700 
 44 H       -3.4500   -17.0830     0.0970 H     1 <1>   0.0800 
 45 H       -1.7050   -17.0890     0.0550 H     1 <1>   0.0800 
 46 H       -2.6190   -16.8420    -1.4190 H     1 <1>   0.0800 
@<TRIPOS>BOND
  1   1   2  1   
  2   2   3  ar  
  3   2   4  ar  
  4   3   5  ar  
  5   3  24  1   
  6   4   6  ar  
  7   4  25  1   
  8   5   7  ar  
  9   5  26  1   
 10   6   7  ar  
 11   6  27  1   
 12   7   8  1   
 13   8   9  1   
 14   9  10  1   
 15   9  28  1   
 16   9  29  1   
 17  10  11  1   
 18  10  30  1   
 19  10  31  1   
 20  11  12  1   
 21  11  13  1   
 22  11  32  1   
 23  12  14  1   
 24  12  33  1   
 25  12  34  1   
 26  13  15  1   
 27  13  35  1   
 28  13  36  1   
 29  14  15  1   
 30  14  16  1   
 31  14  37  1   
 32  15  17  1   
 33  15  38  1   
 34  16  39  1   
 35  17  18  1   
 36  17  40  1   
 37  17  41  1   
 38  18  19  2   
 39  18  20  1   
 40  19  21  1   
 41  20  22  2   
 42  20  42  1   
 43  21  22  1   
 44  21  43  1   
 45  22  23  1   
 46  23  44  1   
 47  23  45  1   
 48  23  46  1   
@<TRIPOS>SUBSTRUCTURE
  1 ****  10 GROUP 4 **** **** 0

# MOE 2024.06 (io_trps.svl 2023.06)
