@<TRIPOS>MOLECULE
NONAME
49 51 1 0 0 
SMALL
USER_CHARGES


@<TRIPOS>ATOM
  1 O       -0.5980     0.6540     1.0030 O.2   1 <1>  -0.5700 
  2 C       -1.1500     1.4710     0.2800 C.2   1 <1>   0.7160 
  3 N       -2.4330     1.1610    -0.1520 N.am  1 <1>  -0.6600 
  4 C       -0.4350     2.7010    -0.0700 C.2   1 <1>   0.2030 
  5 C       -2.9080    -0.2570    -0.1230 C.3   1 <1>   0.1400 
  6 C       -3.3780     2.2030    -0.6510 C.3   1 <1>   0.1400 
  7 N       -0.7250     3.5720    -1.0260 N.2   1 <1>  -0.7070 
  8 C        0.7270     3.1090     0.6040 C.2   1 <1>  -0.1500 
  9 C       -3.6240    -0.5660     1.1980 C.3   1 <1>   0.1400 
 10 C       -4.8470     1.9730    -0.2630 C.3   1 <1>  -0.1600 
 11 N        0.2380     4.5150    -0.9510 N.pl3 1 <1>   0.3000 
 12 C        1.1380     4.2550     0.0250 C.2   1 <1>  -0.0680 
 13 N       -5.0060     0.0080     1.2200 N.am  1 <1>  -0.6600 
 14 C       -5.0560     1.4960     1.1790 C.3   1 <1>   0.1400 
 15 N        2.2500     5.0440     0.3430 N.pl3 1 <1>  -0.8840 
 16 C       -6.1660    -0.7360     1.1440 C.2   1 <1>   0.5690 
 17 O       -7.2490    -0.1960     1.2230 O.2   1 <1>  -0.5700 
 18 C       -6.1360    -2.2680     0.9900 C.3   1 <1>   0.2610 
 19 O       -5.3420    -2.6660    -0.1220 O.3   1 <1>  -0.2170 
 20 C       -7.4760    -2.9670     0.7290 C.3   1 <1>  -0.0990 
 21 N       -5.9140    -3.6210    -0.8290 N.2   1 <1>  -0.5130 
 22 C       -7.0810    -3.8400    -0.4250 C.2   1 <1>   0.3280 
 23 C       -8.0510    -4.8670    -1.0080 C.3   1 <1>  -0.0190 
 24 C       -9.3240    -4.2030    -1.5520 C.3   1 <1>  -0.2400 
 25 C       -8.4110    -5.9560     0.0130 C.3   1 <1>  -0.2400 
 26 H       -2.0590    -0.9130    -0.2150 H     1 <1>   0.0800 
 27 H       -3.5590    -0.4580    -0.9560 H     1 <1>   0.0800 
 28 H       -3.2920     2.2700    -1.7220 H     1 <1>   0.0800 
 29 H       -3.0880     3.1550    -0.2420 H     1 <1>   0.0800 
 30 H        1.1790     2.5790     1.4230 H     1 <1>   0.1500 
 31 H       -3.0510    -0.1630     2.0150 H     1 <1>   0.0800 
 32 H       -3.6520    -1.6310     1.3330 H     1 <1>   0.0800 
 33 H       -5.3090     1.2840    -0.9490 H     1 <1>   0.0800 
 34 H       -5.3570     2.9110    -0.3830 H     1 <1>   0.0800 
 35 H        0.2620     5.3410    -1.5580 H     1 <1>   0.2700 
 36 H       -6.0170     1.8350     1.5270 H     1 <1>   0.0800 
 37 H       -4.3080     1.9120     1.8320 H     1 <1>   0.0800 
 38 H        2.8240     5.3500    -0.4510 H     1 <1>   0.4000 
 39 H        2.8570     4.6380     1.0650 H     1 <1>   0.4000 
 40 H       -5.6780    -2.6940     1.8620 H     1 <1>   0.0800 
 41 H       -8.2500    -2.2860     0.4290 H     1 <1>   0.0800 
 42 H       -7.7890    -3.5320     1.5860 H     1 <1>   0.0800 
 43 H       -7.5480    -5.3420    -1.8330 H     1 <1>   0.0800 
 44 H       -9.8930    -3.7500    -0.7600 H     1 <1>   0.0800 
 45 H       -9.9430    -4.9330    -2.0440 H     1 <1>   0.0800 
 46 H       -9.0640    -3.4430    -2.2680 H     1 <1>   0.0800 
 47 H       -8.9640    -5.5450     0.8390 H     1 <1>   0.0800 
 48 H       -7.5150    -6.4170     0.3910 H     1 <1>   0.0800 
 49 H       -9.0110    -6.7170    -0.4540 H     1 <1>   0.0800 
@<TRIPOS>BOND
  1   1   2  2   
  2   2   3  am  
  3   2   4  1   
  4   3   5  1   
  5   3   6  1   
  6   4   7  2   
  7   4   8  1   
  8   5   9  1   
  9   5  26  1   
 10   5  27  1   
 11   6  10  1   
 12   6  28  1   
 13   6  29  1   
 14   7  11  1   
 15   8  12  2   
 16   8  30  1   
 17   9  13  1   
 18   9  31  1   
 19   9  32  1   
 20  10  14  1   
 21  10  33  1   
 22  10  34  1   
 23  11  12  1   
 24  11  35  1   
 25  12  15  1   
 26  13  14  1   
 27  13  16  am  
 28  14  36  1   
 29  14  37  1   
 30  15  38  1   
 31  15  39  1   
 32  16  17  2   
 33  16  18  1   
 34  18  19  1   
 35  18  20  1   
 36  18  40  1   
 37  19  21  1   
 38  20  22  1   
 39  20  41  1   
 40  20  42  1   
 41  21  22  2   
 42  22  23  1   
 43  23  24  1   
 44  23  25  1   
 45  23  43  1   
 46  24  44  1   
 47  24  45  1   
 48  24  46  1   
 49  25  47  1   
 50  25  48  1   
 51  25  49  1   
@<TRIPOS>SUBSTRUCTURE
  1 ****   5 GROUP 4 **** **** 0

# MOE 2024.06 (io_trps.svl 2023.06)
