@<TRIPOS>MOLECULE
NONAME
47 49 1 0 0 
SMALL
USER_CHARGES


@<TRIPOS>ATOM
  1 O        0.9000     3.1380    -0.3340 O.2   1 <1>  -0.5700 
  2 C        0.0570     3.9900    -0.4940 C.2   1 <1>   0.5690 
  3 N       -1.1490     3.9810     0.1660 N.am  1 <1>  -0.6600 
  4 C        0.4050     5.1290    -1.4620 C.3   1 <1>   0.1810 
  5 C       -2.1320     5.0880    -0.0420 C.3   1 <1>   0.3640 
  6 C       -1.6020     2.9200     1.1050 C.3   1 <1>   0.2200 
  7 O       -0.6590     6.0200    -1.7530 O.3   1 <1>  -0.5600 
  8 C       -3.3020     4.5970    -0.8960 C.ar  1 <1>  -0.1440 
  9 C       -1.4840     6.3560    -0.6470 C.3   1 <1>   0.2610 
 10 C       -0.7190     2.9100     2.3520 C.3   1 <1>  -0.2400 
 11 C       -1.6500     1.5580     0.4140 C.3   1 <1>  -0.2400 
 12 C       -3.0980     3.9990    -2.1330 C.ar  1 <1>  -0.1500 
 13 C       -4.6010     4.7500    -0.4310 C.ar  1 <1>  -0.1500 
 14 C       -0.7090     7.1630     0.4050 C.2   1 <1>   0.5690 
 15 C       -4.1700     3.5640    -2.8910 C.ar  1 <1>  -0.1500 
 16 C       -5.6750     4.3150    -1.1880 C.ar  1 <1>  -0.1500 
 17 O       -0.9180     7.0030     1.5870 O.2   1 <1>  -0.5700 
 18 N        0.2620     8.0140    -0.0140 N.am  1 <1>  -0.7300 
 19 C       -5.4610     3.7220    -2.4190 C.ar  1 <1>  -0.1500 
 20 C        1.3700     8.4590     0.8570 C.3   1 <1>   0.3200 
 21 C        2.3120     7.2860     1.0620 C.2   1 <1>   0.0060 
 22 N        3.4930     7.1860     0.5430 N.2   1 <1>  -0.5650 
 23 N        1.9520     6.2110     1.7980 N.pl3 1 <1>   0.0330 
 24 C        3.9260     5.9790     0.9590 C.2   1 <1>   0.0770 
 25 C        2.9950     5.3670     1.7230 C.2   1 <1>  -0.3020 
 26 H        0.7300     4.7030    -2.3930 H     1 <1>   0.0800 
 27 H        1.2230     5.6930    -1.0540 H     1 <1>   0.0800 
 28 H       -2.5350     5.3560     0.9190 H     1 <1>   0.0800 
 29 H       -2.6060     3.1470     1.4210 H     1 <1>   0.0800 
 30 H       -2.2660     6.9900    -1.0220 H     1 <1>   0.0800 
 31 H        0.2870     2.6210     2.1070 H     1 <1>   0.0800 
 32 H       -1.1060     2.2050     3.0640 H     1 <1>   0.0800 
 33 H       -0.7100     3.8840     2.8060 H     1 <1>   0.0800 
 34 H       -0.6650     1.2190     0.1490 H     1 <1>   0.0800 
 35 H       -2.2560     1.6160    -0.4720 H     1 <1>   0.0800 
 36 H       -2.0860     0.8310     1.0740 H     1 <1>   0.0800 
 37 H       -2.1000     3.8680    -2.5140 H     1 <1>   0.1500 
 38 H       -4.7910     5.2070     0.5240 H     1 <1>   0.1500 
 39 H       -4.0000     3.1020    -3.8480 H     1 <1>   0.1500 
 40 H       -6.6790     4.4370    -0.8200 H     1 <1>   0.1500 
 41 H        0.4930     8.0080    -1.0120 H     1 <1>   0.3700 
 42 H       -6.2950     3.3840    -3.0080 H     1 <1>   0.1500 
 43 H        1.8970     9.2720     0.3890 H     1 <1>   0.0800 
 44 H        0.9850     8.7950     1.8050 H     1 <1>   0.0800 
 45 H        1.0440     6.0770     2.2620 H     1 <1>   0.2700 
 46 H        4.8970     5.6050     0.6790 H     1 <1>   0.1500 
 47 H        3.0140     4.4020     2.1970 H     1 <1>   0.1500 
@<TRIPOS>BOND
  1   1   2  2   
  2   2   3  am  
  3   2   4  1   
  4   3   5  1   
  5   3   6  1   
  6   4   7  1   
  7   4  26  1   
  8   4  27  1   
  9   5   8  1   
 10   5   9  1   
 11   5  28  1   
 12   6  10  1   
 13   6  11  1   
 14   6  29  1   
 15   7   9  1   
 16   8  12  ar  
 17   8  13  ar  
 18   9  14  1   
 19   9  30  1   
 20  10  31  1   
 21  10  32  1   
 22  10  33  1   
 23  11  34  1   
 24  11  35  1   
 25  11  36  1   
 26  12  15  ar  
 27  12  37  1   
 28  13  16  ar  
 29  13  38  1   
 30  14  17  2   
 31  14  18  am  
 32  15  19  ar  
 33  15  39  1   
 34  16  19  ar  
 35  16  40  1   
 36  18  20  1   
 37  18  41  1   
 38  19  42  1   
 39  20  21  1   
 40  20  43  1   
 41  20  44  1   
 42  21  22  2   
 43  21  23  1   
 44  22  24  1   
 45  23  25  1   
 46  23  45  1   
 47  24  25  2   
 48  24  46  1   
 49  25  47  1   
@<TRIPOS>SUBSTRUCTURE
  1 ****   3 GROUP 4 **** **** 0

# MOE 2024.06 (io_trps.svl 2023.06)
