@<TRIPOS>MOLECULE
NONAME
47 49 1 0 0 
SMALL
USER_CHARGES


@<TRIPOS>ATOM
  1 S        1.3350     0.5970     0.4220 S.3   1 <1>  -0.0800 
  2 C        2.5890    -0.3500    -0.3480 C.2   1 <1>   0.1980 
  3 C        2.2260     2.0370     0.0310 C.2   1 <1>  -0.1100 
  4 N        3.5470     0.3360    -0.8270 N.2   1 <1>  -0.5650 
  5 C        2.4140    -1.8500    -0.3670 C.3   1 <1>  -0.0600 
  6 C        3.3500     1.6920    -0.6190 C.2   1 <1>   0.0460 
  7 C        4.4250     2.6300    -1.1410 C.3   1 <1>   0.0820 
  8 C        4.4050     3.9780    -0.4400 C.2   1 <1>   0.5690 
  9 O        3.9890     4.9240    -1.0680 O.2   1 <1>  -0.5700 
 10 N        4.8420     4.1150     0.8580 N.am  1 <1>  -0.6600 
 11 C        5.3860     3.0040     1.6980 C.3   1 <1>   0.1400 
 12 C        4.8800     5.4460     1.5130 C.3   1 <1>   0.1400 
 13 C        6.8910     2.7620     1.4800 C.3   1 <1>   0.1400 
 14 C        6.2880     6.0410     1.4410 C.3   1 <1>  -0.1600 
 15 N        7.7260     3.9960     1.2850 N.am  1 <1>  -0.6600 
 16 C        7.3740     5.1870     2.1120 C.3   1 <1>   0.1400 
 17 C        8.9040     3.9010     0.5630 C.2   1 <1>   0.6160 
 18 O        9.3160     2.7880     0.2890 O.2   1 <1>  -0.5700 
 19 C        9.6990     5.0400     0.1380 C.2   1 <1>   0.0910 
 20 O        9.0410     6.1830    -0.1440 O.3   1 <1>  -0.1530 
 21 C       11.0540     5.0150    -0.0190 C.2   1 <1>  -0.1360 
 22 C        9.6610     7.2880    -0.5660 C.2   1 <1>  -0.0620 
 23 C       11.7790     6.1520    -0.4520 C.2   1 <1>   0.5410 
 24 C       11.0030     7.3090    -0.7270 C.2   1 <1>  -0.1360 
 25 C        8.7300     8.4540    -0.8330 C.3   1 <1>  -0.1020 
 26 O       12.9910     6.1440    -0.5760 O.2   1 <1>  -0.5700 
 27 H        1.8160     2.9860     0.3260 H     1 <1>   0.1500 
 28 H        2.3670    -2.2240     0.6390 H     1 <1>   0.0800 
 29 H        3.2450    -2.3050    -0.8730 H     1 <1>   0.0800 
 30 H        1.5070    -2.1040    -0.8840 H     1 <1>   0.0800 
 31 H        4.2740     2.7740    -2.1950 H     1 <1>   0.0800 
 32 H        5.3910     2.1820    -1.0140 H     1 <1>   0.0800 
 33 H        4.8540     2.0910     1.4980 H     1 <1>   0.0800 
 34 H        5.2190     3.2300     2.7360 H     1 <1>   0.0800 
 35 H        4.5660     5.3540     2.5380 H     1 <1>   0.0800 
 36 H        4.1890     6.1140     1.0250 H     1 <1>   0.0800 
 37 H        6.9990     2.1300     0.6160 H     1 <1>   0.0800 
 38 H        7.2810     2.2100     2.3160 H     1 <1>   0.0800 
 39 H        6.2620     6.9960     1.9320 H     1 <1>   0.0800 
 40 H        6.5370     6.2210     0.4110 H     1 <1>   0.0800 
 41 H        7.0460     4.8680     3.0860 H     1 <1>   0.0800 
 42 H        8.2530     5.7900     2.2590 H     1 <1>   0.0800 
 43 H       11.6270     4.1280     0.1750 H     1 <1>   0.1500 
 44 H       11.5430     8.1740    -1.0640 H     1 <1>   0.1500 
 45 H        8.0080     8.1800    -1.5810 H     1 <1>   0.0800 
 46 H        9.2810     9.3090    -1.1820 H     1 <1>   0.0800 
 47 H        8.2090     8.7220     0.0690 H     1 <1>   0.0800 
@<TRIPOS>BOND
  1   1   2  1   
  2   1   3  1   
  3   2   4  2   
  4   2   5  1   
  5   3   6  2   
  6   3  27  1   
  7   4   6  1   
  8   5  28  1   
  9   5  29  1   
 10   5  30  1   
 11   6   7  1   
 12   7   8  1   
 13   7  31  1   
 14   7  32  1   
 15   8   9  2   
 16   8  10  am  
 17  10  11  1   
 18  10  12  1   
 19  11  13  1   
 20  11  33  1   
 21  11  34  1   
 22  12  14  1   
 23  12  35  1   
 24  12  36  1   
 25  13  15  1   
 26  13  37  1   
 27  13  38  1   
 28  14  16  1   
 29  14  39  1   
 30  14  40  1   
 31  15  16  1   
 32  15  17  am  
 33  16  41  1   
 34  16  42  1   
 35  17  18  2   
 36  17  19  1   
 37  19  20  1   
 38  19  21  2   
 39  20  22  1   
 40  21  23  1   
 41  21  43  1   
 42  22  24  2   
 43  22  25  1   
 44  23  24  1   
 45  23  26  2   
 46  24  44  1   
 47  25  45  1   
 48  25  46  1   
 49  25  47  1   
@<TRIPOS>SUBSTRUCTURE
  1 ****  15 GROUP 4 **** **** 0

# MOE 2024.06 (io_trps.svl 2023.06)
