@<TRIPOS>MOLECULE
NONAME
48 49 1 0 0 
SMALL
USER_CHARGES


@<TRIPOS>ATOM
  1 O       -0.0950     0.0060     0.8840 O.2   1 <1>  -0.5700 
  2 C        0.8380    -0.5540     0.3630 C.2   1 <1>   0.5690 
  3 N        1.8490     0.0870    -0.2850 N.am  1 <1>  -0.4930 
  4 C        0.8880    -2.0650     0.4320 C.3   1 <1>  -0.0990 
  5 C        2.0490     1.4750    -0.5030 C.2   1 <1>   0.0630 
  6 C       -0.0530    -2.6940    -0.6010 C.3   1 <1>  -0.0160 
  7 C        1.1320     2.4710    -0.8560 C.2   1 <1>   0.1080 
  8 C        3.2390     2.1120    -0.4360 C.2   1 <1>  -0.3320 
  9 C        0.0520    -4.2090    -0.5590 C.ar  1 <1>  -0.1430 
 10 N        1.6980     3.6280    -0.9970 N.2   1 <1>  -0.7070 
 11 C       -0.3530     2.2930    -1.0810 C.3   1 <1>  -0.0590 
 12 N        2.9980     3.4150    -0.7310 N.pl3 1 <1>   0.3140 
 13 C        4.6140     1.5560    -0.0920 C.3   1 <1>  -0.0600 
 14 C       -0.6800    -4.9340     0.3690 C.ar  1 <1>  -0.1500 
 15 C        0.8830    -4.8810    -1.4430 C.ar  1 <1>  -0.1500 
 16 C        3.9690     4.5280    -0.7750 C.3   1 <1>   0.0960 
 17 C       -0.5860    -6.3140     0.4180 C.ar  1 <1>  -0.1500 
 18 C        0.9790    -6.2610    -1.3960 C.ar  1 <1>  -0.1500 
 19 C        4.1060     5.1940     0.6020 C.3   1 <1>  -0.1600 
 20 C        0.2490    -6.9870    -0.4700 C.ar  1 <1>   0.0830 
 21 C        5.1220     6.3400     0.5710 C.3   1 <1>  -0.2400 
 22 O        0.4010    -8.3350    -0.4920 O.3   1 <1>  -0.3620 
 23 C       -0.3120    -9.1670     0.3960 C.3   1 <1>   0.0400 
 24 H        2.6190    -0.4890    -0.6100 H     1 <1>   0.3700 
 25 H        0.5930    -2.3720     1.4190 H     1 <1>   0.0800 
 26 H        1.8920    -2.4090     0.2660 H     1 <1>   0.0800 
 27 H        0.1940    -2.3390    -1.5860 H     1 <1>   0.0800 
 28 H       -1.0670    -2.3960    -0.3930 H     1 <1>   0.0800 
 29 H       -0.5520     1.3300    -1.5110 H     1 <1>   0.0800 
 30 H       -0.7150     3.0540    -1.7460 H     1 <1>   0.0800 
 31 H       -0.8680     2.3750    -0.1420 H     1 <1>   0.0800 
 32 H        4.5520     0.5120     0.1570 H     1 <1>   0.0800 
 33 H        5.0230     2.0780     0.7550 H     1 <1>   0.0800 
 34 H        5.2800     1.6690    -0.9290 H     1 <1>   0.0800 
 35 H       -1.3280    -4.4220     1.0600 H     1 <1>   0.1500 
 36 H        1.4570    -4.3380    -2.1710 H     1 <1>   0.1500 
 37 H        3.6180     5.2450    -1.4950 H     1 <1>   0.0800 
 38 H        4.9170     4.1480    -1.1070 H     1 <1>   0.0800 
 39 H       -1.1660    -6.8440     1.1480 H     1 <1>   0.1500 
 40 H        1.6210    -6.7860    -2.0800 H     1 <1>   0.1500 
 41 H        4.4170     4.4630     1.3280 H     1 <1>   0.0800 
 42 H        3.1450     5.5790     0.9000 H     1 <1>   0.0800 
 43 H        6.0960     5.9770     0.2910 H     1 <1>   0.0800 
 44 H        5.1930     6.7930     1.5440 H     1 <1>   0.0800 
 45 H        4.8160     7.0950    -0.1330 H     1 <1>   0.0800 
 46 H       -0.0390   -10.1860     0.1900 H     1 <1>   0.0800 
 47 H       -1.3660    -9.0310     0.2300 H     1 <1>   0.0800 
 48 H       -0.0430    -8.9130     1.4050 H     1 <1>   0.0800 
@<TRIPOS>BOND
  1   1   2  2   
  2   2   3  am  
  3   2   4  1   
  4   3   5  1   
  5   3  24  1   
  6   4   6  1   
  7   4  25  1   
  8   4  26  1   
  9   5   7  1   
 10   5   8  2   
 11   6   9  1   
 12   6  27  1   
 13   6  28  1   
 14   7  10  2   
 15   7  11  1   
 16   8  12  1   
 17   8  13  1   
 18   9  14  ar  
 19   9  15  ar  
 20  10  12  1   
 21  11  29  1   
 22  11  30  1   
 23  11  31  1   
 24  12  16  1   
 25  13  32  1   
 26  13  33  1   
 27  13  34  1   
 28  14  17  ar  
 29  14  35  1   
 30  15  18  ar  
 31  15  36  1   
 32  16  19  1   
 33  16  37  1   
 34  16  38  1   
 35  17  20  ar  
 36  17  39  1   
 37  18  20  ar  
 38  18  40  1   
 39  19  21  1   
 40  19  41  1   
 41  19  42  1   
 42  20  22  1   
 43  21  43  1   
 44  21  44  1   
 45  21  45  1   
 46  22  23  1   
 47  23  46  1   
 48  23  47  1   
 49  23  48  1   
@<TRIPOS>SUBSTRUCTURE
  1 ****   2 GROUP 4 **** **** 0

# MOE 2024.06 (io_trps.svl 2023.06)
