@<TRIPOS>MOLECULE
NONAME
55 58 1 0 0 
SMALL
USER_CHARGES


@<TRIPOS>ATOM
  1 O       -3.9790     3.0790    -1.5380 O.2   1 <1>  -0.5700 
  2 C       -3.3710     2.3360    -0.7960 C.2   1 <1>   0.5690 
  3 N       -3.6170     0.9830    -0.8740 N.am  1 <1>  -0.6600 
  4 C       -2.3660     2.9430     0.2360 C.3   1 <1>   0.2040 
  5 C       -4.6780     0.4290    -1.7510 C.3   1 <1>   0.1400 
  6 C       -2.7800    -0.1090    -0.3300 C.3   1 <1>   0.1400 
  7 C       -0.9880     2.2480     0.1570 C.ar  1 <1>  -0.1440 
  8 C       -2.1650     4.4600     0.0350 C.3   1 <1>  -0.1600 
  9 C       -3.0250     2.9360     1.6310 C.3   1 <1>  -0.1600 
 10 C       -4.5520    -1.0950    -1.6500 C.3   1 <1>   0.2000 
 11 C       -3.6230    -1.3760    -0.4680 C.3   1 <1>  -0.0800 
 12 C       -0.3330     2.2200    -1.0690 C.ar  1 <1>  -0.1500 
 13 C       -0.3720     1.6300     1.2430 C.ar  1 <1>  -0.1500 
 14 C       -3.3500     5.1620     0.7140 C.3   1 <1>  -0.1600 
 15 C       -3.9980     4.1150     1.6230 C.3   1 <1>  -0.1600 
 16 O       -5.7820    -1.6920    -1.4220 O.3   1 <1>  -0.6800 
 17 C       -2.7960    -2.6620    -0.6610 C.3   1 <1>  -0.0170 
 18 C        0.8870     1.5850    -1.2170 C.ar  1 <1>  -0.1500 
 19 C        0.8520     1.0020     1.1010 C.ar  1 <1>  -0.1500 
 20 C       -1.6350    -2.7440     0.3170 C.ar  1 <1>   0.1670 
 21 C        1.4870     0.9630    -0.1270 C.ar  1 <1>   0.0830 
 22 N       -0.4690    -2.3070    -0.1300 N.ar  1 <1>  -0.6200 
 23 C       -1.8280    -3.2360     1.6060 C.ar  1 <1>   0.1600 
 24 O        2.6700     0.3020    -0.1840 O.3   1 <1>  -0.3630 
 25 C        0.4780    -2.3780     0.7890 C.ar  1 <1>   0.1600 
 26 N       -0.8830    -3.3110     2.5290 N.ar  1 <1>  -0.6200 
 27 C        3.3470     0.1330    -1.4090 C.3   1 <1>   0.0400 
 28 C        0.2770    -2.8630     2.0760 C.ar  1 <1>   0.1600 
 29 H       -5.6380     0.7720    -1.4090 H     1 <1>   0.0800 
 30 H       -4.5170     0.7550    -2.7640 H     1 <1>   0.0800 
 31 H       -1.8820    -0.1830    -0.9220 H     1 <1>   0.0800 
 32 H       -2.5200     0.0670     0.6980 H     1 <1>   0.0800 
 33 H       -1.2570     4.7620     0.5280 H     1 <1>   0.0800 
 34 H       -2.0870     4.7260    -1.0050 H     1 <1>   0.0800 
 35 H       -3.5190     2.0060     1.8510 H     1 <1>   0.0800 
 36 H       -2.2940     3.1410     2.3910 H     1 <1>   0.0800 
 37 H       -4.1530    -1.4840    -2.5720 H     1 <1>   0.0800 
 38 H       -4.2010    -1.4600     0.4360 H     1 <1>   0.0800 
 39 H       -0.7820     2.6910    -1.9270 H     1 <1>   0.1500 
 40 H       -0.8230     1.6110     2.2160 H     1 <1>   0.1500 
 41 H       -3.0090     6.0120     1.2790 H     1 <1>   0.0800 
 42 H       -4.0600     5.4940    -0.0240 H     1 <1>   0.0800 
 43 H       -4.9390     3.8060     1.1970 H     1 <1>   0.0800 
 44 H       -4.1710     4.4960     2.6150 H     1 <1>   0.0800 
 45 H       -6.2160    -1.2840    -0.6480 H     1 <1>   0.4000 
 46 H       -2.3980    -2.6930    -1.6610 H     1 <1>   0.0800 
 47 H       -3.4350    -3.5200    -0.5450 H     1 <1>   0.0800 
 48 H        1.3510     1.5830    -2.1850 H     1 <1>   0.1500 
 49 H        1.3190     0.5310     1.9460 H     1 <1>   0.1500 
 50 H       -2.8080    -3.5780     1.8880 H     1 <1>   0.1500 
 51 H        1.4580    -2.0310     0.5120 H     1 <1>   0.1500 
 52 H        4.2360    -0.4440    -1.2240 H     1 <1>   0.0800 
 53 H        3.6140     1.1000    -1.7960 H     1 <1>   0.0800 
 54 H        2.7050    -0.3940    -2.0920 H     1 <1>   0.0800 
 55 H        1.1110    -2.8810     2.7540 H     1 <1>   0.1500 
@<TRIPOS>BOND
  1   1   2  2   
  2   2   3  am  
  3   2   4  1   
  4   3   5  1   
  5   3   6  1   
  6   4   7  1   
  7   4   8  1   
  8   4   9  1   
  9   5  10  1   
 10   5  29  1   
 11   5  30  1   
 12   6  11  1   
 13   6  31  1   
 14   6  32  1   
 15   7  12  ar  
 16   7  13  ar  
 17   8  14  1   
 18   8  33  1   
 19   8  34  1   
 20   9  15  1   
 21   9  35  1   
 22   9  36  1   
 23  10  11  1   
 24  10  16  1   
 25  10  37  1   
 26  11  17  1   
 27  11  38  1   
 28  12  18  ar  
 29  12  39  1   
 30  13  19  ar  
 31  13  40  1   
 32  14  15  1   
 33  14  41  1   
 34  14  42  1   
 35  15  43  1   
 36  15  44  1   
 37  16  45  1   
 38  17  20  1   
 39  17  46  1   
 40  17  47  1   
 41  18  21  ar  
 42  18  48  1   
 43  19  21  ar  
 44  19  49  1   
 45  20  22  ar  
 46  20  23  ar  
 47  21  24  1   
 48  22  25  ar  
 49  23  26  ar  
 50  23  50  1   
 51  24  27  1   
 52  25  28  ar  
 53  25  51  1   
 54  26  28  ar  
 55  27  52  1   
 56  27  53  1   
 57  27  54  1   
 58  28  55  1   
@<TRIPOS>SUBSTRUCTURE
  1 ****   6 GROUP 4 **** **** 0

# MOE 2024.06 (io_trps.svl 2023.06)
