@<TRIPOS>MOLECULE
NONAME
44 45 1 0 0 
SMALL
USER_CHARGES


@<TRIPOS>ATOM
  1 F        0.0480     3.4060    -2.5620 F     1 <1>  -0.1900 
  2 C       -0.9570     3.1440    -1.7670 C.ar  1 <1>   0.1900 
  3 C       -0.7320     3.0280    -0.4040 C.ar  1 <1>  -0.1440 
  4 C       -2.2120     3.0090    -2.3320 C.ar  1 <1>  -0.1500 
  5 C       -1.8300     2.7860     0.4110 C.ar  1 <1>  -0.1500 
  6 C        0.6730     3.1890     0.1800 C.3   1 <1>   0.3940 
  7 C       -3.2910     2.7570    -1.5030 C.ar  1 <1>  -0.1500 
  8 C       -3.0980     2.6500    -0.1340 C.ar  1 <1>  -0.1500 
  9 N        0.9390     2.1410     1.2260 N.3   1 <1>  -0.8100 
 10 C        0.8510     4.6770     0.5810 C.2   1 <1>   0.5690 
 11 C        0.8570     0.7780     0.6780 C.3   1 <1>   0.0300 
 12 C        2.2360     2.3270     1.8940 C.3   1 <1>   0.0300 
 13 O        0.7040     5.0470     1.7270 O.2   1 <1>  -0.5700 
 14 N        1.1710     5.5580    -0.4180 N.am  1 <1>  -0.4930 
 15 C        1.4270     6.9490    -0.3310 C.2   1 <1>   0.0630 
 16 C        1.4000     7.7910     0.7830 C.2   1 <1>   0.1390 
 17 C        1.7660     7.7560    -1.3570 C.2   1 <1>  -0.3020 
 18 N        1.7010     9.0200     0.4800 N.2   1 <1>  -0.7070 
 19 N        1.9250     8.9990    -0.8500 N.pl3 1 <1>   0.3140 
 20 C        2.3060    10.2110    -1.5890 C.3   1 <1>   0.1570 
 21 C        3.7750    10.5080    -1.3820 C.2   1 <1>   0.5690 
 22 O        4.4340    10.8240    -2.3430 O.2   1 <1>  -0.5700 
 23 N        4.3080    10.4240    -0.1330 N.am  1 <1>  -0.7300 
 24 C        5.7190    10.6910     0.2370 C.3   1 <1>   0.0600 
 25 H       -2.3400     3.1010    -3.3950 H     1 <1>   0.1500 
 26 H       -1.6920     2.7040     1.4780 H     1 <1>   0.1500 
 27 H        1.3860     3.0100    -0.6040 H     1 <1>   0.0800 
 28 H       -4.2790     2.6480    -1.9170 H     1 <1>   0.1500 
 29 H       -3.9370     2.4600     0.5140 H     1 <1>   0.1500 
 30 H       -0.1220     0.5910     0.2720 H     1 <1>   0.0800 
 31 H        1.0310     0.0590     1.4600 H     1 <1>   0.0800 
 32 H        1.5910     0.6350    -0.0970 H     1 <1>   0.0800 
 33 H        2.2590     3.2630     2.4240 H     1 <1>   0.0800 
 34 H        3.0410     2.3040     1.1790 H     1 <1>   0.0800 
 35 H        2.3890     1.5440     2.6170 H     1 <1>   0.0800 
 36 H        1.1800     5.1850    -1.3680 H     1 <1>   0.3700 
 37 H        1.1580     7.4660     1.7810 H     1 <1>   0.1500 
 38 H        1.9030     7.5240    -2.3960 H     1 <1>   0.1500 
 39 H        1.7230    11.0350    -1.2270 H     1 <1>   0.0800 
 40 H        2.1090    10.0670    -2.6330 H     1 <1>   0.0800 
 41 H        3.6950    10.0600     0.6150 H     1 <1>   0.3700 
 42 H        6.2710    11.0350    -0.6220 H     1 <1>   0.0800 
 43 H        6.1750     9.7890     0.6060 H     1 <1>   0.0800 
 44 H        5.7570    11.4480     1.0010 H     1 <1>   0.0800 
@<TRIPOS>BOND
  1   1   2  1   
  2   2   3  ar  
  3   2   4  ar  
  4   3   5  ar  
  5   3   6  1   
  6   4   7  ar  
  7   4  25  1   
  8   5   8  ar  
  9   5  26  1   
 10   6   9  1   
 11   6  10  1   
 12   6  27  1   
 13   7   8  ar  
 14   7  28  1   
 15   8  29  1   
 16   9  11  1   
 17   9  12  1   
 18  10  13  2   
 19  10  14  am  
 20  11  30  1   
 21  11  31  1   
 22  11  32  1   
 23  12  33  1   
 24  12  34  1   
 25  12  35  1   
 26  14  15  1   
 27  14  36  1   
 28  15  16  1   
 29  15  17  2   
 30  16  18  2   
 31  16  37  1   
 32  17  19  1   
 33  17  38  1   
 34  18  19  1   
 35  19  20  1   
 36  20  21  1   
 37  20  39  1   
 38  20  40  1   
 39  21  22  2   
 40  21  23  am  
 41  23  24  1   
 42  23  41  1   
 43  24  42  1   
 44  24  43  1   
 45  24  44  1   
@<TRIPOS>SUBSTRUCTURE
  1 ****  14 GROUP 4 **** **** 0

# MOE 2024.06 (io_trps.svl 2023.06)
