@<TRIPOS>MOLECULE
NONAME
53 56 1 0 0 
SMALL
USER_CHARGES


@<TRIPOS>ATOM
  1 O       -0.5400    -0.4670     0.8310 O.3   1 <1>  -0.0190 
  2 N        0.5330     0.2600     0.7900 N.2   1 <1>  -0.4100 
  3 C       -0.2710    -1.7400     0.7290 C.2   1 <1>  -0.0400 
  4 C        1.5190    -0.5570     0.6770 C.2   1 <1>   0.1080 
  5 C        1.0620    -1.8720     0.6280 C.2   1 <1>  -0.1500 
  6 C       -1.4050    -2.7420     0.7250 C.3   1 <1>   0.5230 
  7 C        2.9760    -0.1330     0.6050 C.3   1 <1>   0.0210 
  8 N       -2.3330    -2.3960    -0.3870 N.4   1 <1>  -0.9590 
  9 C        3.7070    -0.4300     1.9180 C.3   1 <1>  -0.2400 
 10 C       -3.3690    -1.4020     0.0670 C.3   1 <1>   0.3430 
 11 C       -2.9680    -3.5930    -1.0040 C.3   1 <1>   0.3430 
 12 C       -4.2310    -0.9030    -1.1040 C.3   1 <1>   0.1430 
 13 C       -3.7810    -3.1590    -2.2280 C.3   1 <1>  -0.1600 
 14 C       -5.3290    -0.0370    -0.5410 C.ar  1 <1>   0.1670 
 15 C       -4.8370    -2.0960    -1.8750 C.3   1 <1>  -0.1600 
 16 C       -3.4660     0.0760    -2.0360 C.3   1 <1>  -0.1600 
 17 N       -6.0900    -0.3770     0.4670 N.ar  1 <1>  -0.6200 
 18 C       -5.4270     1.1510    -1.1960 C.ar  1 <1>  -0.1430 
 19 C       -4.4140     1.2630    -2.3070 C.3   1 <1>  -0.0170 
 20 C       -6.9990     0.5400     0.8160 C.ar  1 <1>   0.7200 
 21 C       -6.3860     2.0320    -0.7640 C.ar  1 <1>   0.1600 
 22 N       -7.1740     1.7340     0.2420 N.ar  1 <1>  -0.6200 
 23 N       -7.8270     0.2220     1.8720 N.pl3 1 <1>  -0.8380 
 24 C       -8.1300    -1.1830     2.2580 C.3   1 <1>   0.1290 
 25 C       -8.6390     1.2610     2.5660 C.3   1 <1>   0.1290 
 26 H        1.6790    -2.7470     0.5310 H     1 <1>   0.1500 
 27 H       -1.9220    -2.7230     1.6710 H     1 <1>   0.0800 
 28 H       -0.9950    -3.7280     0.5760 H     1 <1>   0.0800 
 29 H        3.0240     0.9230     0.4010 H     1 <1>   0.0800 
 30 H        3.4580    -0.6490    -0.2060 H     1 <1>   0.0800 
 31 H       -1.7570    -1.9280    -1.1000 H     1 <1>   0.4500 
 32 H        3.2320     0.0910     2.7300 H     1 <1>   0.0800 
 33 H        4.7300    -0.1040     1.8520 H     1 <1>   0.0800 
 34 H        3.6950    -1.4850     2.1280 H     1 <1>   0.0800 
 35 H       -2.9000    -0.5530     0.5380 H     1 <1>   0.0800 
 36 H       -4.0190    -1.8610     0.7950 H     1 <1>   0.0800 
 37 H       -3.6210    -4.0710    -0.2900 H     1 <1>   0.0800 
 38 H       -2.2150    -4.3020    -1.3070 H     1 <1>   0.0800 
 39 H       -4.2770    -4.0220    -2.6390 H     1 <1>   0.0800 
 40 H       -3.1150    -2.7880    -2.9870 H     1 <1>   0.0800 
 41 H       -5.3280    -1.7470    -2.7680 H     1 <1>   0.0800 
 42 H       -5.5940    -2.5550    -1.2600 H     1 <1>   0.0800 
 43 H       -3.1490    -0.3800    -2.9570 H     1 <1>   0.0800 
 44 H       -2.5970     0.4590    -1.5280 H     1 <1>   0.0800 
 45 H       -4.9070     1.1510    -3.2570 H     1 <1>   0.0800 
 46 H       -3.8920     2.2040    -2.2760 H     1 <1>   0.0800 
 47 H       -6.5090     2.9870    -1.2440 H     1 <1>   0.1500 
 48 H       -7.8570    -1.8640     1.4700 H     1 <1>   0.0800 
 49 H       -9.1840    -1.2930     2.4460 H     1 <1>   0.0800 
 50 H       -7.5820    -1.4370     3.1480 H     1 <1>   0.0800 
 51 H       -8.1250     2.2070     2.5580 H     1 <1>   0.0800 
 52 H       -8.8090     0.9760     3.5890 H     1 <1>   0.0800 
 53 H       -9.5850     1.3740     2.0640 H     1 <1>   0.0800 
@<TRIPOS>BOND
  1   1   2  1   
  2   1   3  1   
  3   2   4  2   
  4   3   5  2   
  5   3   6  1   
  6   4   5  1   
  7   4   7  1   
  8   5  26  1   
  9   6   8  1   
 10   6  27  1   
 11   6  28  1   
 12   7   9  1   
 13   7  29  1   
 14   7  30  1   
 15   8  10  1   
 16   8  11  1   
 17   8  31  1   
 18   9  32  1   
 19   9  33  1   
 20   9  34  1   
 21  10  12  1   
 22  10  35  1   
 23  10  36  1   
 24  11  13  1   
 25  11  37  1   
 26  11  38  1   
 27  12  14  1   
 28  12  15  1   
 29  12  16  1   
 30  13  15  1   
 31  13  39  1   
 32  13  40  1   
 33  14  17  ar  
 34  14  18  ar  
 35  15  41  1   
 36  15  42  1   
 37  16  19  1   
 38  16  43  1   
 39  16  44  1   
 40  17  20  ar  
 41  18  19  1   
 42  18  21  ar  
 43  19  45  1   
 44  19  46  1   
 45  20  22  ar  
 46  20  23  1   
 47  21  22  ar  
 48  21  47  1   
 49  23  24  1   
 50  23  25  1   
 51  24  48  1   
 52  24  49  1   
 53  24  50  1   
 54  25  51  1   
 55  25  52  1   
 56  25  53  1   
@<TRIPOS>SUBSTRUCTURE
  1 ****  10 GROUP 4 **** **** 0

# MOE 2024.06 (io_trps.svl 2023.06)
