@<TRIPOS>MOLECULE
NONAME
45 47 1 0 0 
SMALL
USER_CHARGES


@<TRIPOS>ATOM
  1 O       -0.5140    -2.6010     1.4210 O.co2 1 <1>  -0.9000 
  2 C       -0.3950    -2.0710     0.3030 C.2   1 <1>   1.0330 
  3 O       -1.1740    -1.1540    -0.0120 O.co2 1 <1>  -0.9000 
  4 C        0.6090    -2.5040    -0.6090 C.2   1 <1>  -0.2330 
  5 C        0.5060    -3.5990    -1.4670 C.2   1 <1>   0.3720 
  6 C        1.8480    -2.0100    -0.8590 C.2   1 <1>   0.0870 
  7 N        1.5840    -3.7500    -2.1530 N.2   1 <1>  -0.4100 
  8 N       -0.5870    -4.4570    -1.6080 N.pl3 1 <1>  -0.8210 
  9 O        2.3800    -2.7840    -1.7760 O.3   1 <1>  -0.0190 
 10 C        2.5960    -0.8900    -0.3330 C.ar  1 <1>   0.0530 
 11 C       -0.7860    -5.3500    -0.4390 C.3   1 <1>   0.2090 
 12 C       -1.8520    -3.7760    -1.9830 C.3   1 <1>   0.2090 
 13 C        1.9730     0.1980     0.2790 C.ar  1 <1>  -0.1500 
 14 C        3.9890    -0.8550    -0.4250 C.ar  1 <1>  -0.1500 
 15 C       -1.7670    -6.4740    -0.8180 C.3   1 <1>  -0.0800 
 16 C       -2.8670    -4.8360    -2.4160 C.3   1 <1>  -0.1600 
 17 C        2.7010     1.2630     0.7780 C.ar  1 <1>  -0.1500 
 18 C        4.7240     0.2070     0.0690 C.ar  1 <1>  -0.1500 
 19 C       -3.1030    -5.8760    -1.3070 C.3   1 <1>  -0.1600 
 20 C       -1.9620    -7.4330     0.3730 C.3   1 <1>  -0.1600 
 21 C        4.0800     1.2710     0.6740 C.ar  1 <1>  -0.1500 
 22 C       -2.7960    -8.6640     0.0130 C.3   1 <1>   0.1200 
 23 O       -2.7980    -9.5190     1.1090 O.3   1 <1>  -0.5600 
 24 C       -3.5250   -10.6870     0.9110 C.3   1 <1>   0.0400 
 25 H       -1.1760    -4.7860     0.3920 H     1 <1>   0.0800 
 26 H        0.1620    -5.7670    -0.1470 H     1 <1>   0.0800 
 27 H       -1.6640    -3.0840    -2.7860 H     1 <1>   0.0800 
 28 H       -2.2420    -3.2260    -1.1430 H     1 <1>   0.0800 
 29 H        0.9010     0.2170     0.3660 H     1 <1>   0.1500 
 30 H        4.5020    -1.6780    -0.8900 H     1 <1>   0.1500 
 31 H       -1.3150    -7.0240    -1.6260 H     1 <1>   0.0800 
 32 H       -2.4950    -5.3220    -3.3010 H     1 <1>   0.0800 
 33 H       -3.7940    -4.3530    -2.6660 H     1 <1>   0.0800 
 34 H        2.1860     2.0830     1.2470 H     1 <1>   0.1500 
 35 H        5.7960     0.2050    -0.0160 H     1 <1>   0.1500 
 36 H       -3.5990    -5.3940    -0.4810 H     1 <1>   0.0800 
 37 H       -3.7490    -6.6470    -1.6860 H     1 <1>   0.0800 
 38 H       -2.4350    -6.9100     1.1860 H     1 <1>   0.0800 
 39 H       -0.9960    -7.7690     0.7080 H     1 <1>   0.0800 
 40 H        4.6460     2.0990     1.0620 H     1 <1>   0.1500 
 41 H       -2.3620    -9.1810    -0.8260 H     1 <1>   0.0800 
 42 H       -3.8130    -8.3880    -0.2070 H     1 <1>   0.0800 
 43 H       -3.4620   -11.2750     1.8100 H     1 <1>   0.0800 
 44 H       -3.1000   -11.2360     0.0880 H     1 <1>   0.0800 
 45 H       -4.5530   -10.4370     0.7130 H     1 <1>   0.0800 
@<TRIPOS>BOND
  1   1   2  ar  
  2   2   3  ar  
  3   2   4  1   
  4   4   5  1   
  5   4   6  2   
  6   5   7  2   
  7   5   8  1   
  8   6   9  1   
  9   6  10  1   
 10   7   9  1   
 11   8  11  1   
 12   8  12  1   
 13  10  13  ar  
 14  10  14  ar  
 15  11  15  1   
 16  11  25  1   
 17  11  26  1   
 18  12  16  1   
 19  12  27  1   
 20  12  28  1   
 21  13  17  ar  
 22  13  29  1   
 23  14  18  ar  
 24  14  30  1   
 25  15  19  1   
 26  15  20  1   
 27  15  31  1   
 28  16  19  1   
 29  16  32  1   
 30  16  33  1   
 31  17  21  ar  
 32  17  34  1   
 33  18  21  ar  
 34  18  35  1   
 35  19  36  1   
 36  19  37  1   
 37  20  22  1   
 38  20  38  1   
 39  20  39  1   
 40  21  40  1   
 41  22  23  1   
 42  22  41  1   
 43  22  42  1   
 44  23  24  1   
 45  24  43  1   
 46  24  44  1   
 47  24  45  1   
@<TRIPOS>SUBSTRUCTURE
  1 ****   5 GROUP 4 **** **** 0

# MOE 2024.06 (io_trps.svl 2023.06)
