@<TRIPOS>MOLECULE
NONAME
48 50 1 0 0 
SMALL
USER_CHARGES


@<TRIPOS>ATOM
  1 O        1.9720    -0.1350     1.5880 O.2   1 <1>  -0.5700 
  2 C        2.2550    -0.6770     0.5370 C.2   1 <1>   0.5440 
  3 N        2.9700     0.0280    -0.4090 N.am  1 <1>  -0.6600 
  4 C        1.8540    -2.0470     0.3250 C.ar  1 <1>   0.0860 
  5 C        3.6370    -0.5850    -1.6050 C.3   1 <1>   0.1400 
  6 C        3.2640     1.4770    -0.2270 C.3   1 <1>   0.1400 
  7 C        0.9940    -2.3890    -0.7140 C.ar  1 <1>   0.1600 
  8 C        2.3000    -3.0770     1.1420 C.ar  1 <1>  -0.1500 
  9 C        5.1340    -0.8430    -1.3730 C.3   1 <1>   0.1400 
 10 C        4.4700     1.7010     0.6970 C.3   1 <1>  -0.1600 
 11 N        0.5910    -3.6110    -1.0160 N.ar  1 <1>  -0.6200 
 12 C        1.8840    -4.3580     0.8550 C.ar  1 <1>  -0.1500 
 13 N        5.8590     0.3830    -0.9140 N.am  1 <1>  -0.6600 
 14 C        5.6320     0.7130     0.5210 C.3   1 <1>   0.1400 
 15 C        1.0380    -4.5810    -0.2310 C.ar  1 <1>   0.3930 
 16 C        6.6650     1.0890    -1.7730 C.2   1 <1>   0.5690 
 17 O        0.6030    -5.8090    -0.5670 O.3   1 <1>  -0.3630 
 18 O        6.7600     0.7810    -2.9390 O.2   1 <1>  -0.5700 
 19 C        7.4710     2.2950    -1.3080 C.3   1 <1>   0.0440 
 20 C        0.8910    -6.9680     0.1830 C.3   1 <1>   0.0400 
 21 C        8.6220     1.9250    -0.3770 C.ar  1 <1>  -0.1430 
 22 C        9.4300     0.8280    -0.6460 C.ar  1 <1>   0.1600 
 23 C        8.8820     2.6790     0.7510 C.ar  1 <1>  -0.1500 
 24 N       10.4420     0.4290     0.1090 N.ar  1 <1>  -0.6200 
 25 C        9.9330     2.2780     1.5460 C.ar  1 <1>  -0.1500 
 26 C       10.6690     1.1630     1.1860 C.ar  1 <1>   0.1600 
 27 H        3.5270     0.0700    -2.4520 H     1 <1>   0.0800 
 28 H        3.1700    -1.5160    -1.8660 H     1 <1>   0.0800 
 29 H        2.4000     1.9700     0.1860 H     1 <1>   0.0800 
 30 H        3.4640     1.9200    -1.1870 H     1 <1>   0.0800 
 31 H        0.6220    -1.5920    -1.3350 H     1 <1>   0.1500 
 32 H        2.9490    -2.8640     1.9740 H     1 <1>   0.1500 
 33 H        5.5670    -1.2060    -2.2890 H     1 <1>   0.0800 
 34 H        5.2510    -1.6230    -0.6410 H     1 <1>   0.0800 
 35 H        4.1320     1.6390     1.7160 H     1 <1>   0.0800 
 36 H        4.8270     2.7030     0.5540 H     1 <1>   0.0800 
 37 H        2.2180    -5.1670     1.4740 H     1 <1>   0.1500 
 38 H        5.3960    -0.1920     1.0540 H     1 <1>   0.0800 
 39 H        6.5250     1.1120     0.9670 H     1 <1>   0.0800 
 40 H        6.8070     2.9870    -0.8290 H     1 <1>   0.0800 
 41 H        7.8770     2.7880    -2.1720 H     1 <1>   0.0800 
 42 H        0.3970    -7.7990    -0.2880 H     1 <1>   0.0800 
 43 H        0.5140    -6.8400     1.1830 H     1 <1>   0.0800 
 44 H        1.9540    -7.1290     0.1860 H     1 <1>   0.0800 
 45 H        9.2360     0.2420    -1.5300 H     1 <1>   0.1500 
 46 H        8.2950     3.5450     1.0070 H     1 <1>   0.1500 
 47 H       10.1850     2.8230     2.4370 H     1 <1>   0.1500 
 48 H       11.4890     0.8590     1.8140 H     1 <1>   0.1500 
@<TRIPOS>BOND
  1   1   2  2   
  2   2   3  am  
  3   2   4  1   
  4   3   5  1   
  5   3   6  1   
  6   4   7  ar  
  7   4   8  ar  
  8   5   9  1   
  9   5  27  1   
 10   5  28  1   
 11   6  10  1   
 12   6  29  1   
 13   6  30  1   
 14   7  11  ar  
 15   7  31  1   
 16   8  12  ar  
 17   8  32  1   
 18   9  13  1   
 19   9  33  1   
 20   9  34  1   
 21  10  14  1   
 22  10  35  1   
 23  10  36  1   
 24  11  15  ar  
 25  12  15  ar  
 26  12  37  1   
 27  13  14  1   
 28  13  16  am  
 29  14  38  1   
 30  14  39  1   
 31  15  17  1   
 32  16  18  2   
 33  16  19  1   
 34  17  20  1   
 35  19  21  1   
 36  19  40  1   
 37  19  41  1   
 38  20  42  1   
 39  20  43  1   
 40  20  44  1   
 41  21  22  ar  
 42  21  23  ar  
 43  22  24  ar  
 44  22  45  1   
 45  23  25  ar  
 46  23  46  1   
 47  24  26  ar  
 48  25  26  ar  
 49  25  47  1   
 50  26  48  1   
@<TRIPOS>SUBSTRUCTURE
  1 ****   9 GROUP 4 **** **** 0

# MOE 2024.06 (io_trps.svl 2023.06)
