@<TRIPOS>MOLECULE
NONAME
54 57 1 0 0 
SMALL
USER_CHARGES


@<TRIPOS>ATOM
  1 O       -1.4700    -0.5920     2.0210 O.2   1 <1>  -0.5700 
  2 C       -2.0940    -0.0500     1.1420 C.2   1 <1>   0.5690 
  3 N       -2.9090    -0.7560     0.2900 N.am  1 <1>  -0.6600 
  4 C       -1.9500     1.4490     1.0180 C.3   1 <1>  -0.1790 
  5 C       -2.9810    -2.2370     0.3700 C.3   1 <1>   0.1400 
  6 C       -3.7620    -0.1580    -0.7670 C.3   1 <1>   0.1400 
  7 C       -4.4240    -2.6450     0.6640 C.3   1 <1>  -0.1600 
  8 C       -5.2190    -0.5420    -0.4990 C.3   1 <1>  -0.1600 
  9 C       -5.3870    -2.0650    -0.3810 C.3   1 <1>   0.4230 
 10 N       -6.7920    -2.3880    -0.0060 N.4   1 <1>  -0.9590 
 11 C       -7.8570    -1.8970    -0.9250 C.3   1 <1>   0.3430 
 12 C       -7.0940    -3.8380     0.1960 C.3   1 <1>   0.3430 
 13 C       -9.1080    -2.6430    -0.4610 C.3   1 <1>   0.2000 
 14 C       -8.5830    -4.0420    -0.1330 C.3   1 <1>  -0.0800 
 15 O       -9.5300    -2.0540     0.7250 O.3   1 <1>  -0.6800 
 16 C       -8.7900    -5.0240    -1.3080 C.3   1 <1>  -0.0170 
 17 C       -7.9350    -6.2780    -1.1510 C.ar  1 <1>  -0.1440 
 18 C       -8.1830    -7.2510    -0.1530 C.ar  1 <1>   0.0000 
 19 C       -6.8690    -6.4840    -1.9800 C.ar  1 <1>  -0.1500 
 20 C       -7.2590    -8.3180    -0.0320 C.ar  1 <1>   0.3100 
 21 C       -9.2910    -7.2370     0.7260 C.ar  1 <1>  -0.1500 
 22 C       -6.0370    -7.5940    -1.7980 C.ar  1 <1>   0.1600 
 23 N       -6.1940    -8.4680    -0.8580 N.ar  1 <1>  -0.6200 
 24 C       -7.4460    -9.2710     0.9810 C.ar  1 <1>  -0.1500 
 25 C       -9.4490    -8.1850     1.7000 C.ar  1 <1>  -0.1500 
 26 C       -8.5120    -9.2120     1.8360 C.ar  1 <1>  -0.1500 
 27 H       -1.5980     1.7050     0.0370 H     1 <1>   0.0800 
 28 H       -1.2360     1.8040     1.7390 H     1 <1>   0.0800 
 29 H       -2.8920     1.9260     1.2080 H     1 <1>   0.0800 
 30 H       -2.6490    -2.6590    -0.5630 H     1 <1>   0.0800 
 31 H       -2.3350    -2.6130     1.1470 H     1 <1>   0.0800 
 32 H       -3.6700     0.9140    -0.7850 H     1 <1>   0.0800 
 33 H       -3.4440    -0.5320    -1.7260 H     1 <1>   0.0800 
 34 H       -4.6780    -2.2910     1.6480 H     1 <1>   0.0800 
 35 H       -4.4630    -3.7190     0.6650 H     1 <1>   0.0800 
 36 H       -5.8120    -0.1590    -1.3090 H     1 <1>   0.0800 
 37 H       -5.5310    -0.0630     0.4120 H     1 <1>   0.0800 
 38 H       -5.1600    -2.5100    -1.3360 H     1 <1>   0.0800 
 39 H       -7.0000    -1.9310     0.8970 H     1 <1>   0.4500 
 40 H       -7.9960    -0.8310    -0.8540 H     1 <1>   0.0800 
 41 H       -7.6250    -2.1700    -1.9400 H     1 <1>   0.0800 
 42 H       -6.4830    -4.4360    -0.4610 H     1 <1>   0.0800 
 43 H       -6.8880    -4.1280     1.2140 H     1 <1>   0.0800 
 44 H       -9.9130    -2.6140    -1.1760 H     1 <1>   0.0800 
 45 H       -9.0790    -4.4360     0.7360 H     1 <1>   0.0800 
 46 H      -10.4220    -2.3700     0.9860 H     1 <1>   0.4000 
 47 H       -8.5310    -4.5410    -2.2350 H     1 <1>   0.0800 
 48 H       -9.8280    -5.3010    -1.3820 H     1 <1>   0.0800 
 49 H       -6.6320    -5.8140    -2.7870 H     1 <1>   0.1500 
 50 H      -10.0400    -6.4760     0.6280 H     1 <1>   0.1500 
 51 H       -5.2090    -7.7260    -2.4750 H     1 <1>   0.1500 
 52 H       -6.7200   -10.0600     1.0600 H     1 <1>   0.1500 
 53 H      -10.2940    -8.1620     2.3670 H     1 <1>   0.1500 
 54 H       -8.6440    -9.9510     2.6080 H     1 <1>   0.1500 
@<TRIPOS>BOND
  1   1   2  2   
  2   2   3  am  
  3   2   4  1   
  4   3   5  1   
  5   3   6  1   
  6   4  27  1   
  7   4  28  1   
  8   4  29  1   
  9   5   7  1   
 10   5  30  1   
 11   5  31  1   
 12   6   8  1   
 13   6  32  1   
 14   6  33  1   
 15   7   9  1   
 16   7  34  1   
 17   7  35  1   
 18   8   9  1   
 19   8  36  1   
 20   8  37  1   
 21   9  10  1   
 22   9  38  1   
 23  10  11  1   
 24  10  12  1   
 25  10  39  1   
 26  11  13  1   
 27  11  40  1   
 28  11  41  1   
 29  12  14  1   
 30  12  42  1   
 31  12  43  1   
 32  13  14  1   
 33  13  15  1   
 34  13  44  1   
 35  14  16  1   
 36  14  45  1   
 37  15  46  1   
 38  16  17  1   
 39  16  47  1   
 40  16  48  1   
 41  17  18  ar  
 42  17  19  ar  
 43  18  20  ar  
 44  18  21  ar  
 45  19  22  ar  
 46  19  49  1   
 47  20  23  ar  
 48  20  24  ar  
 49  21  25  ar  
 50  21  50  1   
 51  22  23  ar  
 52  22  51  1   
 53  24  26  ar  
 54  24  52  1   
 55  25  26  ar  
 56  25  53  1   
 57  26  54  1   
@<TRIPOS>SUBSTRUCTURE
  1 ****  12 GROUP 4 **** **** 0

# MOE 2024.06 (io_trps.svl 2023.06)
