@<TRIPOS>MOLECULE
NONAME
56 59 1 0 0 
SMALL
USER_CHARGES


@<TRIPOS>ATOM
  1 O        2.8500    -2.7150     0.0970 O.2   1 <1>  -0.5700 
  2 C        1.7470    -3.1310    -0.1430 C.2   1 <1>   0.5690 
  3 N        0.7960    -2.3090    -0.6430 N.am  1 <1>  -0.7300 
  4 C        1.4240    -4.5890     0.1340 C.3   1 <1>  -0.0990 
  5 C       -0.5570    -2.7170    -1.1000 C.3   1 <1>   0.1400 
  6 C        0.1540    -5.0800    -0.5840 C.3   1 <1>  -0.1600 
  7 C       -0.9810    -4.0450    -0.4450 C.3   1 <1>  -0.0190 
  8 C       -2.2940    -4.5670    -1.0350 C.2   1 <1>   0.5690 
  9 O       -2.5980    -4.1950    -2.1460 O.2   1 <1>  -0.5700 
 10 N       -3.0960    -5.4380    -0.3330 N.am  1 <1>  -0.6600 
 11 C       -2.8150    -6.0050     1.0190 C.3   1 <1>   0.1400 
 12 C       -4.3750    -5.9430    -0.9110 C.3   1 <1>   0.1400 
 13 C       -2.7210    -7.5290     0.9140 C.3   1 <1>  -0.1600 
 14 C       -4.3010    -7.4650    -1.0430 C.3   1 <1>  -0.1600 
 15 C       -3.9890    -8.1420     0.3030 C.3   1 <1>   0.4240 
 16 O       -5.0200    -7.8210     1.2060 O.3   1 <1>  -0.5600 
 17 C       -3.8220    -9.6680     0.1420 C.ar  1 <1>  -0.1430 
 18 C       -6.1740    -8.6040     1.1690 C.3   1 <1>   0.1200 
 19 C       -4.6860   -10.5580     0.7650 C.ar  1 <1>  -0.1430 
 20 C       -2.7980   -10.1860    -0.6400 C.ar  1 <1>  -0.1500 
 21 C       -5.8220   -10.0200     1.6130 C.3   1 <1>  -0.0170 
 22 C       -4.5210   -11.9250     0.6130 C.ar  1 <1>  -0.1500 
 23 C       -2.6120   -11.5480    -0.7990 C.ar  1 <1>   0.0820 
 24 C       -3.4930   -12.4430    -0.1710 C.ar  1 <1>   0.0820 
 25 O       -1.5470   -11.8810    -1.5860 O.3   1 <1>  -0.3630 
 26 O       -3.3470   -13.7900    -0.3450 O.3   1 <1>  -0.3620 
 27 C       -0.8820   -13.1180    -1.4630 C.3   1 <1>   0.0400 
 28 C       -4.2810   -14.7220     0.1530 C.3   1 <1>   0.0400 
 29 H        1.0890    -1.3500    -0.8430 H     1 <1>   0.3700 
 30 H        1.3000    -4.6940     1.1960 H     1 <1>   0.0800 
 31 H        2.2630    -5.1910    -0.1600 H     1 <1>   0.0800 
 32 H       -0.5350    -2.8230    -2.1720 H     1 <1>   0.0800 
 33 H       -1.2700    -1.9480    -0.8530 H     1 <1>   0.0800 
 34 H       -0.1430    -6.0300    -0.1780 H     1 <1>   0.0800 
 35 H        0.3680    -5.2230    -1.6300 H     1 <1>   0.0800 
 36 H       -1.1490    -3.8290     0.5930 H     1 <1>   0.0800 
 37 H       -3.6170    -5.7340     1.6860 H     1 <1>   0.0800 
 38 H       -1.9010    -5.6240     1.4320 H     1 <1>   0.0800 
 39 H       -4.5600    -5.5070    -1.8780 H     1 <1>   0.0800 
 40 H       -5.1890    -5.6670    -0.2620 H     1 <1>   0.0800 
 41 H       -2.5640    -7.9540     1.8890 H     1 <1>   0.0800 
 42 H       -1.8660    -7.7750     0.3140 H     1 <1>   0.0800 
 43 H       -3.5300    -7.7000    -1.7530 H     1 <1>   0.0800 
 44 H       -5.2210    -7.8450    -1.4440 H     1 <1>   0.0800 
 45 H       -6.5750    -8.5990     0.1710 H     1 <1>   0.0800 
 46 H       -6.8920    -8.1660     1.8400 H     1 <1>   0.0800 
 47 H       -2.1140    -9.5310    -1.1470 H     1 <1>   0.1500 
 48 H       -6.6900   -10.6460     1.5150 H     1 <1>   0.0800 
 49 H       -5.5280   -10.0080     2.6480 H     1 <1>   0.0800 
 50 H       -5.2100   -12.5730     1.1170 H     1 <1>   0.1500 
 51 H        0.0720   -13.0360    -1.9510 H     1 <1>   0.0800 
 52 H       -1.4720   -13.8780    -1.9430 H     1 <1>   0.0800 
 53 H       -0.7450   -13.3410    -0.4190 H     1 <1>   0.0800 
 54 H       -3.9740   -15.7030    -0.1610 H     1 <1>   0.0800 
 55 H       -5.2510   -14.4960    -0.2530 H     1 <1>   0.0800 
 56 H       -4.2880   -14.6700     1.2280 H     1 <1>   0.0800 
@<TRIPOS>BOND
  1   1   2  2   
  2   2   3  am  
  3   2   4  1   
  4   3   5  1   
  5   3  29  1   
  6   4   6  1   
  7   4  30  1   
  8   4  31  1   
  9   5   7  1   
 10   5  32  1   
 11   5  33  1   
 12   6   7  1   
 13   6  34  1   
 14   6  35  1   
 15   7   8  1   
 16   7  36  1   
 17   8   9  2   
 18   8  10  am  
 19  10  11  1   
 20  10  12  1   
 21  11  13  1   
 22  11  37  1   
 23  11  38  1   
 24  12  14  1   
 25  12  39  1   
 26  12  40  1   
 27  13  15  1   
 28  13  41  1   
 29  13  42  1   
 30  14  15  1   
 31  14  43  1   
 32  14  44  1   
 33  15  16  1   
 34  15  17  1   
 35  16  18  1   
 36  17  19  ar  
 37  17  20  ar  
 38  18  21  1   
 39  18  45  1   
 40  18  46  1   
 41  19  21  1   
 42  19  22  ar  
 43  20  23  ar  
 44  20  47  1   
 45  21  48  1   
 46  21  49  1   
 47  22  24  ar  
 48  22  50  1   
 49  23  24  ar  
 50  23  25  1   
 51  24  26  1   
 52  25  27  1   
 53  26  28  1   
 54  27  51  1   
 55  27  52  1   
 56  27  53  1   
 57  28  54  1   
 58  28  55  1   
 59  28  56  1   
@<TRIPOS>SUBSTRUCTURE
  1 ****  13 GROUP 4 **** **** 0

# MOE 2024.06 (io_trps.svl 2023.06)
