@<TRIPOS>MOLECULE
NONAME
41 43 1 0 0 
SMALL
USER_CHARGES


@<TRIPOS>ATOM
  1 O       -3.2480     1.0630    -1.4910 O.2   1 <1>  -0.5700 
  2 C       -2.4970     0.8750    -0.5660 C.2   1 <1>   0.5690 
  3 N       -2.1890    -0.3720    -0.1390 N.am  1 <1>  -0.7300 
  4 C       -1.8880     2.0620     0.1570 C.3   1 <1>  -0.0990 
  5 C       -2.7130    -1.6130    -0.7470 C.3   1 <1>   0.2200 
  6 C       -0.3740     2.1900    -0.0780 C.3   1 <1>  -0.2400 
  7 C       -3.9310    -2.0720     0.0340 C.3   1 <1>  -0.0800 
  8 C       -1.7390    -2.7630    -0.5150 C.3   1 <1>   0.1200 
  9 C       -3.2990    -2.8680     1.1800 C.3   1 <1>   0.1200 
 10 C       -4.8650    -2.9370    -0.8360 C.3   1 <1>  -0.0170 
 11 O       -2.0310    -3.2740     0.7510 O.3   1 <1>  -0.5600 
 12 C       -6.1430    -3.3050    -0.0900 C.ar  1 <1>  -0.1440 
 13 C       -7.1920    -2.3780     0.1160 C.ar  1 <1>   0.0000 
 14 C       -6.3080    -4.5650     0.4080 C.ar  1 <1>  -0.1500 
 15 C       -8.3280    -2.8210     0.8390 C.ar  1 <1>   0.3100 
 16 C       -7.1860    -1.0430    -0.3520 C.ar  1 <1>  -0.1500 
 17 C       -7.4750    -4.9020     1.1030 C.ar  1 <1>   0.1600 
 18 N       -8.4520    -4.0820     1.3250 N.ar  1 <1>  -0.6200 
 19 C       -9.3810    -1.9210     1.0680 C.ar  1 <1>  -0.1500 
 20 C       -8.2300    -0.1920    -0.1130 C.ar  1 <1>  -0.1500 
 21 C       -9.3420    -0.6330     0.6070 C.ar  1 <1>  -0.1500 
 22 H       -1.5940    -0.5100     0.6800 H     1 <1>   0.3700 
 23 H       -2.3760     2.9570    -0.1880 H     1 <1>   0.0800 
 24 H       -2.0880     1.9660     1.2080 H     1 <1>   0.0800 
 25 H       -2.9140    -1.4540    -1.7940 H     1 <1>   0.0800 
 26 H       -0.1730     2.2930    -1.1300 H     1 <1>   0.0800 
 27 H        0.1420     1.3200     0.2890 H     1 <1>   0.0800 
 28 H        0.0070     3.0570     0.4320 H     1 <1>   0.0800 
 29 H       -4.4820    -1.2330     0.4170 H     1 <1>   0.0800 
 30 H       -0.7100    -2.4500    -0.5530 H     1 <1>   0.0800 
 31 H       -1.9050    -3.5500    -1.2290 H     1 <1>   0.0800 
 32 H       -3.8700    -3.7360     1.4580 H     1 <1>   0.0800 
 33 H       -3.1620    -2.2410     2.0440 H     1 <1>   0.0800 
 34 H       -4.3520    -3.8330    -1.1380 H     1 <1>   0.0800 
 35 H       -5.1240    -2.4070    -1.7360 H     1 <1>   0.0800 
 36 H       -5.5560    -5.3230     0.2840 H     1 <1>   0.1500 
 37 H       -6.3430    -0.6790    -0.9120 H     1 <1>   0.1500 
 38 H       -7.5630    -5.9070     1.4800 H     1 <1>   0.1500 
 39 H      -10.2270    -2.2830     1.6220 H     1 <1>   0.1500 
 40 H       -8.2080     0.8220    -0.4750 H     1 <1>   0.1500 
 41 H      -10.1580     0.0460     0.7900 H     1 <1>   0.1500 
@<TRIPOS>BOND
  1   1   2  2   
  2   2   3  am  
  3   2   4  1   
  4   3   5  1   
  5   3  22  1   
  6   4   6  1   
  7   4  23  1   
  8   4  24  1   
  9   5   7  1   
 10   5   8  1   
 11   5  25  1   
 12   6  26  1   
 13   6  27  1   
 14   6  28  1   
 15   7   9  1   
 16   7  10  1   
 17   7  29  1   
 18   8  11  1   
 19   8  30  1   
 20   8  31  1   
 21   9  11  1   
 22   9  32  1   
 23   9  33  1   
 24  10  12  1   
 25  10  34  1   
 26  10  35  1   
 27  12  13  ar  
 28  12  14  ar  
 29  13  15  ar  
 30  13  16  ar  
 31  14  17  ar  
 32  14  36  1   
 33  15  18  ar  
 34  15  19  ar  
 35  16  20  ar  
 36  16  37  1   
 37  17  18  ar  
 38  17  38  1   
 39  19  21  ar  
 40  19  39  1   
 41  20  21  ar  
 42  20  40  1   
 43  21  41  1   
@<TRIPOS>SUBSTRUCTURE
  1 ****   7 GROUP 4 **** **** 0

# MOE 2024.06 (io_trps.svl 2023.06)
