@<TRIPOS>MOLECULE
NONAME
59 61 1 0 0 
SMALL
USER_CHARGES


@<TRIPOS>ATOM
  1 O       -0.4190    -1.9360     0.3950 O.3   1 <1>  -0.3630 
  2 C       -1.7720    -1.9800     0.5250 C.ar  1 <1>   0.0830 
  3 C        0.2330    -1.3950    -0.7320 C.3   1 <1>   0.2000 
  4 C       -2.6710    -1.5770    -0.4600 C.ar  1 <1>  -0.1500 
  5 C       -2.2580    -2.4650     1.7280 C.ar  1 <1>  -0.1500 
  6 C        1.6560    -1.9480    -0.7310 C.3   1 <1>  -0.2400 
  7 C        0.2380     0.1320    -0.6180 C.3   1 <1>  -0.2400 
  8 C       -4.0360    -1.6600    -0.2370 C.ar  1 <1>  -0.1500 
  9 C       -3.6200    -2.5490     1.9530 C.ar  1 <1>  -0.1500 
 10 C       -4.5170    -2.1480     0.9760 C.ar  1 <1>   0.0830 
 11 O       -5.8370    -2.2620     1.2790 O.3   1 <1>  -0.3630 
 12 C       -6.8310    -1.8550     0.3720 C.3   1 <1>   0.1200 
 13 C       -8.1850    -2.1180     1.0380 C.3   1 <1>   0.3430 
 14 N       -9.3480    -1.7780     0.1540 N.4   1 <1>  -0.9590 
 15 C      -10.6170    -2.3060     0.7530 C.3   1 <1>   0.3430 
 16 C       -9.4650    -0.3090    -0.0940 C.3   1 <1>   0.3430 
 17 C      -11.8030    -2.1290    -0.2070 C.3   1 <1>   0.0000 
 18 C      -10.5950    -0.0420    -1.0880 C.3   1 <1>  -0.1600 
 19 C      -13.0720    -2.6800     0.4610 C.3   1 <1>   0.2000 
 20 C      -11.9300    -0.6310    -0.6030 C.3   1 <1>  -0.1600 
 21 C      -11.7200    -3.0140    -1.4640 C.3   1 <1>  -0.1600 
 22 O      -13.5410    -1.7910     1.4240 O.3   1 <1>  -0.5600 
 23 C      -14.0540    -2.9090    -0.6870 C.3   1 <1>  -0.1600 
 24 C      -13.1760    -3.2320    -1.9050 C.3   1 <1>  -0.1600 
 25 C      -14.6190    -2.2470     2.1840 C.3   1 <1>   0.0400 
 26 H       -0.2710    -1.7270    -1.6220 H     1 <1>   0.0800 
 27 H       -2.3280    -1.1980    -1.4030 H     1 <1>   0.1500 
 28 H       -1.5610    -2.7760     2.4840 H     1 <1>   0.1500 
 29 H        2.1700    -1.6580     0.1670 H     1 <1>   0.0800 
 30 H        2.1990    -1.5700    -1.5780 H     1 <1>   0.0800 
 31 H        1.6300    -3.0210    -0.7950 H     1 <1>   0.0800 
 32 H        0.7360     0.4350     0.2850 H     1 <1>   0.0800 
 33 H       -0.7650     0.5170    -0.6120 H     1 <1>   0.0800 
 34 H        0.7570     0.5600    -1.4560 H     1 <1>   0.0800 
 35 H       -4.6960    -1.3410    -1.0190 H     1 <1>   0.1500 
 36 H       -3.9880    -2.9270     2.8900 H     1 <1>   0.1500 
 37 H       -6.6870    -0.8080     0.1720 H     1 <1>   0.0800 
 38 H       -6.7230    -2.4410    -0.5240 H     1 <1>   0.0800 
 39 H       -8.2430    -1.5430     1.9480 H     1 <1>   0.0800 
 40 H       -8.2300    -3.1630     1.2960 H     1 <1>   0.0800 
 41 H       -9.2360    -2.2440    -0.7560 H     1 <1>   0.4500 
 42 H      -10.5070    -3.3520     0.9870 H     1 <1>   0.0800 
 43 H      -10.8350    -1.7790     1.6690 H     1 <1>   0.0800 
 44 H       -9.6770     0.2010     0.8330 H     1 <1>   0.0800 
 45 H       -8.5420     0.0810    -0.4920 H     1 <1>   0.0800 
 46 H      -10.7070     1.0220    -1.2080 H     1 <1>   0.0800 
 47 H      -10.3320    -0.4400    -2.0510 H     1 <1>   0.0800 
 48 H      -12.8550    -3.6210     0.9400 H     1 <1>   0.0800 
 49 H      -12.6810    -0.4960    -1.3630 H     1 <1>   0.0800 
 50 H      -12.2480    -0.0580     0.2520 H     1 <1>   0.0800 
 51 H      -11.1360    -2.5850    -2.2580 H     1 <1>   0.0800 
 52 H      -11.2980    -3.9720    -1.2090 H     1 <1>   0.0800 
 53 H      -14.7270    -3.7190    -0.4680 H     1 <1>   0.0800 
 54 H      -14.6180    -2.0110    -0.8750 H     1 <1>   0.0800 
 55 H      -13.3250    -4.2460    -2.2350 H     1 <1>   0.0800 
 56 H      -13.4260    -2.5690    -2.7170 H     1 <1>   0.0800 
 57 H      -14.8430    -1.5020     2.9270 H     1 <1>   0.0800 
 58 H      -14.3540    -3.1710     2.6670 H     1 <1>   0.0800 
 59 H      -15.4760    -2.3840     1.5480 H     1 <1>   0.0800 
@<TRIPOS>BOND
  1   1   2  1   
  2   1   3  1   
  3   2   4  ar  
  4   2   5  ar  
  5   3   6  1   
  6   3   7  1   
  7   3  26  1   
  8   4   8  ar  
  9   4  27  1   
 10   5   9  ar  
 11   5  28  1   
 12   6  29  1   
 13   6  30  1   
 14   6  31  1   
 15   7  32  1   
 16   7  33  1   
 17   7  34  1   
 18   8  10  ar  
 19   8  35  1   
 20   9  10  ar  
 21   9  36  1   
 22  10  11  1   
 23  11  12  1   
 24  12  13  1   
 25  12  37  1   
 26  12  38  1   
 27  13  14  1   
 28  13  39  1   
 29  13  40  1   
 30  14  15  1   
 31  14  16  1   
 32  14  41  1   
 33  15  17  1   
 34  15  42  1   
 35  15  43  1   
 36  16  18  1   
 37  16  44  1   
 38  16  45  1   
 39  17  19  1   
 40  17  20  1   
 41  17  21  1   
 42  18  20  1   
 43  18  46  1   
 44  18  47  1   
 45  19  22  1   
 46  19  23  1   
 47  19  48  1   
 48  20  49  1   
 49  20  50  1   
 50  21  24  1   
 51  21  51  1   
 52  21  52  1   
 53  22  25  1   
 54  23  24  1   
 55  23  53  1   
 56  23  54  1   
 57  24  55  1   
 58  24  56  1   
 59  25  57  1   
 60  25  58  1   
 61  25  59  1   
@<TRIPOS>SUBSTRUCTURE
  1 ****  12 GROUP 4 **** **** 0

# MOE 2024.06 (io_trps.svl 2023.06)
