@<TRIPOS>MOLECULE
NONAME
50 52 1 0 0 
SMALL
USER_CHARGES


@<TRIPOS>ATOM
  1 O       -0.6400     0.0780     1.9940 O.2   1 <1>  -0.5700 
  2 C       -1.5840     0.7330     1.5840 C.2   1 <1>   0.5440 
  3 N       -2.8180     0.1060     1.5310 N.am  1 <1>  -0.6600 
  4 C       -1.3560     2.1250     1.1890 C.ar  1 <1>   0.3960 
  5 C       -2.9480    -1.3820     1.4530 C.3   1 <1>   0.1400 
  6 C       -4.1160     0.7840     1.2430 C.3   1 <1>   0.1400 
  7 N       -1.9450     2.6510     0.1100 N.ar  1 <1>  -0.6200 
  8 C       -0.4980     2.9120     1.9360 C.ar  1 <1>  -0.1500 
  9 C       -3.5900    -1.7970     0.1140 C.3   1 <1>   0.3440 
 10 C       -4.6540     0.3100    -0.1250 C.3   1 <1>   0.2000 
 11 C       -1.6710     3.9090    -0.1660 C.ar  1 <1>   0.4760 
 12 C       -0.2910     4.2100     1.5540 C.ar  1 <1>   0.1600 
 13 O       -4.7870    -1.0910    -0.0990 O.3   1 <1>  -0.5600 
 14 C       -3.8730    -3.2970     0.0950 C.ar  1 <1>  -0.1440 
 15 C       -6.0090     0.9520    -0.5520 C.3   1 <1>   0.0000 
 16 N       -0.8780     4.7270     0.5000 N.ar  1 <1>  -0.6200 
 17 C       -2.3460     4.4900    -1.3850 C.3   1 <1>  -0.0970 
 18 C       -2.9160    -4.1690    -0.4060 C.ar  1 <1>  -0.1500 
 19 C       -5.0660    -3.8140     0.5810 C.ar  1 <1>  -0.1500 
 20 C       -7.1430     0.6250     0.4370 C.3   1 <1>  -0.2400 
 21 C       -5.8780     2.4820    -0.6590 C.3   1 <1>  -0.2400 
 22 C       -6.4120     0.4230    -1.9410 C.3   1 <1>  -0.2400 
 23 C       -3.1470    -5.5340    -0.4190 C.ar  1 <1>  -0.1500 
 24 C       -5.2990    -5.1790     0.5690 C.ar  1 <1>  -0.1500 
 25 C       -4.3390    -6.0400     0.0690 C.ar  1 <1>  -0.1500 
 26 H       -1.9860    -1.8560     1.5420 H     1 <1>   0.0800 
 27 H       -3.5610    -1.7310     2.2650 H     1 <1>   0.0800 
 28 H       -4.8200     0.5250     2.0130 H     1 <1>   0.0800 
 29 H       -4.0000     1.8500     1.2590 H     1 <1>   0.0800 
 30 H       -0.0050     2.5020     2.7980 H     1 <1>   0.1500 
 31 H       -2.9210    -1.5540    -0.6920 H     1 <1>   0.0800 
 32 H       -3.9230     0.5540    -0.8770 H     1 <1>   0.0800 
 33 H        0.3720     4.8420     2.1220 H     1 <1>   0.1500 
 34 H       -1.6840     5.1790    -1.8760 H     1 <1>   0.0800 
 35 H       -3.2350     5.0110    -1.0850 H     1 <1>   0.0800 
 36 H       -2.6080     3.7100    -2.0760 H     1 <1>   0.0800 
 37 H       -1.9840    -3.7910    -0.7880 H     1 <1>   0.1500 
 38 H       -5.8200    -3.1510     0.9690 H     1 <1>   0.1500 
 39 H       -8.0780     1.0240     0.0840 H     1 <1>   0.0800 
 40 H       -6.9480     1.0430     1.4070 H     1 <1>   0.0800 
 41 H       -7.2530    -0.4400     0.5410 H     1 <1>   0.0800 
 42 H       -6.7830     2.9100    -1.0540 H     1 <1>   0.0800 
 43 H       -5.0670     2.7450    -1.3150 H     1 <1>   0.0800 
 44 H       -5.6990     2.9290     0.3020 H     1 <1>   0.0800 
 45 H       -7.3280     0.8780    -2.2750 H     1 <1>   0.0800 
 46 H       -6.5620    -0.6420    -1.9110 H     1 <1>   0.0800 
 47 H       -5.6440     0.6330    -2.6640 H     1 <1>   0.0800 
 48 H       -2.4000    -6.2030    -0.8090 H     1 <1>   0.1500 
 49 H       -6.2280    -5.5680     0.9470 H     1 <1>   0.1500 
 50 H       -4.5200    -7.1010     0.0590 H     1 <1>   0.1500 
@<TRIPOS>BOND
  1   1   2  2   
  2   2   3  am  
  3   2   4  1   
  4   3   5  1   
  5   3   6  1   
  6   4   7  ar  
  7   4   8  ar  
  8   5   9  1   
  9   5  26  1   
 10   5  27  1   
 11   6  10  1   
 12   6  28  1   
 13   6  29  1   
 14   7  11  ar  
 15   8  12  ar  
 16   8  30  1   
 17   9  13  1   
 18   9  14  1   
 19   9  31  1   
 20  10  13  1   
 21  10  15  1   
 22  10  32  1   
 23  11  16  ar  
 24  11  17  1   
 25  12  16  ar  
 26  12  33  1   
 27  14  18  ar  
 28  14  19  ar  
 29  15  20  1   
 30  15  21  1   
 31  15  22  1   
 32  17  34  1   
 33  17  35  1   
 34  17  36  1   
 35  18  23  ar  
 36  18  37  1   
 37  19  24  ar  
 38  19  38  1   
 39  20  39  1   
 40  20  40  1   
 41  20  41  1   
 42  21  42  1   
 43  21  43  1   
 44  21  44  1   
 45  22  45  1   
 46  22  46  1   
 47  22  47  1   
 48  23  25  ar  
 49  23  48  1   
 50  24  25  ar  
 51  24  49  1   
 52  25  50  1   
@<TRIPOS>SUBSTRUCTURE
  1 ****   3 GROUP 4 **** **** 0

# MOE 2024.06 (io_trps.svl 2023.06)
