@<TRIPOS>MOLECULE
NONAME
38 39 1 0 0 
SMALL
USER_CHARGES


@<TRIPOS>ATOM
  1 O       -1.8700    -0.1510     0.7310 O.2   1 <1>  -0.5700 
  2 C       -2.6630     0.7670     0.6210 C.2   1 <1>   0.5440 
  3 N       -3.9910     0.5170     0.8800 N.am  1 <1>  -0.6600 
  4 C       -2.1930     2.0700     0.1910 C.ar  1 <1>   0.0860 
  5 C       -4.3980    -0.7260     1.6020 C.3   1 <1>   0.3200 
  6 C       -5.1030     1.2210     0.1690 C.3   1 <1>   0.1400 
  7 C       -2.5670     3.2520     0.8130 C.ar  1 <1>  -0.1500 
  8 C       -1.3200     2.2210    -0.8750 C.ar  1 <1>  -0.1500 
  9 C       -4.5810    -1.8710     0.6220 C.2   1 <1>   0.0070 
 10 C       -5.1510     0.8230    -1.3110 C.3   1 <1>   0.1200 
 11 C       -2.0920     4.4670     0.3540 C.ar  1 <1>   0.1660 
 12 C       -0.8970     3.4790    -1.2630 C.ar  1 <1>   0.1660 
 13 N       -5.7060    -2.4500     0.3440 N.2   1 <1>  -0.5650 
 14 N       -3.5310    -2.3680    -0.0630 N.pl3 1 <1>   0.0330 
 15 O       -6.2590     1.4110    -1.9020 O.3   1 <1>  -0.6800 
 16 N       -1.2700     4.5980    -0.6710 N.ar  1 <1>  -0.6200 
 17 C       -2.5060     5.7560     1.0320 C.3   1 <1>  -0.0970 
 18 C        0.0540     3.6390    -2.4300 C.3   1 <1>  -0.0970 
 19 C       -5.3670    -3.3820    -0.5700 C.2   1 <1>   0.0770 
 20 C       -4.0430    -3.3450    -0.8330 C.2   1 <1>  -0.3020 
 21 H       -5.3180    -0.5560     2.1330 H     1 <1>   0.0800 
 22 H       -3.6460    -0.9920     2.3240 H     1 <1>   0.0800 
 23 H       -4.9710     2.2850     0.2430 H     1 <1>   0.0800 
 24 H       -6.0400     0.9650     0.6340 H     1 <1>   0.0800 
 25 H       -3.2270     3.2140     1.6590 H     1 <1>   0.1500 
 26 H       -0.9750     1.3470    -1.3950 H     1 <1>   0.1500 
 27 H       -5.2360    -0.2430    -1.4310 H     1 <1>   0.0800 
 28 H       -4.2770     1.1800    -1.8260 H     1 <1>   0.0800 
 29 H       -2.5670    -2.0110     0.0060 H     1 <1>   0.2700 
 30 H       -7.0700     0.9150    -1.6730 H     1 <1>   0.4000 
 31 H       -3.1730     5.5700     1.8520 H     1 <1>   0.0800 
 32 H       -2.9980     6.3920     0.3190 H     1 <1>   0.0800 
 33 H       -1.6330     6.2630     1.4000 H     1 <1>   0.0800 
 34 H        0.3120     2.6870    -2.8560 H     1 <1>   0.0800 
 35 H        0.9510     4.1270    -2.0970 H     1 <1>   0.0800 
 36 H       -0.4090     4.2460    -3.1870 H     1 <1>   0.0800 
 37 H       -6.1060    -4.0400    -0.9970 H     1 <1>   0.1500 
 38 H       -3.4530    -3.9410    -1.5050 H     1 <1>   0.1500 
@<TRIPOS>BOND
  1   1   2  2   
  2   2   3  am  
  3   2   4  1   
  4   3   5  1   
  5   3   6  1   
  6   4   7  ar  
  7   4   8  ar  
  8   5   9  1   
  9   5  21  1   
 10   5  22  1   
 11   6  10  1   
 12   6  23  1   
 13   6  24  1   
 14   7  11  ar  
 15   7  25  1   
 16   8  12  ar  
 17   8  26  1   
 18   9  13  2   
 19   9  14  1   
 20  10  15  1   
 21  10  27  1   
 22  10  28  1   
 23  11  16  ar  
 24  11  17  1   
 25  12  16  ar  
 26  12  18  1   
 27  13  19  1   
 28  14  20  1   
 29  14  29  1   
 30  15  30  1   
 31  17  31  1   
 32  17  32  1   
 33  17  33  1   
 34  18  34  1   
 35  18  35  1   
 36  18  36  1   
 37  19  20  2   
 38  19  37  1   
 39  20  38  1   
@<TRIPOS>SUBSTRUCTURE
  1 ****   2 GROUP 4 **** **** 0

# MOE 2024.06 (io_trps.svl 2023.06)
