@<TRIPOS>MOLECULE
NONAME
45 47 1 0 0 
SMALL
USER_CHARGES


@<TRIPOS>ATOM
  1 F       -4.0720     0.9330    -1.6430 F     1 <1>  -0.1900 
  2 C       -3.4170     1.0070    -0.5150 C.ar  1 <1>   0.1900 
  3 C       -2.9420    -0.1590     0.0800 C.ar  1 <1>  -0.1440 
  4 C       -3.2320     2.2590     0.0390 C.ar  1 <1>  -0.1500 
  5 C       -2.2530    -0.0510     1.2830 C.ar  1 <1>  -0.1500 
  6 C       -3.1620    -1.5280    -0.5540 C.3   1 <1>  -0.0160 
  7 C       -2.5420     2.3210     1.2330 C.ar  1 <1>   0.1900 
  8 C       -2.0500     1.1930     1.8650 C.ar  1 <1>  -0.1500 
  9 C       -4.5600    -2.0620    -0.2240 C.3   1 <1>  -0.0990 
 10 F       -2.3480     3.4870     1.7860 F     1 <1>  -0.1900 
 11 C       -4.7530    -3.4620    -0.7640 C.2   1 <1>   0.5690 
 12 O       -4.8110    -3.6310    -1.9570 O.2   1 <1>  -0.5700 
 13 N       -4.8540    -4.4920     0.1090 N.am  1 <1>  -0.7300 
 14 C       -5.0480    -5.9050    -0.2820 C.3   1 <1>   0.2200 
 15 C       -6.5040    -6.2840    -0.0730 C.3   1 <1>  -0.0800 
 16 C       -4.3460    -6.8130     0.7210 C.3   1 <1>   0.1200 
 17 C       -6.5360    -6.6650     1.4130 C.3   1 <1>   0.1200 
 18 C       -6.9190    -7.4530    -0.9870 C.3   1 <1>  -0.0170 
 19 O       -5.2180    -6.9280     1.8030 O.3   1 <1>  -0.5600 
 20 C       -8.3870    -7.8070    -0.8040 C.ar  1 <1>  -0.1430 
 21 C       -8.7910    -8.9370    -0.1210 C.ar  1 <1>  -0.1500 
 22 C       -9.3920    -7.0120    -1.3160 C.ar  1 <1>  -0.1500 
 23 C      -10.1430    -9.2050     0.0170 C.ar  1 <1>   0.1600 
 24 C      -10.7150    -7.3710    -1.1220 C.ar  1 <1>   0.1600 
 25 N      -11.1150    -8.4490    -0.4660 N.ar  1 <1>  -0.6200 
 26 H       -3.6080     3.1440    -0.4380 H     1 <1>   0.1500 
 27 H       -1.8700    -0.9310     1.7710 H     1 <1>   0.1500 
 28 H       -3.0450    -1.4610    -1.6230 H     1 <1>   0.0800 
 29 H       -2.4190    -2.2190    -0.1940 H     1 <1>   0.0800 
 30 H       -1.5180     1.2900     2.7940 H     1 <1>   0.1500 
 31 H       -5.3030    -1.4230    -0.6670 H     1 <1>   0.0800 
 32 H       -4.7080    -2.0590     0.8400 H     1 <1>   0.0800 
 33 H       -4.8450    -4.3330     1.1180 H     1 <1>   0.3700 
 34 H       -4.7040    -6.0660    -1.2910 H     1 <1>   0.0800 
 35 H       -7.1520    -5.4480    -0.2700 H     1 <1>   0.0800 
 36 H       -3.4030    -6.4160     1.0530 H     1 <1>   0.0800 
 37 H       -4.2020    -7.7970     0.3100 H     1 <1>   0.0800 
 38 H       -7.1370    -7.5340     1.6120 H     1 <1>   0.0800 
 39 H       -6.8930    -5.8430     2.0090 H     1 <1>   0.0800 
 40 H       -6.3110    -8.3180    -0.7880 H     1 <1>   0.0800 
 41 H       -6.7600    -7.1740    -2.0140 H     1 <1>   0.0800 
 42 H       -8.0710    -9.6100     0.3060 H     1 <1>   0.1500 
 43 H       -9.1590    -6.1170    -1.8640 H     1 <1>   0.1500 
 44 H      -10.4410   -10.0900     0.5530 H     1 <1>   0.1500 
 45 H      -11.4860    -6.7390    -1.5290 H     1 <1>   0.1500 
@<TRIPOS>BOND
  1   1   2  1   
  2   2   3  ar  
  3   2   4  ar  
  4   3   5  ar  
  5   3   6  1   
  6   4   7  ar  
  7   4  26  1   
  8   5   8  ar  
  9   5  27  1   
 10   6   9  1   
 11   6  28  1   
 12   6  29  1   
 13   7   8  ar  
 14   7  10  1   
 15   8  30  1   
 16   9  11  1   
 17   9  31  1   
 18   9  32  1   
 19  11  12  2   
 20  11  13  am  
 21  13  14  1   
 22  13  33  1   
 23  14  15  1   
 24  14  16  1   
 25  14  34  1   
 26  15  17  1   
 27  15  18  1   
 28  15  35  1   
 29  16  19  1   
 30  16  36  1   
 31  16  37  1   
 32  17  19  1   
 33  17  38  1   
 34  17  39  1   
 35  18  20  1   
 36  18  40  1   
 37  18  41  1   
 38  20  21  ar  
 39  20  22  ar  
 40  21  23  ar  
 41  21  42  1   
 42  22  24  ar  
 43  22  43  1   
 44  23  25  ar  
 45  23  44  1   
 46  24  25  ar  
 47  24  45  1   
@<TRIPOS>SUBSTRUCTURE
  1 ****  13 GROUP 4 **** **** 0

# MOE 2024.06 (io_trps.svl 2023.06)
