@<TRIPOS>MOLECULE
NONAME
50 53 1 0 0 
SMALL
USER_CHARGES


@<TRIPOS>ATOM
  1 O        0.6220    -0.1070    -0.9070 O.2   1 <1>  -0.5700 
  2 C        1.2630    -1.0110    -0.4280 C.2   1 <1>   0.5690 
  3 N        0.7960    -1.8260     0.5660 N.am  1 <1>  -0.6600 
  4 C        2.6580    -1.2850    -0.9540 C.3   1 <1>  -0.0990 
  5 C        1.6570    -2.8930     1.1270 C.3   1 <1>   0.1400 
  6 C       -0.5400    -1.6370     1.1940 C.3   1 <1>   0.0600 
  7 C        2.8370    -2.7960    -1.1970 C.3   1 <1>  -0.0800 
  8 C        2.3510    -3.6680    -0.0150 C.3   1 <1>  -0.0800 
  9 C        4.2910    -3.1940    -1.4880 C.3   1 <1>  -0.1600 
 10 C        3.5760    -4.4620     0.4590 C.3   1 <1>  -0.1600 
 11 C        4.4810    -4.5240    -0.7710 C.3   1 <1>   0.4230 
 12 N        5.9230    -4.8540    -0.5250 N.4   1 <1>  -0.9590 
 13 C        6.5510    -4.3860     0.7610 C.3   1 <1>   0.5230 
 14 C        6.1200    -6.3290    -0.6680 C.3   1 <1>   0.2630 
 15 C        6.7720    -2.8870     0.7850 C.2   1 <1>  -0.0400 
 16 O        5.8190    -2.1060     1.2050 O.3   1 <1>  -0.0190 
 17 C        7.8170    -2.1120     0.4600 C.2   1 <1>  -0.1500 
 18 N        6.1560    -0.8570     1.1600 N.2   1 <1>  -0.4100 
 19 C        7.3770    -0.8060     0.7210 C.2   1 <1>   0.2350 
 20 C        8.1430     0.4100     0.5310 C.ar  1 <1>   0.0540 
 21 C        7.5170     1.6590     0.5230 C.ar  1 <1>   0.1600 
 22 C        9.5210     0.4030     0.3500 C.ar  1 <1>  -0.1500 
 23 N        8.1140     2.8280     0.3490 N.ar  1 <1>  -0.6200 
 24 C       10.1610     1.6090     0.1680 C.ar  1 <1>  -0.1500 
 25 C        9.4230     2.7780     0.1750 C.ar  1 <1>   0.1600 
 26 H        2.8080    -0.7390    -1.8670 H     1 <1>   0.0800 
 27 H        3.3610    -0.9260    -0.2250 H     1 <1>   0.0800 
 28 H        2.3880    -2.4270     1.7660 H     1 <1>   0.0800 
 29 H        1.0690    -3.5700     1.7240 H     1 <1>   0.0800 
 30 H       -1.1270    -2.5310     1.0770 H     1 <1>   0.0800 
 31 H       -1.0640    -0.8190     0.7280 H     1 <1>   0.0800 
 32 H       -0.4240    -1.4190     2.2400 H     1 <1>   0.0800 
 33 H        2.2320    -3.0520    -2.0530 H     1 <1>   0.0800 
 34 H        1.6300    -4.3680    -0.4060 H     1 <1>   0.0800 
 35 H        4.9550    -2.4400    -1.1160 H     1 <1>   0.0800 
 36 H        4.4450    -3.2990    -2.5470 H     1 <1>   0.0800 
 37 H        3.2910    -5.4440     0.7940 H     1 <1>   0.0800 
 38 H        4.0320    -3.9240     1.2670 H     1 <1>   0.0800 
 39 H        4.0650    -5.2740    -1.4260 H     1 <1>   0.0800 
 40 H        6.4430    -4.3880    -1.2800 H     1 <1>   0.4500 
 41 H        5.9510    -4.6800     1.6070 H     1 <1>   0.0800 
 42 H        7.5140    -4.8580     0.8680 H     1 <1>   0.0800 
 43 H        5.5800    -6.8580     0.1010 H     1 <1>   0.0800 
 44 H        7.1660    -6.5810    -0.5910 H     1 <1>   0.0800 
 45 H        5.7610    -6.6630    -1.6290 H     1 <1>   0.0800 
 46 H        8.7860    -2.3830     0.0840 H     1 <1>   0.1500 
 47 H        6.4510     1.6900     0.6700 H     1 <1>   0.1500 
 48 H       10.0890    -0.5090     0.3540 H     1 <1>   0.1500 
 49 H       11.2260     1.6500     0.0240 H     1 <1>   0.1500 
 50 H        9.9320     3.7170     0.0320 H     1 <1>   0.1500 
@<TRIPOS>BOND
  1   1   2  2   
  2   2   3  am  
  3   2   4  1   
  4   3   5  1   
  5   3   6  1   
  6   4   7  1   
  7   4  26  1   
  8   4  27  1   
  9   5   8  1   
 10   5  28  1   
 11   5  29  1   
 12   6  30  1   
 13   6  31  1   
 14   6  32  1   
 15   7   8  1   
 16   7   9  1   
 17   7  33  1   
 18   8  10  1   
 19   8  34  1   
 20   9  11  1   
 21   9  35  1   
 22   9  36  1   
 23  10  11  1   
 24  10  37  1   
 25  10  38  1   
 26  11  12  1   
 27  11  39  1   
 28  12  13  1   
 29  12  14  1   
 30  12  40  1   
 31  13  15  1   
 32  13  41  1   
 33  13  42  1   
 34  14  43  1   
 35  14  44  1   
 36  14  45  1   
 37  15  16  1   
 38  15  17  2   
 39  16  18  1   
 40  17  19  1   
 41  17  46  1   
 42  18  19  2   
 43  19  20  1   
 44  20  21  ar  
 45  20  22  ar  
 46  21  23  ar  
 47  21  47  1   
 48  22  24  ar  
 49  22  48  1   
 50  23  25  ar  
 51  24  25  ar  
 52  24  49  1   
 53  25  50  1   
@<TRIPOS>SUBSTRUCTURE
  1 ****  16 GROUP 4 **** **** 0

# MOE 2024.06 (io_trps.svl 2023.06)
