@<TRIPOS>MOLECULE
NONAME
56 58 1 0 0 
SMALL
USER_CHARGES


@<TRIPOS>ATOM
  1 O        2.8570     1.6780     0.2730 O.2   1 <1>  -0.5700 
  2 C        2.9060     0.5560    -0.1750 C.2   1 <1>   0.5690 
  3 N        2.8210     0.3250    -1.5270 N.am  1 <1>  -0.6600 
  4 C        3.1160    -0.5660     0.8320 C.3   1 <1>  -0.0990 
  5 C        2.9440    -1.0180    -2.1780 C.3   1 <1>   0.1400 
  6 C        2.8670     1.4650    -2.4810 C.3   1 <1>   0.1400 
  7 C        1.8490    -0.8890     1.6440 C.3   1 <1>  -0.0800 
  8 C        4.3990    -1.4180    -2.5050 C.3   1 <1>   0.1400 
  9 C        4.3150     1.9120    -2.7300 C.3   1 <1>  -0.1600 
 10 C        2.1730    -1.8990     2.7580 C.3   1 <1>   0.1200 
 11 C        0.7110    -1.4250     0.7580 C.3   1 <1>  -0.1600 
 12 N        5.3840    -0.3100    -2.2900 N.am  1 <1>  -0.6600 
 13 C        5.2510     0.8140    -3.2610 C.3   1 <1>   0.1400 
 14 O        1.0180    -2.1970     3.4820 O.3   1 <1>  -0.5600 
 15 C       -0.4660    -1.8630     1.6370 C.3   1 <1>  -0.1600 
 16 C        6.1690    -0.3050    -1.1620 C.2   1 <1>   0.5690 
 17 C        0.0050    -2.8100     2.7460 C.3   1 <1>   0.1200 
 18 O        6.1710    -1.2370    -0.3910 O.2   1 <1>  -0.5700 
 19 C        7.0340     0.8790    -0.7800 C.3   1 <1>  -0.0990 
 20 C        6.4650     1.5320     0.4840 C.3   1 <1>   0.0960 
 21 N        7.0610     2.8630     0.7180 N.pl3 1 <1>   0.3140 
 22 N        8.3960     3.0500     0.7090 N.2   1 <1>  -0.7070 
 23 C        6.4080     4.0250     0.9610 C.2   1 <1>  -0.3320 
 24 C        8.5590     4.3140     0.9440 C.2   1 <1>   0.1390 
 25 C        7.3510     4.9780     1.1110 C.2   1 <1>  -0.1500 
 26 C        4.8970     4.1800     1.0450 C.3   1 <1>  -0.0600 
 27 H        3.8810    -0.2350     1.5110 H     1 <1>   0.0800 
 28 H        3.4950    -1.4510     0.3620 H     1 <1>   0.0800 
 29 H        2.3750    -1.0160    -3.0900 H     1 <1>   0.0800 
 30 H        2.5030    -1.7730    -1.5550 H     1 <1>   0.0800 
 31 H        2.3060     2.2910    -2.0750 H     1 <1>   0.0800 
 32 H        2.4020     1.1840    -3.4090 H     1 <1>   0.0800 
 33 H        1.5190     0.0210     2.1190 H     1 <1>   0.0800 
 34 H        4.4560    -1.7500    -3.5270 H     1 <1>   0.0800 
 35 H        4.6620    -2.2680    -1.8990 H     1 <1>   0.0800 
 36 H        4.7150     2.3270    -1.8240 H     1 <1>   0.0800 
 37 H        4.2940     2.7100    -3.4490 H     1 <1>   0.0800 
 38 H        2.8880    -1.4830     3.4460 H     1 <1>   0.0800 
 39 H        2.5690    -2.8150     2.3540 H     1 <1>   0.0800 
 40 H        1.0590    -2.2740     0.1970 H     1 <1>   0.0800 
 41 H        0.3850    -0.6670     0.0670 H     1 <1>   0.0800 
 42 H        6.2210     1.2280    -3.4720 H     1 <1>   0.0800 
 43 H        4.8650     0.4370    -4.1930 H     1 <1>   0.0800 
 44 H       -1.2100    -2.3540     1.0350 H     1 <1>   0.0800 
 45 H       -0.9240    -1.0020     2.0910 H     1 <1>   0.0800 
 46 H       -0.8030    -3.0320     3.4220 H     1 <1>   0.0800 
 47 H        0.3860    -3.7320     2.3400 H     1 <1>   0.0800 
 48 H        7.0940     1.6030    -1.5660 H     1 <1>   0.0800 
 49 H        8.0290     0.5250    -0.5770 H     1 <1>   0.0800 
 50 H        6.6610     0.9130     1.3390 H     1 <1>   0.0800 
 51 H        5.4040     1.6480     0.3840 H     1 <1>   0.0800 
 52 H        9.5260     4.7850     1.0030 H     1 <1>   0.1500 
 53 H        7.2290     6.0260     1.3150 H     1 <1>   0.1500 
 54 H        4.4940     3.5270     1.7990 H     1 <1>   0.0800 
 55 H        4.4420     3.9400     0.1020 H     1 <1>   0.0800 
 56 H        4.6400     5.1920     1.2990 H     1 <1>   0.0800 
@<TRIPOS>BOND
  1   1   2  2   
  2   2   3  am  
  3   2   4  1   
  4   3   5  1   
  5   3   6  1   
  6   4   7  1   
  7   4  27  1   
  8   4  28  1   
  9   5   8  1   
 10   5  29  1   
 11   5  30  1   
 12   6   9  1   
 13   6  31  1   
 14   6  32  1   
 15   7  10  1   
 16   7  11  1   
 17   7  33  1   
 18   8  12  1   
 19   8  34  1   
 20   8  35  1   
 21   9  13  1   
 22   9  36  1   
 23   9  37  1   
 24  10  14  1   
 25  10  38  1   
 26  10  39  1   
 27  11  15  1   
 28  11  40  1   
 29  11  41  1   
 30  12  13  1   
 31  12  16  am  
 32  13  42  1   
 33  13  43  1   
 34  14  17  1   
 35  15  17  1   
 36  15  44  1   
 37  15  45  1   
 38  16  18  2   
 39  16  19  1   
 40  17  46  1   
 41  17  47  1   
 42  19  20  1   
 43  19  48  1   
 44  19  49  1   
 45  20  21  1   
 46  20  50  1   
 47  20  51  1   
 48  21  22  1   
 49  21  23  1   
 50  22  24  2   
 51  23  25  2   
 52  23  26  1   
 53  24  25  1   
 54  24  52  1   
 55  25  53  1   
 56  26  54  1   
 57  26  55  1   
 58  26  56  1   
@<TRIPOS>SUBSTRUCTURE
  1 ****   2 GROUP 4 **** **** 0

# MOE 2024.06 (io_trps.svl 2023.06)
