@<TRIPOS>MOLECULE
NONAME
46 47 1 0 0 
SMALL
USER_CHARGES


@<TRIPOS>ATOM
  1 S        0.8200     0.2740    -1.7750 S.o2  1 <1>   1.3330 
  2 O        1.2490    -1.0350    -2.2120 O.2   1 <1>  -0.6500 
  3 O        0.0350     1.1070    -2.6580 O.2   1 <1>  -0.6500 
  4 N       -0.0720     0.0800    -0.3410 N.am  1 <1>  -0.8490 
  5 C        2.2740     1.1820    -1.2460 C.3   1 <1>  -0.0550 
  6 C       -0.8950    -1.1340    -0.3610 C.3   1 <1>   0.1160 
  7 C       -0.9130     1.2390    -0.0200 C.3   1 <1>   0.1160 
  8 C        3.2400     0.3680    -0.3570 C.3   1 <1>  -0.0800 
  9 C        4.5630     1.0530    -0.0490 C.3   1 <1>   0.2200 
 10 C        2.7080     0.0150     1.0390 C.3   1 <1>   0.1200 
 11 N        4.3510     2.4760     0.3020 N.am  1 <1>  -0.7300 
 12 C        4.9700     0.3040     1.2120 C.3   1 <1>   0.1200 
 13 O        3.7820     0.1510     1.9250 O.3   1 <1>  -0.5600 
 14 C        4.5390     3.5420    -0.5200 C.2   1 <1>   0.7160 
 15 O        4.8480     3.3280    -1.6750 O.2   1 <1>  -0.5700 
 16 C        4.3590     4.8770    -0.0130 C.2   1 <1>  -0.0860 
 17 C        5.0580     6.0190    -0.3840 C.2   1 <1>   0.1080 
 18 C        3.5190     5.3790     0.9210 C.2   1 <1>  -0.0400 
 19 N        4.6510     7.0310     0.2860 N.2   1 <1>  -0.4100 
 20 C        6.1660     6.1100    -1.4220 C.3   1 <1>   0.0210 
 21 O        3.6970     6.6640     1.1080 O.3   1 <1>  -0.0190 
 22 C        2.4320     4.7110     1.7430 C.3   1 <1>  -0.0600 
 23 C        7.4660     5.4740    -0.9180 C.3   1 <1>  -0.2400 
 24 H        2.8120     1.4880    -2.1230 H     1 <1>   0.0800 
 25 H        1.9670     2.0720    -0.7350 H     1 <1>   0.0800 
 26 H       -1.4400    -1.2330     0.5620 H     1 <1>   0.0800 
 27 H       -0.2680    -2.0030    -0.4750 H     1 <1>   0.0800 
 28 H       -1.5910    -1.1010    -1.1840 H     1 <1>   0.0800 
 29 H       -1.3800     1.1030     0.9410 H     1 <1>   0.0800 
 30 H       -1.6800     1.3670    -0.7670 H     1 <1>   0.0800 
 31 H       -0.3150     2.1340     0.0160 H     1 <1>   0.0800 
 32 H        3.4620    -0.5570    -0.8610 H     1 <1>   0.0800 
 33 H        5.2850     0.9530    -0.8430 H     1 <1>   0.0800 
 34 H        2.3430    -0.9980     1.0820 H     1 <1>   0.0800 
 35 H        1.9360     0.6920     1.3600 H     1 <1>   0.0800 
 36 H        4.1330     2.6340     1.2880 H     1 <1>   0.3700 
 37 H        5.6890     0.8380     1.8070 H     1 <1>   0.0800 
 38 H        5.3440    -0.6770     0.9740 H     1 <1>   0.0800 
 39 H        5.8490     5.6310    -2.3310 H     1 <1>   0.0800 
 40 H        6.3450     7.1470    -1.6470 H     1 <1>   0.0800 
 41 H        2.2610     3.7000     1.4260 H     1 <1>   0.0800 
 42 H        1.5140     5.2600     1.6330 H     1 <1>   0.0800 
 43 H        2.7090     4.7140     2.7820 H     1 <1>   0.0800 
 44 H        7.3250     4.4250    -0.7320 H     1 <1>   0.0800 
 45 H        7.7800     5.9510    -0.0060 H     1 <1>   0.0800 
 46 H        8.2420     5.5910    -1.6530 H     1 <1>   0.0800 
@<TRIPOS>BOND
  1   1   2  2   
  2   1   3  2   
  3   1   4  am  
  4   1   5  1   
  5   4   6  1   
  6   4   7  1   
  7   5   8  1   
  8   5  24  1   
  9   5  25  1   
 10   6  26  1   
 11   6  27  1   
 12   6  28  1   
 13   7  29  1   
 14   7  30  1   
 15   7  31  1   
 16   8   9  1   
 17   8  10  1   
 18   8  32  1   
 19   9  11  1   
 20   9  12  1   
 21   9  33  1   
 22  10  13  1   
 23  10  34  1   
 24  10  35  1   
 25  11  14  am  
 26  11  36  1   
 27  12  13  1   
 28  12  37  1   
 29  12  38  1   
 30  14  15  2   
 31  14  16  1   
 32  16  17  1   
 33  16  18  2   
 34  17  19  2   
 35  17  20  1   
 36  18  21  1   
 37  18  22  1   
 38  19  21  1   
 39  20  23  1   
 40  20  39  1   
 41  20  40  1   
 42  22  41  1   
 43  22  42  1   
 44  22  43  1   
 45  23  44  1   
 46  23  45  1   
 47  23  46  1   
@<TRIPOS>SUBSTRUCTURE
  1 ****  11 GROUP 4 **** **** 0

# MOE 2024.06 (io_trps.svl 2023.06)
