@<TRIPOS>MOLECULE
NONAME
45 47 1 0 0 
SMALL
USER_CHARGES


@<TRIPOS>ATOM
  1 CL      -0.9930     1.5390     2.4860 Cl    1 <1>  -0.1770 
  2 C       -0.1230     2.9610     1.9750 C.ar  1 <1>   0.1770 
  3 C       -0.0660     3.2990     0.6340 C.ar  1 <1>   0.1600 
  4 C        0.5110     3.7480     2.9080 C.ar  1 <1>  -0.1500 
  5 N        0.5720     4.3580     0.1580 N.ar  1 <1>  -0.6200 
  6 C        1.1740     4.8550     2.4220 C.ar  1 <1>  -0.1500 
  7 C        1.1920     5.1510     1.0540 C.ar  1 <1>   0.3960 
  8 C        1.9100     6.3430     0.5900 C.2   1 <1>   0.5440 
  9 O        2.8590     6.7940     1.2100 O.2   1 <1>  -0.5700 
 10 N        1.6190     6.9880    -0.5940 N.am  1 <1>  -0.6600 
 11 C        2.0670     6.3900    -1.8880 C.3   1 <1>   0.1400 
 12 C        1.3350     8.4500    -0.6220 C.3   1 <1>   0.1400 
 13 C        3.6070     6.4200    -2.0130 C.3   1 <1>   0.3430 
 14 C        2.6140     9.3050    -0.6110 C.3   1 <1>  -0.1600 
 15 N        4.2090     7.5370    -1.2170 N.4   1 <1>  -0.9590 
 16 C        3.7000     8.8810    -1.6020 C.3   1 <1>   0.3430 
 17 C        5.7060     7.4640    -1.1030 C.3   1 <1>   0.5240 
 18 C        6.2570     8.3050     0.0520 C.2   1 <1>   0.3350 
 19 N        6.7590     7.8140     1.1120 N.2   1 <1>  -0.4100 
 20 N        6.2410     9.6330     0.0390 N.2   1 <1>  -0.5650 
 21 O        7.1050     8.8100     1.8690 O.3   1 <1>  -0.0190 
 22 C        6.7670     9.8690     1.1750 C.2   1 <1>   0.2980 
 23 C        7.0240    11.2430     1.7680 C.3   1 <1>   0.0200 
 24 C        6.1070    11.5270     2.9640 C.3   1 <1>  -0.2400 
 25 H       -0.5730     2.6610    -0.0690 H     1 <1>   0.1500 
 26 H        0.4830     3.5030     3.9550 H     1 <1>   0.1500 
 27 H        1.6890     5.5080     3.1060 H     1 <1>   0.1500 
 28 H        1.6280     6.9330    -2.7060 H     1 <1>   0.0800 
 29 H        1.7220     5.3730    -1.9640 H     1 <1>   0.0800 
 30 H        0.7350     8.7050     0.2360 H     1 <1>   0.0800 
 31 H        0.7500     8.6760    -1.4980 H     1 <1>   0.0800 
 32 H        3.8840     6.5000    -3.0520 H     1 <1>   0.0800 
 33 H        3.9860     5.4810    -1.6430 H     1 <1>   0.0800 
 34 H        3.0280     9.3210     0.3830 H     1 <1>   0.0800 
 35 H        2.3330    10.3180    -0.8350 H     1 <1>   0.0800 
 36 H        3.8410     7.3930    -0.2480 H     1 <1>   0.4500 
 37 H        4.4980     9.6050    -1.5720 H     1 <1>   0.0800 
 38 H        3.3030     8.8620    -2.6040 H     1 <1>   0.0800 
 39 H        6.1610     7.7940    -2.0200 H     1 <1>   0.0800 
 40 H        6.0010     6.4440    -0.9270 H     1 <1>   0.0800 
 41 H        6.8610    11.9880     1.0090 H     1 <1>   0.0800 
 42 H        8.0530    11.3030     2.0760 H     1 <1>   0.0800 
 43 H        5.0750    11.4710     2.6640 H     1 <1>   0.0800 
 44 H        6.3000    12.5110     3.3530 H     1 <1>   0.0800 
 45 H        6.2780    10.8090     3.7470 H     1 <1>   0.0800 
@<TRIPOS>BOND
  1   1   2  1   
  2   2   3  ar  
  3   2   4  ar  
  4   3   5  ar  
  5   3  25  1   
  6   4   6  ar  
  7   4  26  1   
  8   5   7  ar  
  9   6   7  ar  
 10   6  27  1   
 11   7   8  1   
 12   8   9  2   
 13   8  10  am  
 14  10  11  1   
 15  10  12  1   
 16  11  13  1   
 17  11  28  1   
 18  11  29  1   
 19  12  14  1   
 20  12  30  1   
 21  12  31  1   
 22  13  15  1   
 23  13  32  1   
 24  13  33  1   
 25  14  16  1   
 26  14  34  1   
 27  14  35  1   
 28  15  16  1   
 29  15  17  1   
 30  15  36  1   
 31  16  37  1   
 32  16  38  1   
 33  17  18  1   
 34  17  39  1   
 35  17  40  1   
 36  18  19  2   
 37  18  20  1   
 38  19  21  1   
 39  20  22  2   
 40  21  22  1   
 41  22  23  1   
 42  23  24  1   
 43  23  41  1   
 44  23  42  1   
 45  24  43  1   
 46  24  44  1   
 47  24  45  1   
@<TRIPOS>SUBSTRUCTURE
  1 ****   9 GROUP 4 **** **** 0

# MOE 2024.06 (io_trps.svl 2023.06)
