@<TRIPOS>MOLECULE
NONAME
55 57 1 0 0 
SMALL
USER_CHARGES


@<TRIPOS>ATOM
  1 S        0.0680     0.1100     0.6530 S.o2  1 <1>   1.3330 
  2 O       -1.0360    -0.8140     0.7720 O.2   1 <1>  -0.6500 
  3 O        0.8860     0.4020     1.8090 O.2   1 <1>  -0.6500 
  4 N        1.0900    -0.4680    -0.5750 N.am  1 <1>  -0.8490 
  5 C       -0.5340     1.6630    -0.0140 C.3   1 <1>  -0.0550 
  6 C        2.1420    -1.3440    -0.0500 C.3   1 <1>   0.1160 
  7 C        0.3690    -1.1540    -1.6530 C.3   1 <1>   0.1160 
  8 C        0.5770     2.6850    -0.3390 C.3   1 <1>  -0.0800 
  9 C        0.0950     3.9000    -1.1360 C.3   1 <1>   0.2000 
 10 C        1.2620     3.2860     0.8980 C.3   1 <1>   0.1400 
 11 O       -1.0950     4.3560    -0.5900 O.3   1 <1>  -0.6800 
 12 C        1.1710     4.9520    -0.8780 C.3   1 <1>   0.1400 
 13 N        1.6100     4.6770     0.5130 N.am  1 <1>  -0.6600 
 14 C        1.9780     5.6450     1.4220 C.2   1 <1>   0.5440 
 15 O        1.9840     5.3510     2.6040 O.2   1 <1>  -0.5700 
 16 C        2.3000     6.9880     1.0060 C.ar  1 <1>   0.0860 
 17 C        3.3680     7.2640     0.1050 C.ar  1 <1>   0.0000 
 18 C        1.5340     8.0380     1.4680 C.ar  1 <1>  -0.1500 
 19 C        3.5500     8.5830    -0.3800 C.ar  1 <1>   0.0000 
 20 C        4.2690     6.2650    -0.3330 C.ar  1 <1>  -0.1500 
 21 C        1.7460     9.3380     1.0350 C.ar  1 <1>  -0.1500 
 22 C        2.7300     9.6350     0.1200 C.ar  1 <1>   0.1000 
 23 C        4.5500     8.8040    -1.3510 C.ar  1 <1>  -0.1500 
 24 C        5.2470     6.5230    -1.2530 C.ar  1 <1>  -0.1500 
 25 N        2.9200    10.9520    -0.2730 N.pl3 1 <1>  -0.8380 
 26 C        5.3810     7.8070    -1.7800 C.ar  1 <1>  -0.1500 
 27 C        1.7790    11.7790    -0.7440 C.3   1 <1>   0.1290 
 28 C        4.0960    11.6990     0.2440 C.3   1 <1>   0.1290 
 29 H       -1.0830     1.4600    -0.9120 H     1 <1>   0.0800 
 30 H       -1.2210     2.0970     0.6860 H     1 <1>   0.0800 
 31 H        2.7780    -1.6870    -0.8480 H     1 <1>   0.0800 
 32 H        1.7060    -2.1950     0.4480 H     1 <1>   0.0800 
 33 H        2.7520    -0.8060     0.6570 H     1 <1>   0.0800 
 34 H        1.0510    -1.4220    -2.4420 H     1 <1>   0.0800 
 35 H       -0.3890    -0.5100    -2.0640 H     1 <1>   0.0800 
 36 H       -0.1030    -2.0490    -1.2810 H     1 <1>   0.0800 
 37 H        1.3380     2.1980    -0.9240 H     1 <1>   0.0800 
 38 H       -0.0600     3.6980    -2.1820 H     1 <1>   0.0800 
 39 H        2.1480     2.7350     1.1680 H     1 <1>   0.0800 
 40 H        0.5930     3.3080     1.7430 H     1 <1>   0.0800 
 41 H       -0.9110     4.7060     0.3060 H     1 <1>   0.4000 
 42 H        0.7890     5.9510    -0.9990 H     1 <1>   0.0800 
 43 H        2.0020     4.8010    -1.5450 H     1 <1>   0.0800 
 44 H        0.7500     7.8440     2.1790 H     1 <1>   0.1500 
 45 H        4.1860     5.2710     0.0700 H     1 <1>   0.1500 
 46 H        1.1330    10.1280     1.4290 H     1 <1>   0.1500 
 47 H        4.6520     9.7930    -1.7590 H     1 <1>   0.1500 
 48 H        5.9210     5.7490    -1.5790 H     1 <1>   0.1500 
 49 H        6.1410     7.9990    -2.5170 H     1 <1>   0.1500 
 50 H        2.0900    12.3850    -1.5770 H     1 <1>   0.0800 
 51 H        1.4320    12.4150     0.0510 H     1 <1>   0.0800 
 52 H        0.9720    11.1420    -1.0640 H     1 <1>   0.0800 
 53 H        4.5740    12.2280    -0.5620 H     1 <1>   0.0800 
 54 H        4.8040    11.0160     0.6810 H     1 <1>   0.0800 
 55 H        3.7830    12.4020     0.9960 H     1 <1>   0.0800 
@<TRIPOS>BOND
  1   1   2  2   
  2   1   3  2   
  3   1   4  am  
  4   1   5  1   
  5   4   6  1   
  6   4   7  1   
  7   5   8  1   
  8   5  29  1   
  9   5  30  1   
 10   6  31  1   
 11   6  32  1   
 12   6  33  1   
 13   7  34  1   
 14   7  35  1   
 15   7  36  1   
 16   8   9  1   
 17   8  10  1   
 18   8  37  1   
 19   9  11  1   
 20   9  12  1   
 21   9  38  1   
 22  10  13  1   
 23  10  39  1   
 24  10  40  1   
 25  11  41  1   
 26  12  13  1   
 27  12  42  1   
 28  12  43  1   
 29  13  14  am  
 30  14  15  2   
 31  14  16  1   
 32  16  17  ar  
 33  16  18  ar  
 34  17  19  ar  
 35  17  20  ar  
 36  18  21  ar  
 37  18  44  1   
 38  19  22  ar  
 39  19  23  ar  
 40  20  24  ar  
 41  20  45  1   
 42  21  22  ar  
 43  21  46  1   
 44  22  25  1   
 45  23  26  ar  
 46  23  47  1   
 47  24  26  ar  
 48  24  48  1   
 49  25  27  1   
 50  25  28  1   
 51  26  49  1   
 52  27  50  1   
 53  27  51  1   
 54  27  52  1   
 55  28  53  1   
 56  28  54  1   
 57  28  55  1   
@<TRIPOS>SUBSTRUCTURE
  1 ****  13 GROUP 4 **** **** 0

# MOE 2024.06 (io_trps.svl 2023.06)
