@<TRIPOS>MOLECULE
NONAME
50 53 1 0 0 
SMALL
USER_CHARGES


@<TRIPOS>ATOM
  1 F       -1.4900    -0.0530     1.2350 F     1 <1>  -0.1900 
  2 C       -2.2400    -1.1170     1.3270 C.ar  1 <1>   0.1900 
  3 C       -2.3820    -1.9260     0.2180 C.ar  1 <1>  -0.1500 
  4 C       -2.8610    -1.3880     2.5300 C.ar  1 <1>  -0.1500 
  5 C       -3.1860    -3.0580     0.3180 C.ar  1 <1>   0.0830 
  6 C       -3.6590    -2.5160     2.6260 C.ar  1 <1>  -0.1500 
  7 O       -3.3930    -3.9030    -0.7280 O.3   1 <1>  -0.3630 
  8 C       -3.8230    -3.3500     1.5260 C.ar  1 <1>  -0.1440 
  9 C       -2.5970    -3.8230    -1.8950 C.3   1 <1>   0.0400 
 10 C       -4.7040    -4.5820     1.6480 C.3   1 <1>   0.4870 
 11 N       -5.7920    -4.4790     0.6460 N.4   1 <1>  -0.9590 
 12 C       -6.6930    -3.3080     0.9160 C.3   1 <1>   0.3430 
 13 C       -6.5530    -5.7450     0.4860 C.3   1 <1>   0.3430 
 14 C       -7.6890    -3.0900    -0.2340 C.3   1 <1>   0.1440 
 15 C       -7.5360    -5.6050    -0.6810 C.3   1 <1>  -0.1600 
 16 C       -8.6360    -1.9840     0.1620 C.ar  1 <1>   0.1670 
 17 C       -8.4700    -4.3910    -0.5170 C.3   1 <1>  -0.1600 
 18 C       -7.0170    -2.5180    -1.5120 C.3   1 <1>  -0.1600 
 19 N       -9.2470    -1.9080     1.3210 N.ar  1 <1>  -0.6200 
 20 C       -8.7730    -1.0550    -0.8240 C.ar  1 <1>  -0.1430 
 21 C       -7.9400    -1.3980    -2.0330 C.3   1 <1>  -0.0170 
 22 C      -10.0330    -0.8450     1.4480 C.ar  1 <1>   0.4770 
 23 C       -9.6080     0.0070    -0.5830 C.ar  1 <1>   0.1600 
 24 N      -10.2470     0.1200     0.5640 N.ar  1 <1>  -0.6200 
 25 C      -10.7700    -0.7100     2.7590 C.3   1 <1>  -0.0970 
 26 H       -1.8690    -1.6510    -0.6830 H     1 <1>   0.1500 
 27 H       -2.7190    -0.7280     3.3680 H     1 <1>   0.1500 
 28 H       -4.1420    -2.7300     3.5650 H     1 <1>   0.1500 
 29 H       -2.8560    -4.6450    -2.5400 H     1 <1>   0.0800 
 30 H       -1.5590    -3.8940    -1.6200 H     1 <1>   0.0800 
 31 H       -2.7950    -2.8920    -2.3970 H     1 <1>   0.0800 
 32 H       -5.1140    -4.6550     2.6410 H     1 <1>   0.0800 
 33 H       -4.1060    -5.4580     1.4530 H     1 <1>   0.0800 
 34 H       -5.2860    -4.2840    -0.2350 H     1 <1>   0.4500 
 35 H       -6.1130    -2.4090     1.0470 H     1 <1>   0.0800 
 36 H       -7.2490    -3.4790     1.8230 H     1 <1>   0.0800 
 37 H       -7.0990    -5.9590     1.3910 H     1 <1>   0.0800 
 38 H       -5.8780    -6.5640     0.2920 H     1 <1>   0.0800 
 39 H       -8.1310    -6.5000    -0.7420 H     1 <1>   0.0800 
 40 H       -6.9840    -5.5320    -1.6020 H     1 <1>   0.0800 
 41 H       -9.0820    -4.2720    -1.3960 H     1 <1>   0.0800 
 42 H       -9.1380    -4.5800     0.3080 H     1 <1>   0.0800 
 43 H       -6.8480    -3.2620    -2.2690 H     1 <1>   0.0800 
 44 H       -6.0700    -2.0740    -1.2550 H     1 <1>   0.0800 
 45 H       -8.5790    -1.7620    -2.8190 H     1 <1>   0.0800 
 46 H       -7.3780    -0.5490    -2.3840 H     1 <1>   0.0800 
 47 H       -9.7560     0.7710    -1.3270 H     1 <1>   0.1500 
 48 H      -10.8840    -1.6710     3.2250 H     1 <1>   0.0800 
 49 H      -11.7430    -0.2890     2.5890 H     1 <1>   0.0800 
 50 H      -10.2170    -0.0620     3.4120 H     1 <1>   0.0800 
@<TRIPOS>BOND
  1   1   2  1   
  2   2   3  ar  
  3   2   4  ar  
  4   3   5  ar  
  5   3  26  1   
  6   4   6  ar  
  7   4  27  1   
  8   5   7  1   
  9   5   8  ar  
 10   6   8  ar  
 11   6  28  1   
 12   7   9  1   
 13   8  10  1   
 14   9  29  1   
 15   9  30  1   
 16   9  31  1   
 17  10  11  1   
 18  10  32  1   
 19  10  33  1   
 20  11  12  1   
 21  11  13  1   
 22  11  34  1   
 23  12  14  1   
 24  12  35  1   
 25  12  36  1   
 26  13  15  1   
 27  13  37  1   
 28  13  38  1   
 29  14  16  1   
 30  14  17  1   
 31  14  18  1   
 32  15  17  1   
 33  15  39  1   
 34  15  40  1   
 35  16  19  ar  
 36  16  20  ar  
 37  17  41  1   
 38  17  42  1   
 39  18  21  1   
 40  18  43  1   
 41  18  44  1   
 42  19  22  ar  
 43  20  21  1   
 44  20  23  ar  
 45  21  45  1   
 46  21  46  1   
 47  22  24  ar  
 48  22  25  1   
 49  23  24  ar  
 50  23  47  1   
 51  25  48  1   
 52  25  49  1   
 53  25  50  1   
@<TRIPOS>SUBSTRUCTURE
  1 ****  12 GROUP 4 **** **** 0

# MOE 2024.06 (io_trps.svl 2023.06)
