@<TRIPOS>MOLECULE
NONAME
44 45 1 0 0 
SMALL
USER_CHARGES


@<TRIPOS>ATOM
  1 CL      -1.8750    -1.4680    -3.7060 Cl    1 <1>  -0.1770 
  2 C       -2.2970    -1.6350    -2.0230 C.ar  1 <1>   0.1770 
  3 C       -2.3740    -0.5070    -1.2320 C.ar  1 <1>  -0.1500 
  4 C       -2.5530    -2.8950    -1.5130 C.ar  1 <1>  -0.1500 
  5 C       -2.7150    -0.6870     0.0930 C.ar  1 <1>   0.1900 
  6 C       -2.9130    -3.0690    -0.1750 C.ar  1 <1>   0.0860 
  7 F       -2.8000     0.3590     0.8670 F     1 <1>  -0.1900 
  8 C       -2.9770    -1.9320     0.6320 C.ar  1 <1>  -0.1500 
  9 C       -3.1980    -4.3900     0.3480 C.2   1 <1>   0.5440 
 10 O       -2.3670    -5.2640     0.2190 O.2   1 <1>  -0.5700 
 11 N       -4.3980    -4.6930     0.9540 N.am  1 <1>  -0.6600 
 12 C       -4.5670    -5.9840     1.7010 C.3   1 <1>   0.3210 
 13 C       -5.6490    -3.9050     0.7710 C.3   1 <1>   0.1400 
 14 C       -5.4510    -6.9770     0.9430 C.2   1 <1>   0.0460 
 15 C       -6.2650    -4.2000    -0.6100 C.3   1 <1>   0.3430 
 16 N       -6.8020    -6.8790     0.9470 N.2   1 <1>  -0.5650 
 17 C       -5.0520    -8.0530     0.2250 C.2   1 <1>  -0.3320 
 18 N       -7.6650    -3.6730    -0.7520 N.4   1 <1>  -0.9590 
 19 C       -7.1860    -7.9110     0.2650 C.2   1 <1>   0.0360 
 20 N       -6.1700    -8.6610    -0.2070 N.pl3 1 <1>   0.0330 
 21 C       -3.6600    -8.5810    -0.0880 C.3   1 <1>  -0.0600 
 22 C       -8.6170    -4.4820     0.0780 C.3   1 <1>   0.2630 
 23 C       -8.0830    -3.7150    -2.1860 C.3   1 <1>   0.2630 
 24 H       -2.1720     0.4710    -1.6300 H     1 <1>   0.1500 
 25 H       -2.4660    -3.7540    -2.1560 H     1 <1>   0.1500 
 26 H       -3.2220    -2.0200     1.6760 H     1 <1>   0.1500 
 27 H       -5.0100    -5.7870     2.6600 H     1 <1>   0.0800 
 28 H       -3.6080    -6.4350     1.8870 H     1 <1>   0.0800 
 29 H       -5.4410    -2.8540     0.8600 H     1 <1>   0.0800 
 30 H       -6.3390    -4.1760     1.5500 H     1 <1>   0.0800 
 31 H       -6.2710    -5.2670    -0.7670 H     1 <1>   0.0800 
 32 H       -5.6340    -3.7580    -1.3620 H     1 <1>   0.0800 
 33 H       -7.6910    -2.6940    -0.4310 H     1 <1>   0.4500 
 34 H       -8.2130    -8.1760     0.0800 H     1 <1>   0.1500 
 35 H       -6.2350    -9.5240    -0.7560 H     1 <1>   0.2700 
 36 H       -2.9020    -7.9350     0.3150 H     1 <1>   0.0800 
 37 H       -3.5150    -8.6390    -1.1520 H     1 <1>   0.0800 
 38 H       -3.5300    -9.5620     0.3350 H     1 <1>   0.0800 
 39 H       -8.6010    -5.5140    -0.2360 H     1 <1>   0.0800 
 40 H       -9.6210    -4.1050    -0.0220 H     1 <1>   0.0800 
 41 H       -8.3390    -4.4480     1.1190 H     1 <1>   0.0800 
 42 H       -8.0640    -4.7300    -2.5510 H     1 <1>   0.0800 
 43 H       -7.4170    -3.1190    -2.7890 H     1 <1>   0.0800 
 44 H       -9.0840    -3.3280    -2.2960 H     1 <1>   0.0800 
@<TRIPOS>BOND
  1   1   2  1   
  2   2   3  ar  
  3   2   4  ar  
  4   3   5  ar  
  5   3  24  1   
  6   4   6  ar  
  7   4  25  1   
  8   5   7  1   
  9   5   8  ar  
 10   6   8  ar  
 11   6   9  1   
 12   8  26  1   
 13   9  10  2   
 14   9  11  am  
 15  11  12  1   
 16  11  13  1   
 17  12  14  1   
 18  12  27  1   
 19  12  28  1   
 20  13  15  1   
 21  13  29  1   
 22  13  30  1   
 23  14  16  1   
 24  14  17  2   
 25  15  18  1   
 26  15  31  1   
 27  15  32  1   
 28  16  19  2   
 29  17  20  1   
 30  17  21  1   
 31  18  22  1   
 32  18  23  1   
 33  18  33  1   
 34  19  20  1   
 35  19  34  1   
 36  20  35  1   
 37  21  36  1   
 38  21  37  1   
 39  21  38  1   
 40  22  39  1   
 41  22  40  1   
 42  22  41  1   
 43  23  42  1   
 44  23  43  1   
 45  23  44  1   
@<TRIPOS>SUBSTRUCTURE
  1 ****  11 GROUP 4 **** **** 0

# MOE 2024.06 (io_trps.svl 2023.06)
