@<TRIPOS>MOLECULE
NONAME
46 48 1 0 0 
SMALL
USER_CHARGES


@<TRIPOS>ATOM
  1 O       -0.7280     0.3440     1.1950 O.2   1 <1>  -0.5700 
  2 C       -1.2810     1.1400     0.4560 C.2   1 <1>   0.6160 
  3 N       -2.4640     0.7600    -0.1440 N.am  1 <1>  -0.6600 
  4 C       -0.6990     2.4480     0.2640 C.2   1 <1>   0.0140 
  5 C       -2.8890    -0.6750    -0.1460 C.3   1 <1>   0.1400 
  6 C       -3.5640     1.7190    -0.4440 C.3   1 <1>   0.1400 
  7 C       -0.1710     3.1640     1.3110 C.2   1 <1>  -0.0410 
  8 C       -0.6260     3.0430    -1.0360 C.2   1 <1>  -0.1500 
  9 C       -3.6850    -1.0550     1.1130 C.3   1 <1>   0.1400 
 10 C       -4.2260     2.2360     0.8400 C.3   1 <1>  -0.1600 
 11 N        0.3720     4.4110     1.1310 N.am  1 <1>  -0.5390 
 12 C       -0.0820     4.2800    -1.2020 C.2   1 <1>  -0.1360 
 13 N       -4.8480    -0.1410     1.3490 N.am  1 <1>  -0.6600 
 14 C       -4.4770     1.1790     1.9280 C.3   1 <1>   0.1400 
 15 C        0.4330     5.0080    -0.0960 C.2   1 <1>   0.6160 
 16 C       -6.1280    -0.3930     0.8990 C.2   1 <1>   0.7160 
 17 O        0.9190     6.1220    -0.1860 O.2   1 <1>  -0.5700 
 18 O       -6.9200     0.5290     0.8380 O.2   1 <1>  -0.5700 
 19 C       -6.5320    -1.7090     0.4650 C.2   1 <1>  -0.0860 
 20 C       -7.0960    -2.0940    -0.7120 C.2   1 <1>  -0.0400 
 21 C       -6.4320    -2.9080     1.2040 C.2   1 <1>  -0.1500 
 22 O       -7.3100    -3.3860    -0.7350 O.3   1 <1>  -0.2800 
 23 C       -7.4890    -1.2790    -1.9270 C.3   1 <1>  -0.0600 
 24 C       -6.9180    -3.8860     0.4150 C.2   1 <1>  -0.0400 
 25 C       -7.0720    -5.3720     0.6500 C.3   1 <1>  -0.0600 
 26 H       -2.0160    -1.3030    -0.2070 H     1 <1>   0.0800 
 27 H       -3.4860    -0.8740    -1.0190 H     1 <1>   0.0800 
 28 H       -4.3110     1.2220    -1.0410 H     1 <1>   0.0800 
 29 H       -3.1980     2.5490    -1.0210 H     1 <1>   0.0800 
 30 H       -0.1710     2.7550     2.3090 H     1 <1>   0.1500 
 31 H       -1.0040     2.4790    -1.8710 H     1 <1>   0.1500 
 32 H       -3.0260    -1.0220     1.9640 H     1 <1>   0.0800 
 33 H       -4.0140    -2.0720     1.0110 H     1 <1>   0.0800 
 34 H       -5.1690     2.6790     0.5740 H     1 <1>   0.0800 
 35 H       -3.6240     3.0220     1.2590 H     1 <1>   0.0800 
 36 H        0.7770     4.9610     1.8910 H     1 <1>   0.3700 
 37 H       -0.0090     4.7580    -2.1600 H     1 <1>   0.1500 
 38 H       -5.2630     1.5180     2.5830 H     1 <1>   0.0800 
 39 H       -3.5870     1.0640     2.5230 H     1 <1>   0.0800 
 40 H       -6.0430    -2.9810     2.2030 H     1 <1>   0.1500 
 41 H       -7.2640    -0.2390    -1.7750 H     1 <1>   0.0800 
 42 H       -8.5440    -1.3830    -2.1020 H     1 <1>   0.0800 
 43 H       -6.9550    -1.6320    -2.7900 H     1 <1>   0.0800 
 44 H       -6.7150    -5.6340     1.6290 H     1 <1>   0.0800 
 45 H       -6.5100    -5.9160    -0.0870 H     1 <1>   0.0800 
 46 H       -8.1090    -5.6440     0.5700 H     1 <1>   0.0800 
@<TRIPOS>BOND
  1   1   2  2   
  2   2   3  am  
  3   2   4  1   
  4   3   5  1   
  5   3   6  1   
  6   4   7  2   
  7   4   8  1   
  8   5   9  1   
  9   5  26  1   
 10   5  27  1   
 11   6  10  1   
 12   6  28  1   
 13   6  29  1   
 14   7  11  1   
 15   7  30  1   
 16   8  12  2   
 17   8  31  1   
 18   9  13  1   
 19   9  32  1   
 20   9  33  1   
 21  10  14  1   
 22  10  34  1   
 23  10  35  1   
 24  11  15  am  
 25  11  36  1   
 26  12  15  1   
 27  12  37  1   
 28  13  14  1   
 29  13  16  am  
 30  14  38  1   
 31  14  39  1   
 32  15  17  2   
 33  16  18  2   
 34  16  19  1   
 35  19  20  2   
 36  19  21  1   
 37  20  22  1   
 38  20  23  1   
 39  21  24  2   
 40  21  40  1   
 41  22  24  1   
 42  23  41  1   
 43  23  42  1   
 44  23  43  1   
 45  24  25  1   
 46  25  44  1   
 47  25  45  1   
 48  25  46  1   
@<TRIPOS>SUBSTRUCTURE
  1 ****   3 GROUP 4 **** **** 0

# MOE 2024.06 (io_trps.svl 2023.06)
