@<TRIPOS>MOLECULE
NONAME
52 55 1 0 0 
SMALL
USER_CHARGES


@<TRIPOS>ATOM
  1 O        0.9550     1.5070    -0.9900 O.2   1 <1>  -0.5700 
  2 C        0.6380     2.6680    -0.9230 C.2   1 <1>   0.5690 
  3 N       -0.2770     3.0830    -0.0200 N.am  1 <1>  -0.7300 
  4 C        1.2460     3.6890    -1.8870 C.3   1 <1>   0.1810 
  5 C       -0.7390     4.4880     0.0990 C.3   1 <1>   0.3640 
  6 O        1.1130     5.0140    -1.4240 O.3   1 <1>  -0.5600 
  7 C       -2.2640     4.4960     0.1640 C.ar  1 <1>  -0.1440 
  8 C       -0.2110     5.3800    -1.0540 C.3   1 <1>   0.2610 
  9 C       -2.9080     5.3100     1.0850 C.ar  1 <1>  -0.1500 
 10 C       -3.0290     3.7060    -0.6860 C.ar  1 <1>  -0.1500 
 11 C       -0.2540     6.8440    -0.6140 C.2   1 <1>   0.5690 
 12 C       -4.2900     5.3320     1.1590 C.ar  1 <1>  -0.1500 
 13 C       -4.4110     3.7270    -0.6120 C.ar  1 <1>  -0.1500 
 14 O       -1.2610     7.4920    -0.7750 O.2   1 <1>  -0.5700 
 15 N        0.8420     7.3890    -0.0340 N.am  1 <1>  -0.7300 
 16 C       -5.0430     4.5400     0.3120 C.ar  1 <1>  -0.1500 
 17 C        1.0140     8.8240     0.3260 C.3   1 <1>   0.2840 
 18 C        2.4870     9.2490     0.3790 C.ar  1 <1>   0.4770 
 19 N        2.7130    10.5470     0.2820 N.ar  1 <1>  -0.6200 
 20 N        3.3910     8.2870     0.5210 N.ar  1 <1>  -0.6200 
 21 C        3.9730    10.9180     0.3220 C.ar  1 <1>   0.1670 
 22 C        4.6450     8.6740     0.5620 C.ar  1 <1>   0.1670 
 23 C        5.0020    10.0050     0.4560 C.ar  1 <1>  -0.1430 
 24 C        4.2230    12.4140     0.1940 C.3   1 <1>  -0.0170 
 25 C        5.6660     7.5630     0.7300 C.3   1 <1>  -0.0970 
 26 C        6.4650    10.4520     0.4950 C.3   1 <1>  -0.0170 
 27 C        5.6450    12.8290     0.5920 C.3   1 <1>  -0.1600 
 28 C        6.6680    11.8780    -0.0310 C.3   1 <1>  -0.1600 
 29 H       -0.7090     2.3960     0.6000 H     1 <1>   0.3700 
 30 H        0.7650     3.6120    -2.8450 H     1 <1>   0.0800 
 31 H        2.2940     3.4860    -2.0070 H     1 <1>   0.0800 
 32 H       -0.3530     4.8770     1.0260 H     1 <1>   0.0800 
 33 H       -0.8400     5.2690    -1.9190 H     1 <1>   0.0800 
 34 H       -2.3410     5.9420     1.7480 H     1 <1>   0.1500 
 35 H       -2.5570     3.0670    -1.4120 H     1 <1>   0.1500 
 36 H       -4.7790     5.9700     1.8750 H     1 <1>   0.1500 
 37 H       -4.9950     3.1110    -1.2730 H     1 <1>   0.1500 
 38 H        1.7340     6.8760    -0.0530 H     1 <1>   0.3700 
 39 H       -6.1170     4.5580     0.3690 H     1 <1>   0.1500 
 40 H        0.5000     9.4360    -0.3940 H     1 <1>   0.0800 
 41 H        0.5740     8.9990     1.2910 H     1 <1>   0.0800 
 42 H        4.0440    12.6900    -0.8300 H     1 <1>   0.0800 
 43 H        3.5140    12.9460     0.8040 H     1 <1>   0.0800 
 44 H        6.4440     7.8570     1.4100 H     1 <1>   0.0800 
 45 H        6.0960     7.3210    -0.2240 H     1 <1>   0.0800 
 46 H        5.1940     6.6820     1.1270 H     1 <1>   0.0800 
 47 H        6.8060    10.4050     1.5150 H     1 <1>   0.0800 
 48 H        7.0720     9.7850    -0.0900 H     1 <1>   0.0800 
 49 H        5.8300    13.8380     0.2670 H     1 <1>   0.0800 
 50 H        5.7370    12.8020     1.6650 H     1 <1>   0.0800 
 51 H        7.6660    12.2080     0.2000 H     1 <1>   0.0800 
 52 H        6.5560    11.8830    -1.1030 H     1 <1>   0.0800 
@<TRIPOS>BOND
  1   1   2  2   
  2   2   3  am  
  3   2   4  1   
  4   3   5  1   
  5   3  29  1   
  6   4   6  1   
  7   4  30  1   
  8   4  31  1   
  9   5   7  1   
 10   5   8  1   
 11   5  32  1   
 12   6   8  1   
 13   7   9  ar  
 14   7  10  ar  
 15   8  11  1   
 16   8  33  1   
 17   9  12  ar  
 18   9  34  1   
 19  10  13  ar  
 20  10  35  1   
 21  11  14  2   
 22  11  15  am  
 23  12  16  ar  
 24  12  36  1   
 25  13  16  ar  
 26  13  37  1   
 27  15  17  1   
 28  15  38  1   
 29  16  39  1   
 30  17  18  1   
 31  17  40  1   
 32  17  41  1   
 33  18  19  ar  
 34  18  20  ar  
 35  19  21  ar  
 36  20  22  ar  
 37  21  23  ar  
 38  21  24  1   
 39  22  23  ar  
 40  22  25  1   
 41  23  26  1   
 42  24  27  1   
 43  24  42  1   
 44  24  43  1   
 45  25  44  1   
 46  25  45  1   
 47  25  46  1   
 48  26  28  1   
 49  26  47  1   
 50  26  48  1   
 51  27  28  1   
 52  27  49  1   
 53  27  50  1   
 54  28  51  1   
 55  28  52  1   
@<TRIPOS>SUBSTRUCTURE
  1 ****  15 GROUP 4 **** **** 0

# MOE 2024.06 (io_trps.svl 2023.06)
