@<TRIPOS>MOLECULE
NONAME
53 55 1 0 0 
SMALL
USER_CHARGES


@<TRIPOS>ATOM
  1 O        0.5450    -0.8310    -2.8630 O.2   1 <1>  -0.5700 
  2 C        1.4040    -1.4200    -2.2490 C.2   1 <1>   0.5690 
  3 N        1.9830    -0.8580    -1.1280 N.am  1 <1>  -0.6600 
  4 C        1.8290    -2.7810    -2.8220 C.3   1 <1>   0.1810 
  5 C        2.9610    -1.5670    -0.2480 C.3   1 <1>   0.1400 
  6 C        1.4510     0.4190    -0.5720 C.3   1 <1>   0.1400 
  7 O        1.6870    -3.8720    -1.9440 O.3   1 <1>  -0.5600 
  8 C        4.4060    -1.2010    -0.6200 C.3   1 <1>   0.3430 
  9 C        2.5700     1.3710    -0.1390 C.3   1 <1>  -0.1600 
 10 C        0.3780    -4.1320    -1.5150 C.3   1 <1>   0.2640 
 11 N        4.7640     0.2420    -0.3920 N.4   1 <1>  -0.9590 
 12 C        3.8360     1.2530    -0.9870 C.3   1 <1>   0.3430 
 13 C        0.1850    -3.5460    -0.1240 C.ar  1 <1>  -0.1440 
 14 C        6.1830     0.5270    -0.7670 C.3   1 <1>   0.4860 
 15 C       -0.6680    -2.4720     0.0810 C.ar  1 <1>  -0.1500 
 16 C        0.8660    -4.0870     0.9570 C.ar  1 <1>  -0.1500 
 17 C        6.6850     1.7180     0.0400 C.ar  1 <1>   0.1670 
 18 C       -0.8340    -1.9430     1.3500 C.ar  1 <1>  -0.1500 
 19 C        0.7020    -3.5580     2.2250 C.ar  1 <1>  -0.1500 
 20 N        6.2620     1.8080     1.2960 N.ar  1 <1>  -0.6200 
 21 C        7.5340     2.6430    -0.5580 C.ar  1 <1>   0.1600 
 22 C       -0.1480    -2.4850     2.4220 C.ar  1 <1>  -0.1500 
 23 C        6.7560     2.8770     1.9070 C.ar  1 <1>   0.1600 
 24 N        8.0110     3.7100     0.0520 N.ar  1 <1>  -0.6200 
 25 C        7.6050     3.8040     1.3060 C.ar  1 <1>   0.1670 
 26 C        8.1220     5.0000     2.0810 C.3   1 <1>  -0.0970 
 27 H        2.8620    -2.7330    -3.1070 H     1 <1>   0.0800 
 28 H        1.2530    -2.9910    -3.7060 H     1 <1>   0.0800 
 29 H        2.8470    -2.6290    -0.3380 H     1 <1>   0.0800 
 30 H        2.7670    -1.3300     0.7840 H     1 <1>   0.0800 
 31 H        0.8070     0.2010     0.2640 H     1 <1>   0.0800 
 32 H        0.8500     0.9170    -1.3150 H     1 <1>   0.0800 
 33 H        4.5550    -1.4510    -1.6570 H     1 <1>   0.0800 
 34 H        5.0670    -1.8220    -0.0380 H     1 <1>   0.0800 
 35 H        2.7960     1.2340     0.9040 H     1 <1>   0.0800 
 36 H        2.1880     2.3720    -0.2380 H     1 <1>   0.0800 
 37 H        0.2560    -5.2010    -1.4750 H     1 <1>   0.0800 
 38 H       -0.3320    -3.7320    -2.2190 H     1 <1>   0.0800 
 39 H        4.7660     0.4350     0.6260 H     1 <1>   0.4500 
 40 H        4.3200     2.2160    -0.9950 H     1 <1>   0.0800 
 41 H        3.5820     0.9920    -2.0030 H     1 <1>   0.0800 
 42 H        6.2650     0.7210    -1.8240 H     1 <1>   0.0800 
 43 H        6.8000    -0.3220    -0.5230 H     1 <1>   0.0800 
 44 H       -1.2050    -2.0400    -0.7460 H     1 <1>   0.1500 
 45 H        1.5260    -4.9250     0.8080 H     1 <1>   0.1500 
 46 H       -1.5020    -1.1130     1.5010 H     1 <1>   0.1500 
 47 H        1.2300    -3.9870     3.0600 H     1 <1>   0.1500 
 48 H        7.8380     2.5080    -1.5820 H     1 <1>   0.1500 
 49 H       -0.2820    -2.0770     3.4090 H     1 <1>   0.1500 
 50 H        6.4770     3.0290     2.9360 H     1 <1>   0.1500 
 51 H        7.7490     5.0060     3.0880 H     1 <1>   0.0800 
 52 H        7.8160     5.9060     1.5910 H     1 <1>   0.0800 
 53 H        9.1960     4.9720     2.1090 H     1 <1>   0.0800 
@<TRIPOS>BOND
  1   1   2  2   
  2   2   3  am  
  3   2   4  1   
  4   3   5  1   
  5   3   6  1   
  6   4   7  1   
  7   4  27  1   
  8   4  28  1   
  9   5   8  1   
 10   5  29  1   
 11   5  30  1   
 12   6   9  1   
 13   6  31  1   
 14   6  32  1   
 15   7  10  1   
 16   8  11  1   
 17   8  33  1   
 18   8  34  1   
 19   9  12  1   
 20   9  35  1   
 21   9  36  1   
 22  10  13  1   
 23  10  37  1   
 24  10  38  1   
 25  11  12  1   
 26  11  14  1   
 27  11  39  1   
 28  12  40  1   
 29  12  41  1   
 30  13  15  ar  
 31  13  16  ar  
 32  14  17  1   
 33  14  42  1   
 34  14  43  1   
 35  15  18  ar  
 36  15  44  1   
 37  16  19  ar  
 38  16  45  1   
 39  17  20  ar  
 40  17  21  ar  
 41  18  22  ar  
 42  18  46  1   
 43  19  22  ar  
 44  19  47  1   
 45  20  23  ar  
 46  21  24  ar  
 47  21  48  1   
 48  22  49  1   
 49  23  25  ar  
 50  23  50  1   
 51  24  25  ar  
 52  25  26  1   
 53  26  51  1   
 54  26  52  1   
 55  26  53  1   
@<TRIPOS>SUBSTRUCTURE
  1 ****   5 GROUP 4 **** **** 0

# MOE 2024.06 (io_trps.svl 2023.06)
