@<TRIPOS>MOLECULE
NONAME
44 46 1 0 0 
SMALL
USER_CHARGES


@<TRIPOS>ATOM
  1 CL       0.2710     0.2990     0.3600 Cl    1 <1>  -0.1230 
  2 C        1.9610    -0.1760     0.3550 C.2   1 <1>   0.1230 
  3 C        3.0750     0.6700     0.3950 C.2   1 <1>   0.2030 
  4 C        2.4120    -1.4390     0.2910 C.2   1 <1>  -0.3020 
  5 N        4.1740    -0.0760     0.3440 N.2   1 <1>  -0.7070 
  6 C        2.9910     2.1240     0.4860 C.2   1 <1>   0.7160 
  7 N        3.7540    -1.3500     0.2900 N.pl3 1 <1>   0.3140 
  8 O        2.1110     2.6270     1.1670 O.2   1 <1>  -0.5700 
  9 N        3.8650     2.9840    -0.1710 N.am  1 <1>  -0.6600 
 10 C        4.6950    -2.4760     0.2370 C.3   1 <1>   0.0160 
 11 C        4.8370     2.5000    -1.2000 C.3   1 <1>   0.1400 
 12 C        3.7780     4.4610     0.0400 C.3   1 <1>   0.1400 
 13 C        6.2290     2.2600    -0.5960 C.3   1 <1>   0.1400 
 14 C        5.1280     5.1880    -0.0200 C.3   1 <1>  -0.1600 
 15 N        6.9490     3.5370    -0.2920 N.am  1 <1>  -0.6600 
 16 C        6.2710     4.4410     0.6760 C.3   1 <1>   0.1400 
 17 C        8.2440     3.7510    -0.7300 C.2   1 <1>   0.7160 
 18 O        8.8350     2.8420    -1.2860 O.2   1 <1>  -0.5700 
 19 C        8.9160     5.0210    -0.5360 C.2   1 <1>  -0.0860 
 20 C       10.1220     5.2920     0.0670 C.2   1 <1>  -0.3320 
 21 C        8.4320     6.2760    -0.9630 C.2   1 <1>  -0.1500 
 22 N       10.3750     6.6210     0.0290 N.pl3 1 <1>   0.0330 
 23 C       11.0890     4.3050     0.6980 C.3   1 <1>  -0.0600 
 24 C        9.3340     7.2210    -0.6020 C.2   1 <1>  -0.3020 
 25 H        1.8690    -2.3630     0.2460 H     1 <1>   0.1500 
 26 H        4.5350    -3.1100     1.0880 H     1 <1>   0.0800 
 27 H        5.7010    -2.0980     0.2550 H     1 <1>   0.0800 
 28 H        4.5340    -3.0290    -0.6690 H     1 <1>   0.0800 
 29 H        4.9100     3.2080    -2.0070 H     1 <1>   0.0800 
 30 H        4.4820     1.5780    -1.6250 H     1 <1>   0.0800 
 31 H        3.3480     4.6510     1.0090 H     1 <1>   0.0800 
 32 H        3.1110     4.8790    -0.6940 H     1 <1>   0.0800 
 33 H        6.7940     1.6770    -1.3000 H     1 <1>   0.0800 
 34 H        6.1410     1.6770     0.3040 H     1 <1>   0.0800 
 35 H        5.0010     6.1380     0.4650 H     1 <1>   0.0800 
 36 H        5.3900     5.3940    -1.0420 H     1 <1>   0.0800 
 37 H        5.8950     3.8690     1.5080 H     1 <1>   0.0800 
 38 H        6.9750     5.1530     1.0710 H     1 <1>   0.0800 
 39 H        7.5070     6.4220    -1.4910 H     1 <1>   0.1500 
 40 H       11.2070     7.0920     0.4010 H     1 <1>   0.2700 
 41 H       10.6980     3.3040     0.6400 H     1 <1>   0.0800 
 42 H       11.2490     4.5490     1.7320 H     1 <1>   0.0800 
 43 H       12.0300     4.3290     0.1790 H     1 <1>   0.0800 
 44 H        9.2970     8.2840    -0.7660 H     1 <1>   0.1500 
@<TRIPOS>BOND
  1   1   2  1   
  2   2   3  1   
  3   2   4  2   
  4   3   5  2   
  5   3   6  1   
  6   4   7  1   
  7   4  25  1   
  8   5   7  1   
  9   6   8  2   
 10   6   9  am  
 11   7  10  1   
 12   9  11  1   
 13   9  12  1   
 14  10  26  1   
 15  10  27  1   
 16  10  28  1   
 17  11  13  1   
 18  11  29  1   
 19  11  30  1   
 20  12  14  1   
 21  12  31  1   
 22  12  32  1   
 23  13  15  1   
 24  13  33  1   
 25  13  34  1   
 26  14  16  1   
 27  14  35  1   
 28  14  36  1   
 29  15  16  1   
 30  15  17  am  
 31  16  37  1   
 32  16  38  1   
 33  17  18  2   
 34  17  19  1   
 35  19  20  2   
 36  19  21  1   
 37  20  22  1   
 38  20  23  1   
 39  21  24  2   
 40  21  39  1   
 41  22  24  1   
 42  22  40  1   
 43  23  41  1   
 44  23  42  1   
 45  23  43  1   
 46  24  44  1   
@<TRIPOS>SUBSTRUCTURE
  1 ****  13 GROUP 4 **** **** 0

# MOE 2024.06 (io_trps.svl 2023.06)
