@<TRIPOS>MOLECULE
NONAME
49 52 1 0 0 
SMALL
USER_CHARGES


@<TRIPOS>ATOM
  1 S        2.3830    -0.4010     1.9490 S.3   1 <1>  -0.0800 
  2 C        1.2570    -0.7850     0.6670 C.2   1 <1>   0.1980 
  3 C        2.1100    -1.9720     2.6270 C.2   1 <1>  -0.1100 
  4 N        0.7440    -1.9470     0.7620 N.2   1 <1>  -0.5650 
  5 C        1.0250     0.2900    -0.3910 C.3   1 <1>   0.1000 
  6 C        1.2140    -2.6580     1.8840 C.2   1 <1>   0.1410 
  7 C       -0.0460     1.2820     0.0790 C.3   1 <1>  -0.2400 
  8 C        0.6250    -0.3210    -1.7420 C.3   1 <1>  -0.2400 
  9 C        0.7800    -4.0240     2.1690 C.2   1 <1>   0.7160 
 10 O        1.5690    -4.8000     2.6770 O.2   1 <1>  -0.5700 
 11 N       -0.4870    -4.4940     1.8830 N.am  1 <1>  -0.6600 
 12 C       -0.7250    -5.9200     1.5090 C.3   1 <1>   0.1400 
 13 C       -1.6700    -3.6320     1.5870 C.3   1 <1>   0.1400 
 14 C       -1.2320    -6.0150     0.0540 C.3   1 <1>   0.3430 
 15 C       -2.1110    -3.8220     0.1240 C.3   1 <1>   0.2950 
 16 O       -2.3460    -5.1780    -0.1350 O.3   1 <1>  -0.5600 
 17 C       -1.6090    -7.4540    -0.2890 C.ar  1 <1>  -0.1440 
 18 C       -3.4100    -3.0670    -0.1700 C.3   1 <1>  -0.1950 
 19 C       -0.6600    -8.2950    -0.8530 C.ar  1 <1>  -0.1500 
 20 C       -2.8810    -7.9490    -0.0360 C.ar  1 <1>  -0.1500 
 21 C       -3.7480    -2.6260    -1.5590 C.3   1 <1>  -0.2000 
 22 C       -3.3990    -1.6090    -0.5090 C.3   1 <1>  -0.2000 
 23 C       -0.9770    -9.6080    -1.1580 C.ar  1 <1>  -0.1500 
 24 C       -3.1990    -9.2610    -0.3390 C.ar  1 <1>  -0.1500 
 25 C       -2.2470   -10.0920    -0.9000 C.ar  1 <1>  -0.1500 
 26 H        2.6480    -2.2470     3.5160 H     1 <1>   0.1500 
 27 H        1.9490     0.8240    -0.5310 H     1 <1>   0.0800 
 28 H       -0.9790     0.7730     0.2450 H     1 <1>   0.0800 
 29 H       -0.1960     2.0510    -0.6570 H     1 <1>   0.0800 
 30 H        0.2580     1.7460     1.0010 H     1 <1>   0.0800 
 31 H       -0.2990    -0.8630    -1.6530 H     1 <1>   0.0800 
 32 H        1.3870    -1.0040    -2.0730 H     1 <1>   0.0800 
 33 H        0.5070     0.4480    -2.4840 H     1 <1>   0.0800 
 34 H        0.1810    -6.4940     1.6030 H     1 <1>   0.0800 
 35 H       -1.4560    -6.3490     2.1700 H     1 <1>   0.0800 
 36 H       -2.4800    -3.9140     2.2360 H     1 <1>   0.0800 
 37 H       -1.4550    -2.5960     1.7750 H     1 <1>   0.0800 
 38 H       -0.4580    -5.6840    -0.6170 H     1 <1>   0.0800 
 39 H       -1.3330    -3.4780    -0.5370 H     1 <1>   0.0800 
 40 H       -4.2230    -3.4150     0.4440 H     1 <1>   0.1000 
 41 H        0.3330    -7.9340    -1.0590 H     1 <1>   0.1500 
 42 H       -3.6310    -7.3080     0.3970 H     1 <1>   0.1500 
 43 H       -3.0440    -2.8260    -2.3490 H     1 <1>   0.1000 
 44 H       -4.7690    -2.7150    -1.8880 H     1 <1>   0.1000 
 45 H       -4.1830    -0.9800    -0.1220 H     1 <1>   0.1000 
 46 H       -2.4570    -1.0950    -0.5830 H     1 <1>   0.1000 
 47 H       -0.2350   -10.2530    -1.5950 H     1 <1>   0.1500 
 48 H       -4.1890    -9.6330    -0.1400 H     1 <1>   0.1500 
 49 H       -2.4940   -11.1130    -1.1370 H     1 <1>   0.1500 
@<TRIPOS>BOND
  1   1   2  1   
  2   1   3  1   
  3   2   4  2   
  4   2   5  1   
  5   3   6  2   
  6   3  26  1   
  7   4   6  1   
  8   5   7  1   
  9   5   8  1   
 10   5  27  1   
 11   6   9  1   
 12   7  28  1   
 13   7  29  1   
 14   7  30  1   
 15   8  31  1   
 16   8  32  1   
 17   8  33  1   
 18   9  10  2   
 19   9  11  am  
 20  11  12  1   
 21  11  13  1   
 22  12  14  1   
 23  12  34  1   
 24  12  35  1   
 25  13  15  1   
 26  13  36  1   
 27  13  37  1   
 28  14  16  1   
 29  14  17  1   
 30  14  38  1   
 31  15  16  1   
 32  15  18  1   
 33  15  39  1   
 34  17  19  ar  
 35  17  20  ar  
 36  18  21  1   
 37  18  22  1   
 38  18  40  1   
 39  19  23  ar  
 40  19  41  1   
 41  20  24  ar  
 42  20  42  1   
 43  21  22  1   
 44  21  43  1   
 45  21  44  1   
 46  22  45  1   
 47  22  46  1   
 48  23  25  ar  
 49  23  47  1   
 50  24  25  ar  
 51  24  48  1   
 52  25  49  1   
@<TRIPOS>SUBSTRUCTURE
  1 ****  15 GROUP 4 **** **** 0

# MOE 2024.06 (io_trps.svl 2023.06)
