@<TRIPOS>MOLECULE
NONAME
47 49 1 0 0 
SMALL
USER_CHARGES


@<TRIPOS>ATOM
  1 O        0.1760    -0.9320     1.2200 O.2   1 <1>  -0.5700 
  2 C        1.2060    -1.2310     0.6580 C.2   1 <1>   0.5690 
  3 N        1.2730    -2.3200    -0.1790 N.am  1 <1>  -0.6600 
  4 C        2.4490    -0.3610     0.9230 C.3   1 <1>   0.2700 
  5 C        2.5390    -2.6910    -0.8780 C.3   1 <1>   0.1400 
  6 C        0.0690    -3.1290    -0.5060 C.3   1 <1>   0.1400 
  7 N        3.6950    -0.7290     0.1510 N.pl3 1 <1>  -0.8380 
  8 C        3.7880    -2.1910    -0.1360 C.3   1 <1>   0.2090 
  9 C       -0.0930    -4.2650     0.5060 C.3   1 <1>  -0.0160 
 10 C        4.8570    -0.0310     0.5270 C.ar  1 <1>   0.4100 
 11 C       -1.2910    -5.1250     0.1410 C.ar  1 <1>  -0.1440 
 12 N        5.8240    -0.7920     1.0180 N.ar  1 <1>  -0.6200 
 13 C        4.9780     1.4040     0.4100 C.ar  1 <1>   0.4100 
 14 C       -2.5660    -4.7330     0.5180 C.ar  1 <1>  -0.1500 
 15 C       -1.1240    -6.3020    -0.5730 C.ar  1 <1>  -0.1500 
 16 C        6.8860    -0.0980     1.4000 C.ar  1 <1>   0.1600 
 17 N        6.0530     2.0650     0.8120 N.ar  1 <1>  -0.6200 
 18 N        3.9730     2.2100    -0.1570 N.pl3 1 <1>  -0.8380 
 19 C       -3.6640    -5.5080     0.1850 C.ar  1 <1>  -0.1500 
 20 C       -2.2210    -7.0780    -0.9060 C.ar  1 <1>  -0.1500 
 21 C        6.9940     1.2740     1.3050 C.ar  1 <1>   0.1600 
 22 C        3.6050     1.9410    -1.5720 C.3   1 <1>   0.1290 
 23 C        3.8620     3.6400     0.2410 C.3   1 <1>   0.1290 
 24 C       -3.4920    -6.6810    -0.5280 C.ar  1 <1>  -0.1500 
 25 H        2.6670    -0.4110     1.9740 H     1 <1>   0.0800 
 26 H        2.1790     0.6530     0.6980 H     1 <1>   0.0800 
 27 H        2.5290    -2.2690    -1.8680 H     1 <1>   0.0800 
 28 H        2.5990    -3.7610    -0.9700 H     1 <1>   0.0800 
 29 H        0.1560    -3.5300    -1.5000 H     1 <1>   0.0800 
 30 H       -0.8060    -2.5010    -0.4790 H     1 <1>   0.0800 
 31 H        4.6590    -2.3820    -0.7390 H     1 <1>   0.0800 
 32 H        3.8980    -2.7310     0.7890 H     1 <1>   0.0800 
 33 H       -0.2370    -3.8480     1.4870 H     1 <1>   0.0800 
 34 H        0.7960    -4.8680     0.5220 H     1 <1>   0.0800 
 35 H       -2.7080    -3.8200     1.0720 H     1 <1>   0.1500 
 36 H       -0.1420    -6.6220    -0.8720 H     1 <1>   0.1500 
 37 H        7.7070    -0.6570     1.8110 H     1 <1>   0.1500 
 38 H       -4.6500    -5.1970     0.4810 H     1 <1>   0.1500 
 39 H       -2.0870    -7.9910    -1.4600 H     1 <1>   0.1500 
 40 H        7.8950     1.7500     1.6460 H     1 <1>   0.1500 
 41 H        3.9680     0.9760    -1.8810 H     1 <1>   0.0800 
 42 H        4.0360     2.6900    -2.2130 H     1 <1>   0.0800 
 43 H        2.5350     1.9560    -1.6760 H     1 <1>   0.0800 
 44 H        4.0390     3.7400     1.2980 H     1 <1>   0.0800 
 45 H        2.8760     4.0090     0.0190 H     1 <1>   0.0800 
 46 H        4.5930     4.2250    -0.2900 H     1 <1>   0.0800 
 47 H       -4.3440    -7.2840    -0.7860 H     1 <1>   0.1500 
@<TRIPOS>BOND
  1   1   2  2   
  2   2   3  am  
  3   2   4  1   
  4   3   5  1   
  5   3   6  1   
  6   4   7  1   
  7   4  25  1   
  8   4  26  1   
  9   5   8  1   
 10   5  27  1   
 11   5  28  1   
 12   6   9  1   
 13   6  29  1   
 14   6  30  1   
 15   7   8  1   
 16   7  10  1   
 17   8  31  1   
 18   8  32  1   
 19   9  11  1   
 20   9  33  1   
 21   9  34  1   
 22  10  12  ar  
 23  10  13  ar  
 24  11  14  ar  
 25  11  15  ar  
 26  12  16  ar  
 27  13  17  ar  
 28  13  18  1   
 29  14  19  ar  
 30  14  35  1   
 31  15  20  ar  
 32  15  36  1   
 33  16  21  ar  
 34  16  37  1   
 35  17  21  ar  
 36  18  22  1   
 37  18  23  1   
 38  19  24  ar  
 39  19  38  1   
 40  20  24  ar  
 41  20  39  1   
 42  21  40  1   
 43  22  41  1   
 44  22  42  1   
 45  22  43  1   
 46  23  44  1   
 47  23  45  1   
 48  23  46  1   
 49  24  47  1   
@<TRIPOS>SUBSTRUCTURE
  1 ****   3 GROUP 4 **** **** 0

# MOE 2024.06 (io_trps.svl 2023.06)
