@<TRIPOS>MOLECULE
NONAME
48 51 1 0 0 
SMALL
USER_CHARGES


@<TRIPOS>ATOM
  1 S        0.0930     0.8410    -1.3240 S.3   1 <1>  -0.0800 
  2 C       -1.0720    -0.3340    -0.8000 C.2   1 <1>  -0.1400 
  3 C       -0.3440     1.8250     0.0640 C.2   1 <1>   0.1980 
  4 C       -1.6650     0.1020     0.3150 C.2   1 <1>   0.0460 
  5 C       -1.3220    -1.6240    -1.5470 C.3   1 <1>   0.0200 
  6 N       -1.2460     1.3250     0.8110 N.2   1 <1>  -0.5650 
  7 C        0.3850     3.1360     0.2420 C.3   1 <1>   0.0200 
  8 C       -2.7460    -0.6920     1.0190 C.3   1 <1>   0.0210 
  9 C       -2.1530    -2.5610    -0.6480 C.3   1 <1>  -0.1600 
 10 C        1.7430     2.8810     0.8950 C.3   1 <1>   0.2090 
 11 C       -3.2800    -1.8150     0.1020 C.3   1 <1>  -0.1600 
 12 N        2.4990     4.1510     1.0340 N.pl3 1 <1>  -0.8690 
 13 C        3.0440     4.7680    -0.0610 C.ar  1 <1>   0.4100 
 14 N        2.7010     6.0320    -0.1670 N.ar  1 <1>  -0.6200 
 15 C        3.8760     4.1150    -0.9840 C.ar  1 <1>   0.1600 
 16 C        3.2110     6.6410    -1.2530 C.ar  1 <1>   0.3960 
 17 N        4.3840     4.6760    -2.0610 N.ar  1 <1>  -0.6200 
 18 C        2.9310     8.0510    -1.5370 C.2   1 <1>   0.5440 
 19 C        4.0200     5.9480    -2.1610 C.ar  1 <1>   0.1600 
 20 O        2.8890     8.4220    -2.6990 O.2   1 <1>  -0.5700 
 21 N        2.7340     9.0130    -0.5630 N.am  1 <1>  -0.6600 
 22 C        2.4400    10.4280    -0.8830 C.3   1 <1>   0.1400 
 23 C        2.8770     8.8210     0.8980 C.3   1 <1>   0.1400 
 24 C        2.1800    11.0900     0.4650 C.3   1 <1>  -0.1600 
 25 C        2.9430    10.2320     1.4700 C.3   1 <1>  -0.1600 
 26 H       -0.3880    -2.0910    -1.8050 H     1 <1>   0.0800 
 27 H       -1.8590    -1.4030    -2.4530 H     1 <1>   0.0800 
 28 H       -0.2040     3.7770     0.8710 H     1 <1>   0.0800 
 29 H        0.5080     3.6040    -0.7170 H     1 <1>   0.0800 
 30 H       -3.5510    -0.0350     1.2960 H     1 <1>   0.0800 
 31 H       -2.3290    -1.1120     1.9170 H     1 <1>   0.0800 
 32 H       -1.4980    -3.0120     0.0790 H     1 <1>   0.0800 
 33 H       -2.5710    -3.3520    -1.2470 H     1 <1>   0.0800 
 34 H        2.3070     2.1800     0.3040 H     1 <1>   0.0800 
 35 H        1.5950     2.4470     1.8700 H     1 <1>   0.0800 
 36 H       -3.9440    -1.3780    -0.6250 H     1 <1>   0.0800 
 37 H       -3.8520    -2.5120     0.6890 H     1 <1>   0.0800 
 38 H        2.0110     4.8350     1.6210 H     1 <1>   0.4000 
 39 H        4.1180     3.0850    -0.7990 H     1 <1>   0.1500 
 40 H        4.3880     6.4850    -3.0180 H     1 <1>   0.1500 
 41 H        1.5870    10.5020    -1.5360 H     1 <1>   0.0800 
 42 H        3.2990    10.8640    -1.3630 H     1 <1>   0.0800 
 43 H        3.7640     8.2560     1.1330 H     1 <1>   0.0800 
 44 H        2.0080     8.3060     1.2700 H     1 <1>   0.0800 
 45 H        1.1260    11.0500     0.6750 H     1 <1>   0.0800 
 46 H        2.5000    12.1170     0.4730 H     1 <1>   0.0800 
 47 H        3.9720    10.5440     1.5110 H     1 <1>   0.0800 
 48 H        2.5220    10.2830     2.4580 H     1 <1>   0.0800 
@<TRIPOS>BOND
  1   1   2  1   
  2   1   3  1   
  3   2   4  2   
  4   2   5  1   
  5   3   6  2   
  6   3   7  1   
  7   4   6  1   
  8   4   8  1   
  9   5   9  1   
 10   5  26  1   
 11   5  27  1   
 12   7  10  1   
 13   7  28  1   
 14   7  29  1   
 15   8  11  1   
 16   8  30  1   
 17   8  31  1   
 18   9  11  1   
 19   9  32  1   
 20   9  33  1   
 21  10  12  1   
 22  10  34  1   
 23  10  35  1   
 24  11  36  1   
 25  11  37  1   
 26  12  13  1   
 27  12  38  1   
 28  13  14  ar  
 29  13  15  ar  
 30  14  16  ar  
 31  15  17  ar  
 32  15  39  1   
 33  16  18  1   
 34  16  19  ar  
 35  17  19  ar  
 36  18  20  2   
 37  18  21  am  
 38  19  40  1   
 39  21  22  1   
 40  21  23  1   
 41  22  24  1   
 42  22  41  1   
 43  22  42  1   
 44  23  25  1   
 45  23  43  1   
 46  23  44  1   
 47  24  25  1   
 48  24  45  1   
 49  24  46  1   
 50  25  47  1   
 51  25  48  1   
@<TRIPOS>SUBSTRUCTURE
  1 ****   7 GROUP 4 **** **** 0

# MOE 2024.06 (io_trps.svl 2023.06)
