@<TRIPOS>MOLECULE
NONAME
55 58 1 0 0 
SMALL
USER_CHARGES


@<TRIPOS>ATOM
  1 S       -0.0680    -0.7240    -0.0340 S.3   1 <1>  -0.0800 
  2 C       -0.5400     0.7800     0.7620 C.2   1 <1>   0.0410 
  3 C       -1.1100    -1.6890     0.9970 C.2   1 <1>  -0.1400 
  4 C        0.0310     2.0170     0.2940 C.2   1 <1>   0.2880 
  5 C       -1.4240     0.4860     1.7480 C.2   1 <1>  -0.1500 
  6 C       -1.7450    -0.8990     1.8830 C.2   1 <1>  -0.1500 
  7 C       -1.1200    -3.1810     0.7470 C.3   1 <1>   0.5230 
  8 N        0.8140     2.1290    -0.7520 N.2   1 <1>  -0.7070 
  9 C       -0.1750     3.2680     0.8880 C.2   1 <1>  -0.1500 
 10 N       -2.1940    -3.5180    -0.2200 N.4   1 <1>  -0.9590 
 11 N        1.1160     3.4350    -0.8330 N.pl3 1 <1>   0.3000 
 12 C        0.5280     4.1450     0.1470 C.2   1 <1>  -0.3020 
 13 C       -2.4010    -4.9830    -0.4070 C.3   1 <1>   0.5660 
 14 C       -2.0720    -2.8180    -1.5400 C.3   1 <1>   0.3430 
 15 C       -1.1320    -5.6490    -0.9510 C.ar  1 <1>  -0.1430 
 16 C       -3.7000    -5.2260    -1.2320 C.3   1 <1>   0.2000 
 17 C       -3.1580    -3.2690    -2.5420 C.3   1 <1>   0.1200 
 18 C       -0.1940    -6.1000    -0.0300 C.ar  1 <1>  -0.1500 
 19 C       -0.8700    -5.8330    -2.3060 C.ar  1 <1>  -0.1500 
 20 O       -4.1330    -4.0740    -1.9360 O.3   1 <1>  -0.5600 
 21 C       -4.8360    -5.5970    -0.2650 C.3   1 <1>   0.1200 
 22 C        0.9920    -6.6860    -0.4370 C.ar  1 <1>   0.0830 
 23 C        0.3180    -6.4090    -2.7240 C.ar  1 <1>  -0.1500 
 24 O       -4.8580    -4.7050     0.8120 O.3   1 <1>  -0.6800 
 25 O        1.8300    -7.1050     0.5410 O.3   1 <1>  -0.3630 
 26 C        1.2650    -6.8160    -1.8020 C.ar  1 <1>   0.0830 
 27 C        2.1690    -8.4770     0.5610 C.3   1 <1>   0.0400 
 28 O        2.4240    -7.3240    -2.2810 O.3   1 <1>  -0.3630 
 29 C        3.5880    -6.5580    -2.0590 C.3   1 <1>   0.0400 
 30 H       -1.8720     1.2180     2.3980 H     1 <1>   0.1500 
 31 H       -2.4380    -1.2240     2.6420 H     1 <1>   0.1500 
 32 H       -1.3000    -3.6910     1.6790 H     1 <1>   0.0800 
 33 H       -0.1590    -3.4900     0.3670 H     1 <1>   0.0800 
 34 H       -0.7770     3.4560     1.7580 H     1 <1>   0.1500 
 35 H       -3.0960    -3.2080     0.1770 H     1 <1>   0.4500 
 36 H        1.7280     3.8120    -1.5690 H     1 <1>   0.2700 
 37 H        0.6440     5.2090     0.2570 H     1 <1>   0.1500 
 38 H       -2.5710    -5.4230     0.5620 H     1 <1>   0.0800 
 39 H       -2.1610    -1.7530    -1.3950 H     1 <1>   0.0800 
 40 H       -1.1000    -3.0020    -1.9680 H     1 <1>   0.0800 
 41 H       -3.5680    -6.0240    -1.9400 H     1 <1>   0.0800 
 42 H       -2.7290    -3.8040    -3.3690 H     1 <1>   0.0800 
 43 H       -3.6560    -2.4040    -2.9440 H     1 <1>   0.0800 
 44 H       -0.3620    -6.0160     1.0290 H     1 <1>   0.1500 
 45 H       -1.5710    -5.5450    -3.0660 H     1 <1>   0.1500 
 46 H       -4.6930    -6.5890     0.1290 H     1 <1>   0.0800 
 47 H       -5.7840    -5.5550    -0.7740 H     1 <1>   0.0800 
 48 H        0.5230    -6.5440    -3.7720 H     1 <1>   0.1500 
 49 H       -5.7140    -4.7760     1.2900 H     1 <1>   0.4000 
 50 H        2.6660    -8.6870     1.4900 H     1 <1>   0.0800 
 51 H        2.8270    -8.6970    -0.2590 H     1 <1>   0.0800 
 52 H        1.2690    -9.0610     0.4840 H     1 <1>   0.0800 
 53 H        4.4140    -7.0560    -2.5330 H     1 <1>   0.0800 
 54 H        3.7670    -6.4760    -1.0020 H     1 <1>   0.0800 
 55 H        3.4490    -5.5820    -2.4910 H     1 <1>   0.0800 
@<TRIPOS>BOND
  1   1   2  1   
  2   1   3  1   
  3   2   4  1   
  4   2   5  2   
  5   3   6  2   
  6   3   7  1   
  7   4   8  2   
  8   4   9  1   
  9   5   6  1   
 10   5  30  1   
 11   6  31  1   
 12   7  10  1   
 13   7  32  1   
 14   7  33  1   
 15   8  11  1   
 16   9  12  2   
 17   9  34  1   
 18  10  13  1   
 19  10  14  1   
 20  10  35  1   
 21  11  12  1   
 22  11  36  1   
 23  12  37  1   
 24  13  15  1   
 25  13  16  1   
 26  13  38  1   
 27  14  17  1   
 28  14  39  1   
 29  14  40  1   
 30  15  18  ar  
 31  15  19  ar  
 32  16  20  1   
 33  16  21  1   
 34  16  41  1   
 35  17  20  1   
 36  17  42  1   
 37  17  43  1   
 38  18  22  ar  
 39  18  44  1   
 40  19  23  ar  
 41  19  45  1   
 42  21  24  1   
 43  21  46  1   
 44  21  47  1   
 45  22  25  1   
 46  22  26  ar  
 47  23  26  ar  
 48  23  48  1   
 49  24  49  1   
 50  25  27  1   
 51  26  28  1   
 52  27  50  1   
 53  27  51  1   
 54  27  52  1   
 55  28  29  1   
 56  29  53  1   
 57  29  54  1   
 58  29  55  1   
@<TRIPOS>SUBSTRUCTURE
  1 ****   7 GROUP 4 **** **** 0

# MOE 2024.06 (io_trps.svl 2023.06)
