@<TRIPOS>MOLECULE
NONAME
44 45 1 0 0 
SMALL
USER_CHARGES


@<TRIPOS>ATOM
  1 O        0.7390    -0.9620     1.2270 O.co2 1 <1>  -0.9000 
  2 C        1.5520    -0.7780     0.3250 C.2   1 <1>   0.9060 
  3 O        1.5130    -1.3480    -0.7720 O.co2 1 <1>  -0.9000 
  4 C        2.6880     0.1860     0.5770 C.3   1 <1>  -0.1860 
  5 C        4.0250    -0.5050     0.2910 C.3   1 <1>   0.2000 
  6 C        2.5360     1.5020    -0.2290 C.3   1 <1>  -0.1600 
  7 O        4.0650    -0.8250    -1.0550 O.3   1 <1>  -0.6800 
  8 C        5.2050     0.4410     0.5980 C.3   1 <1>   0.3430 
  9 C        3.8740     2.0840    -0.6950 C.3   1 <1>   0.3430 
 10 N        4.8910     1.9110     0.3880 N.4   1 <1>  -0.9590 
 11 C        6.1510     2.6750     0.1330 C.3   1 <1>   0.3430 
 12 C        5.9430     4.1910     0.1770 C.3   1 <1>   0.1200 
 13 O        7.2050     4.7920     0.0260 O.3   1 <1>  -0.3630 
 14 C        7.3550     6.1430     0.0160 C.ar  1 <1>   0.0830 
 15 C        8.6390     6.6480    -0.1690 C.ar  1 <1>  -0.1430 
 16 C        6.2880     7.0240     0.1810 C.ar  1 <1>  -0.1500 
 17 C        8.8390     8.0190    -0.1890 C.ar  1 <1>  -0.1500 
 18 C        9.8270     5.7150    -0.3510 C.3   1 <1>  -0.0970 
 19 C        6.5030     8.3900     0.1590 C.ar  1 <1>  -0.1500 
 20 C        7.7780     8.8950    -0.0270 C.ar  1 <1>  -0.1430 
 21 C        8.0170    10.3940    -0.0500 C.3   1 <1>  -0.0970 
 22 H        2.6590     0.4210     1.6250 H     1 <1>   0.0800 
 23 H        4.1120    -1.4260     0.8440 H     1 <1>   0.0800 
 24 H        1.9950     2.2230     0.3580 H     1 <1>   0.0800 
 25 H        1.9440     1.3110    -1.1090 H     1 <1>   0.0800 
 26 H        3.1570    -1.2090    -1.2690 H     1 <1>   0.4000 
 27 H        6.0300     0.1420    -0.0280 H     1 <1>   0.0800 
 28 H        5.4990     0.2940     1.6230 H     1 <1>   0.0800 
 29 H        3.7450     3.1230    -0.9490 H     1 <1>   0.0800 
 30 H        4.2000     1.5540    -1.5780 H     1 <1>   0.0800 
 31 H        4.4440     2.2410     1.2530 H     1 <1>   0.4500 
 32 H        6.8800     2.4160     0.8830 H     1 <1>   0.0800 
 33 H        6.5460     2.4030    -0.8330 H     1 <1>   0.0800 
 34 H        5.5430     4.4960     1.1280 H     1 <1>   0.0800 
 35 H        5.3200     4.5240    -0.6330 H     1 <1>   0.0800 
 36 H        5.2840     6.6790     0.3280 H     1 <1>   0.1500 
 37 H        9.8300     8.4130    -0.3300 H     1 <1>   0.1500 
 38 H       10.7420     6.2680    -0.4660 H     1 <1>   0.0800 
 39 H        9.6840     5.1080    -1.2260 H     1 <1>   0.0800 
 40 H        9.9220     5.0740     0.5070 H     1 <1>   0.0800 
 41 H        5.6740     9.0630     0.2890 H     1 <1>   0.1500 
 42 H        7.1270    10.9150    -0.3550 H     1 <1>   0.0800 
 43 H        8.8040    10.6370    -0.7410 H     1 <1>   0.0800 
 44 H        8.2990    10.7320     0.9310 H     1 <1>   0.0800 
@<TRIPOS>BOND
  1   1   2  ar  
  2   2   3  ar  
  3   2   4  1   
  4   4   5  1   
  5   4   6  1   
  6   4  22  1   
  7   5   7  1   
  8   5   8  1   
  9   5  23  1   
 10   6   9  1   
 11   6  24  1   
 12   6  25  1   
 13   7  26  1   
 14   8  10  1   
 15   8  27  1   
 16   8  28  1   
 17   9  10  1   
 18   9  29  1   
 19   9  30  1   
 20  10  11  1   
 21  10  31  1   
 22  11  12  1   
 23  11  32  1   
 24  11  33  1   
 25  12  13  1   
 26  12  34  1   
 27  12  35  1   
 28  13  14  1   
 29  14  15  ar  
 30  14  16  ar  
 31  15  17  ar  
 32  15  18  1   
 33  16  19  ar  
 34  16  36  1   
 35  17  20  ar  
 36  17  37  1   
 37  18  38  1   
 38  18  39  1   
 39  18  40  1   
 40  19  20  ar  
 41  19  41  1   
 42  20  21  1   
 43  21  42  1   
 44  21  43  1   
 45  21  44  1   
@<TRIPOS>SUBSTRUCTURE
  1 ****  12 GROUP 4 **** **** 0

# MOE 2024.06 (io_trps.svl 2023.06)
