@<TRIPOS>MOLECULE
NONAME
60 62 1 0 0 
SMALL
USER_CHARGES


@<TRIPOS>ATOM
  1 O       -0.6680     2.3690     2.8940 O.2   1 <1>  -0.5700 
  2 C       -0.6020     2.8920     1.7950 C.2   1 <1>   0.6160 
  3 N       -1.6120     3.7530     1.4050 N.am  1 <1>  -0.6600 
  4 C        0.5630     2.6440     0.9970 C.2   1 <1>   0.0290 
  5 C       -1.5810     4.5900     0.1780 C.3   1 <1>   0.1400 
  6 C       -2.8530     3.9340     2.2040 C.3   1 <1>   0.1400 
  7 C        0.4210     1.9520    -0.2470 C.2   1 <1>   0.6160 
  8 C        1.8200     3.0310     1.3940 C.2   1 <1>  -0.1500 
  9 C       -2.7840     4.2430    -0.7030 C.3   1 <1>  -0.1600 
 10 C       -4.0650     3.5850     1.3390 C.3   1 <1>  -0.1600 
 11 O       -0.6380     1.5560    -0.7090 O.2   1 <1>  -0.5700 
 12 N        1.5440     1.7230    -0.9970 N.am  1 <1>  -0.5390 
 13 C        2.9440     2.7680     0.5830 C.2   1 <1>  -0.1500 
 14 C       -4.1350     4.4090     0.0350 C.3   1 <1>   0.2800 
 15 C        2.7930     2.1170    -0.6040 C.2   1 <1>  -0.0290 
 16 O       -4.2470     5.7570     0.4380 O.3   1 <1>  -0.5600 
 17 C       -5.3850     3.9700    -0.8150 C.3   1 <1>   0.2000 
 18 C        3.9460     1.7920    -1.5320 C.3   1 <1>  -0.1020 
 19 C       -4.7320     6.6750    -0.4900 C.3   1 <1>   0.1200 
 20 O       -5.0890     3.9370    -2.1880 O.3   1 <1>  -0.6800 
 21 C       -6.6150     4.9010    -0.5820 C.3   1 <1>   0.3000 
 22 C       -6.1900     6.3590    -0.8600 C.3   1 <1>  -0.1600 
 23 N       -7.0600     4.8670     0.8330 N.am  1 <1>  -0.7300 
 24 C       -7.8160     4.5670    -1.4830 C.3   1 <1>  -0.2400 
 25 C       -7.6650     3.9560     1.6330 C.2   1 <1>   0.5690 
 26 O       -7.8120     4.2260     2.7970 O.2   1 <1>  -0.5700 
 27 C       -8.1370     2.5900     1.1620 C.3   1 <1>  -0.0990 
 28 C       -9.6460     2.5670     0.8700 C.3   1 <1>  -0.1600 
 29 C      -10.0930     1.1970     0.3510 C.3   1 <1>  -0.2400 
 30 H       -1.6260     5.6270     0.4640 H     1 <1>   0.0800 
 31 H       -0.6710     4.4370    -0.3740 H     1 <1>   0.0800 
 32 H       -2.8440     3.3050     3.0770 H     1 <1>   0.0800 
 33 H       -2.9160     4.9580     2.5320 H     1 <1>   0.0800 
 34 H        1.9640     3.5360     2.3340 H     1 <1>   0.1500 
 35 H       -2.6850     3.2220    -1.0270 H     1 <1>   0.0800 
 36 H       -2.7510     4.8550    -1.5830 H     1 <1>   0.0800 
 37 H       -4.9490     3.7350     1.9260 H     1 <1>   0.0800 
 38 H       -4.0120     2.5370     1.1000 H     1 <1>   0.0800 
 39 H        1.3760     1.2160    -1.8670 H     1 <1>   0.3700 
 40 H        3.9110     3.0900     0.9280 H     1 <1>   0.1500 
 41 H       -5.6460     2.9600    -0.5620 H     1 <1>   0.0800 
 42 H        3.7920     2.2590    -2.4880 H     1 <1>   0.0800 
 43 H        4.0180     0.7280    -1.6690 H     1 <1>   0.0800 
 44 H        4.8740     2.1470    -1.1220 H     1 <1>   0.0800 
 45 H       -4.6620     7.6540    -0.0480 H     1 <1>   0.0800 
 46 H       -4.0970     6.6500    -1.3580 H     1 <1>   0.0800 
 47 H       -4.7360     4.7980    -2.4770 H     1 <1>   0.4000 
 48 H       -6.8500     7.0390    -0.3500 H     1 <1>   0.0800 
 49 H       -6.2940     6.5760    -1.9080 H     1 <1>   0.0800 
 50 H       -6.6810     5.6580     1.3590 H     1 <1>   0.3700 
 51 H       -7.5910     4.7890    -2.5100 H     1 <1>   0.0800 
 52 H       -8.6750     5.1460    -1.1960 H     1 <1>   0.0800 
 53 H       -8.0580     3.5240    -1.4450 H     1 <1>   0.0800 
 54 H       -7.5800     2.2760     0.3030 H     1 <1>   0.0800 
 55 H       -7.9260     1.8850     1.9460 H     1 <1>   0.0800 
 56 H      -10.1820     2.7990     1.7750 H     1 <1>   0.0800 
 57 H       -9.8920     3.3220     0.1440 H     1 <1>   0.0800 
 58 H       -9.8810     0.4320     1.0780 H     1 <1>   0.0800 
 59 H       -9.5840     0.9560    -0.5660 H     1 <1>   0.0800 
 60 H      -11.1520     1.2040     0.1620 H     1 <1>   0.0800 
@<TRIPOS>BOND
  1   1   2  2   
  2   2   3  am  
  3   2   4  1   
  4   3   5  1   
  5   3   6  1   
  6   4   7  1   
  7   4   8  2   
  8   5   9  1   
  9   5  30  1   
 10   5  31  1   
 11   6  10  1   
 12   6  32  1   
 13   6  33  1   
 14   7  11  2   
 15   7  12  am  
 16   8  13  1   
 17   8  34  1   
 18   9  14  1   
 19   9  35  1   
 20   9  36  1   
 21  10  14  1   
 22  10  37  1   
 23  10  38  1   
 24  12  15  1   
 25  12  39  1   
 26  13  15  2   
 27  13  40  1   
 28  14  16  1   
 29  14  17  1   
 30  15  18  1   
 31  16  19  1   
 32  17  20  1   
 33  17  21  1   
 34  17  41  1   
 35  18  42  1   
 36  18  43  1   
 37  18  44  1   
 38  19  22  1   
 39  19  45  1   
 40  19  46  1   
 41  20  47  1   
 42  21  22  1   
 43  21  23  1   
 44  21  24  1   
 45  22  48  1   
 46  22  49  1   
 47  23  25  am  
 48  23  50  1   
 49  24  51  1   
 50  24  52  1   
 51  24  53  1   
 52  25  26  2   
 53  25  27  1   
 54  27  28  1   
 55  27  54  1   
 56  27  55  1   
 57  28  29  1   
 58  28  56  1   
 59  28  57  1   
 60  29  58  1   
 61  29  59  1   
 62  29  60  1   
@<TRIPOS>SUBSTRUCTURE
  1 ****  14 GROUP 4 **** **** 0

# MOE 2024.06 (io_trps.svl 2023.06)
