@<TRIPOS>MOLECULE
NONAME
52 54 1 0 0 
SMALL
USER_CHARGES


@<TRIPOS>ATOM
  1 O        0.3470     0.0480    -1.4330 O.2   1 <1>  -0.5700 
  2 C        1.0800    -0.5380    -0.6760 C.2   1 <1>   0.5690 
  3 N        1.9230     0.1150     0.1520 N.am  1 <1>  -0.7300 
  4 C        1.0550    -2.0470    -0.6290 C.3   1 <1>  -0.0990 
  5 C        2.1570     1.5670     0.1670 C.3   1 <1>   0.3640 
  6 C        0.0000    -2.5410     0.3650 C.3   1 <1>   0.0200 
  7 C        3.6510     1.8130     0.4250 C.ar  1 <1>   0.1660 
  8 C        1.2680     2.1890     1.2540 C.3   1 <1>  -0.1600 
  9 C        0.0930    -4.0450     0.5370 C.2   1 <1>   0.0060 
 10 N        4.2430     1.0850     1.3730 N.ar  1 <1>  -0.6200 
 11 C        4.3130     2.7650    -0.3380 C.ar  1 <1>  -0.1500 
 12 C        1.3680     3.7220     1.3140 C.3   1 <1>  -0.2400 
 13 N       -0.5460    -4.8900    -0.1930 N.2   1 <1>  -0.5650 
 14 N        0.8740    -4.6230     1.4840 N.pl3 1 <1>   0.0330 
 15 C        5.5290     1.3320     1.5630 C.ar  1 <1>   0.1600 
 16 C        5.6550     3.0080    -0.1310 C.ar  1 <1>  -0.1430 
 17 C       -0.1750    -6.1150     0.2880 C.ar  1 <1>   0.2270 
 18 C        0.7130    -5.9600     1.3360 C.ar  1 <1>  -0.1520 
 19 C        6.2670     2.2630     0.8540 C.ar  1 <1>  -0.1500 
 20 C        6.4130     4.0430    -0.9430 C.3   1 <1>  -0.0970 
 21 C       -0.5610    -7.3970    -0.1270 C.ar  1 <1>  -0.1430 
 22 C        1.2480    -7.0610     2.0020 C.ar  1 <1>  -0.1500 
 23 C       -0.0260    -8.4970     0.5240 C.ar  1 <1>  -0.1430 
 24 C       -1.5500    -7.5100    -1.2830 C.3   1 <1>  -0.0970 
 25 C        0.8720    -8.3170     1.5880 C.ar  1 <1>  -0.1500 
 26 C       -0.3780    -9.9220     0.1220 C.3   1 <1>  -0.0970 
 27 H        2.6170    -0.3710     0.7270 H     1 <1>   0.3700 
 28 H        2.0270    -2.4110    -0.3520 H     1 <1>   0.0800 
 29 H        0.8260    -2.4260    -1.6090 H     1 <1>   0.0800 
 30 H        1.8820     1.9760    -0.7900 H     1 <1>   0.0800 
 31 H       -0.9790    -2.2890    -0.0040 H     1 <1>   0.0800 
 32 H        0.1290    -2.0590     1.3180 H     1 <1>   0.0800 
 33 H        1.5440     1.7830     2.2110 H     1 <1>   0.0800 
 34 H        0.2450     1.9210     1.0540 H     1 <1>   0.0800 
 35 H        3.7800     3.3160    -1.0910 H     1 <1>   0.1500 
 36 H        2.3670     4.0280     1.5750 H     1 <1>   0.0800 
 37 H        0.6940     4.1030     2.0600 H     1 <1>   0.0800 
 38 H        1.1070     4.1550     0.3640 H     1 <1>   0.0800 
 39 H        1.4630    -4.1570     2.1760 H     1 <1>   0.2700 
 40 H        6.0260     0.7610     2.3280 H     1 <1>   0.1500 
 41 H        7.3090     2.3980     1.0760 H     1 <1>   0.1500 
 42 H        6.0350     4.0790    -1.9490 H     1 <1>   0.0800 
 43 H        7.4590     3.7990    -0.9810 H     1 <1>   0.0800 
 44 H        6.2990     5.0130    -0.4930 H     1 <1>   0.0800 
 45 H        1.9360    -6.9250     2.8170 H     1 <1>   0.1500 
 46 H       -2.2330    -6.6790    -1.2690 H     1 <1>   0.0800 
 47 H       -2.1320    -8.4100    -1.2200 H     1 <1>   0.0800 
 48 H       -1.0170    -7.4960    -2.2150 H     1 <1>   0.0800 
 49 H        1.2750    -9.1800     2.0890 H     1 <1>   0.1500 
 50 H       -0.3120   -10.0350    -0.9450 H     1 <1>   0.0800 
 51 H       -1.3790   -10.1530     0.4400 H     1 <1>   0.0800 
 52 H        0.2960   -10.6290     0.5720 H     1 <1>   0.0800 
@<TRIPOS>BOND
  1   1   2  2   
  2   2   3  am  
  3   2   4  1   
  4   3   5  1   
  5   3  27  1   
  6   4   6  1   
  7   4  28  1   
  8   4  29  1   
  9   5   7  1   
 10   5   8  1   
 11   5  30  1   
 12   6   9  1   
 13   6  31  1   
 14   6  32  1   
 15   7  10  ar  
 16   7  11  ar  
 17   8  12  1   
 18   8  33  1   
 19   8  34  1   
 20   9  13  2   
 21   9  14  1   
 22  10  15  ar  
 23  11  16  ar  
 24  11  35  1   
 25  12  36  1   
 26  12  37  1   
 27  12  38  1   
 28  13  17  1   
 29  14  18  1   
 30  14  39  1   
 31  15  19  ar  
 32  15  40  1   
 33  16  19  ar  
 34  16  20  1   
 35  17  18  ar  
 36  17  21  ar  
 37  18  22  ar  
 38  19  41  1   
 39  20  42  1   
 40  20  43  1   
 41  20  44  1   
 42  21  23  ar  
 43  21  24  1   
 44  22  25  ar  
 45  22  45  1   
 46  23  25  ar  
 47  23  26  1   
 48  24  46  1   
 49  24  47  1   
 50  24  48  1   
 51  25  49  1   
 52  26  50  1   
 53  26  51  1   
 54  26  52  1   
@<TRIPOS>SUBSTRUCTURE
  1 ****   4 GROUP 4 **** **** 0

# MOE 2024.06 (io_trps.svl 2023.06)
