@<TRIPOS>MOLECULE
NONAME
42 45 1 0 0 
SMALL
USER_CHARGES


@<TRIPOS>ATOM
  1 O       -2.7220     0.8030    -1.6650 O.2   1 <1>  -0.5700 
  2 C       -2.5790    -0.2430    -1.0810 C.2   1 <1>   0.5690 
  3 N       -2.1380    -0.2580     0.1950 N.am  1 <1>  -0.7300 
  4 C       -2.8580    -1.5530    -1.7940 C.3   1 <1>  -0.0190 
  5 C       -2.0150    -1.5010     1.0030 C.3   1 <1>   0.2200 
  6 C       -1.5780    -2.4000    -1.8770 C.3   1 <1>   0.1200 
  7 C       -4.0610    -2.3230    -1.2050 C.3   1 <1>   0.1100 
  8 C       -0.9210    -2.4150     0.4110 C.3   1 <1>   0.1200 
  9 C       -3.3650    -2.2490     1.1770 C.3   1 <1>   0.1100 
 10 O       -1.3450    -3.1350    -0.7130 O.3   1 <1>  -0.5600 
 11 N       -4.4150    -1.9290     0.1750 N.3   1 <1>  -0.8100 
 12 C       -5.7360    -2.4560     0.5760 C.3   1 <1>   0.2900 
 13 C       -5.8050    -3.9810     0.5900 C.2   1 <1>  -0.0400 
 14 O       -5.2980    -4.6240     1.6410 O.3   1 <1>  -0.2800 
 15 C       -6.3240    -4.8490    -0.3030 C.2   1 <1>  -0.1810 
 16 C       -5.4750    -5.9280     1.4340 C.ar  1 <1>   0.1400 
 17 C       -6.1170    -6.1400     0.2280 C.ar  1 <1>   0.0000 
 18 C       -7.0070    -4.5940    -1.6340 C.3   1 <1>  -0.0590 
 19 C       -5.0990    -6.9770     2.2620 C.ar  1 <1>  -0.1500 
 20 C       -6.3970    -7.4460    -0.1760 C.ar  1 <1>  -0.1500 
 21 C       -5.3800    -8.2660     1.8560 C.ar  1 <1>  -0.1500 
 22 C       -6.0270    -8.4980     0.6390 C.ar  1 <1>  -0.1500 
 23 H       -2.1190     0.6380     0.6800 H     1 <1>   0.3700 
 24 H       -3.1100    -1.3000    -2.8060 H     1 <1>   0.0800 
 25 H       -1.6740    -1.2150     1.9820 H     1 <1>   0.0800 
 26 H       -0.7170    -1.7860    -2.0840 H     1 <1>   0.0800 
 27 H       -1.6810    -3.1160    -2.6730 H     1 <1>   0.0800 
 28 H       -3.8750    -3.3840    -1.2460 H     1 <1>   0.0800 
 29 H       -4.9090    -2.1190    -1.8340 H     1 <1>   0.0800 
 30 H       -0.6440    -3.1460     1.1490 H     1 <1>   0.0800 
 31 H       -0.0430    -1.8470     0.1550 H     1 <1>   0.0800 
 32 H       -3.7450    -1.9970     2.1520 H     1 <1>   0.0800 
 33 H       -3.1810    -3.3100     1.1810 H     1 <1>   0.0800 
 34 H       -5.9890    -2.0850     1.5530 H     1 <1>   0.0800 
 35 H       -6.4750    -2.0770    -0.1070 H     1 <1>   0.0800 
 36 H       -8.0060    -4.9920    -1.6130 H     1 <1>   0.0800 
 37 H       -6.4570    -5.0750    -2.4220 H     1 <1>   0.0800 
 38 H       -7.0590    -3.5410    -1.8420 H     1 <1>   0.0800 
 39 H       -4.6020    -6.7680     3.1920 H     1 <1>   0.1500 
 40 H       -6.8950    -7.6170    -1.1130 H     1 <1>   0.1500 
 41 H       -5.1010    -9.1010     2.4750 H     1 <1>   0.1500 
 42 H       -6.2370    -9.5100     0.3400 H     1 <1>   0.1500 
@<TRIPOS>BOND
  1   1   2  2   
  2   2   3  am  
  3   2   4  1   
  4   3   5  1   
  5   3  23  1   
  6   4   6  1   
  7   4   7  1   
  8   4  24  1   
  9   5   8  1   
 10   5   9  1   
 11   5  25  1   
 12   6  10  1   
 13   6  26  1   
 14   6  27  1   
 15   7  11  1   
 16   7  28  1   
 17   7  29  1   
 18   8  10  1   
 19   8  30  1   
 20   8  31  1   
 21   9  11  1   
 22   9  32  1   
 23   9  33  1   
 24  11  12  1   
 25  12  13  1   
 26  12  34  1   
 27  12  35  1   
 28  13  14  1   
 29  13  15  2   
 30  14  16  1   
 31  15  17  1   
 32  15  18  1   
 33  16  17  ar  
 34  16  19  ar  
 35  17  20  ar  
 36  18  36  1   
 37  18  37  1   
 38  18  38  1   
 39  19  21  ar  
 40  19  39  1   
 41  20  22  ar  
 42  20  40  1   
 43  21  22  ar  
 44  21  41  1   
 45  22  42  1   
@<TRIPOS>SUBSTRUCTURE
  1 ****  13 GROUP 4 **** **** 0

# MOE 2024.06 (io_trps.svl 2023.06)
