@<TRIPOS>MOLECULE
NONAME
58 62 1 0 0 
SMALL
USER_CHARGES


@<TRIPOS>ATOM
  1 O        1.0830    -2.2470     1.6160 O.3   1 <1>  -0.3630 
  2 C       -0.2680    -2.3080     1.7260 C.ar  1 <1>   0.0830 
  3 C        1.7950    -1.0250     1.7410 C.3   1 <1>   0.2640 
  4 C       -0.8530    -3.5420     1.5000 C.ar  1 <1>  -0.1500 
  5 C       -1.0750    -1.2200     2.0430 C.ar  1 <1>  -0.1500 
  6 C        1.5190    -0.0950     0.5620 C.ar  1 <1>   0.1660 
  7 C       -2.2260    -3.6950     1.5740 C.ar  1 <1>  -0.1500 
  8 C       -2.4480    -1.3710     2.1170 C.ar  1 <1>  -0.1500 
  9 N        1.2670     1.1750     0.8550 N.ar  1 <1>  -0.6200 
 10 C        1.5470    -0.5980    -0.7310 C.ar  1 <1>  -0.1500 
 11 C       -3.0330    -2.6060     1.8730 C.ar  1 <1>  -0.1430 
 12 C        1.0420     1.9690    -0.1790 C.ar  1 <1>   0.1600 
 13 C        1.3070     0.2410    -1.7980 C.ar  1 <1>  -0.1500 
 14 C       -4.5390    -2.7570     1.9190 C.3   1 <1>   0.4860 
 15 C        1.0490     1.5620    -1.5020 C.ar  1 <1>  -0.1500 
 16 N       -5.1050    -2.1110     0.7040 N.4   1 <1>  -0.9590 
 17 C       -6.5970    -1.9800     0.8050 C.3   1 <1>   0.3430 
 18 C       -4.6970    -2.8340    -0.5380 C.3   1 <1>   0.3430 
 19 C       -7.1980    -1.2320    -0.3990 C.3   1 <1>   0.1430 
 20 C       -5.2230    -2.0930    -1.7700 C.3   1 <1>  -0.1600 
 21 C       -8.7020    -1.2760    -0.2780 C.ar  1 <1>   0.1670 
 22 C       -6.7480    -1.8920    -1.7200 C.3   1 <1>  -0.1600 
 23 C       -6.9070     0.2940    -0.3810 C.3   1 <1>  -0.1600 
 24 N       -9.3910    -2.3540     0.0050 N.ar  1 <1>  -0.6200 
 25 C       -9.2650    -0.0510    -0.4770 C.ar  1 <1>  -0.1430 
 26 C       -8.2230     0.9990    -0.7680 C.3   1 <1>  -0.0170 
 27 C      -10.6990    -2.1440     0.0810 C.ar  1 <1>   0.7200 
 28 C      -10.6330     0.0420    -0.3810 C.ar  1 <1>   0.1600 
 29 N      -11.3650    -1.0130    -0.1000 N.ar  1 <1>  -0.6200 
 30 N      -11.4440    -3.2120     0.3640 N.pl3 1 <1>  -0.9000 
 31 H        2.8420    -1.2620     1.7700 H     1 <1>   0.0800 
 32 H        1.5240    -0.5640     2.6740 H     1 <1>   0.0800 
 33 H       -0.2210    -4.3820     1.2680 H     1 <1>   0.1500 
 34 H       -0.6540    -0.2490     2.2330 H     1 <1>   0.1500 
 35 H       -2.6480    -4.6700     1.3960 H     1 <1>   0.1500 
 36 H       -3.0450    -0.5120     2.3700 H     1 <1>   0.1500 
 37 H        1.7560    -1.6390    -0.9000 H     1 <1>   0.1500 
 38 H        0.8410     3.0050     0.0390 H     1 <1>   0.1500 
 39 H        1.3230    -0.1180    -2.8130 H     1 <1>   0.1500 
 40 H       -4.9160    -2.2770     2.8070 H     1 <1>   0.0800 
 41 H       -4.8100    -3.8000     1.9520 H     1 <1>   0.0800 
 42 H        0.8570     2.2710    -2.2860 H     1 <1>   0.1500 
 43 H       -4.6860    -1.1750     0.6530 H     1 <1>   0.4500 
 44 H       -6.8680    -1.4590     1.7090 H     1 <1>   0.0800 
 45 H       -7.0420    -2.9610     0.8470 H     1 <1>   0.0800 
 46 H       -5.0960    -3.8360    -0.5250 H     1 <1>   0.0800 
 47 H       -3.6210    -2.8990    -0.5930 H     1 <1>   0.0800 
 48 H       -4.9730    -2.6640    -2.6490 H     1 <1>   0.0800 
 49 H       -4.7180    -1.1470    -1.8580 H     1 <1>   0.0800 
 50 H       -7.0720    -1.3000    -2.5600 H     1 <1>   0.0800 
 51 H       -7.2260    -2.8540    -1.8070 H     1 <1>   0.0800 
 52 H       -6.1090     0.5810    -1.0420 H     1 <1>   0.0800 
 53 H       -6.6500     0.6030     0.6180 H     1 <1>   0.0800 
 54 H       -8.2360     1.2390    -1.8180 H     1 <1>   0.0800 
 55 H       -8.3840     1.8930    -0.1890 H     1 <1>   0.0800 
 56 H      -11.1310     0.9850    -0.5330 H     1 <1>   0.1500 
 57 H      -12.4380    -3.0940     0.1820 H     1 <1>   0.4000 
 58 H      -11.0480    -4.1140     0.1230 H     1 <1>   0.4000 
@<TRIPOS>BOND
  1   1   2  1   
  2   1   3  1   
  3   2   4  ar  
  4   2   5  ar  
  5   3   6  1   
  6   3  31  1   
  7   3  32  1   
  8   4   7  ar  
  9   4  33  1   
 10   5   8  ar  
 11   5  34  1   
 12   6   9  ar  
 13   6  10  ar  
 14   7  11  ar  
 15   7  35  1   
 16   8  11  ar  
 17   8  36  1   
 18   9  12  ar  
 19  10  13  ar  
 20  10  37  1   
 21  11  14  1   
 22  12  15  ar  
 23  12  38  1   
 24  13  15  ar  
 25  13  39  1   
 26  14  16  1   
 27  14  40  1   
 28  14  41  1   
 29  15  42  1   
 30  16  17  1   
 31  16  18  1   
 32  16  43  1   
 33  17  19  1   
 34  17  44  1   
 35  17  45  1   
 36  18  20  1   
 37  18  46  1   
 38  18  47  1   
 39  19  21  1   
 40  19  22  1   
 41  19  23  1   
 42  20  22  1   
 43  20  48  1   
 44  20  49  1   
 45  21  24  ar  
 46  21  25  ar  
 47  22  50  1   
 48  22  51  1   
 49  23  26  1   
 50  23  52  1   
 51  23  53  1   
 52  24  27  ar  
 53  25  26  1   
 54  25  28  ar  
 55  26  54  1   
 56  26  55  1   
 57  27  29  ar  
 58  27  30  1   
 59  28  29  ar  
 60  28  56  1   
 61  30  57  1   
 62  30  58  1   
@<TRIPOS>SUBSTRUCTURE
  1 ****  16 GROUP 4 **** **** 0

# MOE 2024.06 (io_trps.svl 2023.06)
