@<TRIPOS>MOLECULE
NONAME
47 49 1 0 0 
SMALL
USER_CHARGES


@<TRIPOS>ATOM
  1 O       -0.3060    -0.2120     1.2300 O.2   1 <1>  -0.5700 
  2 C       -1.3040     0.4600     1.0760 C.2   1 <1>   0.5440 
  3 N       -2.5230    -0.1760     1.0690 N.am  1 <1>  -0.6600 
  4 C       -1.1910     1.8780     0.8150 C.ar  1 <1>   0.0860 
  5 C       -2.5870    -1.5530     0.4990 C.3   1 <1>   0.1400 
  6 C       -3.8080     0.4960     1.4270 C.3   1 <1>   0.1400 
  7 C       -1.4050     2.3710    -0.4780 C.ar  1 <1>   0.0730 
  8 C       -0.8680     2.7730     1.8320 C.ar  1 <1>  -0.1500 
  9 C       -4.0110    -2.1300     0.5680 C.3   1 <1>   0.4230 
 10 C       -4.8300     0.2850     0.3060 C.3   1 <1>  -0.1600 
 11 C       -1.7160     1.4660    -1.5490 C.1   1 <1>   0.4840 
 12 C       -1.3140     3.7380    -0.7120 C.ar  1 <1>  -0.1500 
 13 C       -0.7780     4.1290     1.5870 C.ar  1 <1>  -0.1500 
 14 N       -4.1230    -3.5910     0.1630 N.4   1 <1>  -0.9590 
 15 C       -5.0800    -1.2080    -0.0880 C.3   1 <1>   0.0000 
 16 N       -1.9880     0.6970    -2.3480 N.1   1 <1>  -0.5570 
 17 C       -1.0050     4.6140     0.3120 C.ar  1 <1>  -0.1500 
 18 C       -5.5380    -4.0400    -0.0640 C.3   1 <1>   0.3430 
 19 C       -3.2490    -3.9910    -0.9920 C.3   1 <1>   0.2630 
 20 C       -6.4550    -1.6860     0.4630 C.3   1 <1>  -0.1600 
 21 C       -5.0400    -1.2940    -1.6410 C.3   1 <1>   0.1200 
 22 C       -6.5270    -3.2040     0.7560 C.3   1 <1>  -0.1600 
 23 O       -5.9610    -0.4300    -2.2170 O.3   1 <1>  -0.6800 
 24 H       -2.2520    -1.5050    -0.5220 H     1 <1>   0.0800 
 25 H       -1.9150    -2.1830     1.0560 H     1 <1>   0.0800 
 26 H       -4.1780     0.0820     2.3510 H     1 <1>   0.0800 
 27 H       -3.6540     1.5500     1.5830 H     1 <1>   0.0800 
 28 H       -0.6820     2.3940     2.8230 H     1 <1>   0.1500 
 29 H       -4.2460    -2.1060     1.6190 H     1 <1>   0.0800 
 30 H       -5.7540     0.7640     0.5770 H     1 <1>   0.0800 
 31 H       -4.4610     0.8370    -0.5420 H     1 <1>   0.0800 
 32 H       -1.4840     4.1230    -1.7040 H     1 <1>   0.1500 
 33 H       -0.5290     4.8090     2.3850 H     1 <1>   0.1500 
 34 H       -3.7840    -4.1180     0.9820 H     1 <1>   0.4500 
 35 H       -0.9360     5.6720     0.1180 H     1 <1>   0.1500 
 36 H       -5.7900    -3.9410    -1.1070 H     1 <1>   0.0800 
 37 H       -5.6380    -5.0820     0.1970 H     1 <1>   0.0800 
 38 H       -3.5130    -3.4380    -1.8790 H     1 <1>   0.0800 
 39 H       -3.3600    -5.0430    -1.1980 H     1 <1>   0.0800 
 40 H       -2.2120    -3.7990    -0.7670 H     1 <1>   0.0800 
 41 H       -6.6730    -1.1770     1.3870 H     1 <1>   0.0800 
 42 H       -7.2440    -1.4160    -0.2170 H     1 <1>   0.0800 
 43 H       -5.2610    -2.2760    -2.0100 H     1 <1>   0.0800 
 44 H       -4.0700    -1.0040    -2.0080 H     1 <1>   0.0800 
 45 H       -7.5270    -3.5530     0.5620 H     1 <1>   0.0800 
 46 H       -6.3370    -3.3800     1.8010 H     1 <1>   0.0800 
 47 H       -6.8830    -0.6770    -2.0130 H     1 <1>   0.4000 
@<TRIPOS>BOND
  1   1   2  2   
  2   2   3  am  
  3   2   4  1   
  4   3   5  1   
  5   3   6  1   
  6   4   7  ar  
  7   4   8  ar  
  8   5   9  1   
  9   5  24  1   
 10   5  25  1   
 11   6  10  1   
 12   6  26  1   
 13   6  27  1   
 14   7  11  1   
 15   7  12  ar  
 16   8  13  ar  
 17   8  28  1   
 18   9  14  1   
 19   9  15  1   
 20   9  29  1   
 21  10  15  1   
 22  10  30  1   
 23  10  31  1   
 24  11  16  3   
 25  12  17  ar  
 26  12  32  1   
 27  13  17  ar  
 28  13  33  1   
 29  14  18  1   
 30  14  19  1   
 31  14  34  1   
 32  15  20  1   
 33  15  21  1   
 34  17  35  1   
 35  18  22  1   
 36  18  36  1   
 37  18  37  1   
 38  19  38  1   
 39  19  39  1   
 40  19  40  1   
 41  20  22  1   
 42  20  41  1   
 43  20  42  1   
 44  21  23  1   
 45  21  43  1   
 46  21  44  1   
 47  22  45  1   
 48  22  46  1   
 49  23  47  1   
@<TRIPOS>SUBSTRUCTURE
  1 ****   3 GROUP 4 **** **** 0

# MOE 2024.06 (io_trps.svl 2023.06)
