@<TRIPOS>MOLECULE
NONAME
58 61 1 0 0 
SMALL
USER_CHARGES


@<TRIPOS>ATOM
  1 F       -1.3430    -0.8790    -0.0140 F     1 <1>  -0.1900 
  2 C       -2.4980    -0.2740    -0.1260 C.ar  1 <1>   0.1900 
  3 C       -2.5970     1.0840    -0.4490 C.ar  1 <1>   0.0830 
  4 C       -3.6210    -1.0490     0.0880 C.ar  1 <1>  -0.1500 
  5 O       -1.5690     1.9490    -0.6820 O.3   1 <1>  -0.3630 
  6 C       -3.8660     1.6300    -0.5470 C.ar  1 <1>  -0.1500 
  7 C       -4.8730    -0.4720    -0.0190 C.ar  1 <1>  -0.1500 
  8 C       -0.2120     1.5800    -0.5740 C.3   1 <1>   0.0400 
  9 C       -5.0260     0.8800    -0.3360 C.ar  1 <1>   0.0530 
 10 C       -6.3280     1.4940    -0.4530 C.2   1 <1>   0.0870 
 11 O       -6.4950     2.5350    -1.2280 O.3   1 <1>  -0.0190 
 12 C       -7.5430     1.2130     0.0900 C.2   1 <1>  -0.0860 
 13 N       -7.7260     2.9710    -1.2430 N.2   1 <1>  -0.4100 
 14 C       -8.3780     2.2000    -0.4450 C.2   1 <1>   0.3720 
 15 C       -7.9190     0.1750     0.9970 C.2   1 <1>   0.7160 
 16 N       -9.7450     2.3520    -0.1600 N.pl3 1 <1>  -0.8210 
 17 O       -7.3210     0.0460     2.0490 O.2   1 <1>  -0.5700 
 18 N       -8.9070    -0.7270     0.7070 N.am  1 <1>  -0.6600 
 19 C      -10.5190     3.1660    -1.1410 C.3   1 <1>   0.1290 
 20 C      -10.0280     2.7730     1.2410 C.3   1 <1>   0.1290 
 21 C       -9.1330    -1.9590     1.5180 C.3   1 <1>   0.2840 
 22 C       -9.6210    -0.8160    -0.5970 C.3   1 <1>   0.2840 
 23 C       -9.9070    -2.8540     0.5800 C.ar  1 <1>   0.1670 
 24 C      -10.1720    -2.2180    -0.5910 C.ar  1 <1>  -0.1430 
 25 N      -10.2850    -4.0850     0.8300 N.ar  1 <1>  -0.6200 
 26 C      -10.8690    -2.9070    -1.5480 C.ar  1 <1>   0.1600 
 27 C      -10.9590    -4.6820    -0.1550 C.ar  1 <1>   0.4770 
 28 N      -11.2660    -4.1430    -1.3370 N.ar  1 <1>  -0.6200 
 29 C      -11.4210    -6.1440     0.1190 C.3   1 <1>   0.1430 
 30 C      -10.2000    -7.0430     0.3980 C.3   1 <1>  -0.2400 
 31 C      -12.3510    -6.1840     1.3470 C.3   1 <1>  -0.2400 
 32 C      -12.1930    -6.7700    -1.0650 C.3   1 <1>  -0.2400 
 33 H       -3.5130    -2.0900     0.3360 H     1 <1>   0.1500 
 34 H       -3.9500     2.6740    -0.7920 H     1 <1>   0.1500 
 35 H       -5.7370    -1.0890     0.1460 H     1 <1>   0.1500 
 36 H        0.3880     2.4480    -0.7790 H     1 <1>   0.0800 
 37 H        0.0010     0.8120    -1.2960 H     1 <1>   0.0800 
 38 H       -0.0220     1.2340     0.4270 H     1 <1>   0.0800 
 39 H      -10.3080     2.8310    -2.1420 H     1 <1>   0.0800 
 40 H      -10.2450     4.2040    -1.0580 H     1 <1>   0.0800 
 41 H      -11.5740     3.0610    -0.9570 H     1 <1>   0.0800 
 42 H       -9.5040     2.1440     1.9390 H     1 <1>   0.0800 
 43 H      -11.0820     2.6980     1.4420 H     1 <1>   0.0800 
 44 H       -9.7100     3.7910     1.3890 H     1 <1>   0.0800 
 45 H       -9.7140    -1.7330     2.3940 H     1 <1>   0.0800 
 46 H       -8.1990    -2.4150     1.7960 H     1 <1>   0.0800 
 47 H       -8.9430    -0.6640    -1.4190 H     1 <1>   0.0800 
 48 H      -10.4220    -0.0980    -0.6340 H     1 <1>   0.0800 
 49 H      -11.1060    -2.4490    -2.4940 H     1 <1>   0.1500 
 50 H       -9.6650    -6.6920     1.2620 H     1 <1>   0.0800 
 51 H       -9.5310    -7.0250    -0.4430 H     1 <1>   0.0800 
 52 H      -10.5040    -8.0590     0.5760 H     1 <1>   0.0800 
 53 H      -11.8370    -5.8250     2.2200 H     1 <1>   0.0800 
 54 H      -12.6900    -7.1860     1.5400 H     1 <1>   0.0800 
 55 H      -13.2070    -5.5550     1.1790 H     1 <1>   0.0800 
 56 H      -11.5750    -6.7900    -1.9450 H     1 <1>   0.0800 
 57 H      -13.0730    -6.1920    -1.2840 H     1 <1>   0.0800 
 58 H      -12.4950    -7.7760    -0.8390 H     1 <1>   0.0800 
@<TRIPOS>BOND
  1   1   2  1   
  2   2   3  ar  
  3   2   4  ar  
  4   3   5  1   
  5   3   6  ar  
  6   4   7  ar  
  7   4  33  1   
  8   5   8  1   
  9   6   9  ar  
 10   6  34  1   
 11   7   9  ar  
 12   7  35  1   
 13   8  36  1   
 14   8  37  1   
 15   8  38  1   
 16   9  10  1   
 17  10  11  1   
 18  10  12  2   
 19  11  13  1   
 20  12  14  1   
 21  12  15  1   
 22  13  14  2   
 23  14  16  1   
 24  15  17  2   
 25  15  18  am  
 26  16  19  1   
 27  16  20  1   
 28  18  21  1   
 29  18  22  1   
 30  19  39  1   
 31  19  40  1   
 32  19  41  1   
 33  20  42  1   
 34  20  43  1   
 35  20  44  1   
 36  21  23  1   
 37  21  45  1   
 38  21  46  1   
 39  22  24  1   
 40  22  47  1   
 41  22  48  1   
 42  23  24  ar  
 43  23  25  ar  
 44  24  26  ar  
 45  25  27  ar  
 46  26  28  ar  
 47  26  49  1   
 48  27  28  ar  
 49  27  29  1   
 50  29  30  1   
 51  29  31  1   
 52  29  32  1   
 53  30  50  1   
 54  30  51  1   
 55  30  52  1   
 56  31  53  1   
 57  31  54  1   
 58  31  55  1   
 59  32  56  1   
 60  32  57  1   
 61  32  58  1   
@<TRIPOS>SUBSTRUCTURE
  1 ****  18 GROUP 4 **** **** 0

# MOE 2024.06 (io_trps.svl 2023.06)
