@<TRIPOS>MOLECULE
NONAME
50 51 1 0 0 
SMALL
USER_CHARGES


@<TRIPOS>ATOM
  1 O        0.7640     2.7810    -1.4450 O.2   1 <1>  -0.5700 
  2 C       -0.1720     3.5380    -1.3370 C.2   1 <1>   0.5690 
  3 N       -0.9940     3.5610    -0.2450 N.am  1 <1>  -0.6600 
  4 C       -0.4620     4.5230    -2.4720 C.3   1 <1>   0.1810 
  5 C       -2.0240     4.6460    -0.1780 C.3   1 <1>   0.3640 
  6 C       -0.7580     2.6920     0.9360 C.3   1 <1>   0.2200 
  7 O       -0.7870     5.8260    -2.0290 O.3   1 <1>  -0.5600 
  8 C       -3.3450     4.2480    -0.8540 C.ar  1 <1>  -0.1440 
  9 C       -1.4520     5.9630    -0.7680 C.3   1 <1>   0.2610 
 10 C       -2.0580     2.0350     1.4010 C.3   1 <1>  -0.2400 
 11 C       -0.1040     3.5040     2.0530 C.3   1 <1>  -0.2400 
 12 C       -4.4590     5.0500    -0.6360 C.ar  1 <1>  -0.1500 
 13 C       -3.4900     3.1230    -1.6610 C.ar  1 <1>  -0.1500 
 14 C       -0.5210     6.5870     0.2760 C.2   1 <1>   0.5690 
 15 C       -5.6780     4.7500    -1.2180 C.ar  1 <1>  -0.1500 
 16 C       -4.7080     2.8210    -2.2440 C.ar  1 <1>  -0.1500 
 17 O       -0.9970     6.9710     1.3190 O.2   1 <1>  -0.5700 
 18 N        0.8110     6.6880     0.0170 N.am  1 <1>  -0.7300 
 19 C       -5.8030     3.6360    -2.0250 C.ar  1 <1>  -0.1500 
 20 C        1.8420     7.2000     0.9380 C.3   1 <1>   0.1400 
 21 C        2.5500     8.3850     0.2820 C.3   1 <1>  -0.1600 
 22 C        3.6290     8.9660     1.2060 C.3   1 <1>  -0.1600 
 23 C        4.3400    10.1460     0.5460 C.3   1 <1>   0.1200 
 24 O        5.3080    10.6090     1.4140 O.3   1 <1>  -0.6800 
 25 H       -1.2890     4.1580    -3.0540 H     1 <1>   0.0800 
 26 H        0.3970     4.5990    -3.1120 H     1 <1>   0.0800 
 27 H       -2.2600     4.8330     0.8540 H     1 <1>   0.0800 
 28 H       -0.0760     1.9050     0.6550 H     1 <1>   0.0800 
 29 H       -2.2550     6.6590    -0.9200 H     1 <1>   0.0800 
 30 H       -2.7620     2.7610     1.7630 H     1 <1>   0.0800 
 31 H       -1.8470     1.3470     2.2000 H     1 <1>   0.0800 
 32 H       -2.5000     1.4800     0.5930 H     1 <1>   0.0800 
 33 H       -0.7640     4.2640     2.4300 H     1 <1>   0.0800 
 34 H        0.7980     3.9640     1.6910 H     1 <1>   0.0800 
 35 H        0.1560     2.8530     2.8680 H     1 <1>   0.0800 
 36 H       -4.3890     5.9210    -0.0060 H     1 <1>   0.1500 
 37 H       -2.6640     2.4600    -1.8440 H     1 <1>   0.1500 
 38 H       -6.5300     5.3840    -1.0420 H     1 <1>   0.1500 
 39 H       -4.8040     1.9490    -2.8670 H     1 <1>   0.1500 
 40 H        1.1320     6.3830    -0.9070 H     1 <1>   0.3700 
 41 H       -6.7510     3.4010    -2.4790 H     1 <1>   0.1500 
 42 H        1.3850     7.5100     1.8640 H     1 <1>   0.0800 
 43 H        2.5470     6.4150     1.1520 H     1 <1>   0.0800 
 44 H        3.0050     8.0610    -0.6380 H     1 <1>   0.0800 
 45 H        1.8230     9.1470     0.0590 H     1 <1>   0.0800 
 46 H        4.3540     8.2020     1.4300 H     1 <1>   0.0800 
 47 H        3.1710     9.2910     2.1240 H     1 <1>   0.0800 
 48 H        3.6560    10.9520     0.3370 H     1 <1>   0.0800 
 49 H        4.8290     9.8440    -0.3650 H     1 <1>   0.0800 
 50 H        4.9040    10.9030     2.2530 H     1 <1>   0.4000 
@<TRIPOS>BOND
  1   1   2  2   
  2   2   3  am  
  3   2   4  1   
  4   3   5  1   
  5   3   6  1   
  6   4   7  1   
  7   4  25  1   
  8   4  26  1   
  9   5   8  1   
 10   5   9  1   
 11   5  27  1   
 12   6  10  1   
 13   6  11  1   
 14   6  28  1   
 15   7   9  1   
 16   8  12  ar  
 17   8  13  ar  
 18   9  14  1   
 19   9  29  1   
 20  10  30  1   
 21  10  31  1   
 22  10  32  1   
 23  11  33  1   
 24  11  34  1   
 25  11  35  1   
 26  12  15  ar  
 27  12  36  1   
 28  13  16  ar  
 29  13  37  1   
 30  14  17  2   
 31  14  18  am  
 32  15  19  ar  
 33  15  38  1   
 34  16  19  ar  
 35  16  39  1   
 36  18  20  1   
 37  18  40  1   
 38  19  41  1   
 39  20  21  1   
 40  20  42  1   
 41  20  43  1   
 42  21  22  1   
 43  21  44  1   
 44  21  45  1   
 45  22  23  1   
 46  22  46  1   
 47  22  47  1   
 48  23  24  1   
 49  23  48  1   
 50  23  49  1   
 51  24  50  1   
@<TRIPOS>SUBSTRUCTURE
  1 ****   9 GROUP 4 **** **** 0

# MOE 2024.06 (io_trps.svl 2023.06)
