@<TRIPOS>MOLECULE
NONAME
42 44 1 0 0 
SMALL
USER_CHARGES


@<TRIPOS>ATOM
  1 F        1.2760    -2.2230     2.8450 F     1 <1>  -0.3400 
  2 C        0.5030    -1.9020     1.8100 C.3   1 <1>   0.7810 
  3 F       -0.7300    -1.8870     2.3090 F     1 <1>  -0.3400 
  4 C        0.6200    -2.9620     0.7070 C.2   1 <1>   0.1080 
  5 N        0.9910    -2.7080    -0.5200 N.2   1 <1>  -0.7070 
  6 C        0.3470    -4.3080     0.8820 C.2   1 <1>  -0.1500 
  7 N        0.9590    -3.8930    -1.1500 N.pl3 1 <1>   0.3140 
  8 C        0.5680    -4.9020    -0.3260 C.2   1 <1>  -0.2370 
  9 C        1.3320    -3.9730    -2.5730 C.3   1 <1>   0.0160 
 10 C        0.4350    -6.2800    -0.7050 C.2   1 <1>   0.7150 
 11 O        0.6310    -6.6650    -1.8410 O.2   1 <1>  -0.5700 
 12 N        0.0660    -7.1900     0.2330 N.am  1 <1>  -0.7300 
 13 C       -0.1210    -8.6400     0.0060 C.3   1 <1>   0.2200 
 14 C       -1.6080    -8.9470    -0.0460 C.3   1 <1>  -0.0800 
 15 C        0.3100    -9.4080     1.2500 C.3   1 <1>   0.1200 
 16 C       -1.9650    -9.0890     1.4380 C.3   1 <1>   0.1200 
 17 C       -1.8900   -10.2350    -0.8430 C.3   1 <1>  -0.0160 
 18 O       -0.7760    -9.3580     2.1260 O.3   1 <1>  -0.5600 
 19 C       -3.3810   -10.5310    -0.9130 C.ar  1 <1>  -0.1430 
 20 C       -4.2270    -9.8040    -1.7260 C.ar  1 <1>  -0.1500 
 21 C       -3.9650   -11.5380    -0.1720 C.ar  1 <1>  -0.1500 
 22 C       -5.5780   -10.1070    -1.7540 C.ar  1 <1>   0.1600 
 23 C       -5.3290   -11.7600    -0.2720 C.ar  1 <1>   0.1600 
 24 N       -6.1500   -11.0670    -1.0450 N.ar  1 <1>  -0.6200 
 25 H        0.7560    -0.9090     1.4860 H     1 <1>   0.0800 
 26 H        0.0260    -4.7560     1.8050 H     1 <1>   0.1500 
 27 H        2.1610    -4.6460    -2.6850 H     1 <1>   0.0800 
 28 H        1.6100    -2.9970    -2.9250 H     1 <1>   0.0800 
 29 H        0.4940    -4.3350    -3.1380 H     1 <1>   0.0800 
 30 H       -0.1270    -6.8760     1.1840 H     1 <1>   0.3700 
 31 H        0.4130    -8.9570    -0.8740 H     1 <1>   0.0800 
 32 H       -2.1550    -8.1370    -0.4970 H     1 <1>   0.0800 
 33 H        1.1780    -8.9830     1.7230 H     1 <1>   0.0800 
 34 H        0.4930   -10.4420     1.0160 H     1 <1>   0.0800 
 35 H       -2.6650    -9.8820     1.6310 H     1 <1>   0.0800 
 36 H       -2.3600    -8.1660     1.8240 H     1 <1>   0.0800 
 37 H       -1.3780   -11.0700    -0.3980 H     1 <1>   0.0800 
 38 H       -1.5170   -10.1220    -1.8460 H     1 <1>   0.0800 
 39 H       -3.8490    -9.0050    -2.3380 H     1 <1>   0.1500 
 40 H       -3.3760   -12.1530     0.4840 H     1 <1>   0.1500 
 41 H       -6.2230    -9.5290    -2.3940 H     1 <1>   0.1500 
 42 H       -5.7670   -12.5490     0.3140 H     1 <1>   0.1500 
@<TRIPOS>BOND
  1   1   2  1   
  2   2   3  1   
  3   2   4  1   
  4   2  25  1   
  5   4   5  2   
  6   4   6  1   
  7   5   7  1   
  8   6   8  2   
  9   6  26  1   
 10   7   8  1   
 11   7   9  1   
 12   8  10  1   
 13   9  27  1   
 14   9  28  1   
 15   9  29  1   
 16  10  11  2   
 17  10  12  am  
 18  12  13  1   
 19  12  30  1   
 20  13  14  1   
 21  13  15  1   
 22  13  31  1   
 23  14  16  1   
 24  14  17  1   
 25  14  32  1   
 26  15  18  1   
 27  15  33  1   
 28  15  34  1   
 29  16  18  1   
 30  16  35  1   
 31  16  36  1   
 32  17  19  1   
 33  17  37  1   
 34  17  38  1   
 35  19  20  ar  
 36  19  21  ar  
 37  20  22  ar  
 38  20  39  1   
 39  21  23  ar  
 40  21  40  1   
 41  22  24  ar  
 42  22  41  1   
 43  23  24  ar  
 44  23  42  1   
@<TRIPOS>SUBSTRUCTURE
  1 ****  12 GROUP 4 **** **** 0

# MOE 2024.06 (io_trps.svl 2023.06)
