@<TRIPOS>MOLECULE
NONAME
22 22 1 0 0 
SMALL
USER_CHARGES


@<TRIPOS>ATOM
  1 O       -1.3060     0.1170    -1.9820 O.2   1 <1>  -0.5700 
  2 C       -1.9800    -0.2100    -1.0440 C.2   1 <1>   0.5690 
  3 N       -2.2330    -1.4860    -0.7050 N.am  1 <1>  -0.7300 
  4 C       -2.6880     0.7590    -0.0980 C.3   1 <1>   0.0610 
  5 C       -3.0210    -1.5870     0.5280 C.3   1 <1>   0.1400 
  6 C       -3.7080    -0.2020     0.5800 C.3   1 <1>   0.4230 
  7 C       -3.3170     1.9670    -0.8370 C.3   1 <1>  -0.2400 
  8 C       -1.6920     1.3000     0.9500 C.3   1 <1>  -0.2400 
  9 N       -4.9750    -0.2670    -0.2090 N.4   1 <1>  -0.8530 
 10 H       -1.6870    -2.2590    -1.1070 H     1 <1>   0.3700 
 11 H       -3.7220    -2.4040     0.4890 H     1 <1>   0.0800 
 12 H       -2.3550    -1.7170     1.3650 H     1 <1>   0.0800 
 13 H       -3.9160     0.0980     1.5940 H     1 <1>   0.0800 
 14 H       -3.9130     2.5660    -0.1710 H     1 <1>   0.0800 
 15 H       -3.9110     1.6590    -1.6790 H     1 <1>   0.0800 
 16 H       -2.5330     2.5930    -1.2300 H     1 <1>   0.0800 
 17 H       -2.1880     1.9340     1.6660 H     1 <1>   0.0800 
 18 H       -0.9260     1.8810     0.4630 H     1 <1>   0.0800 
 19 H       -1.2030     0.5000     1.4790 H     1 <1>   0.0800 
 20 H       -4.7630    -0.6430    -1.1440 H     1 <1>   0.4500 
 21 H       -5.3710     0.6720    -0.3330 H     1 <1>   0.4500 
 22 H       -5.6790    -0.8680     0.2310 H     1 <1>   0.4500 
@<TRIPOS>BOND
  1   1   2  2   
  2   2   3  am  
  3   2   4  1   
  4   3   5  1   
  5   3  10  1   
  6   4   6  1   
  7   4   7  1   
  8   4   8  1   
  9   5   6  1   
 10   5  11  1   
 11   5  12  1   
 12   6   9  1   
 13   6  13  1   
 14   7  14  1   
 15   7  15  1   
 16   7  16  1   
 17   8  17  1   
 18   8  18  1   
 19   8  19  1   
 20   9  20  1   
 21   9  21  1   
 22   9  22  1   
@<TRIPOS>SUBSTRUCTURE
  1 ****   4 GROUP 4 **** **** 0

# MOE 2024.06 (io_trps.svl 2023.06)
