@<TRIPOS>MOLECULE
NONAME
48 50 1 0 0 
SMALL
USER_CHARGES


@<TRIPOS>ATOM
  1 O       -0.3900    -0.0990    -0.5420 O.3   1 <1>  -0.3630 
  2 C       -0.2990     1.2490    -0.4300 C.ar  1 <1>   0.0830 
  3 C       -1.6180    -0.7660    -0.3790 C.3   1 <1>   0.1200 
  4 C       -1.3850     2.0830    -0.1780 C.ar  1 <1>  -0.1500 
  5 C        0.9620     1.8030    -0.5780 C.ar  1 <1>  -0.1500 
  6 C       -1.3780    -2.2750    -0.5320 C.3   1 <1>  -0.0800 
  7 C       -1.1980     3.4510    -0.0770 C.ar  1 <1>  -0.1500 
  8 C        1.1450     3.1710    -0.4770 C.ar  1 <1>  -0.1500 
  9 C       -2.7230    -3.0270    -0.4800 C.3   1 <1>   0.3430 
 10 C       -0.3770    -2.8110     0.5120 C.3   1 <1>  -0.1600 
 11 C        0.0650     4.0020    -0.2270 C.ar  1 <1>  -0.1440 
 12 N       -2.6110    -4.3820     0.1580 N.4   1 <1>  -0.9590 
 13 C       -0.1520    -4.3250     0.3330 C.3   1 <1>  -0.1600 
 14 C        0.2650     5.5030    -0.1140 C.3   1 <1>  -0.0970 
 15 C       -1.3550    -5.0680    -0.2610 C.3   1 <1>   0.3430 
 16 C       -3.8420    -5.1830    -0.1380 C.3   1 <1>   0.3430 
 17 C       -3.9790    -6.4360     0.7380 C.3   1 <1>   0.0200 
 18 C       -5.2850    -7.1290     0.4030 C.2   1 <1>   0.0060 
 19 N       -6.0900    -6.7080    -0.5190 N.2   1 <1>  -0.5650 
 20 N       -5.7240    -8.2430     1.0340 N.pl3 1 <1>   0.0330 
 21 C       -7.1070    -7.5910    -0.4910 C.2   1 <1>   0.0770 
 22 C       -6.8990    -8.5350     0.4510 C.2   1 <1>  -0.3020 
 23 H       -2.2930    -0.4040    -1.1350 H     1 <1>   0.0800 
 24 H       -1.9970    -0.5320     0.6010 H     1 <1>   0.0800 
 25 H       -2.3770     1.6970    -0.0570 H     1 <1>   0.1500 
 26 H        1.8000     1.1590    -0.7730 H     1 <1>   0.1500 
 27 H       -0.9620    -2.4290    -1.5140 H     1 <1>   0.0800 
 28 H       -2.0420     4.0890     0.1190 H     1 <1>   0.1500 
 29 H        2.1310     3.5840    -0.5930 H     1 <1>   0.1500 
 30 H       -3.0990    -3.1250    -1.4850 H     1 <1>   0.0800 
 31 H       -3.4350    -2.4410     0.0790 H     1 <1>   0.0800 
 32 H       -0.7570    -2.6170     1.5010 H     1 <1>   0.0800 
 33 H        0.5680    -2.2990     0.4270 H     1 <1>   0.0800 
 34 H       -2.5440    -4.2310     1.1730 H     1 <1>   0.4500 
 35 H        0.1090    -4.7600     1.2820 H     1 <1>   0.0800 
 36 H        0.6870    -4.4840    -0.3220 H     1 <1>   0.0800 
 37 H       -0.6170     6.0250    -0.4400 H     1 <1>   0.0800 
 38 H        1.0910     5.8190    -0.7250 H     1 <1>   0.0800 
 39 H        0.4680     5.7660     0.9080 H     1 <1>   0.0800 
 40 H       -1.2880    -5.0600    -1.3380 H     1 <1>   0.0800 
 41 H       -1.3430    -6.0930     0.0710 H     1 <1>   0.0800 
 42 H       -3.8500    -5.4800    -1.1740 H     1 <1>   0.0800 
 43 H       -4.7160    -4.5730     0.0250 H     1 <1>   0.0800 
 44 H       -3.9890    -6.1590     1.7760 H     1 <1>   0.0800 
 45 H       -3.1720    -7.1190     0.5510 H     1 <1>   0.0800 
 46 H       -5.2710    -8.7630     1.7920 H     1 <1>   0.2700 
 47 H       -7.9480    -7.5010    -1.1610 H     1 <1>   0.1500 
 48 H       -7.5110    -9.3750     0.7280 H     1 <1>   0.1500 
@<TRIPOS>BOND
  1   1   2  1   
  2   1   3  1   
  3   2   4  ar  
  4   2   5  ar  
  5   3   6  1   
  6   3  23  1   
  7   3  24  1   
  8   4   7  ar  
  9   4  25  1   
 10   5   8  ar  
 11   5  26  1   
 12   6   9  1   
 13   6  10  1   
 14   6  27  1   
 15   7  11  ar  
 16   7  28  1   
 17   8  11  ar  
 18   8  29  1   
 19   9  12  1   
 20   9  30  1   
 21   9  31  1   
 22  10  13  1   
 23  10  32  1   
 24  10  33  1   
 25  11  14  1   
 26  12  15  1   
 27  12  16  1   
 28  12  34  1   
 29  13  15  1   
 30  13  35  1   
 31  13  36  1   
 32  14  37  1   
 33  14  38  1   
 34  14  39  1   
 35  15  40  1   
 36  15  41  1   
 37  16  17  1   
 38  16  42  1   
 39  16  43  1   
 40  17  18  1   
 41  17  44  1   
 42  17  45  1   
 43  18  19  2   
 44  18  20  1   
 45  19  21  1   
 46  20  22  1   
 47  20  46  1   
 48  21  22  2   
 49  21  47  1   
 50  22  48  1   
@<TRIPOS>SUBSTRUCTURE
  1 ****   9 GROUP 4 **** **** 0

# MOE 2024.06 (io_trps.svl 2023.06)
