@<TRIPOS>MOLECULE
NONAME
50 52 1 0 0 
SMALL
USER_CHARGES


@<TRIPOS>ATOM
  1 O        2.2070    -0.0120     2.3200 O.2   1 <1>  -0.5700 
  2 C        2.4080    -0.4230     1.1930 C.2   1 <1>   0.5440 
  3 N        2.7570     0.4690     0.2000 N.am  1 <1>  -0.6600 
  4 C        2.2540    -1.8330     0.9250 C.ar  1 <1>   0.0860 
  5 C        3.2040     0.0170    -1.1630 C.3   1 <1>   0.1400 
  6 C        2.7670     1.9350     0.4720 C.3   1 <1>   0.1400 
  7 C        1.0380    -2.3550     0.5090 C.ar  1 <1>   0.1660 
  8 C        3.2940    -2.7450     1.0520 C.ar  1 <1>   0.1660 
  9 C        4.3590     0.8400    -1.7580 C.3   1 <1>   0.1400 
 10 C        4.1350     2.3770     1.0090 C.3   1 <1>  -0.1600 
 11 N        0.8710    -3.6270     0.2240 N.ar  1 <1>  -0.6200 
 12 C       -0.1880    -1.4690     0.3530 C.3   1 <1>  -0.0960 
 13 N        3.1450    -4.0230     0.7800 N.ar  1 <1>  -0.6200 
 14 C        4.6880    -2.3440     1.5070 C.3   1 <1>  -0.0970 
 15 N        5.4070     1.1340    -0.7390 N.am  1 <1>  -0.6600 
 16 C        5.2430     2.4410    -0.0480 C.3   1 <1>   0.1400 
 17 C        1.9400    -4.3890     0.3810 C.ar  1 <1>   0.4700 
 18 C        6.3720     0.2010    -0.4520 C.2   1 <1>   0.5690 
 19 O        6.4260    -0.8450    -1.0590 O.2   1 <1>  -0.5700 
 20 C        7.3910     0.4140     0.6610 C.3   1 <1>   0.0440 
 21 C        8.4320     1.4850     0.3470 C.ar  1 <1>  -0.1440 
 22 C        9.0500     1.5210    -0.8950 C.ar  1 <1>  -0.1500 
 23 C        8.7730     2.4320     1.3020 C.ar  1 <1>  -0.1500 
 24 C        9.9880     2.4970    -1.1810 C.ar  1 <1>  -0.1500 
 25 C        9.7110     3.4080     1.0160 C.ar  1 <1>  -0.1500 
 26 C       10.3190     3.4420    -0.2270 C.ar  1 <1>  -0.1500 
 27 H        2.3670     0.0510    -1.8360 H     1 <1>   0.0800 
 28 H        3.5380    -1.0050    -1.1170 H     1 <1>   0.0800 
 29 H        2.0150     2.1590     1.2110 H     1 <1>   0.0800 
 30 H        2.5130     2.4810    -0.4190 H     1 <1>   0.0800 
 31 H        3.9760     1.7590    -2.1650 H     1 <1>   0.0800 
 32 H        4.7950     0.2910    -2.5750 H     1 <1>   0.0800 
 33 H        4.4310     1.7270     1.8140 H     1 <1>   0.0800 
 34 H        4.0260     3.3610     1.4260 H     1 <1>   0.0800 
 35 H       -0.3350    -0.8780     1.2390 H     1 <1>   0.0800 
 36 H       -1.0670    -2.0680     0.1980 H     1 <1>   0.0800 
 37 H       -0.0630    -0.8160    -0.4910 H     1 <1>   0.0800 
 38 H        4.7740    -1.2900     1.6900 H     1 <1>   0.0800 
 39 H        5.4010    -2.6190     0.7510 H     1 <1>   0.0800 
 40 H        4.9310    -2.8680     2.4130 H     1 <1>   0.0800 
 41 H        6.1620     2.7410     0.4180 H     1 <1>   0.0800 
 42 H        5.0040     3.1960    -0.7780 H     1 <1>   0.0800 
 43 H        1.8140    -5.4350     0.1550 H     1 <1>   0.1500 
 44 H        7.9040    -0.5150     0.8350 H     1 <1>   0.0800 
 45 H        6.8610     0.6580     1.5620 H     1 <1>   0.0800 
 46 H        8.8030     0.7890    -1.6460 H     1 <1>   0.1500 
 47 H        8.3120     2.4160     2.2740 H     1 <1>   0.1500 
 48 H       10.4610     2.5190    -2.1480 H     1 <1>   0.1500 
 49 H        9.9710     4.1400     1.7600 H     1 <1>   0.1500 
 50 H       11.0490     4.2000    -0.4500 H     1 <1>   0.1500 
@<TRIPOS>BOND
  1   1   2  2   
  2   2   3  am  
  3   2   4  1   
  4   3   5  1   
  5   3   6  1   
  6   4   7  ar  
  7   4   8  ar  
  8   5   9  1   
  9   5  27  1   
 10   5  28  1   
 11   6  10  1   
 12   6  29  1   
 13   6  30  1   
 14   7  11  ar  
 15   7  12  1   
 16   8  13  ar  
 17   8  14  1   
 18   9  15  1   
 19   9  31  1   
 20   9  32  1   
 21  10  16  1   
 22  10  33  1   
 23  10  34  1   
 24  11  17  ar  
 25  12  35  1   
 26  12  36  1   
 27  12  37  1   
 28  13  17  ar  
 29  14  38  1   
 30  14  39  1   
 31  14  40  1   
 32  15  16  1   
 33  15  18  am  
 34  16  41  1   
 35  16  42  1   
 36  17  43  1   
 37  18  19  2   
 38  18  20  1   
 39  20  21  1   
 40  20  44  1   
 41  20  45  1   
 42  21  22  ar  
 43  21  23  ar  
 44  22  24  ar  
 45  22  46  1   
 46  23  25  ar  
 47  23  47  1   
 48  24  26  ar  
 49  24  48  1   
 50  25  26  ar  
 51  25  49  1   
 52  26  50  1   
@<TRIPOS>SUBSTRUCTURE
  1 ****  15 GROUP 4 **** **** 0

# MOE 2024.06 (io_trps.svl 2023.06)
