@<TRIPOS>MOLECULE
NONAME
57 59 1 0 0 
SMALL
USER_CHARGES


@<TRIPOS>ATOM
  1 O       -0.0100    -0.5200    -0.1650 O.3   1 <1>  -0.2800 
  2 C        0.3160     0.3560     0.7740 C.2   1 <1>   0.0870 
  3 C        0.2110    -1.7400     0.2880 C.2   1 <1>  -0.0400 
  4 C        0.1580     1.7730     0.5430 C.ar  1 <1>   0.0530 
  5 C        0.7870    -0.3230     1.8530 C.2   1 <1>  -0.1500 
  6 C        0.7170    -1.6820     1.5380 C.2   1 <1>  -0.1500 
  7 C       -0.1150    -2.9360    -0.6010 C.3   1 <1>   0.2900 
  8 C       -1.0010     2.3380    -0.0160 C.ar  1 <1>   0.0730 
  9 C        1.2050     2.6220     0.8960 C.ar  1 <1>  -0.1500 
 10 N       -1.5630    -3.2700    -0.5930 N.3   1 <1>  -0.8100 
 11 C       -2.1420     1.5470    -0.3820 C.1   1 <1>   0.4840 
 12 C       -1.0610     3.7150    -0.2090 C.ar  1 <1>  -0.1500 
 13 C        1.1290     3.9870     0.7020 C.ar  1 <1>  -0.1500 
 14 C       -2.3970    -2.0730    -0.8770 C.3   1 <1>   0.1100 
 15 C       -1.8790    -4.3590    -1.5450 C.3   1 <1>   0.1100 
 16 N       -3.0700     0.9470    -0.6780 N.1   1 <1>  -0.5570 
 17 C       -0.0090     4.5370     0.1450 C.ar  1 <1>  -0.1500 
 18 C       -3.8850    -2.3910    -1.1210 C.3   1 <1>   0.3430 
 19 C       -3.3750    -4.7640    -1.4820 C.3   1 <1>   0.3430 
 20 N       -4.1790    -3.7880    -0.6570 N.4   1 <1>  -0.9590 
 21 C       -5.6500    -4.0570    -0.5100 C.3   1 <1>   0.3430 
 22 C       -5.9860    -5.4190     0.1560 C.3   1 <1>   0.2000 
 23 O       -5.6380    -6.4960    -0.6730 O.3   1 <1>  -0.6800 
 24 C       -7.4730    -5.5550     0.5660 C.3   1 <1>   0.3430 
 25 N       -7.7970    -6.9610     0.9900 N.4   1 <1>  -0.9590 
 26 C       -9.2580    -7.2660     0.8670 C.3   1 <1>   0.2630 
 27 C       -7.3170    -7.2760     2.3740 C.3   1 <1>   0.2630 
 28 H        1.1440     0.0820     2.7830 H     1 <1>   0.1500 
 29 H        1.0090    -2.4910     2.1850 H     1 <1>   0.1500 
 30 H        0.4400    -3.7870    -0.2460 H     1 <1>   0.0800 
 31 H        0.2130    -2.7170    -1.6030 H     1 <1>   0.0800 
 32 H        2.0990     2.2030     1.3250 H     1 <1>   0.1500 
 33 H       -1.9450     4.1540    -0.6400 H     1 <1>   0.1500 
 34 H        1.9540     4.6210     0.9810 H     1 <1>   0.1500 
 35 H       -2.0090    -1.5280    -1.7220 H     1 <1>   0.0800 
 36 H       -2.3490    -1.4230    -0.0210 H     1 <1>   0.0800 
 37 H       -1.2740    -5.2220    -1.3240 H     1 <1>   0.0800 
 38 H       -1.6400    -4.0440    -2.5480 H     1 <1>   0.0800 
 39 H       -0.0730     5.6010    -0.0120 H     1 <1>   0.1500 
 40 H       -4.1030    -2.2920    -2.1710 H     1 <1>   0.0800 
 41 H       -4.4820    -1.6690    -0.5880 H     1 <1>   0.0800 
 42 H       -3.4370    -5.7470    -1.0440 H     1 <1>   0.0800 
 43 H       -3.7680    -4.8260    -2.4820 H     1 <1>   0.0800 
 44 H       -3.6930    -3.8160     0.2560 H     1 <1>   0.4500 
 45 H       -6.1260    -4.0030    -1.4750 H     1 <1>   0.0800 
 46 H       -6.0700    -3.2740     0.0990 H     1 <1>   0.0800 
 47 H       -5.3910    -5.5050     1.0500 H     1 <1>   0.0800 
 48 H       -6.0560    -6.4560    -1.5610 H     1 <1>   0.4000 
 49 H       -8.0870    -5.2890    -0.2790 H     1 <1>   0.0800 
 50 H       -7.7020    -4.8680     1.3650 H     1 <1>   0.0800 
 51 H       -7.2740    -7.5850     0.3450 H     1 <1>   0.4500 
 52 H       -9.8320    -6.6360     1.5290 H     1 <1>   0.0800 
 53 H       -9.4480    -8.2950     1.1260 H     1 <1>   0.0800 
 54 H       -9.5950    -7.1030    -0.1440 H     1 <1>   0.0800 
 55 H       -7.8050    -6.6420     3.0970 H     1 <1>   0.0800 
 56 H       -6.2510    -7.1310     2.4470 H     1 <1>   0.0800 
 57 H       -7.5340    -8.3040     2.6190 H     1 <1>   0.0800 
@<TRIPOS>BOND
  1   1   2  1   
  2   1   3  1   
  3   2   4  1   
  4   2   5  2   
  5   3   6  2   
  6   3   7  1   
  7   4   8  ar  
  8   4   9  ar  
  9   5   6  1   
 10   5  28  1   
 11   6  29  1   
 12   7  10  1   
 13   7  30  1   
 14   7  31  1   
 15   8  11  1   
 16   8  12  ar  
 17   9  13  ar  
 18   9  32  1   
 19  10  14  1   
 20  10  15  1   
 21  11  16  3   
 22  12  17  ar  
 23  12  33  1   
 24  13  17  ar  
 25  13  34  1   
 26  14  18  1   
 27  14  35  1   
 28  14  36  1   
 29  15  19  1   
 30  15  37  1   
 31  15  38  1   
 32  17  39  1   
 33  18  20  1   
 34  18  40  1   
 35  18  41  1   
 36  19  20  1   
 37  19  42  1   
 38  19  43  1   
 39  20  21  1   
 40  20  44  1   
 41  21  22  1   
 42  21  45  1   
 43  21  46  1   
 44  22  23  1   
 45  22  24  1   
 46  22  47  1   
 47  23  48  1   
 48  24  25  1   
 49  24  49  1   
 50  24  50  1   
 51  25  26  1   
 52  25  27  1   
 53  25  51  1   
 54  26  52  1   
 55  26  53  1   
 56  26  54  1   
 57  27  55  1   
 58  27  56  1   
 59  27  57  1   
@<TRIPOS>SUBSTRUCTURE
  1 ****  14 GROUP 4 **** **** 0

# MOE 2024.06 (io_trps.svl 2023.06)
