@<TRIPOS>MOLECULE
NONAME
18 18 1 0 0 
SMALL
USER_CHARGES


@<TRIPOS>ATOM
  1 F       -1.0470     0.2940     1.1250 F     1 <1>  -0.3400 
  2 C       -1.2720     1.0950     0.0960 C.3   1 <1>   1.3000 
  3 F       -1.8740     0.3770    -0.8440 F     1 <1>  -0.3400 
  4 F       -0.0940     1.4900    -0.3700 F     1 <1>  -0.3400 
  5 O       -2.0600     2.1630     0.4960 O.3   1 <1>  -0.5380 
  6 C       -2.3030     3.1080    -0.5020 C.3   1 <1>   0.2580 
  7 C       -1.3520     4.3330    -0.4060 C.3   1 <1>   0.0000 
  8 C       -3.4540     4.0630    -0.0920 C.3   1 <1>   0.0000 
  9 C       -2.3820     4.9810     0.5600 C.3   1 <1>  -0.0710 
 10 C       -2.6010     6.4710     0.3500 C.2   1 <1>   0.8710 
 11 O       -1.6230     7.1920     0.1210 O.co2 1 <1>  -0.9000 
 12 O       -3.7500     6.9230     0.4130 O.co2 1 <1>  -0.9000 
 13 H       -2.4200     2.6740    -1.4800 H     1 <1>   0.0000 
 14 H       -1.2750     4.8540    -1.3460 H     1 <1>   0.0000 
 15 H       -0.3970     4.1290     0.0450 H     1 <1>   0.0000 
 16 H       -4.1560     3.6380     0.6040 H     1 <1>   0.0000 
 17 H       -3.9240     4.5150    -0.9490 H     1 <1>   0.0000 
 18 H       -2.1940     4.7200     1.5880 H     1 <1>   0.0000 
@<TRIPOS>BOND
  1   1   2  1   
  2   2   3  1   
  3   2   4  1   
  4   2   5  1   
  5   5   6  1   
  6   6   7  1   
  7   6   8  1   
  8   6  13  1   
  9   7   9  1   
 10   7  14  1   
 11   7  15  1   
 12   8   9  1   
 13   8  16  1   
 14   8  17  1   
 15   9  10  1   
 16   9  18  1   
 17  10  11  ar  
 18  10  12  ar  
@<TRIPOS>SUBSTRUCTURE
  1 ****   6 GROUP 4 **** **** 0

# MOE 2024.06 (io_trps.svl 2023.06)
