@<TRIPOS>MOLECULE
NONAME
44 46 1 0 0 
SMALL
USER_CHARGES


@<TRIPOS>ATOM
  1 S       -0.6140     0.4630     0.4120 S.o2  1 <1>   1.0900 
  2 O        0.7540     0.1160     0.1050 O.2   1 <1>  -0.6500 
  3 O       -0.9500     1.6330     1.1870 O.2   1 <1>  -0.6500 
  4 C       -1.3870    -0.9790     1.0850 C.3   1 <1>  -0.0550 
  5 C       -1.5460     0.4250    -1.1120 C.3   1 <1>  -0.0550 
  6 C       -1.6400    -1.8660    -0.1320 C.3   1 <1>   0.1760 
  7 C       -2.2050    -0.9600    -1.2460 C.3   1 <1>  -0.1600 
  8 N       -2.5660    -2.9840     0.1850 N.pl3 1 <1>   0.3140 
  9 N       -3.7180    -2.7620     0.8420 N.2   1 <1>  -0.7070 
 10 C       -2.4310    -4.2930    -0.1530 C.2   1 <1>  -0.3320 
 11 C       -4.2990    -3.9190     0.9050 C.2   1 <1>   0.1080 
 12 C       -3.5410    -4.9230     0.2940 C.2   1 <1>   0.0630 
 13 C       -1.2380    -4.8650    -0.9060 C.3   1 <1>  -0.0600 
 14 C       -5.6370    -4.0880     1.5910 C.3   1 <1>  -0.0590 
 15 N       -3.8210    -6.3070     0.1680 N.am  1 <1>  -0.4930 
 16 C       -4.9790    -6.9270    -0.2090 C.2   1 <1>   0.7160 
 17 O       -5.9630    -6.2720    -0.4930 O.2   1 <1>  -0.5700 
 18 C       -5.0200    -8.3650    -0.2450 C.2   1 <1>  -0.0860 
 19 C       -4.1190    -9.2910    -0.6450 C.2   1 <1>  -0.0400 
 20 C       -6.0680    -9.1760     0.1650 C.2   1 <1>   0.1080 
 21 O       -4.5540   -10.5150    -0.4710 O.3   1 <1>  -0.0190 
 22 C       -2.7440    -9.1280    -1.2650 C.3   1 <1>  -0.0600 
 23 N       -5.7640   -10.4100     0.0280 N.2   1 <1>  -0.4100 
 24 C       -7.4020    -8.7020     0.7070 C.3   1 <1>  -0.0590 
 25 H       -2.3200    -0.7050     1.5420 H     1 <1>   0.0800 
 26 H       -0.7580    -1.4650     1.8050 H     1 <1>   0.0800 
 27 H       -0.8930     0.6150    -1.9430 H     1 <1>   0.0800 
 28 H       -2.3060     1.1840    -1.0980 H     1 <1>   0.0800 
 29 H       -0.6990    -2.2720    -0.4540 H     1 <1>   0.0800 
 30 H       -2.0180    -1.3850    -2.2160 H     1 <1>   0.0800 
 31 H       -3.2690    -0.8470    -1.1140 H     1 <1>   0.0800 
 32 H       -1.1290    -4.3730    -1.8570 H     1 <1>   0.0800 
 33 H       -1.3700    -5.9150    -1.0870 H     1 <1>   0.0800 
 34 H       -0.3360    -4.7300    -0.3350 H     1 <1>   0.0800 
 35 H       -5.7530    -3.3400     2.3540 H     1 <1>   0.0800 
 36 H       -5.7060    -5.0590     2.0420 H     1 <1>   0.0800 
 37 H       -6.4250    -3.9750     0.8700 H     1 <1>   0.0800 
 38 H       -3.0440    -6.9240     0.3880 H     1 <1>   0.3700 
 39 H       -2.5450    -8.1020    -1.5090 H     1 <1>   0.0800 
 40 H       -2.6910    -9.7050    -2.1720 H     1 <1>   0.0800 
 41 H       -1.9910    -9.4870    -0.5870 H     1 <1>   0.0800 
 42 H       -7.2480    -8.0420     1.5410 H     1 <1>   0.0800 
 43 H       -7.9900    -9.5420     1.0300 H     1 <1>   0.0800 
 44 H       -7.9390    -8.1760    -0.0610 H     1 <1>   0.0800 
@<TRIPOS>BOND
  1   1   2  2   
  2   1   3  2   
  3   1   4  1   
  4   1   5  1   
  5   4   6  1   
  6   4  25  1   
  7   4  26  1   
  8   5   7  1   
  9   5  27  1   
 10   5  28  1   
 11   6   7  1   
 12   6   8  1   
 13   6  29  1   
 14   7  30  1   
 15   7  31  1   
 16   8   9  1   
 17   8  10  1   
 18   9  11  2   
 19  10  12  2   
 20  10  13  1   
 21  11  12  1   
 22  11  14  1   
 23  12  15  1   
 24  13  32  1   
 25  13  33  1   
 26  13  34  1   
 27  14  35  1   
 28  14  36  1   
 29  14  37  1   
 30  15  16  am  
 31  15  38  1   
 32  16  17  2   
 33  16  18  1   
 34  18  19  2   
 35  18  20  1   
 36  19  21  1   
 37  19  22  1   
 38  20  23  2   
 39  20  24  1   
 40  21  23  1   
 41  22  39  1   
 42  22  40  1   
 43  22  41  1   
 44  24  42  1   
 45  24  43  1   
 46  24  44  1   
@<TRIPOS>SUBSTRUCTURE
  1 ****  12 GROUP 4 **** **** 0

# MOE 2024.06 (io_trps.svl 2023.06)
