@<TRIPOS>MOLECULE
NONAME
60 63 1 0 0 
SMALL
USER_CHARGES


@<TRIPOS>ATOM
  1 O       -4.6370     2.6580     1.0620 O.2   1 <1>  -0.5700 
  2 C       -3.5910     2.0910     0.8280 C.2   1 <1>   0.5690 
  3 N       -3.3100     0.9230     1.5010 N.am  1 <1>  -0.6600 
  4 C       -2.6090     2.6960    -0.2210 C.3   1 <1>   0.2040 
  5 C       -4.2630     0.3250     2.4740 C.3   1 <1>   0.1400 
  6 C       -2.0920     0.0780     1.4010 C.3   1 <1>   0.1400 
  7 C       -1.1960     2.8170     0.3860 C.ar  1 <1>  -0.1440 
  8 C       -2.6960     1.9000    -1.5410 C.3   1 <1>  -0.1600 
  9 C       -3.0590     4.0890    -0.7140 C.3   1 <1>  -0.1600 
 10 C       -3.5070    -0.8470     3.1060 C.3   1 <1>   0.2000 
 11 C       -2.4850    -1.2570     2.0440 C.3   1 <1>  -0.0800 
 12 C       -0.0810     2.1540    -0.1220 C.ar  1 <1>  -0.1500 
 13 C       -1.0290     3.6130     1.5140 C.ar  1 <1>  -0.1500 
 14 C       -3.9640     2.3960    -2.2340 C.3   1 <1>  -0.1600 
 15 C       -4.1110     3.8580    -1.8060 C.3   1 <1>  -0.1600 
 16 O       -2.8140    -0.3810     4.2120 O.3   1 <1>  -0.6800 
 17 C       -3.1120    -2.2220     1.0180 C.3   1 <1>   0.0200 
 18 C        1.1610     2.2820     0.4740 C.ar  1 <1>   0.0830 
 19 C        0.2050     3.7350     2.1270 C.ar  1 <1>  -0.1500 
 20 C       -2.1710    -2.5060    -0.1370 C.2   1 <1>  -0.0400 
 21 O        2.1970     1.6280    -0.1060 O.3   1 <1>  -0.3620 
 22 C        1.3030     3.0600     1.6270 C.ar  1 <1>   0.0830 
 23 O       -0.9980    -3.0370     0.0850 O.3   1 <1>  -0.0190 
 24 C       -2.2880    -2.2960    -1.4560 C.2   1 <1>  -0.1500 
 25 C        3.2150     2.4340    -0.6580 C.3   1 <1>   0.0400 
 26 O        2.4740     3.1830     2.2980 O.3   1 <1>  -0.3630 
 27 N       -0.3210    -3.1880    -1.0160 N.2   1 <1>  -0.4100 
 28 C       -1.0730    -2.7520    -1.9620 C.2   1 <1>   0.1080 
 29 C        2.9780     2.0110     2.9000 C.3   1 <1>   0.0400 
 30 C       -0.6800    -2.7370    -3.4220 C.3   1 <1>  -0.0590 
 31 H       -4.5770     1.0460     3.2100 H     1 <1>   0.0800 
 32 H       -5.1250    -0.0310     1.9390 H     1 <1>   0.0800 
 33 H       -1.7610    -0.0360     0.3860 H     1 <1>   0.0800 
 34 H       -1.3020     0.5360     1.9720 H     1 <1>   0.0800 
 35 H       -1.8650     2.1500    -2.1750 H     1 <1>   0.0800 
 36 H       -2.7200     0.8370    -1.3900 H     1 <1>   0.0800 
 37 H       -3.4430     4.7010     0.0840 H     1 <1>   0.0800 
 38 H       -2.2160     4.5960    -1.1510 H     1 <1>   0.0800 
 39 H       -4.1520    -1.6480     3.4250 H     1 <1>   0.0800 
 40 H       -1.6280    -1.7350     2.4870 H     1 <1>   0.0800 
 41 H       -0.1420     1.5200    -0.9860 H     1 <1>   0.1500 
 42 H       -1.8710     4.1420     1.9310 H     1 <1>   0.1500 
 43 H       -3.8990     2.2960    -3.3040 H     1 <1>   0.0800 
 44 H       -4.8140     1.8360    -1.8800 H     1 <1>   0.0800 
 45 H       -5.1000     4.0250    -1.4120 H     1 <1>   0.0800 
 46 H       -3.9480     4.5270    -2.6340 H     1 <1>   0.0800 
 47 H       -2.3610     0.4530     3.9760 H     1 <1>   0.4000 
 48 H       -4.0220    -1.8070     0.6210 H     1 <1>   0.0800 
 49 H       -3.3540    -3.1520     1.5020 H     1 <1>   0.0800 
 50 H        0.3200     4.3500     3.0010 H     1 <1>   0.1500 
 51 H       -3.1000    -1.8780    -2.0210 H     1 <1>   0.1500 
 52 H        3.9080     1.7940    -1.1720 H     1 <1>   0.0800 
 53 H        3.7190     2.9630     0.1300 H     1 <1>   0.0800 
 54 H        2.7700     3.1290    -1.3490 H     1 <1>   0.0800 
 55 H        3.8410     2.2770     3.4830 H     1 <1>   0.0800 
 56 H        3.2560     1.3070     2.1370 H     1 <1>   0.0800 
 57 H        2.2180     1.5920     3.5350 H     1 <1>   0.0800 
 58 H       -1.3680    -3.3350    -3.9910 H     1 <1>   0.0800 
 59 H        0.3100    -3.1380    -3.5390 H     1 <1>   0.0800 
 60 H       -0.6930    -1.7290    -3.7930 H     1 <1>   0.0800 
@<TRIPOS>BOND
  1   1   2  2   
  2   2   3  am  
  3   2   4  1   
  4   3   5  1   
  5   3   6  1   
  6   4   7  1   
  7   4   8  1   
  8   4   9  1   
  9   5  10  1   
 10   5  31  1   
 11   5  32  1   
 12   6  11  1   
 13   6  33  1   
 14   6  34  1   
 15   7  12  ar  
 16   7  13  ar  
 17   8  14  1   
 18   8  35  1   
 19   8  36  1   
 20   9  15  1   
 21   9  37  1   
 22   9  38  1   
 23  10  11  1   
 24  10  16  1   
 25  10  39  1   
 26  11  17  1   
 27  11  40  1   
 28  12  18  ar  
 29  12  41  1   
 30  13  19  ar  
 31  13  42  1   
 32  14  15  1   
 33  14  43  1   
 34  14  44  1   
 35  15  45  1   
 36  15  46  1   
 37  16  47  1   
 38  17  20  1   
 39  17  48  1   
 40  17  49  1   
 41  18  21  1   
 42  18  22  ar  
 43  19  22  ar  
 44  19  50  1   
 45  20  23  1   
 46  20  24  2   
 47  21  25  1   
 48  22  26  1   
 49  23  27  1   
 50  24  28  1   
 51  24  51  1   
 52  25  52  1   
 53  25  53  1   
 54  25  54  1   
 55  26  29  1   
 56  27  28  2   
 57  28  30  1   
 58  29  55  1   
 59  29  56  1   
 60  29  57  1   
 61  30  58  1   
 62  30  59  1   
 63  30  60  1   
@<TRIPOS>SUBSTRUCTURE
  1 ****   6 GROUP 4 **** **** 0

# MOE 2024.06 (io_trps.svl 2023.06)
