@<TRIPOS>MOLECULE
NONAME
56 58 1 0 0 
SMALL
USER_CHARGES


@<TRIPOS>ATOM
  1 O        0.4690    -0.9270     1.7960 O.2   1 <1>  -0.5700 
  2 C       -0.0210    -1.7560     1.0660 C.2   1 <1>   0.5690 
  3 N        0.5900    -2.1510    -0.0980 N.am  1 <1>  -0.6600 
  4 C       -1.3670    -2.3200     1.4830 C.3   1 <1>  -0.0990 
  5 C        0.0370    -3.1330    -1.0690 C.3   1 <1>   0.1400 
  6 C        1.9020    -1.5780    -0.5040 C.3   1 <1>   0.1400 
  7 C       -2.5160    -1.4290     0.9770 C.3   1 <1>  -0.0990 
  8 C        0.4340    -4.5750    -0.7220 C.3   1 <1>  -0.1600 
  9 C        3.0560    -2.5270    -0.1590 C.3   1 <1>  -0.1600 
 10 C       -3.9080    -1.9730     1.2710 C.2   1 <1>   0.5690 
 11 C        1.8310    -4.7750    -0.1050 C.3   1 <1>  -0.1600 
 12 C        2.9460    -3.9420    -0.7570 C.3   1 <1>  -0.1600 
 13 O       -4.0030    -3.1030     1.6930 O.2   1 <1>  -0.5700 
 14 N       -5.0160    -1.1980     1.0360 N.am  1 <1>  -0.6600 
 15 C       -6.3910    -1.7080     1.3280 C.3   1 <1>   0.1400 
 16 C       -5.0140     0.1660     0.4370 C.3   1 <1>   0.1400 
 17 C       -7.2450    -1.7730     0.0370 C.3   1 <1>   0.0000 
 18 C       -5.8350     0.1620    -0.8580 C.3   1 <1>  -0.1600 
 19 C       -8.6770    -2.2780     0.3100 C.3   1 <1>   0.2000 
 20 C       -7.2580    -0.3810    -0.6330 C.3   1 <1>  -0.1600 
 21 C       -6.7090    -2.8650    -0.9060 C.3   1 <1>  -0.1600 
 22 O       -9.1920    -1.8310     1.5150 O.3   1 <1>  -0.6800 
 23 C       -8.6210    -3.8080     0.2950 C.3   1 <1>  -0.1600 
 24 C       -7.2940    -4.1780    -0.3800 C.3   1 <1>  -0.1600 
 25 H       -1.4810    -3.3240     1.1260 H     1 <1>   0.0800 
 26 H       -1.4010    -2.3620     2.5570 H     1 <1>   0.0800 
 27 H       -1.0350    -3.0520    -1.1140 H     1 <1>   0.0800 
 28 H        0.4080    -2.8990    -2.0520 H     1 <1>   0.0800 
 29 H        1.8980    -1.3790    -1.5610 H     1 <1>   0.0800 
 30 H        2.0610    -0.6380    -0.0030 H     1 <1>   0.0800 
 31 H       -2.4260    -1.3040    -0.0860 H     1 <1>   0.0800 
 32 H       -2.4160    -0.4660     1.4420 H     1 <1>   0.0800 
 33 H       -0.2950    -4.9840    -0.0450 H     1 <1>   0.0800 
 34 H        0.3690    -5.1550    -1.6250 H     1 <1>   0.0800 
 35 H        3.9650    -2.0770    -0.5150 H     1 <1>   0.0800 
 36 H        3.1380    -2.5890     0.9120 H     1 <1>   0.0800 
 37 H        1.7880    -4.5470     0.9470 H     1 <1>   0.0800 
 38 H        2.0830    -5.8180    -0.1870 H     1 <1>   0.0800 
 39 H        2.8110    -3.8960    -1.8240 H     1 <1>   0.0800 
 40 H        3.8810    -4.4430    -0.5740 H     1 <1>   0.0800 
 41 H       -6.3440    -2.6790     1.7890 H     1 <1>   0.0800 
 42 H       -6.8490    -1.0370     2.0320 H     1 <1>   0.0800 
 43 H       -5.4510     0.8540     1.1400 H     1 <1>   0.0800 
 44 H       -4.0160     0.5030     0.2220 H     1 <1>   0.0800 
 45 H       -5.8930     1.1650    -1.2410 H     1 <1>   0.0800 
 46 H       -5.3260    -0.4370    -1.5920 H     1 <1>   0.0800 
 47 H       -9.3360    -1.9380    -0.4730 H     1 <1>   0.0800 
 48 H       -7.7800    -0.4240    -1.5730 H     1 <1>   0.0800 
 49 H       -7.7940     0.3020     0.0040 H     1 <1>   0.0800 
 50 H       -7.0790    -2.6980    -1.9030 H     1 <1>   0.0800 
 51 H       -5.6340    -2.9000    -0.9430 H     1 <1>   0.0800 
 52 H       -8.7790    -2.3170     2.2530 H     1 <1>   0.4000 
 53 H       -8.6510    -4.2200     1.2880 H     1 <1>   0.0800 
 54 H       -9.4480    -4.1920    -0.2740 H     1 <1>   0.0800 
 55 H       -6.6220    -4.6000     0.3500 H     1 <1>   0.0800 
 56 H       -7.4330    -4.8920    -1.1730 H     1 <1>   0.0800 
@<TRIPOS>BOND
  1   1   2  2   
  2   2   3  am  
  3   2   4  1   
  4   3   5  1   
  5   3   6  1   
  6   4   7  1   
  7   4  25  1   
  8   4  26  1   
  9   5   8  1   
 10   5  27  1   
 11   5  28  1   
 12   6   9  1   
 13   6  29  1   
 14   6  30  1   
 15   7  10  1   
 16   7  31  1   
 17   7  32  1   
 18   8  11  1   
 19   8  33  1   
 20   8  34  1   
 21   9  12  1   
 22   9  35  1   
 23   9  36  1   
 24  10  13  2   
 25  10  14  am  
 26  11  12  1   
 27  11  37  1   
 28  11  38  1   
 29  12  39  1   
 30  12  40  1   
 31  14  15  1   
 32  14  16  1   
 33  15  17  1   
 34  15  41  1   
 35  15  42  1   
 36  16  18  1   
 37  16  43  1   
 38  16  44  1   
 39  17  19  1   
 40  17  20  1   
 41  17  21  1   
 42  18  20  1   
 43  18  45  1   
 44  18  46  1   
 45  19  22  1   
 46  19  23  1   
 47  19  47  1   
 48  20  48  1   
 49  20  49  1   
 50  21  24  1   
 51  21  50  1   
 52  21  51  1   
 53  22  52  1   
 54  23  24  1   
 55  23  53  1   
 56  23  54  1   
 57  24  55  1   
 58  24  56  1   
@<TRIPOS>SUBSTRUCTURE
  1 ****  10 GROUP 4 **** **** 0

# MOE 2024.06 (io_trps.svl 2023.06)
