@<TRIPOS>MOLECULE
NONAME
39 41 1 0 0 
SMALL
USER_CHARGES


@<TRIPOS>ATOM
  1 O        3.2490     0.3600    -2.0000 O.2   1 <1>  -0.5700 
  2 C        3.0440    -0.6160    -1.2960 C.2   1 <1>   0.7670 
  3 N        3.1470    -0.4840     0.0640 N.2   1 <1>  -0.6610 
  4 C        2.7030    -1.8650    -1.8790 C.2   1 <1>  -0.1360 
  5 C        2.9270    -1.5230     0.7810 C.2   1 <1>   0.4390 
  6 C        2.4830    -2.9390    -1.0880 C.2   1 <1>  -0.0380 
  7 N        2.6020    -2.7380     0.2590 N.pl3 1 <1>  -0.5500 
  8 C        3.0170    -1.4340     2.2840 C.3   1 <1>  -0.1790 
  9 C        2.1190    -4.3410    -1.5640 C.3   1 <1>   0.2480 
 10 N        1.1570    -4.9700    -0.6380 N.3   1 <1>  -0.8100 
 11 C        1.0470    -6.4240    -0.8990 C.3   1 <1>   0.1100 
 12 C       -0.1850    -4.3440    -0.7430 C.3   1 <1>   0.1100 
 13 C        0.0500    -7.1130     0.0530 C.3   1 <1>   0.2090 
 14 C       -1.2120    -4.9960     0.2050 C.3   1 <1>   0.2090 
 15 N       -1.2960    -6.4680    -0.0180 N.pl3 1 <1>  -0.8380 
 16 C       -2.3690    -7.1270     0.5620 C.ar  1 <1>   0.4100 
 17 N       -2.1140    -7.8670     1.6350 N.ar  1 <1>  -0.6200 
 18 C       -3.6650    -6.9970     0.0320 C.ar  1 <1>   0.1600 
 19 C       -3.2010    -8.4390     2.1250 C.ar  1 <1>   0.1600 
 20 N       -4.7520    -7.5640     0.5220 N.ar  1 <1>  -0.6200 
 21 C       -4.4750    -8.2940     1.5920 C.ar  1 <1>   0.1600 
 22 H        2.6400    -1.8940    -2.9480 H     1 <1>   0.1500 
 23 H        2.3680    -3.5300     0.8700 H     1 <1>   0.4000 
 24 H        3.7640    -2.1150     2.6460 H     1 <1>   0.0800 
 25 H        2.0670    -1.6760     2.7220 H     1 <1>   0.0800 
 26 H        3.2890    -0.4360     2.5770 H     1 <1>   0.0800 
 27 H        3.0220    -4.9270    -1.5820 H     1 <1>   0.0800 
 28 H        1.7170    -4.3100    -2.5630 H     1 <1>   0.0800 
 29 H        2.0110    -6.8840    -0.7730 H     1 <1>   0.0800 
 30 H        0.7240    -6.5930    -1.9120 H     1 <1>   0.0800 
 31 H       -0.5500    -4.4300    -1.7520 H     1 <1>   0.0800 
 32 H       -0.1160    -3.2970    -0.5030 H     1 <1>   0.0800 
 33 H        0.4230    -7.0540     1.0610 H     1 <1>   0.0800 
 34 H       -0.0390    -8.1530    -0.2090 H     1 <1>   0.0800 
 35 H       -2.1770    -4.5480     0.0480 H     1 <1>   0.0800 
 36 H       -0.9200    -4.8090     1.2250 H     1 <1>   0.0800 
 37 H       -3.7730    -6.3890    -0.8450 H     1 <1>   0.1500 
 38 H       -3.0760    -9.0560     2.9970 H     1 <1>   0.1500 
 39 H       -5.2970    -8.8010     2.0660 H     1 <1>   0.1500 
@<TRIPOS>BOND
  1   1   2  2   
  2   2   3  1   
  3   2   4  1   
  4   3   5  2   
  5   4   6  2   
  6   4  22  1   
  7   5   7  1   
  8   5   8  1   
  9   6   7  1   
 10   6   9  1   
 11   7  23  1   
 12   8  24  1   
 13   8  25  1   
 14   8  26  1   
 15   9  10  1   
 16   9  27  1   
 17   9  28  1   
 18  10  11  1   
 19  10  12  1   
 20  11  13  1   
 21  11  29  1   
 22  11  30  1   
 23  12  14  1   
 24  12  31  1   
 25  12  32  1   
 26  13  15  1   
 27  13  33  1   
 28  13  34  1   
 29  14  15  1   
 30  14  35  1   
 31  14  36  1   
 32  15  16  1   
 33  16  17  ar  
 34  16  18  ar  
 35  17  19  ar  
 36  18  20  ar  
 37  18  37  1   
 38  19  21  ar  
 39  19  38  1   
 40  20  21  ar  
 41  21  39  1   
@<TRIPOS>SUBSTRUCTURE
  1 ****  12 GROUP 4 **** **** 0

# MOE 2024.06 (io_trps.svl 2023.06)
