@<TRIPOS>MOLECULE
NONAME
49 51 1 0 0 
SMALL
USER_CHARGES


@<TRIPOS>ATOM
  1 CL       0.6910     0.0070    -0.6860 Cl    1 <1>  -0.1770 
  2 C        0.2080    -1.6650    -0.8190 C.ar  1 <1>   0.1770 
  3 C        0.6460    -2.6000     0.1070 C.ar  1 <1>  -0.1440 
  4 C       -0.6160    -2.0290    -1.8660 C.ar  1 <1>  -0.1500 
  5 C        0.2340    -3.9160    -0.0350 C.ar  1 <1>  -0.1500 
  6 C        1.5650    -2.1970     1.2510 C.3   1 <1>  -0.0960 
  7 C       -1.0170    -3.3470    -1.9900 C.ar  1 <1>  -0.1500 
  8 C       -0.6110    -4.3190    -1.0740 C.ar  1 <1>   0.0860 
  9 C       -1.0590    -5.6960    -1.2000 C.2   1 <1>   0.5440 
 10 O       -1.3680    -6.1580    -2.2820 O.2   1 <1>  -0.5700 
 11 N       -1.2320    -6.5110    -0.1050 N.am  1 <1>  -0.6600 
 12 C       -2.1230    -6.0810     1.0120 C.3   1 <1>   0.1400 
 13 C       -1.1840    -7.9910    -0.2870 C.3   1 <1>   0.1400 
 14 C       -3.5540    -6.6540     0.8430 C.3   1 <1>   0.4230 
 15 C       -2.6040    -8.5350    -0.5190 C.3   1 <1>   0.3430 
 16 N       -3.5490    -8.1580     0.6040 N.4   1 <1>  -0.9590 
 17 C       -4.3150    -5.9180    -0.2850 C.3   1 <1>   0.1200 
 18 C       -4.9620    -8.6280     0.3760 C.3   1 <1>   0.4230 
 19 O       -5.6100    -6.4320    -0.4060 O.3   1 <1>  -0.5600 
 20 C       -5.6700    -7.7940    -0.7200 C.3   1 <1>   0.1200 
 21 C       -4.9920   -10.1390     0.0900 C.3   1 <1>  -0.1600 
 22 C       -6.4020   -10.7350     0.2330 C.3   1 <1>  -0.1600 
 23 C       -6.3760   -12.2510     0.0230 C.3   1 <1>  -0.2400 
 24 H       -0.9350    -1.2860    -2.5750 H     1 <1>   0.1500 
 25 H        0.5790    -4.6540     0.6680 H     1 <1>   0.1500 
 26 H        1.8180    -3.0420     1.8650 H     1 <1>   0.0800 
 27 H        1.0840    -1.4590     1.8670 H     1 <1>   0.0800 
 28 H        2.4750    -1.7780     0.8600 H     1 <1>   0.0800 
 29 H       -1.6540    -3.6310    -2.8120 H     1 <1>   0.1500 
 30 H       -1.7070    -6.4200     1.9450 H     1 <1>   0.0800 
 31 H       -2.1730    -5.0060     1.0550 H     1 <1>   0.0800 
 32 H       -0.5660    -8.2330    -1.1360 H     1 <1>   0.0800 
 33 H       -0.7420    -8.4510     0.5790 H     1 <1>   0.0800 
 34 H       -4.0910    -6.4500     1.7550 H     1 <1>   0.0800 
 35 H       -2.5520    -9.6070    -0.6150 H     1 <1>   0.0800 
 36 H       -2.9650    -8.1360    -1.4530 H     1 <1>   0.0800 
 37 H       -3.2110    -8.6080     1.4610 H     1 <1>   0.4500 
 38 H       -3.8170    -6.0150    -1.2340 H     1 <1>   0.0800 
 39 H       -4.4040    -4.8710    -0.0540 H     1 <1>   0.0800 
 40 H       -5.5160    -8.4690     1.2870 H     1 <1>   0.0800 
 41 H       -6.7110    -8.0590    -0.7790 H     1 <1>   0.0800 
 42 H       -5.2240    -7.9490    -1.6870 H     1 <1>   0.0800 
 43 H       -4.6390   -10.3380    -0.9070 H     1 <1>   0.0800 
 44 H       -4.3490   -10.6430     0.7900 H     1 <1>   0.0800 
 45 H       -6.7930   -10.5280     1.2160 H     1 <1>   0.0800 
 46 H       -7.0720   -10.3030    -0.4900 H     1 <1>   0.0800 
 47 H       -5.7450   -12.7290     0.7520 H     1 <1>   0.0800 
 48 H       -6.0160   -12.4950    -0.9620 H     1 <1>   0.0800 
 49 H       -7.3700   -12.6520     0.1260 H     1 <1>   0.0800 
@<TRIPOS>BOND
  1   1   2  1   
  2   2   3  ar  
  3   2   4  ar  
  4   3   5  ar  
  5   3   6  1   
  6   4   7  ar  
  7   4  24  1   
  8   5   8  ar  
  9   5  25  1   
 10   6  26  1   
 11   6  27  1   
 12   6  28  1   
 13   7   8  ar  
 14   7  29  1   
 15   8   9  1   
 16   9  10  2   
 17   9  11  am  
 18  11  12  1   
 19  11  13  1   
 20  12  14  1   
 21  12  30  1   
 22  12  31  1   
 23  13  15  1   
 24  13  32  1   
 25  13  33  1   
 26  14  16  1   
 27  14  17  1   
 28  14  34  1   
 29  15  16  1   
 30  15  35  1   
 31  15  36  1   
 32  16  18  1   
 33  16  37  1   
 34  17  19  1   
 35  17  38  1   
 36  17  39  1   
 37  18  20  1   
 38  18  21  1   
 39  18  40  1   
 40  19  20  1   
 41  20  41  1   
 42  20  42  1   
 43  21  22  1   
 44  21  43  1   
 45  21  44  1   
 46  22  23  1   
 47  22  45  1   
 48  22  46  1   
 49  23  47  1   
 50  23  48  1   
 51  23  49  1   
@<TRIPOS>SUBSTRUCTURE
  1 ****  11 GROUP 4 **** **** 0

# MOE 2024.06 (io_trps.svl 2023.06)
