@<TRIPOS>MOLECULE
NONAME
56 58 1 0 0 
SMALL
USER_CHARGES


@<TRIPOS>ATOM
  1 O        3.5100    -1.2380     2.0240 O.2   1 <1>  -0.5700 
  2 C        3.2850    -1.6790     0.9230 C.2   1 <1>   0.5690 
  3 N        3.8930    -1.3040    -0.2200 N.am  1 <1>  -0.6600 
  4 C        2.2260    -2.7110     0.6540 C.3   1 <1>  -0.0990 
  5 C        4.8890    -0.1950    -0.3370 C.3   1 <1>   0.2810 
  6 C        3.3050    -1.9330    -1.4150 C.3   1 <1>   0.1400 
  7 C        2.3860    -3.0230    -0.8450 C.3   1 <1>  -0.1600 
  8 C        4.3260     1.0140    -1.1280 C.2   1 <1>   0.5690 
  9 C        6.1900    -0.7580    -0.9260 C.3   1 <1>  -0.2400 
 10 O        4.4840     1.0410    -2.3320 O.2   1 <1>  -0.5700 
 11 N        3.6530     2.0350    -0.4920 N.am  1 <1>  -0.6600 
 12 C        3.4090     2.0830     0.9820 C.3   1 <1>   0.1400 
 13 C        3.3460     3.3010    -1.2020 C.3   1 <1>   0.1400 
 14 C        4.6190     2.6050     1.7820 C.3   1 <1>   0.1400 
 15 C        4.5470     4.2530    -1.1430 C.3   1 <1>  -0.1600 
 16 N        5.6040     3.3800     0.9530 N.am  1 <1>  -0.6600 
 17 C        5.0450     4.5850     0.2740 C.3   1 <1>   0.1400 
 18 C        6.8760     2.8970     0.7570 C.2   1 <1>   0.5690 
 19 O        7.2230     1.8330     1.2150 O.2   1 <1>  -0.5700 
 20 C        7.8910     3.6980    -0.0550 C.3   1 <1>  -0.0990 
 21 C        9.3120     3.1010    -0.0630 C.3   1 <1>  -0.1600 
 22 C       10.2870     3.9480    -0.8920 C.3   1 <1>   0.0210 
 23 C       11.6960     3.3790    -0.8900 C.2   1 <1>  -0.1810 
 24 C       12.7870     3.9280    -1.5580 C.2   1 <1>   0.1390 
 25 C       12.1930     2.2800    -0.2800 C.2   1 <1>  -0.3020 
 26 N       13.8740     3.2380    -1.3850 N.2   1 <1>  -0.7070 
 27 N       13.5020     2.2170    -0.5910 N.pl3 1 <1>   0.3000 
 28 H        1.2620    -2.2840     0.8610 H     1 <1>   0.0800 
 29 H        2.3850    -3.5810     1.2640 H     1 <1>   0.0800 
 30 H        5.1340     0.1410     0.6520 H     1 <1>   0.0800 
 31 H        4.0690    -2.3550    -2.0450 H     1 <1>   0.0800 
 32 H        2.7400    -1.2000    -1.9680 H     1 <1>   0.0800 
 33 H        1.4400    -3.0420    -1.3570 H     1 <1>   0.0800 
 34 H        2.8640    -3.9790    -0.9680 H     1 <1>   0.0800 
 35 H        6.0430    -1.0890    -1.9380 H     1 <1>   0.0800 
 36 H        6.5440    -1.5730    -0.3220 H     1 <1>   0.0800 
 37 H        6.9390     0.0130    -0.9290 H     1 <1>   0.0800 
 38 H        3.1370     1.1090     1.3440 H     1 <1>   0.0800 
 39 H        2.5660     2.7210     1.1790 H     1 <1>   0.0800 
 40 H        2.4800     3.7650    -0.7620 H     1 <1>   0.0800 
 41 H        3.1110     3.0870    -2.2310 H     1 <1>   0.0800 
 42 H        5.1030     1.7620     2.2430 H     1 <1>   0.0800 
 43 H        4.2690     3.2270     2.5870 H     1 <1>   0.0800 
 44 H        4.2600     5.1710    -1.6220 H     1 <1>   0.0800 
 45 H        5.3450     3.8340    -1.7260 H     1 <1>   0.0800 
 46 H        4.2340     4.9820     0.8600 H     1 <1>   0.0800 
 47 H        5.7980     5.3500     0.2170 H     1 <1>   0.0800 
 48 H        7.9400     4.6900     0.3520 H     1 <1>   0.0800 
 49 H        7.5390     3.7590    -1.0670 H     1 <1>   0.0800 
 50 H        9.2760     2.1050    -0.4690 H     1 <1>   0.0800 
 51 H        9.6720     3.0340     0.9500 H     1 <1>   0.0800 
 52 H       10.3210     4.9480    -0.4960 H     1 <1>   0.0800 
 53 H        9.9390     4.0020    -1.9090 H     1 <1>   0.0800 
 54 H       12.7480     4.8240    -2.1540 H     1 <1>   0.1500 
 55 H       11.7020     1.5550     0.3430 H     1 <1>   0.1500 
 56 H       14.1640     1.4950    -0.2820 H     1 <1>   0.2700 
@<TRIPOS>BOND
  1   1   2  2   
  2   2   3  am  
  3   2   4  1   
  4   3   5  1   
  5   3   6  1   
  6   4   7  1   
  7   4  28  1   
  8   4  29  1   
  9   5   8  1   
 10   5   9  1   
 11   5  30  1   
 12   6   7  1   
 13   6  31  1   
 14   6  32  1   
 15   7  33  1   
 16   7  34  1   
 17   8  10  2   
 18   8  11  am  
 19   9  35  1   
 20   9  36  1   
 21   9  37  1   
 22  11  12  1   
 23  11  13  1   
 24  12  14  1   
 25  12  38  1   
 26  12  39  1   
 27  13  15  1   
 28  13  40  1   
 29  13  41  1   
 30  14  16  1   
 31  14  42  1   
 32  14  43  1   
 33  15  17  1   
 34  15  44  1   
 35  15  45  1   
 36  16  17  1   
 37  16  18  am  
 38  17  46  1   
 39  17  47  1   
 40  18  19  2   
 41  18  20  1   
 42  20  21  1   
 43  20  48  1   
 44  20  49  1   
 45  21  22  1   
 46  21  50  1   
 47  21  51  1   
 48  22  23  1   
 49  22  52  1   
 50  22  53  1   
 51  23  24  1   
 52  23  25  2   
 53  24  26  2   
 54  24  54  1   
 55  25  27  1   
 56  25  55  1   
 57  26  27  1   
 58  27  56  1   
@<TRIPOS>SUBSTRUCTURE
  1 ****  19 GROUP 4 **** **** 0

# MOE 2024.06 (io_trps.svl 2023.06)
