@<TRIPOS>MOLECULE
NONAME
49 52 1 0 0 
SMALL
USER_CHARGES


@<TRIPOS>ATOM
  1 O       -0.0270     0.4110     0.0940 O.2   1 <1>  -0.5700 
  2 C       -1.0940     1.0050     0.1090 C.2   1 <1>   0.5440 
  3 N       -2.2730     0.2970     0.0740 N.am  1 <1>  -0.4200 
  4 C       -1.1670     2.4380     0.1610 C.ar  1 <1>   0.0860 
  5 C       -3.4690     0.9740     0.0870 C.2   1 <1>   0.4500 
  6 C       -2.2490    -1.1880     0.0230 C.3   1 <1>   0.0600 
  7 C       -2.4380     3.0210     0.1710 C.ar  1 <1>   0.1790 
  8 C       -0.0500     3.2760     0.2050 C.ar  1 <1>  -0.1500 
  9 N       -3.5820     2.2470     0.1300 N.2   1 <1>  -0.6290 
 10 C       -2.5590     4.4030     0.2200 C.ar  1 <1>  -0.1500 
 11 C       -0.1910     4.6460     0.2530 C.ar  1 <1>  -0.1500 
 12 C       -1.4560     5.2480     0.2540 C.ar  1 <1>   0.0860 
 13 C       -1.6190     6.6890     0.2910 C.2   1 <1>   0.5440 
 14 O       -2.5710     7.1760     0.8740 O.2   1 <1>  -0.5700 
 15 N       -0.6950     7.4880    -0.3250 N.am  1 <1>  -0.4930 
 16 C       -0.4970     8.8900    -0.2810 C.2   1 <1>   0.0630 
 17 C        0.7790     9.4630    -0.2380 C.2   1 <1>   0.3720 
 18 C       -1.3490     9.9400    -0.2830 C.2   1 <1>  -0.3320 
 19 N        0.7420    10.7570    -0.1850 N.2   1 <1>  -0.7070 
 20 N        1.9770     8.7190    -0.2470 N.pl3 1 <1>  -0.8210 
 21 N       -0.5770    11.0530    -0.2050 N.pl3 1 <1>   0.3140 
 22 C       -2.8690     9.9620    -0.3680 C.3   1 <1>  -0.0600 
 23 C        2.8620     9.0860    -1.3880 C.3   1 <1>   0.2090 
 24 C        2.7460     8.9200     1.0120 C.3   1 <1>   0.2090 
 25 C       -1.0340    12.4460    -0.1460 C.3   1 <1>   0.0160 
 26 C        4.2740     9.1350    -0.8250 C.3   1 <1>  -0.1600 
 27 C        4.0680     9.5650     0.6170 C.3   1 <1>  -0.1600 
 28 H       -4.3600     0.3700     0.0570 H     1 <1>   0.0600 
 29 H       -1.7350    -1.5680     0.8890 H     1 <1>   0.0800 
 30 H       -1.7240    -1.5080    -0.8600 H     1 <1>   0.0800 
 31 H       -3.2480    -1.5860     0.0040 H     1 <1>   0.0800 
 32 H        0.9310     2.8300     0.2050 H     1 <1>   0.1500 
 33 H       -3.5470     4.8280     0.2320 H     1 <1>   0.1500 
 34 H        0.6920     5.2620     0.3000 H     1 <1>   0.1500 
 35 H        0.1550     7.0270    -0.6490 H     1 <1>   0.3700 
 36 H       -3.2360     9.0180    -0.7280 H     1 <1>   0.0800 
 37 H       -3.2010    10.7250    -1.0470 H     1 <1>   0.0800 
 38 H       -3.2880    10.1410     0.6060 H     1 <1>   0.0800 
 39 H        2.5930    10.0540    -1.7800 H     1 <1>   0.0800 
 40 H        2.7820     8.3560    -2.1740 H     1 <1>   0.0800 
 41 H        2.9240     7.9580     1.4610 H     1 <1>   0.0800 
 42 H        2.2110     9.5380     1.7150 H     1 <1>   0.0800 
 43 H       -1.7760    12.5420     0.6230 H     1 <1>   0.0800 
 44 H       -1.4490    12.7190    -1.0970 H     1 <1>   0.0800 
 45 H       -0.1970    13.0810     0.0790 H     1 <1>   0.0800 
 46 H        4.8980     9.8180    -1.3730 H     1 <1>   0.0800 
 47 H        4.7020     8.1500    -0.8610 H     1 <1>   0.0800 
 48 H        4.8730     9.2630     1.2620 H     1 <1>   0.0800 
 49 H        3.9540    10.6350     0.6680 H     1 <1>   0.0800 
@<TRIPOS>BOND
  1   1   2  2   
  2   2   3  am  
  3   2   4  1   
  4   3   5  1   
  5   3   6  1   
  6   4   7  ar  
  7   4   8  ar  
  8   5   9  2   
  9   5  28  1   
 10   6  29  1   
 11   6  30  1   
 12   6  31  1   
 13   7   9  1   
 14   7  10  ar  
 15   8  11  ar  
 16   8  32  1   
 17  10  12  ar  
 18  10  33  1   
 19  11  12  ar  
 20  11  34  1   
 21  12  13  1   
 22  13  14  2   
 23  13  15  am  
 24  15  16  1   
 25  15  35  1   
 26  16  17  1   
 27  16  18  2   
 28  17  19  2   
 29  17  20  1   
 30  18  21  1   
 31  18  22  1   
 32  19  21  1   
 33  20  23  1   
 34  20  24  1   
 35  21  25  1   
 36  22  36  1   
 37  22  37  1   
 38  22  38  1   
 39  23  26  1   
 40  23  39  1   
 41  23  40  1   
 42  24  27  1   
 43  24  41  1   
 44  24  42  1   
 45  25  43  1   
 46  25  44  1   
 47  25  45  1   
 48  26  27  1   
 49  26  46  1   
 50  26  47  1   
 51  27  48  1   
 52  27  49  1   
@<TRIPOS>SUBSTRUCTURE
  1 ****  13 GROUP 4 **** **** 0

# MOE 2024.06 (io_trps.svl 2023.06)
