@<TRIPOS>MOLECULE
NONAME
50 52 1 0 0 
SMALL
USER_CHARGES


@<TRIPOS>ATOM
  1 S       -1.8690    -2.1590    -1.2570 S.3   1 <1>  -0.4600 
  2 C       -3.6770    -1.9600    -1.3110 C.3   1 <1>   0.2500 
  3 C       -1.3550    -1.7830    -2.9550 C.3   1 <1>  -0.0100 
  4 C       -4.2820    -2.2850     0.0450 C.2   1 <1>  -0.0400 
  5 O       -5.5840    -2.1800     0.1820 O.3   1 <1>  -0.2800 
  6 C       -3.7280    -2.6900     1.2080 C.2   1 <1>  -0.1500 
  7 C       -5.9270    -2.5120     1.4250 C.2   1 <1>   0.0550 
  8 C       -4.7900    -2.8410     2.0990 C.2   1 <1>  -0.1500 
  9 C       -7.3040    -2.5390     1.8780 C.2   1 <1>   0.7150 
 10 O       -7.6040    -3.3310     2.7570 O.2   1 <1>  -0.5700 
 11 N       -8.3100    -1.7370     1.3670 N.am  1 <1>  -0.6600 
 12 C       -9.7420    -2.0230     1.6760 C.3   1 <1>   0.1400 
 13 C       -8.1020    -0.6180     0.4090 C.3   1 <1>   0.1400 
 14 C      -10.3130    -3.1180     0.7590 C.3   1 <1>   0.1400 
 15 C       -8.4130    -1.0330    -1.0380 C.3   1 <1>  -0.1600 
 16 N       -9.8480    -3.0180    -0.6660 N.am  1 <1>  -0.6600 
 17 C       -9.8020    -1.6500    -1.2540 C.3   1 <1>   0.1400 
 18 C       -9.4180    -4.1070    -1.4000 C.2   1 <1>   0.5440 
 19 O       -9.2070    -3.9770    -2.5900 O.2   1 <1>  -0.5700 
 20 C       -9.2120    -5.4060    -0.7950 C.ar  1 <1>   0.0860 
 21 C      -10.0220    -6.4910    -1.0770 C.ar  1 <1>  -0.1500 
 22 C       -8.1890    -5.6530     0.1090 C.ar  1 <1>  -0.1500 
 23 C       -9.8020    -7.7090    -0.4590 C.ar  1 <1>   0.3930 
 24 C       -8.0480    -6.9030     0.6770 C.ar  1 <1>   0.1600 
 25 O      -10.6410    -8.7160    -0.7800 O.3   1 <1>  -0.3630 
 26 N       -8.8310    -7.9380     0.4200 N.ar  1 <1>  -0.6200 
 27 C      -10.4860   -10.0010    -0.2080 C.3   1 <1>   0.0400 
 28 H       -4.0520    -2.6290    -2.0640 H     1 <1>   0.0800 
 29 H       -3.8800    -0.9410    -1.5850 H     1 <1>   0.0800 
 30 H       -0.2850    -1.8840    -3.0010 H     1 <1>   0.0800 
 31 H       -1.6540    -0.7750    -3.1790 H     1 <1>   0.0800 
 32 H       -1.8330    -2.4870    -3.6120 H     1 <1>   0.0800 
 33 H       -2.6900    -2.8710     1.4290 H     1 <1>   0.1500 
 34 H       -4.7110    -3.1660     3.1220 H     1 <1>   0.1500 
 35 H      -10.3230    -1.1250     1.5640 H     1 <1>   0.0800 
 36 H       -9.8420    -2.3340     2.7020 H     1 <1>   0.0800 
 37 H       -7.0890    -0.2600     0.4730 H     1 <1>   0.0800 
 38 H       -8.7400     0.2020     0.6890 H     1 <1>   0.0800 
 39 H      -11.3870    -3.0640     0.7780 H     1 <1>   0.0800 
 40 H      -10.0390    -4.0690     1.1780 H     1 <1>   0.0800 
 41 H       -7.6650    -1.7200    -1.3910 H     1 <1>   0.0800 
 42 H       -8.3400    -0.1540    -1.6520 H     1 <1>   0.0800 
 43 H       -9.9990    -1.7110    -2.3110 H     1 <1>   0.0800 
 44 H      -10.5670    -1.0310    -0.8190 H     1 <1>   0.0800 
 45 H      -10.8270    -6.3930    -1.7800 H     1 <1>   0.1500 
 46 H       -7.5060    -4.8650     0.3660 H     1 <1>   0.1500 
 47 H       -7.2480    -7.0600     1.3810 H     1 <1>   0.1500 
 48 H      -11.2540   -10.6410    -0.6010 H     1 <1>   0.0800 
 49 H      -10.5820    -9.9190     0.8600 H     1 <1>   0.0800 
 50 H       -9.5150   -10.3820    -0.4690 H     1 <1>   0.0800 
@<TRIPOS>BOND
  1   1   2  1   
  2   1   3  1   
  3   2   4  1   
  4   2  28  1   
  5   2  29  1   
  6   3  30  1   
  7   3  31  1   
  8   3  32  1   
  9   4   5  1   
 10   4   6  2   
 11   5   7  1   
 12   6   8  1   
 13   6  33  1   
 14   7   8  2   
 15   7   9  1   
 16   8  34  1   
 17   9  10  2   
 18   9  11  am  
 19  11  12  1   
 20  11  13  1   
 21  12  14  1   
 22  12  35  1   
 23  12  36  1   
 24  13  15  1   
 25  13  37  1   
 26  13  38  1   
 27  14  16  1   
 28  14  39  1   
 29  14  40  1   
 30  15  17  1   
 31  15  41  1   
 32  15  42  1   
 33  16  17  1   
 34  16  18  am  
 35  17  43  1   
 36  17  44  1   
 37  18  19  2   
 38  18  20  1   
 39  20  21  ar  
 40  20  22  ar  
 41  21  23  ar  
 42  21  45  1   
 43  22  24  ar  
 44  22  46  1   
 45  23  25  1   
 46  23  26  ar  
 47  24  26  ar  
 48  24  47  1   
 49  25  27  1   
 50  27  48  1   
 51  27  49  1   
 52  27  50  1   
@<TRIPOS>SUBSTRUCTURE
  1 ****  22 GROUP 4 **** **** 0

# MOE 2024.06 (io_trps.svl 2023.06)
