@<TRIPOS>MOLECULE
NONAME
51 53 1 0 0 
SMALL
USER_CHARGES


@<TRIPOS>ATOM
  1 O       -3.1880     1.4910    -2.2260 O.2   1 <1>  -0.5700 
  2 C       -2.7430     1.5330    -1.1060 C.2   1 <1>   0.5690 
  3 N       -2.5330     0.4120    -0.3750 N.am  1 <1>  -0.7300 
  4 C       -2.4080     2.8740    -0.4850 C.3   1 <1>  -0.0990 
  5 C       -2.7670    -0.9670    -0.8560 C.3   1 <1>   0.2200 
  6 C       -0.8900     3.1360    -0.4750 C.3   1 <1>  -0.1600 
  7 C       -3.9680    -1.5510    -0.1330 C.3   1 <1>  -0.0800 
  8 C       -1.6420    -1.8730    -0.3720 C.3   1 <1>   0.1200 
  9 C       -0.4930     4.4270     0.2670 C.3   1 <1>  -0.0800 
 10 C       -3.3440    -2.0660     1.1700 C.3   1 <1>   0.1200 
 11 C       -4.6260    -2.6780    -0.9520 C.3   1 <1>  -0.0160 
 12 O       -1.9760    -2.2370     0.9340 O.3   1 <1>  -0.5600 
 13 C       -1.0440     5.6890    -0.4240 C.3   1 <1>  -0.1600 
 14 C        1.0410     4.5060     0.3750 C.3   1 <1>  -0.1600 
 15 C       -5.8430    -3.2480    -0.2390 C.ar  1 <1>  -0.1440 
 16 C       -0.5840     6.9710     0.2840 C.3   1 <1>  -0.1600 
 17 C        1.4960     5.7860     1.0900 C.3   1 <1>  -0.1600 
 18 C       -7.0390    -2.5610    -0.1850 C.ar  1 <1>  -0.1500 
 19 C       -5.8180    -4.4770     0.3880 C.ar  1 <1>  -0.1500 
 20 C        0.9440     7.0330     0.3900 C.3   1 <1>  -0.1600 
 21 C       -8.1200    -3.1180     0.4780 C.ar  1 <1>   0.1600 
 22 C       -6.9560    -4.9440     1.0250 C.ar  1 <1>   0.1600 
 23 N       -8.1060    -4.2930     1.0870 N.ar  1 <1>  -0.6200 
 24 H       -2.1480     0.4720     0.5690 H     1 <1>   0.3700 
 25 H       -2.9100     3.6340    -1.0540 H     1 <1>   0.0800 
 26 H       -2.7940     2.8970     0.5170 H     1 <1>   0.0800 
 27 H       -2.8680    -0.9780    -1.9290 H     1 <1>   0.0800 
 28 H       -0.5350     3.1790    -1.4910 H     1 <1>   0.0800 
 29 H       -0.4030     2.3030     0.0010 H     1 <1>   0.0800 
 30 H       -4.7070    -0.7940     0.0660 H     1 <1>   0.0800 
 31 H       -0.6830    -1.3850    -0.3800 H     1 <1>   0.0800 
 32 H       -1.5970    -2.7720    -0.9600 H     1 <1>   0.0800 
 33 H       -0.8930     4.3840     1.2670 H     1 <1>   0.0800 
 34 H       -3.7610    -3.0010     1.4980 H     1 <1>   0.0800 
 35 H       -3.4490    -1.3370     1.9550 H     1 <1>   0.0800 
 36 H       -3.9180    -3.4650    -1.1410 H     1 <1>   0.0800 
 37 H       -4.9400    -2.2880    -1.9050 H     1 <1>   0.0800 
 38 H       -0.7100     5.7130    -1.4470 H     1 <1>   0.0800 
 39 H       -2.1190     5.6740    -0.4280 H     1 <1>   0.0800 
 40 H        1.4130     3.6530     0.9160 H     1 <1>   0.0800 
 41 H        1.4710     4.4840    -0.6110 H     1 <1>   0.0800 
 42 H       -0.9410     7.8300    -0.2580 H     1 <1>   0.0800 
 43 H       -1.0100     7.0050     1.2720 H     1 <1>   0.0800 
 44 H        1.1520     5.7670     2.1100 H     1 <1>   0.0800 
 45 H        2.5710     5.8280     1.1040 H     1 <1>   0.0800 
 46 H       -7.1420    -1.5990    -0.6540 H     1 <1>   0.1500 
 47 H       -4.9260    -5.0770     0.3900 H     1 <1>   0.1500 
 48 H        1.2330     7.9130     0.9390 H     1 <1>   0.0800 
 49 H        1.3670     7.1050    -0.5970 H     1 <1>   0.0800 
 50 H       -9.0450    -2.5680     0.5100 H     1 <1>   0.1500 
 51 H       -6.9180    -5.9050     1.5100 H     1 <1>   0.1500 
@<TRIPOS>BOND
  1   1   2  2   
  2   2   3  am  
  3   2   4  1   
  4   3   5  1   
  5   3  24  1   
  6   4   6  1   
  7   4  25  1   
  8   4  26  1   
  9   5   7  1   
 10   5   8  1   
 11   5  27  1   
 12   6   9  1   
 13   6  28  1   
 14   6  29  1   
 15   7  10  1   
 16   7  11  1   
 17   7  30  1   
 18   8  12  1   
 19   8  31  1   
 20   8  32  1   
 21   9  13  1   
 22   9  14  1   
 23   9  33  1   
 24  10  12  1   
 25  10  34  1   
 26  10  35  1   
 27  11  15  1   
 28  11  36  1   
 29  11  37  1   
 30  13  16  1   
 31  13  38  1   
 32  13  39  1   
 33  14  17  1   
 34  14  40  1   
 35  14  41  1   
 36  15  18  ar  
 37  15  19  ar  
 38  16  20  1   
 39  16  42  1   
 40  16  43  1   
 41  17  20  1   
 42  17  44  1   
 43  17  45  1   
 44  18  21  ar  
 45  18  46  1   
 46  19  22  ar  
 47  19  47  1   
 48  20  48  1   
 49  20  49  1   
 50  21  23  ar  
 51  21  50  1   
 52  22  23  ar  
 53  22  51  1   
@<TRIPOS>SUBSTRUCTURE
  1 ****   3 GROUP 4 **** **** 0

# MOE 2024.06 (io_trps.svl 2023.06)
