@<TRIPOS>MOLECULE
NONAME
56 59 1 0 0 
SMALL
USER_CHARGES


@<TRIPOS>ATOM
  1 O       -1.1000     0.1670    -1.4200 O.2   1 <1>  -0.5700 
  2 C       -1.9520     1.0370    -1.3990 C.2   1 <1>   0.5440 
  3 N       -3.2690     0.6260    -1.4170 N.am  1 <1>  -0.6600 
  4 C       -1.5790     2.4390    -1.3120 C.ar  1 <1>   0.0860 
  5 C       -3.5870    -0.7540    -1.8620 C.3   1 <1>   0.1400 
  6 C       -4.2430     1.1730    -0.4350 C.3   1 <1>   0.1400 
  7 C       -0.4500     2.8380    -0.6010 C.ar  1 <1>  -0.1500 
  8 C       -2.3310     3.4360    -1.9350 C.ar  1 <1>  -0.1500 
  9 C       -3.5360    -1.6890    -0.6330 C.3   1 <1>   0.4230 
 10 C       -4.2340     0.2660     0.8040 C.3   1 <1>  -0.1600 
 11 C       -0.0720     4.1700    -0.4820 C.ar  1 <1>   0.0000 
 12 C       -1.9770     4.7680    -1.8340 C.ar  1 <1>  -0.1500 
 13 N       -3.6220    -3.1690    -0.9760 N.4   1 <1>  -0.9590 
 14 C       -4.5210    -1.2330     0.4870 C.3   1 <1>   0.0000 
 15 C        1.1010     4.5480     0.2730 C.ar  1 <1>   0.0000 
 16 C       -0.8570     5.1310    -1.1100 C.ar  1 <1>  -0.1500 
 17 C       -3.9830    -4.0460     0.1850 C.3   1 <1>   0.3430 
 18 C       -4.4700    -3.5120    -2.1640 C.3   1 <1>   0.2630 
 19 C       -4.2600    -2.0740     1.7720 C.3   1 <1>  -0.1600 
 20 C       -5.9910    -1.4110     0.0120 C.3   1 <1>   0.1200 
 21 C        1.2310     4.2040     1.6160 C.ar  1 <1>  -0.1500 
 22 C        2.1340     5.2690    -0.3190 C.ar  1 <1>  -0.1500 
 23 C       -3.5470    -3.4140     1.5060 C.3   1 <1>  -0.1600 
 24 O       -6.8890    -0.8340     0.8940 O.3   1 <1>  -0.6800 
 25 C        2.3520     4.5660     2.3420 C.ar  1 <1>  -0.1500 
 26 C        3.2570     5.6350     0.4010 C.ar  1 <1>  -0.1500 
 27 C        3.3670     5.2830     1.7350 C.ar  1 <1>  -0.1500 
 28 H       -4.5540    -0.7550    -2.3290 H     1 <1>   0.0800 
 29 H       -2.8570    -1.0670    -2.5900 H     1 <1>   0.0800 
 30 H       -3.9710     2.1750    -0.1480 H     1 <1>   0.0800 
 31 H       -5.2260     1.2110    -0.8750 H     1 <1>   0.0800 
 32 H        0.1580     2.0850    -0.1290 H     1 <1>   0.1500 
 33 H       -3.1990     3.1620    -2.5080 H     1 <1>   0.1500 
 34 H       -2.5520    -1.5370    -0.2190 H     1 <1>   0.0800 
 35 H       -3.2620     0.3620     1.2590 H     1 <1>   0.0800 
 36 H       -4.9430     0.6480     1.5180 H     1 <1>   0.0800 
 37 H       -2.5710     5.5230    -2.3200 H     1 <1>   0.1500 
 38 H       -2.6510    -3.4170    -1.2250 H     1 <1>   0.4500 
 39 H       -0.5840     6.1690    -1.0280 H     1 <1>   0.1500 
 40 H       -5.0510    -4.1920     0.2130 H     1 <1>   0.0800 
 41 H       -3.5190    -5.0130     0.0720 H     1 <1>   0.0800 
 42 H       -5.4960    -3.2310    -1.9890 H     1 <1>   0.0800 
 43 H       -4.4320    -4.5720    -2.3560 H     1 <1>   0.0800 
 44 H       -4.1160    -2.9980    -3.0430 H     1 <1>   0.0800 
 45 H       -3.6510    -1.5230     2.4700 H     1 <1>   0.0800 
 46 H       -5.1880    -2.2700     2.2810 H     1 <1>   0.0800 
 47 H       -6.2540    -2.4500    -0.0790 H     1 <1>   0.0800 
 48 H       -6.1580    -0.9350    -0.9370 H     1 <1>   0.0800 
 49 H        0.4440     3.6500     2.0950 H     1 <1>   0.1500 
 50 H        2.0570     5.5400    -1.3570 H     1 <1>   0.1500 
 51 H       -3.7620    -4.0940     2.3120 H     1 <1>   0.0800 
 52 H       -2.4800    -3.2700     1.4920 H     1 <1>   0.0800 
 53 H       -6.8660    -1.2550     1.7760 H     1 <1>   0.4000 
 54 H        2.4340     4.2900     3.3790 H     1 <1>   0.1500 
 55 H        4.0460     6.1910    -0.0750 H     1 <1>   0.1500 
 56 H        4.2400     5.5660     2.2980 H     1 <1>   0.1500 
@<TRIPOS>BOND
  1   1   2  2   
  2   2   3  am  
  3   2   4  1   
  4   3   5  1   
  5   3   6  1   
  6   4   7  ar  
  7   4   8  ar  
  8   5   9  1   
  9   5  28  1   
 10   5  29  1   
 11   6  10  1   
 12   6  30  1   
 13   6  31  1   
 14   7  11  ar  
 15   7  32  1   
 16   8  12  ar  
 17   8  33  1   
 18   9  13  1   
 19   9  14  1   
 20   9  34  1   
 21  10  14  1   
 22  10  35  1   
 23  10  36  1   
 24  11  15  1   
 25  11  16  ar  
 26  12  16  ar  
 27  12  37  1   
 28  13  17  1   
 29  13  18  1   
 30  13  38  1   
 31  14  19  1   
 32  14  20  1   
 33  15  21  ar  
 34  15  22  ar  
 35  16  39  1   
 36  17  23  1   
 37  17  40  1   
 38  17  41  1   
 39  18  42  1   
 40  18  43  1   
 41  18  44  1   
 42  19  23  1   
 43  19  45  1   
 44  19  46  1   
 45  20  24  1   
 46  20  47  1   
 47  20  48  1   
 48  21  25  ar  
 49  21  49  1   
 50  22  26  ar  
 51  22  50  1   
 52  23  51  1   
 53  23  52  1   
 54  24  53  1   
 55  25  27  ar  
 56  25  54  1   
 57  26  27  ar  
 58  26  55  1   
 59  27  56  1   
@<TRIPOS>SUBSTRUCTURE
  1 ****   2 GROUP 4 **** **** 0

# MOE 2024.06 (io_trps.svl 2023.06)
