@<TRIPOS>MOLECULE
NONAME
47 50 1 0 0 
SMALL
USER_CHARGES


@<TRIPOS>ATOM
  1 O       -0.5100     0.4250    -0.2860 O.2   1 <1>  -0.5700 
  2 C       -1.5410     0.9870     0.0280 C.2   1 <1>   0.7030 
  3 N       -2.6850     0.2370     0.1930 N.am  1 <1>  -0.6600 
  4 C       -1.5090     2.4290     0.2130 C.2   1 <1>   0.2770 
  5 C       -4.0730     0.7080    -0.0690 C.3   1 <1>   0.1400 
  6 C       -2.6460    -1.2520     0.1720 C.3   1 <1>   0.1400 
  7 N       -2.4070     3.2300     0.9050 N.pl3 1 <1>  -0.7000 
  8 C       -0.5510     3.2660    -0.2510 C.2   1 <1>   0.2000 
  9 C       -4.8450    -0.5400    -0.4920 C.3   1 <1>   0.2000 
 10 C       -4.1080    -1.7000     0.1640 C.3   1 <1>  -0.0800 
 11 C       -1.9900     4.5030     0.8470 C.cat 1 <1>   0.7910 
 12 N       -0.8440     4.5580     0.1290 N.pl3 1 <1>  -0.6290 
 13 O       -6.1560    -0.4850    -0.0540 O.3   1 <1>  -0.6800 
 14 C       -4.3300    -3.0510    -0.5360 C.3   1 <1>   0.0210 
 15 C       -2.5500     5.6660     1.3980 C.2   1 <1>  -0.1410 
 16 C       -0.2040     5.7620    -0.0770 C.2   1 <1>   0.2410 
 17 C       -3.4580    -4.1340     0.0710 C.2   1 <1>   0.1080 
 18 C       -1.9300     6.8690     1.2030 C.2   1 <1>  -0.1500 
 19 C       -0.7370     6.9040     0.4510 C.2   1 <1>  -0.1500 
 20 C        1.0780     5.7620    -0.8880 C.3   1 <1>  -0.1020 
 21 N       -3.3150    -4.2920     1.3510 N.2   1 <1>  -0.7070 
 22 C       -2.7170    -5.0570    -0.6580 C.2   1 <1>  -0.1500 
 23 N       -2.4720    -5.3350     1.4730 N.pl3 1 <1>   0.3000 
 24 C       -2.0940    -5.8140     0.2690 C.2   1 <1>  -0.3320 
 25 C       -1.1460    -6.9830     0.0770 C.3   1 <1>  -0.0600 
 26 H       -4.4910     1.1050     0.8390 H     1 <1>   0.0800 
 27 H       -4.0930     1.4460    -0.8520 H     1 <1>   0.0800 
 28 H       -2.1400    -1.5850    -0.7190 H     1 <1>   0.0800 
 29 H       -2.1270    -1.6370     1.0350 H     1 <1>   0.0800 
 30 H       -3.2160     2.8970     1.4320 H     1 <1>   0.4500 
 31 H        0.3230     3.0000    -0.8250 H     1 <1>   0.1500 
 32 H       -4.8470    -0.6230    -1.5660 H     1 <1>   0.0800 
 33 H       -4.4130    -1.7860     1.1930 H     1 <1>   0.0800 
 34 H       -6.2340    -0.8500     0.8510 H     1 <1>   0.4000 
 35 H       -4.1060    -2.9650    -1.5840 H     1 <1>   0.0800 
 36 H       -5.3600    -3.3430    -0.4370 H     1 <1>   0.0800 
 37 H       -3.4590     5.5880     1.9640 H     1 <1>   0.1500 
 38 H       -2.3260     7.7880     1.6080 H     1 <1>   0.1500 
 39 H       -0.2580     7.8580     0.3050 H     1 <1>   0.1500 
 40 H        1.8180     5.1470    -0.4100 H     1 <1>   0.0800 
 41 H        1.4720     6.7590    -0.9760 H     1 <1>   0.0800 
 42 H        0.8900     5.3850    -1.8770 H     1 <1>   0.0800 
 43 H       -2.6690    -5.1320    -1.7300 H     1 <1>   0.1500 
 44 H       -2.1750    -5.6960     2.3880 H     1 <1>   0.2700 
 45 H       -1.0030    -7.1740    -0.9720 H     1 <1>   0.0800 
 46 H       -1.5500    -7.8690     0.5340 H     1 <1>   0.0800 
 47 H       -0.1900    -6.7640     0.5180 H     1 <1>   0.0800 
@<TRIPOS>BOND
  1   1   2  2   
  2   2   3  am  
  3   2   4  1   
  4   3   5  1   
  5   3   6  1   
  6   4   7  1   
  7   4   8  2   
  8   5   9  1   
  9   5  26  1   
 10   5  27  1   
 11   6  10  1   
 12   6  28  1   
 13   6  29  1   
 14   7  11  ar  
 15   7  30  1   
 16   8  12  1   
 17   8  31  1   
 18   9  10  1   
 19   9  13  1   
 20   9  32  1   
 21  10  14  1   
 22  10  33  1   
 23  11  12  ar  
 24  11  15  1   
 25  12  16  1   
 26  13  34  1   
 27  14  17  1   
 28  14  35  1   
 29  14  36  1   
 30  15  18  2   
 31  15  37  1   
 32  16  19  2   
 33  16  20  1   
 34  17  21  2   
 35  17  22  1   
 36  18  19  1   
 37  18  38  1   
 38  19  39  1   
 39  20  40  1   
 40  20  41  1   
 41  20  42  1   
 42  21  23  1   
 43  22  24  2   
 44  22  43  1   
 45  23  24  1   
 46  23  44  1   
 47  24  25  1   
 48  25  45  1   
 49  25  46  1   
 50  25  47  1   
@<TRIPOS>SUBSTRUCTURE
  1 ****   3 GROUP 4 **** **** 0

# MOE 2024.06 (io_trps.svl 2023.06)
