@<TRIPOS>MOLECULE
NONAME
42 44 1 0 0 
SMALL
USER_CHARGES


@<TRIPOS>ATOM
  1 F        1.8070     1.3380     0.5840 F     1 <1>  -0.1900 
  2 C        2.3000     0.1550     0.3390 C.ar  1 <1>   0.1900 
  3 C        3.3510     0.0340    -0.5740 C.ar  1 <1>   0.0860 
  4 C        1.7530    -0.9190     1.0220 C.ar  1 <1>  -0.1500 
  5 C        3.9030     1.1680    -1.2800 C.2   1 <1>   0.5440 
  6 C        3.8460    -1.2510    -0.7950 C.ar  1 <1>  -0.1500 
  7 C        2.2660    -2.1860     0.7960 C.ar  1 <1>  -0.1500 
  8 O        3.7300     1.2290    -2.4800 O.2   1 <1>  -0.5700 
  9 N        4.6490     2.1610    -0.6680 N.am  1 <1>  -0.6600 
 10 C        3.3040    -2.3220    -0.1110 C.ar  1 <1>   0.1900 
 11 C        4.9320     2.1770     0.8170 C.3   1 <1>   0.2200 
 12 C        5.1370     3.2930    -1.5310 C.3   1 <1>   0.1400 
 13 F        3.7910    -3.5130    -0.3250 F     1 <1>  -0.1900 
 14 C        4.3120     3.4040     1.5050 C.3   1 <1>   0.1200 
 15 C        6.4370     2.0360     1.1540 C.3   1 <1>   0.3430 
 16 C        5.9720     4.3790    -0.8300 C.3   1 <1>  -0.0800 
 17 O        5.1600     4.5090     1.4390 O.3   1 <1>  -0.5600 
 18 N        7.3430     2.4420     0.0430 N.4   1 <1>  -0.9590 
 19 C        5.1780     5.1710     0.2170 C.3   1 <1>   0.1200 
 20 C        7.3290     3.8940    -0.2960 C.3   1 <1>   0.3430 
 21 C        8.7720     1.9490     0.1900 C.3   1 <1>   0.2370 
 22 C        9.5540     1.9710    -1.1290 C.2   1 <1>   0.9060 
 23 O       10.7800     1.8990    -1.1000 O.co2 1 <1>  -0.9000 
 24 O        8.8920     2.1070    -2.1680 O.co2 1 <1>  -0.9000 
 25 H        0.9420    -0.7660     1.7130 H     1 <1>   0.1500 
 26 H        4.6420    -1.4090    -1.5020 H     1 <1>   0.1500 
 27 H        1.8730    -3.0500     1.3030 H     1 <1>   0.1500 
 28 H        4.4520     1.3320     1.2710 H     1 <1>   0.0800 
 29 H        5.7230     2.8760    -2.3350 H     1 <1>   0.0800 
 30 H        4.2780     3.7580    -1.9860 H     1 <1>   0.0800 
 31 H        4.1750     3.1910     2.5510 H     1 <1>   0.0800 
 32 H        3.3510     3.6500     1.0850 H     1 <1>   0.0800 
 33 H        6.6250     1.0020     1.3880 H     1 <1>   0.0800 
 34 H        6.6600     2.6130     2.0360 H     1 <1>   0.0800 
 35 H        6.2060     5.0940    -1.5980 H     1 <1>   0.0800 
 36 H        7.0250     1.9860    -0.8350 H     1 <1>   0.4500 
 37 H        4.1670     5.3600    -0.1060 H     1 <1>   0.0800 
 38 H        5.6560     6.1210     0.3880 H     1 <1>   0.0800 
 39 H        7.6120     4.4770     0.5640 H     1 <1>   0.0800 
 40 H        8.0640     4.0660    -1.0680 H     1 <1>   0.0800 
 41 H        9.3070     2.5520     0.9000 H     1 <1>   0.0800 
 42 H        8.7770     0.9320     0.5340 H     1 <1>   0.0800 
@<TRIPOS>BOND
  1   1   2  1   
  2   2   3  ar  
  3   2   4  ar  
  4   3   5  1   
  5   3   6  ar  
  6   4   7  ar  
  7   4  25  1   
  8   5   8  2   
  9   5   9  am  
 10   6  10  ar  
 11   6  26  1   
 12   7  10  ar  
 13   7  27  1   
 14   9  11  1   
 15   9  12  1   
 16  10  13  1   
 17  11  14  1   
 18  11  15  1   
 19  11  28  1   
 20  12  16  1   
 21  12  29  1   
 22  12  30  1   
 23  14  17  1   
 24  14  31  1   
 25  14  32  1   
 26  15  18  1   
 27  15  33  1   
 28  15  34  1   
 29  16  19  1   
 30  16  20  1   
 31  16  35  1   
 32  17  19  1   
 33  18  20  1   
 34  18  21  1   
 35  18  36  1   
 36  19  37  1   
 37  19  38  1   
 38  20  39  1   
 39  20  40  1   
 40  21  22  1   
 41  21  41  1   
 42  21  42  1   
 43  22  23  ar  
 44  22  24  ar  
@<TRIPOS>SUBSTRUCTURE
  1 ****   9 GROUP 4 **** **** 0

# MOE 2024.06 (io_trps.svl 2023.06)
