@<TRIPOS>MOLECULE
NONAME
51 53 1 0 0 
SMALL
USER_CHARGES


@<TRIPOS>ATOM
  1 O        0.6310    -0.0080     0.1970 O.3   1 <1>  -0.6800 
  2 C        1.8790    -0.2090    -0.3760 C.3   1 <1>   0.2000 
  3 C        2.5730    -1.4120     0.2550 C.3   1 <1>  -0.0800 
  4 C        2.8090     0.9710    -0.1000 C.3   1 <1>   0.2090 
  5 C        4.0660    -1.1030     0.1240 C.3   1 <1>   0.2090 
  6 C        2.1770    -2.7540    -0.3860 C.3   1 <1>   0.0210 
  7 N        4.1720     0.3780     0.0370 N.pl3 1 <1>  -0.8380 
  8 C        3.0380    -3.9090     0.0990 C.2   1 <1>   0.1080 
  9 C        5.2960     1.1210     0.1890 C.ar  1 <1>   0.4100 
 10 N        3.4540    -4.0280     1.3220 N.2   1 <1>  -0.7070 
 11 C        3.4690    -4.9590    -0.7050 C.2   1 <1>  -0.1500 
 12 N        5.1650     2.4340     0.1840 N.ar  1 <1>  -0.6200 
 13 C        6.5570     0.5130     0.3450 C.ar  1 <1>  -0.1500 
 14 N        4.1590    -5.1760     1.3330 N.pl3 1 <1>   0.3000 
 15 C        4.1870    -5.7550     0.1150 C.2   1 <1>  -0.3320 
 16 C        6.2480     3.1800     0.3410 C.ar  1 <1>   0.7710 
 17 C        7.6530     1.2900     0.5120 C.ar  1 <1>   0.2180 
 18 C        4.9020    -7.0570    -0.1940 C.3   1 <1>  -0.0600 
 19 N        7.4620     2.6300     0.5100 N.ar  1 <1>  -0.1790 
 20 N        6.1350     4.5390     0.3360 N.pl3 1 <1>  -0.8380 
 21 C        9.0600     0.7390     0.6990 C.3   1 <1>  -0.0170 
 22 C        4.7860     5.1990     0.3170 C.3   1 <1>   0.1290 
 23 C        7.2490     5.5370     0.2760 C.3   1 <1>   0.1290 
 24 C        9.9960     1.1410    -0.4490 C.3   1 <1>  -0.2400 
 25 H        0.0900    -0.8180     0.1420 H     1 <1>   0.4000 
 26 H        1.7580    -0.3320    -1.4390 H     1 <1>   0.0800 
 27 H        2.3510    -1.4390     1.3080 H     1 <1>   0.0800 
 28 H        2.5390     1.4520     0.8250 H     1 <1>   0.0800 
 29 H        2.7810     1.6810    -0.9080 H     1 <1>   0.0800 
 30 H        4.4650    -1.5390    -0.7750 H     1 <1>   0.0800 
 31 H        4.6000    -1.4850     0.9790 H     1 <1>   0.0800 
 32 H        2.2660    -2.6870    -1.4550 H     1 <1>   0.0800 
 33 H        1.1530    -2.9750    -0.1490 H     1 <1>   0.0800 
 34 H        3.2580    -5.0880    -1.7510 H     1 <1>   0.1500 
 35 H        6.6250    -0.5570     0.3300 H     1 <1>   0.1500 
 36 H        4.6030    -5.5380     2.1860 H     1 <1>   0.2700 
 37 H        4.7750    -7.3130    -1.2310 H     1 <1>   0.0800 
 38 H        4.5000    -7.8540     0.4060 H     1 <1>   0.0800 
 39 H        5.9550    -6.9630     0.0080 H     1 <1>   0.0800 
 40 H        8.2190     3.2820     0.6490 H     1 <1>   0.4570 
 41 H        9.4640     1.0830     1.6360 H     1 <1>   0.0800 
 42 H        9.0170    -0.3370     0.7470 H     1 <1>   0.0800 
 43 H        4.8060     6.1060     0.8970 H     1 <1>   0.0800 
 44 H        4.0280     4.5590     0.7350 H     1 <1>   0.0800 
 45 H        4.5120     5.4390    -0.6970 H     1 <1>   0.0800 
 46 H        6.9960     6.3220    -0.4170 H     1 <1>   0.0800 
 47 H        8.1690     5.0930    -0.0590 H     1 <1>   0.0800 
 48 H        7.3980     5.9780     1.2490 H     1 <1>   0.0800 
 49 H       10.1350     2.2060    -0.4930 H     1 <1>   0.0800 
 50 H        9.6020     0.8020    -1.3920 H     1 <1>   0.0800 
 51 H       10.9610     0.6840    -0.3080 H     1 <1>   0.0800 
@<TRIPOS>BOND
  1   1   2  1   
  2   1  25  1   
  3   2   3  1   
  4   2   4  1   
  5   2  26  1   
  6   3   5  1   
  7   3   6  1   
  8   3  27  1   
  9   4   7  1   
 10   4  28  1   
 11   4  29  1   
 12   5   7  1   
 13   5  30  1   
 14   5  31  1   
 15   6   8  1   
 16   6  32  1   
 17   6  33  1   
 18   7   9  1   
 19   8  10  2   
 20   8  11  1   
 21   9  12  ar  
 22   9  13  ar  
 23  10  14  1   
 24  11  15  2   
 25  11  34  1   
 26  12  16  ar  
 27  13  17  ar  
 28  13  35  1   
 29  14  15  1   
 30  14  36  1   
 31  15  18  1   
 32  16  19  ar  
 33  16  20  1   
 34  17  19  ar  
 35  17  21  1   
 36  18  37  1   
 37  18  38  1   
 38  18  39  1   
 39  19  40  1   
 40  20  22  1   
 41  20  23  1   
 42  21  24  1   
 43  21  41  1   
 44  21  42  1   
 45  22  43  1   
 46  22  44  1   
 47  22  45  1   
 48  23  46  1   
 49  23  47  1   
 50  23  48  1   
 51  24  49  1   
 52  24  50  1   
 53  24  51  1   
@<TRIPOS>SUBSTRUCTURE
  1 ****   7 GROUP 4 **** **** 0

# MOE 2024.06 (io_trps.svl 2023.06)
