@<TRIPOS>MOLECULE
NONAME
46 47 1 0 0 
SMALL
USER_CHARGES


@<TRIPOS>ATOM
  1 F       -1.9910    -0.7960     1.6160 F     1 <1>  -0.1900 
  2 C       -2.0410     0.1050     0.6700 C.ar  1 <1>   0.1900 
  3 C       -2.4650    -0.2890    -0.5880 C.ar  1 <1>  -0.1440 
  4 C       -1.6580     1.4060     0.9600 C.ar  1 <1>  -0.1440 
  5 C       -2.4810     0.6580    -1.6030 C.ar  1 <1>  -0.1500 
  6 C       -2.8910    -1.7240    -0.8330 C.3   1 <1>   0.4870 
  7 C       -1.6920     2.3360    -0.0670 C.ar  1 <1>  -0.1500 
  8 C       -1.2150     1.8050     2.3600 C.3   1 <1>  -0.0970 
  9 C       -2.0970     1.9630    -1.3390 C.ar  1 <1>  -0.1500 
 10 N       -4.3180    -1.9250    -0.4990 N.4   1 <1>  -0.9590 
 11 C       -4.7660    -3.3490    -0.7380 C.3   1 <1>   0.3430 
 12 C       -5.2700    -0.9200    -1.0470 C.3   1 <1>   0.3430 
 13 C       -6.3090    -3.5050    -0.7880 C.3   1 <1>   0.2000 
 14 C       -6.6500    -1.0460    -0.3710 C.3   1 <1>  -0.1600 
 15 O       -6.7240    -3.2890    -2.1030 O.3   1 <1>  -0.6800 
 16 C       -6.9710    -2.4810     0.1630 C.3   1 <1>  -0.1060 
 17 C       -6.2580    -2.7430     1.5060 C.2   1 <1>   0.9060 
 18 C       -8.5020    -2.6800     0.3810 C.3   1 <1>  -0.1600 
 19 O       -5.4660    -1.8990     1.9470 O.co2 1 <1>  -0.9000 
 20 O       -6.3060    -3.8790     1.9760 O.co2 1 <1>  -0.9000 
 21 C       -9.4200    -2.6950    -0.8560 C.3   1 <1>  -0.1600 
 22 C      -10.8910    -2.7110    -0.4330 C.3   1 <1>  -0.2400 
 23 H       -2.7900     0.3930    -2.6000 H     1 <1>   0.1500 
 24 H       -2.2870    -2.3810    -0.2280 H     1 <1>   0.0800 
 25 H       -2.7250    -1.9700    -1.8680 H     1 <1>   0.0800 
 26 H       -1.4020     3.3570     0.1180 H     1 <1>   0.1500 
 27 H       -1.0220     2.8610     2.4200 H     1 <1>   0.0800 
 28 H       -0.3180     1.2750     2.6260 H     1 <1>   0.0800 
 29 H       -1.9840     1.5580     3.0710 H     1 <1>   0.0800 
 30 H       -2.1120     2.6970    -2.1270 H     1 <1>   0.1500 
 31 H       -4.4210    -1.7930     0.5450 H     1 <1>   0.4500 
 32 H       -4.3560    -3.7290    -1.6580 H     1 <1>   0.0800 
 33 H       -4.3990    -3.9580     0.0730 H     1 <1>   0.0800 
 34 H       -4.8960     0.0790    -0.8900 H     1 <1>   0.0800 
 35 H       -5.3800    -1.0840    -2.1060 H     1 <1>   0.0800 
 36 H       -6.5810    -4.5120    -0.5170 H     1 <1>   0.0800 
 37 H       -6.7110    -0.3390     0.4380 H     1 <1>   0.0800 
 38 H       -7.3790    -0.7350    -1.0940 H     1 <1>   0.0800 
 39 H       -7.7020    -3.3080    -2.1250 H     1 <1>   0.4000 
 40 H       -8.6500    -3.6100     0.9060 H     1 <1>   0.0800 
 41 H       -8.8350    -1.9030     1.0500 H     1 <1>   0.0800 
 42 H       -9.2520    -1.8300    -1.4720 H     1 <1>   0.0800 
 43 H       -9.2350    -3.5790    -1.4390 H     1 <1>   0.0800 
 44 H      -11.1310    -1.8280     0.1330 H     1 <1>   0.0800 
 45 H      -11.0990    -3.5760     0.1730 H     1 <1>   0.0800 
 46 H      -11.5260    -2.7420    -1.3010 H     1 <1>   0.0800 
@<TRIPOS>BOND
  1   1   2  1   
  2   2   3  ar  
  3   2   4  ar  
  4   3   5  ar  
  5   3   6  1   
  6   4   7  ar  
  7   4   8  1   
  8   5   9  ar  
  9   5  23  1   
 10   6  10  1   
 11   6  24  1   
 12   6  25  1   
 13   7   9  ar  
 14   7  26  1   
 15   8  27  1   
 16   8  28  1   
 17   8  29  1   
 18   9  30  1   
 19  10  11  1   
 20  10  12  1   
 21  10  31  1   
 22  11  13  1   
 23  11  32  1   
 24  11  33  1   
 25  12  14  1   
 26  12  34  1   
 27  12  35  1   
 28  13  15  1   
 29  13  16  1   
 30  13  36  1   
 31  14  16  1   
 32  14  37  1   
 33  14  38  1   
 34  15  39  1   
 35  16  17  1   
 36  16  18  1   
 37  17  19  ar  
 38  17  20  ar  
 39  18  21  1   
 40  18  40  1   
 41  18  41  1   
 42  21  22  1   
 43  21  42  1   
 44  21  43  1   
 45  22  44  1   
 46  22  45  1   
 47  22  46  1   
@<TRIPOS>SUBSTRUCTURE
  1 ****  10 GROUP 4 **** **** 0

# MOE 2024.06 (io_trps.svl 2023.06)
