@<TRIPOS>MOLECULE
NONAME
52 55 1 0 0 
SMALL
USER_CHARGES


@<TRIPOS>ATOM
  1 O       -0.1730     1.4150     1.5600 O.2   1 <1>  -0.5700 
  2 C       -1.1320     1.9790     1.0830 C.2   1 <1>   0.5690 
  3 N       -2.4040     1.4890     1.2620 N.am  1 <1>  -0.6600 
  4 C       -0.8740     3.2570     0.2670 C.3   1 <1>   0.2810 
  5 C       -3.6180     2.1730     0.7030 C.3   1 <1>   0.2010 
  6 C       -2.6820     0.2580     2.0540 C.3   1 <1>   0.0600 
  7 N       -2.1020     3.9080    -0.3210 N.am  1 <1>  -0.6600 
  8 C        0.1410     2.9350    -0.8500 C.3   1 <1>   0.2090 
  9 C       -3.3640     3.4070    -0.1660 C.2   1 <1>   0.5690 
 10 C       -1.8040     5.1170    -1.1480 C.3   1 <1>   0.1400 
 11 N        0.4470     4.1260    -1.7070 N.pl3 1 <1>  -0.8380 
 12 O       -4.3200     3.9120    -0.7050 O.2   1 <1>  -0.5700 
 13 C       -0.7790     4.7980    -2.2510 C.3   1 <1>   0.2090 
 14 C        1.4950     4.9210    -1.2910 C.ar  1 <1>   0.4100 
 15 N        1.2140     6.0590    -0.7290 N.ar  1 <1>  -0.6200 
 16 C        2.8090     4.4590    -1.4660 C.ar  1 <1>  -0.1500 
 17 C        2.2410     6.8320    -0.2860 C.ar  1 <1>   0.3100 
 18 C        3.8690     5.1930    -1.0380 C.ar  1 <1>  -0.1430 
 19 C        1.9570     8.0790     0.3380 C.ar  1 <1>   0.0830 
 20 C        3.5960     6.4350    -0.4170 C.ar  1 <1>   0.0000 
 21 C        5.2920     4.6860    -1.2290 C.3   1 <1>  -0.0970 
 22 O        0.6450     8.4380     0.4550 O.3   1 <1>  -0.3630 
 23 C        2.9740     8.8850     0.8030 C.ar  1 <1>  -0.1500 
 24 C        4.6020     7.2890     0.0730 C.ar  1 <1>  -0.1500 
 25 C        0.2260     9.6060     1.1250 C.3   1 <1>   0.0400 
 26 C        4.3100     8.4850     0.6700 C.ar  1 <1>   0.0830 
 27 O        5.3590     9.2290     1.1060 O.3   1 <1>  -0.3630 
 28 C        5.1760    10.4880     1.7140 C.3   1 <1>   0.0400 
 29 H       -0.4100     3.9640     0.9310 H     1 <1>   0.0800 
 30 H       -4.2500     2.4750     1.5190 H     1 <1>   0.0800 
 31 H       -4.1670     1.4670     0.1070 H     1 <1>   0.0800 
 32 H       -1.7690    -0.1740     2.4270 H     1 <1>   0.0800 
 33 H       -3.1760    -0.4700     1.4350 H     1 <1>   0.0800 
 34 H       -3.3130     0.4980     2.8920 H     1 <1>   0.0800 
 35 H       -0.2490     2.1470    -1.4690 H     1 <1>   0.0800 
 36 H        1.0510     2.5750    -0.4010 H     1 <1>   0.0800 
 37 H       -1.4100     5.8910    -0.5130 H     1 <1>   0.0800 
 38 H       -2.7030     5.4950    -1.6020 H     1 <1>   0.0800 
 39 H       -0.4970     5.7120    -2.7460 H     1 <1>   0.0800 
 40 H       -1.2350     4.1580    -2.9850 H     1 <1>   0.0800 
 41 H        2.9310     3.5100    -1.9520 H     1 <1>   0.1500 
 42 H        5.2940     3.7300    -1.7220 H     1 <1>   0.0800 
 43 H        5.7750     4.5760    -0.2750 H     1 <1>   0.0800 
 44 H        5.8520     5.3780    -1.8320 H     1 <1>   0.0800 
 45 H        2.7570     9.8230     1.2680 H     1 <1>   0.1500 
 46 H        5.6320     7.0050    -0.0170 H     1 <1>   0.1500 
 47 H       -0.8480     9.6320     1.1050 H     1 <1>   0.0800 
 48 H        0.6210    10.4640     0.6110 H     1 <1>   0.0800 
 49 H        0.5710     9.5670     2.1430 H     1 <1>   0.0800 
 50 H        6.1450    10.8820     1.9620 H     1 <1>   0.0800 
 51 H        4.5940    10.3630     2.6100 H     1 <1>   0.0800 
 52 H        4.6830    11.1440     1.0190 H     1 <1>   0.0800 
@<TRIPOS>BOND
  1   1   2  2   
  2   2   3  am  
  3   2   4  1   
  4   3   5  1   
  5   3   6  1   
  6   4   7  1   
  7   4   8  1   
  8   4  29  1   
  9   5   9  1   
 10   5  30  1   
 11   5  31  1   
 12   6  32  1   
 13   6  33  1   
 14   6  34  1   
 15   7   9  am  
 16   7  10  1   
 17   8  11  1   
 18   8  35  1   
 19   8  36  1   
 20   9  12  2   
 21  10  13  1   
 22  10  37  1   
 23  10  38  1   
 24  11  13  1   
 25  11  14  1   
 26  13  39  1   
 27  13  40  1   
 28  14  15  ar  
 29  14  16  ar  
 30  15  17  ar  
 31  16  18  ar  
 32  16  41  1   
 33  17  19  ar  
 34  17  20  ar  
 35  18  20  ar  
 36  18  21  1   
 37  19  22  1   
 38  19  23  ar  
 39  20  24  ar  
 40  21  42  1   
 41  21  43  1   
 42  21  44  1   
 43  22  25  1   
 44  23  26  ar  
 45  23  45  1   
 46  24  26  ar  
 47  24  46  1   
 48  25  47  1   
 49  25  48  1   
 50  25  49  1   
 51  26  27  1   
 52  27  28  1   
 53  28  50  1   
 54  28  51  1   
 55  28  52  1   
@<TRIPOS>SUBSTRUCTURE
  1 ****  15 GROUP 4 **** **** 0

# MOE 2024.06 (io_trps.svl 2023.06)
