@<TRIPOS>MOLECULE
NONAME
51 54 1 0 0 
SMALL
USER_CHARGES


@<TRIPOS>ATOM
  1 O       -2.6390    -0.9330    -0.6010 O.2   1 <1>  -0.5700 
  2 C       -2.6850     0.2170    -1.0110 C.2   1 <1>   0.7160 
  3 N       -3.7800     0.6040    -1.7670 N.am  1 <1>  -0.6600 
  4 C       -1.6280     1.1420    -0.6300 C.2   1 <1>   0.1410 
  5 C       -4.8960    -0.3510    -2.0680 C.3   1 <1>   0.1400 
  6 C       -4.0860     2.0380    -2.0340 C.3   1 <1>   0.1400 
  7 N       -0.9060     1.9200    -1.4970 N.2   1 <1>  -0.5650 
  8 C       -1.1740     1.4040     0.6190 C.2   1 <1>  -0.0400 
  9 C       -6.2000     0.0040    -1.3300 C.3   1 <1>   0.1400 
 10 C       -4.6050     2.7400    -0.7670 C.3   1 <1>  -0.1600 
 11 C       -0.0990     2.5560    -0.7320 C.2   1 <1>   0.3280 
 12 O       -0.2230     2.2840     0.5430 O.3   1 <1>  -0.2800 
 13 C       -1.5850     0.8780     1.9800 C.3   1 <1>  -0.0600 
 14 N       -5.9620     0.7690    -0.0610 N.am  1 <1>  -0.6600 
 15 C       -5.9650     2.2450    -0.2530 C.3   1 <1>   0.1400 
 16 C       -5.5660     0.2220     1.1400 C.2   1 <1>   0.5690 
 17 O       -5.3450     0.9230     2.1010 O.2   1 <1>  -0.5700 
 18 C       -5.3460    -1.2690     1.3440 C.3   1 <1>   0.1570 
 19 N       -6.5470    -2.0800     1.0650 N.pl3 1 <1>   0.0480 
 20 C       -6.5930    -3.1340     0.2040 C.ar  1 <1>  -0.1520 
 21 C       -7.8280    -1.9170     1.5070 C.2   1 <1>   0.0060 
 22 C       -7.9160    -3.5300     0.1750 C.ar  1 <1>   0.2270 
 23 C       -5.6280    -3.7910    -0.5680 C.ar  1 <1>  -0.1500 
 24 N       -8.6650    -2.7510     1.0000 N.2   1 <1>  -0.5650 
 25 C       -8.2420    -0.8520     2.5050 C.3   1 <1>  -0.0600 
 26 C       -8.3110    -4.5930    -0.6350 C.ar  1 <1>  -0.1500 
 27 C       -6.0260    -4.8400    -1.3670 C.ar  1 <1>  -0.1500 
 28 C       -7.3670    -5.2420    -1.4020 C.ar  1 <1>  -0.1500 
 29 H       -4.6150    -1.3530    -1.8020 H     1 <1>   0.0800 
 30 H       -5.0790    -0.3570    -3.1280 H     1 <1>   0.0800 
 31 H       -4.8200     2.1120    -2.8190 H     1 <1>   0.0800 
 32 H       -3.2000     2.5360    -2.3850 H     1 <1>   0.0800 
 33 H       -6.7700    -0.8860    -1.1450 H     1 <1>   0.0800 
 34 H       -6.8060     0.6020    -1.9880 H     1 <1>   0.0800 
 35 H       -4.6980     3.7890    -0.9810 H     1 <1>   0.0800 
 36 H       -3.8820     2.6530     0.0230 H     1 <1>   0.0800 
 37 H        0.6460     3.2720    -1.0360 H     1 <1>   0.1500 
 38 H       -2.3840     0.1660     1.8870 H     1 <1>   0.0800 
 39 H       -1.9210     1.6920     2.5980 H     1 <1>   0.0800 
 40 H       -0.7470     0.4010     2.4540 H     1 <1>   0.0800 
 41 H       -6.7420     2.5170    -0.9480 H     1 <1>   0.0800 
 42 H       -6.1900     2.7320     0.6810 H     1 <1>   0.0800 
 43 H       -5.0530    -1.4440     2.3610 H     1 <1>   0.0800 
 44 H       -4.5480    -1.5930     0.7110 H     1 <1>   0.0800 
 45 H       -4.5960    -3.4870    -0.5360 H     1 <1>   0.1500 
 46 H       -7.5740    -0.8450     3.3460 H     1 <1>   0.0800 
 47 H       -9.2370    -1.0540     2.8580 H     1 <1>   0.0800 
 48 H       -8.2360     0.1150     2.0370 H     1 <1>   0.0800 
 49 H       -9.3460    -4.8790    -0.6390 H     1 <1>   0.1500 
 50 H       -5.3060    -5.3640    -1.9710 H     1 <1>   0.1500 
 51 H       -7.6550    -6.0650    -2.0330 H     1 <1>   0.1500 
@<TRIPOS>BOND
  1   1   2  2   
  2   2   3  am  
  3   2   4  1   
  4   3   5  1   
  5   3   6  1   
  6   4   7  1   
  7   4   8  2   
  8   5   9  1   
  9   5  29  1   
 10   5  30  1   
 11   6  10  1   
 12   6  31  1   
 13   6  32  1   
 14   7  11  2   
 15   8  12  1   
 16   8  13  1   
 17   9  14  1   
 18   9  33  1   
 19   9  34  1   
 20  10  15  1   
 21  10  35  1   
 22  10  36  1   
 23  11  12  1   
 24  11  37  1   
 25  13  38  1   
 26  13  39  1   
 27  13  40  1   
 28  14  15  1   
 29  14  16  am  
 30  15  41  1   
 31  15  42  1   
 32  16  17  2   
 33  16  18  1   
 34  18  19  1   
 35  18  43  1   
 36  18  44  1   
 37  19  20  1   
 38  19  21  1   
 39  20  22  ar  
 40  20  23  ar  
 41  21  24  2   
 42  21  25  1   
 43  22  24  1   
 44  22  26  ar  
 45  23  27  ar  
 46  23  45  1   
 47  25  46  1   
 48  25  47  1   
 49  25  48  1   
 50  26  28  ar  
 51  26  49  1   
 52  27  28  ar  
 53  27  50  1   
 54  28  51  1   
@<TRIPOS>SUBSTRUCTURE
  1 ****  16 GROUP 4 **** **** 0

# MOE 2024.06 (io_trps.svl 2023.06)
