@<TRIPOS>MOLECULE
NONAME
54 56 1 0 0 
SMALL
USER_CHARGES


@<TRIPOS>ATOM
  1 O       -2.4760     0.6520    -2.5580 O.2   1 <1>  -0.5700 
  2 C       -2.1730     0.7960    -1.4000 C.2   1 <1>   0.5690 
  3 N       -1.9690    -0.2600    -0.5770 N.am  1 <1>  -0.7300 
  4 C       -2.0250     2.1940    -0.8340 C.3   1 <1>  -0.0990 
  5 C       -2.0100    -1.6810    -0.9940 C.3   1 <1>   0.2200 
  6 C       -0.5570     2.5540    -0.5510 C.3   1 <1>  -0.1600 
  7 C       -3.2630    -2.3740    -0.4770 C.3   1 <1>  -0.0800 
  8 C       -0.9350    -2.4440    -0.2330 C.3   1 <1>   0.1200 
  9 C       -0.4300     3.9810     0.0070 C.3   1 <1>  -0.1600 
 10 C       -2.8690    -2.7850     0.9470 C.3   1 <1>   0.1200 
 11 C       -4.5680    -1.5610    -0.5660 C.3   1 <1>  -0.0160 
 12 O       -1.4780    -2.6630     1.0340 O.3   1 <1>  -0.5600 
 13 C        1.0040     4.3450     0.4400 C.3   1 <1>  -0.0800 
 14 C       -5.7580    -2.3950    -0.1180 C.ar  1 <1>  -0.1440 
 15 C        0.9970     5.7130     1.1470 C.3   1 <1>  -0.1600 
 16 C        1.9870     4.3630    -0.7470 C.3   1 <1>  -0.1600 
 17 C       -6.2830    -2.3030     1.1550 C.ar  1 <1>  -0.1500 
 18 C       -6.3730    -3.2920    -0.9680 C.ar  1 <1>  -0.1500 
 19 C        2.4050     6.1350     1.5850 C.3   1 <1>  -0.1600 
 20 C        3.3950     4.7940    -0.3120 C.3   1 <1>  -0.1600 
 21 C       -7.3640    -3.0940     1.5080 C.ar  1 <1>   0.1600 
 22 C       -7.4500    -4.0360    -0.5140 C.ar  1 <1>   0.1600 
 23 C        3.3710     6.1540     0.3950 C.3   1 <1>  -0.1600 
 24 N       -7.9590    -3.9600     0.7050 N.ar  1 <1>  -0.6200 
 25 H       -1.7200    -0.1210     0.4040 H     1 <1>   0.3700 
 26 H       -2.4340     2.8920    -1.5430 H     1 <1>   0.0800 
 27 H       -2.6040     2.2630     0.0680 H     1 <1>   0.0800 
 28 H       -1.8960    -1.7680    -2.0620 H     1 <1>   0.0800 
 29 H       -0.1450     1.8540     0.1560 H     1 <1>   0.0800 
 30 H       -0.0030     2.4660    -1.4690 H     1 <1>   0.0800 
 31 H       -3.3940    -3.2780    -1.0460 H     1 <1>   0.0800 
 32 H       -0.0140    -1.8950    -0.1460 H     1 <1>   0.0800 
 33 H       -0.7530    -3.4030    -0.6860 H     1 <1>   0.0800 
 34 H       -1.0770     4.0710     0.8620 H     1 <1>   0.0800 
 35 H       -0.7690     4.6850    -0.7340 H     1 <1>   0.0800 
 36 H       -3.1450    -3.8040     1.1580 H     1 <1>   0.0800 
 37 H       -3.2990    -2.1310     1.6850 H     1 <1>   0.0800 
 38 H       -4.7180    -1.2400    -1.5830 H     1 <1>   0.0800 
 39 H       -4.5030    -0.6770     0.0430 H     1 <1>   0.0800 
 40 H        1.3420     3.6080     1.1500 H     1 <1>   0.0800 
 41 H        0.6000     6.4590     0.4790 H     1 <1>   0.0800 
 42 H        0.3590     5.6720     2.0120 H     1 <1>   0.0800 
 43 H        2.0540     3.3860    -1.1890 H     1 <1>   0.0800 
 44 H        1.6270     5.0440    -1.4990 H     1 <1>   0.0800 
 45 H       -5.8650    -1.6240     1.8750 H     1 <1>   0.1500 
 46 H       -6.0270    -3.4180    -1.9770 H     1 <1>   0.1500 
 47 H        2.3660     7.1130     2.0320 H     1 <1>   0.0800 
 48 H        2.7690     5.4460     2.3290 H     1 <1>   0.0800 
 49 H        3.8020     4.0540     0.3560 H     1 <1>   0.0800 
 50 H        4.0370     4.8480    -1.1740 H     1 <1>   0.0800 
 51 H       -7.7610    -3.0090     2.5060 H     1 <1>   0.1500 
 52 H       -7.9170    -4.7310    -1.1910 H     1 <1>   0.1500 
 53 H        4.3610     6.4020     0.7360 H     1 <1>   0.0800 
 54 H        3.0610     6.9130    -0.3030 H     1 <1>   0.0800 
@<TRIPOS>BOND
  1   1   2  2   
  2   2   3  am  
  3   2   4  1   
  4   3   5  1   
  5   3  25  1   
  6   4   6  1   
  7   4  26  1   
  8   4  27  1   
  9   5   7  1   
 10   5   8  1   
 11   5  28  1   
 12   6   9  1   
 13   6  29  1   
 14   6  30  1   
 15   7  10  1   
 16   7  11  1   
 17   7  31  1   
 18   8  12  1   
 19   8  32  1   
 20   8  33  1   
 21   9  13  1   
 22   9  34  1   
 23   9  35  1   
 24  10  12  1   
 25  10  36  1   
 26  10  37  1   
 27  11  14  1   
 28  11  38  1   
 29  11  39  1   
 30  13  15  1   
 31  13  16  1   
 32  13  40  1   
 33  14  17  ar  
 34  14  18  ar  
 35  15  19  1   
 36  15  41  1   
 37  15  42  1   
 38  16  20  1   
 39  16  43  1   
 40  16  44  1   
 41  17  21  ar  
 42  17  45  1   
 43  18  22  ar  
 44  18  46  1   
 45  19  23  1   
 46  19  47  1   
 47  19  48  1   
 48  20  23  1   
 49  20  49  1   
 50  20  50  1   
 51  21  24  ar  
 52  21  51  1   
 53  22  24  ar  
 54  22  52  1   
 55  23  53  1   
 56  23  54  1   
@<TRIPOS>SUBSTRUCTURE
  1 ****   3 GROUP 4 **** **** 0

# MOE 2024.06 (io_trps.svl 2023.06)
