@<TRIPOS>MOLECULE
NONAME
53 55 1 0 0 
SMALL
USER_CHARGES


@<TRIPOS>ATOM
  1 O       -2.1650     0.1910     2.1520 O.2   1 <1>  -0.5700 
  2 C       -2.2480     0.6450     1.0270 C.2   1 <1>   0.5440 
  3 N       -2.5990    -0.1760    -0.0190 N.am  1 <1>  -0.6600 
  4 C       -1.9710     2.0450     0.8000 C.ar  1 <1>   0.0860 
  5 C       -2.5430    -1.6680     0.1540 C.3   1 <1>   0.3640 
  6 C       -3.2170     0.3850    -1.2600 C.3   1 <1>   0.1400 
  7 C       -0.8540     2.4320     0.0650 C.ar  1 <1>  -0.1500 
  8 C       -2.8100     3.0400     1.2910 C.ar  1 <1>  -0.1500 
  9 C       -1.1090    -2.1470    -0.0910 C.ar  1 <1>  -0.1430 
 10 C       -3.5350    -2.4810    -0.7330 C.3   1 <1>   0.2000 
 11 C       -3.7460    -0.6870    -2.2220 C.3   1 <1>   0.1200 
 12 C       -0.5770     3.7710    -0.1830 C.ar  1 <1>   0.0830 
 13 C       -2.5690     4.3790     1.0450 C.ar  1 <1>   0.0830 
 14 C       -0.5130    -2.9940     0.8330 C.ar  1 <1>  -0.1500 
 15 C       -0.3840    -1.7680    -1.2150 C.ar  1 <1>  -0.1500 
 16 O       -4.3970    -1.6830    -1.5040 O.3   1 <1>  -0.5600 
 17 C       -4.4200    -3.4150     0.1020 C.3   1 <1>   0.1200 
 18 O        0.5150     4.1640    -0.9010 O.3   1 <1>  -0.3630 
 19 C       -1.4350     4.7560     0.3150 C.ar  1 <1>   0.0830 
 20 O       -3.4860     5.2440     1.5590 O.3   1 <1>  -0.3630 
 21 C        0.7770    -3.4570     0.6380 C.ar  1 <1>  -0.1500 
 22 C        0.9050    -2.2310    -1.4130 C.ar  1 <1>  -0.1500 
 23 O       -3.6440    -4.3420     0.7930 O.3   1 <1>  -0.6800 
 24 C        1.5160     3.2490    -1.2920 C.3   1 <1>   0.0400 
 25 O       -1.1510     6.0640     0.0910 O.3   1 <1>  -0.3630 
 26 C       -3.8940     6.3670     0.8080 C.3   1 <1>   0.0400 
 27 C        1.4860    -3.0770    -0.4860 C.ar  1 <1>  -0.1500 
 28 C       -0.1800     6.6340     0.9380 C.3   1 <1>   0.0400 
 29 H       -2.7840    -1.8890     1.1800 H     1 <1>   0.0800 
 30 H       -4.0410     1.0180    -0.9760 H     1 <1>   0.0800 
 31 H       -2.4990     0.9960    -1.7770 H     1 <1>   0.0800 
 32 H       -0.2140     1.6500    -0.2990 H     1 <1>   0.1500 
 33 H       -3.6690     2.7590     1.8730 H     1 <1>   0.1500 
 34 H       -2.9760    -3.0850    -1.4260 H     1 <1>   0.0800 
 35 H       -2.9500    -1.1300    -2.7940 H     1 <1>   0.0800 
 36 H       -4.4550    -0.2520    -2.9040 H     1 <1>   0.0800 
 37 H       -1.0530    -3.2950     1.7150 H     1 <1>   0.1500 
 38 H       -0.8170    -1.1070    -1.9410 H     1 <1>   0.1500 
 39 H       -5.1020    -3.9550    -0.5310 H     1 <1>   0.0800 
 40 H       -4.9770    -2.8470     0.8270 H     1 <1>   0.0800 
 41 H        1.2270    -4.1110     1.3640 H     1 <1>   0.1500 
 42 H        1.4570    -1.9330    -2.2870 H     1 <1>   0.1500 
 43 H       -3.2020    -4.9600     0.1770 H     1 <1>   0.4000 
 44 H        2.3000     3.8020    -1.7780 H     1 <1>   0.0800 
 45 H        1.0920     2.5390    -1.9800 H     1 <1>   0.0800 
 46 H        1.9030     2.7580    -0.4170 H     1 <1>   0.0800 
 47 H       -4.8650     6.6680     1.1560 H     1 <1>   0.0800 
 48 H       -3.9420     6.0990    -0.2330 H     1 <1>   0.0800 
 49 H       -3.1910     7.1650     0.9620 H     1 <1>   0.0800 
 50 H        2.4890    -3.4370    -0.6380 H     1 <1>   0.1500 
 51 H       -0.0740     7.6710     0.6780 H     1 <1>   0.0800 
 52 H        0.7550     6.1210     0.7950 H     1 <1>   0.0800 
 53 H       -0.5100     6.5380     1.9570 H     1 <1>   0.0800 
@<TRIPOS>BOND
  1   1   2  2   
  2   2   3  am  
  3   2   4  1   
  4   3   5  1   
  5   3   6  1   
  6   4   7  ar  
  7   4   8  ar  
  8   5   9  1   
  9   5  10  1   
 10   5  29  1   
 11   6  11  1   
 12   6  30  1   
 13   6  31  1   
 14   7  12  ar  
 15   7  32  1   
 16   8  13  ar  
 17   8  33  1   
 18   9  14  ar  
 19   9  15  ar  
 20  10  16  1   
 21  10  17  1   
 22  10  34  1   
 23  11  16  1   
 24  11  35  1   
 25  11  36  1   
 26  12  18  1   
 27  12  19  ar  
 28  13  19  ar  
 29  13  20  1   
 30  14  21  ar  
 31  14  37  1   
 32  15  22  ar  
 33  15  38  1   
 34  17  23  1   
 35  17  39  1   
 36  17  40  1   
 37  18  24  1   
 38  19  25  1   
 39  20  26  1   
 40  21  27  ar  
 41  21  41  1   
 42  22  27  ar  
 43  22  42  1   
 44  23  43  1   
 45  24  44  1   
 46  24  45  1   
 47  24  46  1   
 48  25  28  1   
 49  26  47  1   
 50  26  48  1   
 51  26  49  1   
 52  27  50  1   
 53  28  51  1   
 54  28  52  1   
 55  28  53  1   
@<TRIPOS>SUBSTRUCTURE
  1 ****   2 GROUP 4 **** **** 0

# MOE 2024.06 (io_trps.svl 2023.06)
