@<TRIPOS>MOLECULE
NONAME
42 43 1 0 0 
SMALL
USER_CHARGES


@<TRIPOS>ATOM
  1 S        0.5280    -0.0780    -0.3930 S.o2  1 <1>   1.3330 
  2 O        0.5030    -0.3080    -1.8200 O.2   1 <1>  -0.6500 
  3 O        1.8010     0.0060     0.2880 O.2   1 <1>  -0.6500 
  4 N       -0.3790    -1.3030     0.3550 N.am  1 <1>  -0.8490 
  5 C       -0.4280     1.4010    -0.0650 C.3   1 <1>  -0.0550 
  6 C       -0.1700    -1.3770     1.8050 C.3   1 <1>   0.1160 
  7 C       -0.1390    -2.6150    -0.2510 C.3   1 <1>   0.1160 
  8 C        0.1500     2.6560    -0.7490 C.3   1 <1>  -0.0800 
  9 C       -0.7340     3.8970    -0.6450 C.3   1 <1>   0.2000 
 10 C        1.5120     3.1050    -0.1890 C.3   1 <1>   0.1100 
 11 O       -1.2530     3.9780     0.6350 O.3   1 <1>  -0.6800 
 12 C        0.2820     5.0210    -0.7850 C.3   1 <1>   0.1100 
 13 N        1.4180     4.5580     0.0240 N.3   1 <1>  -0.8100 
 14 C        2.6790     5.2600    -0.2600 C.3   1 <1>   0.2530 
 15 C        2.5670     6.7320     0.1080 C.ar  1 <1>  -0.1440 
 16 C        2.7270     7.1720     1.4130 C.ar  1 <1>   0.1900 
 17 C        2.3050     7.7120    -0.8380 C.ar  1 <1>   0.1900 
 18 F        2.9950     6.3090     2.3570 F     1 <1>  -0.1900 
 19 C        2.6230     8.5060     1.7740 C.ar  1 <1>  -0.1500 
 20 F        2.1510     7.3730    -2.0910 F     1 <1>  -0.1900 
 21 C        2.1950     9.0560    -0.5180 C.ar  1 <1>  -0.1500 
 22 C        2.3540     9.4550     0.8000 C.ar  1 <1>  -0.1500 
 23 H       -1.4280     1.2490    -0.4220 H     1 <1>   0.0800 
 24 H       -0.4830     1.5640     0.9930 H     1 <1>   0.0800 
 25 H       -0.8280    -2.1130     2.2360 H     1 <1>   0.0800 
 26 H       -0.3840    -0.4260     2.2610 H     1 <1>   0.0800 
 27 H        0.8500    -1.6450     2.0270 H     1 <1>   0.0800 
 28 H       -0.7410    -3.3660     0.2330 H     1 <1>   0.0800 
 29 H        0.9010    -2.8830    -0.1640 H     1 <1>   0.0800 
 30 H       -0.4040    -2.5940    -1.2950 H     1 <1>   0.0800 
 31 H        0.2850     2.4400    -1.7950 H     1 <1>   0.0800 
 32 H       -1.5380     3.9320    -1.3610 H     1 <1>   0.0800 
 33 H        2.2930     2.8600    -0.8900 H     1 <1>   0.0800 
 34 H        1.7310     2.6290     0.7530 H     1 <1>   0.0800 
 35 H       -0.4990     4.2360     1.2110 H     1 <1>   0.4000 
 36 H       -0.1060     5.9600    -0.4290 H     1 <1>   0.0800 
 37 H        0.5740     5.1190    -1.8170 H     1 <1>   0.0800 
 38 H        3.4670     4.8120     0.3210 H     1 <1>   0.0800 
 39 H        2.9350     5.1480    -1.3000 H     1 <1>   0.0800 
 40 H        2.7530     8.7910     2.8030 H     1 <1>   0.1500 
 41 H        1.9870     9.7740    -1.2910 H     1 <1>   0.1500 
 42 H        2.2700    10.4950     1.0660 H     1 <1>   0.1500 
@<TRIPOS>BOND
  1   1   2  2   
  2   1   3  2   
  3   1   4  am  
  4   1   5  1   
  5   4   6  1   
  6   4   7  1   
  7   5   8  1   
  8   5  23  1   
  9   5  24  1   
 10   6  25  1   
 11   6  26  1   
 12   6  27  1   
 13   7  28  1   
 14   7  29  1   
 15   7  30  1   
 16   8   9  1   
 17   8  10  1   
 18   8  31  1   
 19   9  11  1   
 20   9  12  1   
 21   9  32  1   
 22  10  13  1   
 23  10  33  1   
 24  10  34  1   
 25  11  35  1   
 26  12  13  1   
 27  12  36  1   
 28  12  37  1   
 29  13  14  1   
 30  14  15  1   
 31  14  38  1   
 32  14  39  1   
 33  15  16  ar  
 34  15  17  ar  
 35  16  18  1   
 36  16  19  ar  
 37  17  20  1   
 38  17  21  ar  
 39  19  22  ar  
 40  19  40  1   
 41  21  22  ar  
 42  21  41  1   
 43  22  42  1   
@<TRIPOS>SUBSTRUCTURE
  1 ****  13 GROUP 4 **** **** 0

# MOE 2024.06 (io_trps.svl 2023.06)
