@<TRIPOS>MOLECULE
NONAME
53 56 1 0 0 
SMALL
USER_CHARGES


@<TRIPOS>ATOM
  1 O       -0.3380    -0.5650    -0.1680 O.2   1 <1>  -0.5700 
  2 C       -1.4880    -0.2020    -0.1200 C.2   1 <1>   0.5690 
  3 N       -2.5920    -0.9800     0.1020 N.am  1 <1>  -0.4770 
  4 C       -1.8620     1.2440    -0.3050 C.3   1 <1>  -0.0990 
  5 C       -2.6560    -2.3750     0.2690 C.ar  1 <1>   0.1170 
  6 C       -3.8150    -0.1500     0.1150 C.3   1 <1>   0.1400 
  7 C       -3.3860     1.2050    -0.4590 C.3   1 <1>  -0.1600 
  8 C       -3.6130    -2.9590     1.0970 C.ar  1 <1>  -0.1500 
  9 C       -1.7730    -3.2270    -0.3890 C.ar  1 <1>  -0.1500 
 10 C       -3.6890    -4.3310     1.2470 C.ar  1 <1>  -0.1500 
 11 C       -1.8500    -4.5980    -0.2350 C.ar  1 <1>  -0.1500 
 12 C       -2.8170    -5.1890     0.5760 C.ar  1 <1>   0.0860 
 13 C       -2.9020    -6.6290     0.7160 C.2   1 <1>   0.5440 
 14 O       -1.8910    -7.2820     0.8990 O.2   1 <1>  -0.5700 
 15 N       -4.1080    -7.2890     0.6240 N.am  1 <1>  -0.6600 
 16 C       -5.2650    -6.7930    -0.1660 C.3   1 <1>   0.1400 
 17 C       -4.2510    -8.7470     0.8460 C.3   1 <1>   0.1400 
 18 C       -6.1530    -8.0180    -0.4340 C.3   1 <1>   0.2000 
 19 C       -5.2100    -9.2110    -0.2500 C.3   1 <1>  -0.0800 
 20 O       -7.1650    -8.0890     0.5310 O.3   1 <1>  -0.5600 
 21 C       -5.9110   -10.5440     0.0670 C.3   1 <1>   0.0200 
 22 C       -8.3220    -7.3730     0.2320 C.3   1 <1>   0.0400 
 23 C       -4.9630   -11.7320     0.0710 C.2   1 <1>  -0.0400 
 24 O       -5.4280   -12.9060     0.4070 O.3   1 <1>  -0.0190 
 25 C       -3.6590   -11.8790    -0.2170 C.2   1 <1>  -0.1500 
 26 N       -4.5090   -13.8260     0.3640 N.2   1 <1>  -0.4100 
 27 C       -3.4310   -13.2350    -0.0080 C.2   1 <1>   0.1080 
 28 C       -2.0990   -13.9280    -0.1900 C.3   1 <1>  -0.0590 
 29 H       -1.5720     1.7920     0.5730 H     1 <1>   0.0800 
 30 H       -1.3790     1.6560    -1.1730 H     1 <1>   0.0800 
 31 H       -4.5880    -0.6030    -0.4830 H     1 <1>   0.0800 
 32 H       -4.1540    -0.0370     1.1300 H     1 <1>   0.0800 
 33 H       -3.6450     1.2380    -1.5030 H     1 <1>   0.0800 
 34 H       -3.8690     2.0240     0.0450 H     1 <1>   0.0800 
 35 H       -4.2990    -2.3370     1.6410 H     1 <1>   0.1500 
 36 H       -1.0140    -2.8120    -1.0270 H     1 <1>   0.1500 
 37 H       -4.4290    -4.7560     1.9030 H     1 <1>   0.1500 
 38 H       -1.1470    -5.2330    -0.7480 H     1 <1>   0.1500 
 39 H       -5.8010    -6.0340     0.3740 H     1 <1>   0.0800 
 40 H       -4.9050    -6.3920    -1.0980 H     1 <1>   0.0800 
 41 H       -3.3040    -9.2550     0.7920 H     1 <1>   0.0800 
 42 H       -4.6850    -8.9060     1.8190 H     1 <1>   0.0800 
 43 H       -6.5970    -8.0050    -1.4160 H     1 <1>   0.0800 
 44 H       -4.6430    -9.3230    -1.1570 H     1 <1>   0.0800 
 45 H       -6.6780   -10.7260    -0.6650 H     1 <1>   0.0800 
 46 H       -6.3890   -10.4850     1.0300 H     1 <1>   0.0800 
 47 H       -9.0080    -7.4920     1.0530 H     1 <1>   0.0800 
 48 H       -8.7640    -7.7700    -0.6650 H     1 <1>   0.0800 
 49 H       -8.0830    -6.3310     0.1100 H     1 <1>   0.0800 
 50 H       -2.9280   -11.1580    -0.5340 H     1 <1>   0.1500 
 51 H       -1.3550   -13.4550     0.4230 H     1 <1>   0.0800 
 52 H       -1.7990   -13.8730    -1.2200 H     1 <1>   0.0800 
 53 H       -2.1810   -14.9610     0.0950 H     1 <1>   0.0800 
@<TRIPOS>BOND
  1   1   2  2   
  2   2   3  am  
  3   2   4  1   
  4   3   5  1   
  5   3   6  1   
  6   4   7  1   
  7   4  29  1   
  8   4  30  1   
  9   5   8  ar  
 10   5   9  ar  
 11   6   7  1   
 12   6  31  1   
 13   6  32  1   
 14   7  33  1   
 15   7  34  1   
 16   8  10  ar  
 17   8  35  1   
 18   9  11  ar  
 19   9  36  1   
 20  10  12  ar  
 21  10  37  1   
 22  11  12  ar  
 23  11  38  1   
 24  12  13  1   
 25  13  14  2   
 26  13  15  am  
 27  15  16  1   
 28  15  17  1   
 29  16  18  1   
 30  16  39  1   
 31  16  40  1   
 32  17  19  1   
 33  17  41  1   
 34  17  42  1   
 35  18  19  1   
 36  18  20  1   
 37  18  43  1   
 38  19  21  1   
 39  19  44  1   
 40  20  22  1   
 41  21  23  1   
 42  21  45  1   
 43  21  46  1   
 44  22  47  1   
 45  22  48  1   
 46  22  49  1   
 47  23  24  1   
 48  23  25  2   
 49  24  26  1   
 50  25  27  1   
 51  25  50  1   
 52  26  27  2   
 53  27  28  1   
 54  28  51  1   
 55  28  52  1   
 56  28  53  1   
@<TRIPOS>SUBSTRUCTURE
  1 ****  13 GROUP 4 **** **** 0

# MOE 2024.06 (io_trps.svl 2023.06)
