@<TRIPOS>MOLECULE
NONAME
54 57 1 0 0 
SMALL
USER_CHARGES


@<TRIPOS>ATOM
  1 O       -0.3140     0.3000     0.2420 O.2   1 <1>  -0.5700 
  2 C       -1.3760     0.8940     0.2940 C.2   1 <1>   0.5440 
  3 N       -2.5400     0.1570     0.2770 N.am  1 <1>  -0.6600 
  4 C       -1.3940     2.3390     0.3520 C.ar  1 <1>   0.0860 
  5 C       -3.8700     0.6960    -0.1040 C.3   1 <1>   0.1400 
  6 C       -2.5350    -1.3240     0.2000 C.3   1 <1>   0.1400 
  7 C       -0.6550     3.1020    -0.5520 C.ar  1 <1>  -0.1500 
  8 C       -2.1420     3.0270     1.3080 C.ar  1 <1>  -0.1500 
  9 C       -4.6750    -0.5240    -0.5520 C.3   1 <1>   0.2000 
 10 C       -4.0100    -1.7240     0.1180 C.3   1 <1>  -0.0800 
 11 C       -0.6710     4.4850    -0.5290 C.ar  1 <1>  -0.1440 
 12 C       -2.1650     4.4060     1.3410 C.ar  1 <1>  -0.1500 
 13 O       -6.0010    -0.4370    -0.1570 O.3   1 <1>  -0.6800 
 14 C       -4.2680    -3.0410    -0.6330 C.3   1 <1>  -0.0170 
 15 C       -1.4370     5.1560     0.4250 C.ar  1 <1>   0.1000 
 16 C        0.1500     5.2680    -1.5430 C.3   1 <1>  -0.0970 
 17 C       -3.6490    -4.2290     0.0860 C.ar  1 <1>   0.1670 
 18 N       -1.4690     6.5410     0.4720 N.pl3 1 <1>  -0.8380 
 19 N       -2.3680    -4.4610    -0.1500 N.ar  1 <1>  -0.6200 
 20 C       -4.4250    -5.0050     0.9440 C.ar  1 <1>   0.1600 
 21 C       -0.7110     7.2040     1.5710 C.3   1 <1>   0.2090 
 22 C       -2.7620     7.2220     0.1810 C.3   1 <1>   0.2090 
 23 C       -1.9190    -5.5070     0.5240 C.ar  1 <1>   0.1600 
 24 N       -3.9790    -6.0510     1.6210 N.ar  1 <1>  -0.6200 
 25 C       -0.6130     8.7210     1.3270 C.3   1 <1>   0.1200 
 26 C       -2.5520     8.7370     0.0090 C.3   1 <1>   0.1200 
 27 C       -2.6980    -6.2750     1.3800 C.ar  1 <1>   0.1600 
 28 O       -1.8810     9.2800     1.1150 O.3   1 <1>  -0.5600 
 29 H       -4.3230     1.1590     0.7540 H     1 <1>   0.0800 
 30 H       -3.7740     1.4080    -0.9060 H     1 <1>   0.0800 
 31 H       -2.0010    -1.6290    -0.6850 H     1 <1>   0.0800 
 32 H       -2.0530    -1.7510     1.0640 H     1 <1>   0.0800 
 33 H       -0.0590     2.5810    -1.2800 H     1 <1>   0.1500 
 34 H       -2.7020     2.4660     2.0340 H     1 <1>   0.1500 
 35 H       -4.6430    -0.6070    -1.6260 H     1 <1>   0.0800 
 36 H       -4.3690    -1.8120     1.1290 H     1 <1>   0.0800 
 37 H       -2.7460     4.9190     2.0850 H     1 <1>   0.1500 
 38 H       -6.0620    -0.3470     0.8130 H     1 <1>   0.4000 
 39 H       -3.8630    -2.9830    -1.6280 H     1 <1>   0.0800 
 40 H       -5.3290    -3.1920    -0.7250 H     1 <1>   0.0800 
 41 H        0.6680     4.6110    -2.2180 H     1 <1>   0.0800 
 42 H        0.8730     5.8760    -1.0300 H     1 <1>   0.0800 
 43 H       -0.4960     5.9100    -2.1130 H     1 <1>   0.0800 
 44 H       -5.4610    -4.7500     1.0800 H     1 <1>   0.1500 
 45 H       -1.2060     7.0260     2.5090 H     1 <1>   0.0800 
 46 H        0.2770     6.7820     1.6260 H     1 <1>   0.0800 
 47 H       -3.1850     6.8120    -0.7200 H     1 <1>   0.0800 
 48 H       -3.4530     7.0500     0.9870 H     1 <1>   0.0800 
 49 H       -0.8840    -5.7680     0.3920 H     1 <1>   0.1500 
 50 H       -0.0010     8.9200     0.4650 H     1 <1>   0.0800 
 51 H       -0.1780     9.2070     2.1810 H     1 <1>   0.0800 
 52 H       -3.5000     9.2370    -0.0780 H     1 <1>   0.0800 
 53 H       -1.9720     8.9350    -0.8760 H     1 <1>   0.0800 
 54 H       -2.2420    -7.1070     1.8860 H     1 <1>   0.1500 
@<TRIPOS>BOND
  1   1   2  2   
  2   2   3  am  
  3   2   4  1   
  4   3   5  1   
  5   3   6  1   
  6   4   7  ar  
  7   4   8  ar  
  8   5   9  1   
  9   5  29  1   
 10   5  30  1   
 11   6  10  1   
 12   6  31  1   
 13   6  32  1   
 14   7  11  ar  
 15   7  33  1   
 16   8  12  ar  
 17   8  34  1   
 18   9  10  1   
 19   9  13  1   
 20   9  35  1   
 21  10  14  1   
 22  10  36  1   
 23  11  15  ar  
 24  11  16  1   
 25  12  15  ar  
 26  12  37  1   
 27  13  38  1   
 28  14  17  1   
 29  14  39  1   
 30  14  40  1   
 31  15  18  1   
 32  16  41  1   
 33  16  42  1   
 34  16  43  1   
 35  17  19  ar  
 36  17  20  ar  
 37  18  21  1   
 38  18  22  1   
 39  19  23  ar  
 40  20  24  ar  
 41  20  44  1   
 42  21  25  1   
 43  21  45  1   
 44  21  46  1   
 45  22  26  1   
 46  22  47  1   
 47  22  48  1   
 48  23  27  ar  
 49  23  49  1   
 50  24  27  ar  
 51  25  28  1   
 52  25  50  1   
 53  25  51  1   
 54  26  28  1   
 55  26  52  1   
 56  26  53  1   
 57  27  54  1   
@<TRIPOS>SUBSTRUCTURE
  1 ****   2 GROUP 4 **** **** 0

# MOE 2024.06 (io_trps.svl 2023.06)
