@<TRIPOS>MOLECULE
NONAME
41 42 1 0 0 
SMALL
USER_CHARGES


@<TRIPOS>ATOM
  1 S       -0.4140     0.0780     0.1380 S.o2  1 <1>   1.3330 
  2 O       -1.0710     1.3640     0.0820 O.2   1 <1>  -0.6500 
  3 O       -0.4190    -0.6720     1.3740 O.2   1 <1>  -0.6500 
  4 N       -1.0730    -0.9130    -1.0720 N.am  1 <1>  -0.8490 
  5 C        1.2740     0.3120    -0.4240 C.3   1 <1>  -0.0550 
  6 C       -2.5110    -0.6900    -1.2520 C.3   1 <1>   0.1160 
  7 C       -0.8130    -2.3410    -0.8620 C.3   1 <1>   0.1160 
  8 C        2.1060     1.2510     0.4750 C.3   1 <1>  -0.0800 
  9 C        3.4400     1.5910    -0.1710 C.3   1 <1>   0.2200 
 10 C        2.5480     0.5570     1.7700 C.3   1 <1>   0.1200 
 11 N        3.9650     2.8450     0.4150 N.am  1 <1>  -0.7300 
 12 C        4.3080     0.4230     0.2820 C.3   1 <1>   0.1200 
 13 O        3.8340     0.0580     1.5440 O.3   1 <1>  -0.5600 
 14 C        4.3920     3.9330    -0.2770 C.2   1 <1>   0.7150 
 15 O        4.2720     3.9360    -1.4870 O.2   1 <1>  -0.5700 
 16 C        4.9830     5.0280     0.4390 C.2   1 <1>  -0.2370 
 17 N        5.5420     6.1330    -0.1290 N.pl3 1 <1>   0.3140 
 18 C        5.1210     5.2150     1.7830 C.2   1 <1>  -0.1500 
 19 N        6.0200     6.9870     0.7890 N.2   1 <1>  -0.7070 
 20 C        5.6670     6.4570    -1.5610 C.3   1 <1>   0.0160 
 21 C        5.7620     6.4290     1.9310 C.2   1 <1>   0.1390 
 22 H        1.7610    -0.6410    -0.4980 H     1 <1>   0.0800 
 23 H        1.2330     0.7340    -1.4100 H     1 <1>   0.0800 
 24 H       -2.8920    -1.3210    -2.0360 H     1 <1>   0.0800 
 25 H       -2.6940     0.3350    -1.5290 H     1 <1>   0.0800 
 26 H       -3.0400    -0.9000    -0.3370 H     1 <1>   0.0800 
 27 H       -1.1700    -2.9100    -1.7040 H     1 <1>   0.0800 
 28 H       -1.3090    -2.6870     0.0300 H     1 <1>   0.0800 
 29 H        0.2440    -2.5160    -0.7580 H     1 <1>   0.0800 
 30 H        1.5340     2.1400     0.6770 H     1 <1>   0.0800 
 31 H        3.3870     1.6650    -1.2450 H     1 <1>   0.0800 
 32 H        1.9100    -0.2570     2.0650 H     1 <1>   0.0800 
 33 H        2.6130     1.2650     2.5780 H     1 <1>   0.0800 
 34 H        4.1760     2.7920     1.4110 H     1 <1>   0.3700 
 35 H        5.3510     0.6810     0.3460 H     1 <1>   0.0800 
 36 H        4.1830    -0.4220    -0.3710 H     1 <1>   0.0800 
 37 H        4.8090     4.5760     2.5890 H     1 <1>   0.1500 
 38 H        6.2210     5.6800    -2.0530 H     1 <1>   0.0800 
 39 H        6.1830     7.3920    -1.6700 H     1 <1>   0.0800 
 40 H        4.6870     6.5340    -1.9920 H     1 <1>   0.0800 
 41 H        6.0260     6.8770     2.8750 H     1 <1>   0.1500 
@<TRIPOS>BOND
  1   1   2  2   
  2   1   3  2   
  3   1   4  am  
  4   1   5  1   
  5   4   6  1   
  6   4   7  1   
  7   5   8  1   
  8   5  22  1   
  9   5  23  1   
 10   6  24  1   
 11   6  25  1   
 12   6  26  1   
 13   7  27  1   
 14   7  28  1   
 15   7  29  1   
 16   8   9  1   
 17   8  10  1   
 18   8  30  1   
 19   9  11  1   
 20   9  12  1   
 21   9  31  1   
 22  10  13  1   
 23  10  32  1   
 24  10  33  1   
 25  11  14  am  
 26  11  34  1   
 27  12  13  1   
 28  12  35  1   
 29  12  36  1   
 30  14  15  2   
 31  14  16  1   
 32  16  17  1   
 33  16  18  2   
 34  17  19  1   
 35  17  20  1   
 36  18  21  1   
 37  18  37  1   
 38  19  21  2   
 39  20  38  1   
 40  20  39  1   
 41  20  40  1   
 42  21  41  1   
@<TRIPOS>SUBSTRUCTURE
  1 ****   9 GROUP 4 **** **** 0

# MOE 2024.06 (io_trps.svl 2023.06)
