@<TRIPOS>MOLECULE
NONAME
56 59 1 0 0 
SMALL
USER_CHARGES


@<TRIPOS>ATOM
  1 O        3.7040    -1.0250     2.2500 O.2   1 <1>  -0.5700 
  2 C        2.9940    -1.8370     1.6870 C.2   1 <1>   0.5440 
  3 N        2.5470    -1.4970     0.4290 N.am  1 <1>  -0.6600 
  4 C        2.7190    -3.1390     2.2720 C.ar  1 <1>   0.0860 
  5 C        2.3120    -0.0430     0.1020 C.3   1 <1>   0.2200 
  6 C        2.6610    -2.4820    -0.6920 C.3   1 <1>   0.1400 
  7 C        1.5980    -3.8700     1.8830 C.ar  1 <1>  -0.1500 
  8 C        3.5720    -3.7280     3.2040 C.ar  1 <1>  -0.1500 
  9 C        1.2670     0.1640    -1.0070 C.3   1 <1>   0.1200 
 10 C        3.6400     0.6640    -0.2610 C.3   1 <1>   0.3430 
 11 C        3.2060    -1.8780    -1.9990 C.3   1 <1>  -0.0800 
 12 C        1.3710    -5.1680     2.3120 C.ar  1 <1>  -0.1440 
 13 C        3.3400    -5.0070     3.6770 C.ar  1 <1>  -0.1500 
 14 O        1.8710     0.1230    -2.2670 O.3   1 <1>  -0.5600 
 15 N        4.7240    -0.3220    -0.5940 N.4   1 <1>  -0.9590 
 16 C        2.1070    -1.1420    -2.7840 C.3   1 <1>   0.1200 
 17 C        4.5120    -1.0550    -1.8870 C.3   1 <1>   0.3430 
 18 C        2.2510    -5.7300     3.2240 C.ar  1 <1>  -0.1500 
 19 C        0.1940    -5.9950     1.7860 C.3   1 <1>   0.2390 
 20 C        6.0710     0.3030    -0.5070 C.3   1 <1>   0.2630 
 21 N       -0.4270    -5.4170     0.5630 N.pl3 1 <1>   0.3140 
 22 N        0.1970    -5.4480    -0.6370 N.2   1 <1>  -0.7070 
 23 C       -1.6200    -4.7800     0.4700 C.2   1 <1>  -0.3320 
 24 C       -0.6190    -4.8650    -1.4560 C.2   1 <1>   0.1080 
 25 C       -1.7700    -4.4190    -0.8220 C.2   1 <1>  -0.1500 
 26 C       -2.5810    -4.5370     1.6220 C.3   1 <1>  -0.0600 
 27 C       -0.3240    -4.7170    -2.9300 C.3   1 <1>  -0.0590 
 28 H        1.9180     0.4290     0.9860 H     1 <1>   0.0800 
 29 H        3.3130    -3.2850    -0.3880 H     1 <1>   0.0800 
 30 H        1.6930    -2.9190    -0.8760 H     1 <1>   0.0800 
 31 H        0.9020    -3.4020     1.2110 H     1 <1>   0.1500 
 32 H        4.4290    -3.1780     3.5540 H     1 <1>   0.1500 
 33 H        0.8390     1.1470    -0.9070 H     1 <1>   0.0800 
 34 H        0.4690    -0.5570    -0.9480 H     1 <1>   0.0800 
 35 H        3.9430     1.2400     0.5970 H     1 <1>   0.0800 
 36 H        3.4840     1.3470    -1.0790 H     1 <1>   0.0800 
 37 H        3.4470    -2.7220    -2.6200 H     1 <1>   0.0800 
 38 H        4.0140    -5.4440     4.3950 H     1 <1>   0.1500 
 39 H        4.6240    -1.0130     0.1750 H     1 <1>   0.4500 
 40 H        1.1830    -1.6960    -2.7890 H     1 <1>   0.0800 
 41 H        2.4180    -1.0060    -3.8060 H     1 <1>   0.0800 
 42 H        4.5450    -0.3510    -2.7030 H     1 <1>   0.0800 
 43 H        5.3370    -1.7360    -2.0200 H     1 <1>   0.0800 
 44 H        2.0980    -6.7330     3.5850 H     1 <1>   0.1500 
 45 H       -0.5540    -6.0840     2.5490 H     1 <1>   0.0800 
 46 H        0.5380    -6.9800     1.5340 H     1 <1>   0.0800 
 47 H        6.1790     1.0660    -1.2600 H     1 <1>   0.0800 
 48 H        6.8380    -0.4410    -0.6520 H     1 <1>   0.0800 
 49 H        6.2100     0.7500     0.4650 H     1 <1>   0.0800 
 50 H       -2.5910    -3.9030    -1.2870 H     1 <1>   0.1500 
 51 H       -3.4390    -3.9880     1.2770 H     1 <1>   0.0800 
 52 H       -2.1000    -3.9670     2.3960 H     1 <1>   0.0800 
 53 H       -2.9200    -5.4730     2.0300 H     1 <1>   0.0800 
 54 H       -1.0100    -4.0250    -3.3820 H     1 <1>   0.0800 
 55 H       -0.4220    -5.6740    -3.4080 H     1 <1>   0.0800 
 56 H        0.6800    -4.3640    -3.0650 H     1 <1>   0.0800 
@<TRIPOS>BOND
  1   1   2  2   
  2   2   3  am  
  3   2   4  1   
  4   3   5  1   
  5   3   6  1   
  6   4   7  ar  
  7   4   8  ar  
  8   5   9  1   
  9   5  10  1   
 10   5  28  1   
 11   6  11  1   
 12   6  29  1   
 13   6  30  1   
 14   7  12  ar  
 15   7  31  1   
 16   8  13  ar  
 17   8  32  1   
 18   9  14  1   
 19   9  33  1   
 20   9  34  1   
 21  10  15  1   
 22  10  35  1   
 23  10  36  1   
 24  11  16  1   
 25  11  17  1   
 26  11  37  1   
 27  12  18  ar  
 28  12  19  1   
 29  13  18  ar  
 30  13  38  1   
 31  14  16  1   
 32  15  17  1   
 33  15  20  1   
 34  15  39  1   
 35  16  40  1   
 36  16  41  1   
 37  17  42  1   
 38  17  43  1   
 39  18  44  1   
 40  19  21  1   
 41  19  45  1   
 42  19  46  1   
 43  20  47  1   
 44  20  48  1   
 45  20  49  1   
 46  21  22  1   
 47  21  23  1   
 48  22  24  2   
 49  23  25  2   
 50  23  26  1   
 51  24  25  1   
 52  24  27  1   
 53  25  50  1   
 54  26  51  1   
 55  26  52  1   
 56  26  53  1   
 57  27  54  1   
 58  27  55  1   
 59  27  56  1   
@<TRIPOS>SUBSTRUCTURE
  1 ****   6 GROUP 4 **** **** 0

# MOE 2024.06 (io_trps.svl 2023.06)
