@<TRIPOS>MOLECULE
NONAME
51 53 1 0 0 
SMALL
USER_CHARGES


@<TRIPOS>ATOM
  1 O       -1.7940     0.2420    -0.6010 O.2   1 <1>  -0.5700 
  2 C       -2.5340     0.9750     0.0070 C.2   1 <1>   0.5690 
  3 N       -3.5330     0.4530     0.7880 N.am  1 <1>  -0.6600 
  4 C       -2.3530     2.4870    -0.1300 C.3   1 <1>  -0.0190 
  5 C       -3.3730    -0.9300     1.3490 C.3   1 <1>   0.3210 
  6 C       -4.7640     1.1860     1.2200 C.3   1 <1>   0.1400 
  7 C       -1.4710     2.9560    -1.3070 C.3   1 <1>  -0.0170 
  8 C       -1.7260     3.1320     1.1210 C.3   1 <1>  -0.0170 
  9 C       -4.3360    -1.9370     0.7220 C.2   1 <1>   0.0460 
 10 C       -5.7580     1.4550     0.0650 C.3   1 <1>   0.3430 
 11 C       -0.9360     4.2740    -0.8040 C.ar  1 <1>  -0.1440 
 12 C       -1.0780     4.3710     0.5590 C.ar  1 <1>  -0.1440 
 13 N       -5.6420    -1.9810     1.0720 N.2   1 <1>  -0.5650 
 14 C       -4.0530    -2.9040    -0.1830 C.2   1 <1>  -0.3320 
 15 N       -6.0640     0.2380    -0.7540 N.4   1 <1>  -0.9590 
 16 C       -0.3640     5.3010    -1.5310 C.ar  1 <1>  -0.1500 
 17 C       -0.6510     5.4990     1.2360 C.ar  1 <1>  -0.1500 
 18 C       -6.1060    -2.9970     0.4160 C.2   1 <1>   0.0360 
 19 N       -5.1910    -3.5980    -0.3710 N.pl3 1 <1>   0.0330 
 20 C       -2.7520    -3.2590    -0.8860 C.3   1 <1>  -0.0600 
 21 C       -5.1260     0.0500    -1.9040 C.3   1 <1>   0.2630 
 22 C       -7.4850     0.2040    -1.1990 C.3   1 <1>   0.2630 
 23 C        0.0660     6.4370    -0.8620 C.ar  1 <1>  -0.1500 
 24 C       -0.0770     6.5350     0.5160 C.ar  1 <1>  -0.1500 
 25 H       -3.3100     2.9460    -0.2790 H     1 <1>   0.0800 
 26 H       -3.5410    -0.9060     2.4110 H     1 <1>   0.0800 
 27 H       -2.3630    -1.2710     1.2030 H     1 <1>   0.0800 
 28 H       -4.4870     2.1210     1.6720 H     1 <1>   0.0800 
 29 H       -5.2730     0.6150     1.9790 H     1 <1>   0.0800 
 30 H       -2.0360     3.0710    -2.2140 H     1 <1>   0.0800 
 31 H       -0.6400     2.2920    -1.4750 H     1 <1>   0.0800 
 32 H       -0.9660     2.4960     1.5410 H     1 <1>   0.0800 
 33 H       -2.4600     3.3730     1.8690 H     1 <1>   0.0800 
 34 H       -5.3690     2.2310    -0.5720 H     1 <1>   0.0800 
 35 H       -6.6700     1.8260     0.5020 H     1 <1>   0.0800 
 36 H       -5.9040    -0.5800    -0.1190 H     1 <1>   0.4500 
 37 H       -0.2510     5.2220    -2.5980 H     1 <1>   0.1500 
 38 H       -0.7600     5.5730     2.3030 H     1 <1>   0.1500 
 39 H       -7.1200    -3.3550     0.4820 H     1 <1>   0.1500 
 40 H       -5.3250    -4.4310    -0.9550 H     1 <1>   0.2700 
 41 H       -1.9800    -2.5470    -0.6530 H     1 <1>   0.0800 
 42 H       -2.8900    -3.2620    -1.9530 H     1 <1>   0.0800 
 43 H       -2.4170    -4.2340    -0.5780 H     1 <1>   0.0800 
 44 H       -5.1500     0.9060    -2.5570 H     1 <1>   0.0800 
 45 H       -5.4020    -0.8260    -2.4660 H     1 <1>   0.0800 
 46 H       -4.1190    -0.0910    -1.5490 H     1 <1>   0.0800 
 47 H       -7.6950     1.0350    -1.8530 H     1 <1>   0.0800 
 48 H       -8.1420     0.2540    -0.3470 H     1 <1>   0.0800 
 49 H       -7.6850    -0.7130    -1.7290 H     1 <1>   0.0800 
 50 H        0.5140     7.2450    -1.4120 H     1 <1>   0.1500 
 51 H        0.2610     7.4190     1.0270 H     1 <1>   0.1500 
@<TRIPOS>BOND
  1   1   2  2   
  2   2   3  am  
  3   2   4  1   
  4   3   5  1   
  5   3   6  1   
  6   4   7  1   
  7   4   8  1   
  8   4  25  1   
  9   5   9  1   
 10   5  26  1   
 11   5  27  1   
 12   6  10  1   
 13   6  28  1   
 14   6  29  1   
 15   7  11  1   
 16   7  30  1   
 17   7  31  1   
 18   8  12  1   
 19   8  32  1   
 20   8  33  1   
 21   9  13  1   
 22   9  14  2   
 23  10  15  1   
 24  10  34  1   
 25  10  35  1   
 26  11  12  ar  
 27  11  16  ar  
 28  12  17  ar  
 29  13  18  2   
 30  14  19  1   
 31  14  20  1   
 32  15  21  1   
 33  15  22  1   
 34  15  36  1   
 35  16  23  ar  
 36  16  37  1   
 37  17  24  ar  
 38  17  38  1   
 39  18  19  1   
 40  18  39  1   
 41  19  40  1   
 42  20  41  1   
 43  20  42  1   
 44  20  43  1   
 45  21  44  1   
 46  21  45  1   
 47  21  46  1   
 48  22  47  1   
 49  22  48  1   
 50  22  49  1   
 51  23  24  ar  
 52  23  50  1   
 53  24  51  1   
@<TRIPOS>SUBSTRUCTURE
  1 ****   2 GROUP 4 **** **** 0

# MOE 2024.06 (io_trps.svl 2023.06)
