@<TRIPOS>MOLECULE
NONAME
48 51 1 0 0 
SMALL
USER_CHARGES


@<TRIPOS>ATOM
  1 F       -1.7950    -0.8470    -1.0510 F     1 <1>  -0.3400 
  2 C       -2.8950    -0.2990    -0.5600 C.3   1 <1>   1.1640 
  3 F       -3.8870    -0.6440    -1.3740 F     1 <1>  -0.3400 
  4 F       -3.1460    -0.9100     0.5900 F     1 <1>  -0.3400 
  5 C       -2.8420     1.2340    -0.3950 C.ar  1 <1>  -0.1440 
  6 C       -3.8850     1.9600     0.2020 C.ar  1 <1>  -0.1440 
  7 C       -1.7250     1.9270    -0.8560 C.ar  1 <1>  -0.1500 
  8 C       -3.7730     3.3380     0.3310 C.ar  1 <1>  -0.1500 
  9 C       -5.1540     1.2970     0.7310 C.3   1 <1>   0.4870 
 10 C       -1.6320     3.2990    -0.7290 C.ar  1 <1>  -0.1500 
 11 C       -2.6560     4.0060    -0.1330 C.ar  1 <1>  -0.1500 
 12 N       -6.0850     1.0870    -0.4100 N.4   1 <1>  -0.9590 
 13 C       -6.9520     2.2880    -0.7040 C.3   1 <1>   0.3430 
 14 C       -6.8650    -0.1900    -0.2660 C.3   1 <1>   0.3430 
 15 C       -8.0670     2.5540     0.3410 C.3   1 <1>   0.1430 
 16 C       -8.3080     0.0210     0.2140 C.3   1 <1>  -0.1600 
 17 C       -9.2180     3.1590    -0.4420 C.ar  1 <1>   0.1670 
 18 C       -8.4810     1.2680     1.0940 C.3   1 <1>  -0.1600 
 19 C       -7.7240     3.6920     1.3430 C.3   1 <1>  -0.1600 
 20 N       -9.9680     2.5070    -1.2960 N.ar  1 <1>  -0.6200 
 21 C       -9.3690     4.4890    -0.1830 C.ar  1 <1>  -0.1430 
 22 C       -8.3520     4.9920     0.8070 C.3   1 <1>  -0.0170 
 23 C      -10.9020     3.2530    -1.8730 C.ar  1 <1>   0.7200 
 24 C      -10.3740     5.1600    -0.8390 C.ar  1 <1>   0.1600 
 25 N      -11.1570     4.5400    -1.6920 N.ar  1 <1>  -0.6200 
 26 N      -11.7000     2.6250    -2.7360 N.pl3 1 <1>  -0.9000 
 27 H       -0.9020     1.4090    -1.3240 H     1 <1>   0.1500 
 28 H       -4.5440     3.9220     0.7980 H     1 <1>   0.1500 
 29 H       -5.6140     1.9140     1.4840 H     1 <1>   0.0800 
 30 H       -4.9070     0.3550     1.1900 H     1 <1>   0.0800 
 31 H       -0.7590     3.8180    -1.0910 H     1 <1>   0.1500 
 32 H       -2.5760     5.0760    -0.0290 H     1 <1>   0.1500 
 33 H       -5.4770     0.9580    -1.2320 H     1 <1>   0.4500 
 34 H       -7.4400     2.1190    -1.6510 H     1 <1>   0.0800 
 35 H       -6.3450     3.1710    -0.8160 H     1 <1>   0.0800 
 36 H       -6.3570    -0.8430     0.4250 H     1 <1>   0.0800 
 37 H       -6.8990    -0.6990    -1.2170 H     1 <1>   0.0800 
 38 H       -8.6260    -0.8540     0.7550 H     1 <1>   0.0800 
 39 H       -8.9490     0.0970    -0.6470 H     1 <1>   0.0800 
 40 H       -9.5090     1.3490     1.4110 H     1 <1>   0.0800 
 41 H       -7.8810     1.1460     1.9790 H     1 <1>   0.0800 
 42 H       -6.6710     3.8080     1.5100 H     1 <1>   0.0800 
 43 H       -8.1890     3.4830     2.2920 H     1 <1>   0.0800 
 44 H       -7.6210     5.5990     0.3020 H     1 <1>   0.0800 
 45 H       -8.8170     5.5620     1.5940 H     1 <1>   0.0800 
 46 H      -10.5380     6.2100    -0.6650 H     1 <1>   0.1500 
 47 H      -12.5540     3.1260    -2.9710 H     1 <1>   0.4000 
 48 H      -11.7850     1.6200    -2.6190 H     1 <1>   0.4000 
@<TRIPOS>BOND
  1   1   2  1   
  2   2   3  1   
  3   2   4  1   
  4   2   5  1   
  5   5   6  ar  
  6   5   7  ar  
  7   6   8  ar  
  8   6   9  1   
  9   7  10  ar  
 10   7  27  1   
 11   8  11  ar  
 12   8  28  1   
 13   9  12  1   
 14   9  29  1   
 15   9  30  1   
 16  10  11  ar  
 17  10  31  1   
 18  11  32  1   
 19  12  13  1   
 20  12  14  1   
 21  12  33  1   
 22  13  15  1   
 23  13  34  1   
 24  13  35  1   
 25  14  16  1   
 26  14  36  1   
 27  14  37  1   
 28  15  17  1   
 29  15  18  1   
 30  15  19  1   
 31  16  18  1   
 32  16  38  1   
 33  16  39  1   
 34  17  20  ar  
 35  17  21  ar  
 36  18  40  1   
 37  18  41  1   
 38  19  22  1   
 39  19  42  1   
 40  19  43  1   
 41  20  23  ar  
 42  21  22  1   
 43  21  24  ar  
 44  22  44  1   
 45  22  45  1   
 46  23  25  ar  
 47  23  26  1   
 48  24  25  ar  
 49  24  46  1   
 50  26  47  1   
 51  26  48  1   
@<TRIPOS>SUBSTRUCTURE
  1 ****  13 GROUP 4 **** **** 0

# MOE 2024.06 (io_trps.svl 2023.06)
