@<TRIPOS>MOLECULE
NONAME
44 46 1 0 0 
SMALL
USER_CHARGES


@<TRIPOS>ATOM
  1 CL      -0.1820    -0.2590     0.7540 Cl    1 <1>  -0.1770 
  2 C       -1.7870    -0.9150     0.5370 C.ar  1 <1>   0.1770 
  3 C       -1.9960    -1.9830    -0.3220 C.ar  1 <1>  -0.1440 
  4 C       -2.8280    -0.3380     1.2400 C.ar  1 <1>  -0.1500 
  5 C       -3.2850    -2.4680    -0.4630 C.ar  1 <1>  -0.1500 
  6 C       -0.8450    -2.6140    -1.0930 C.3   1 <1>  -0.0960 
  7 C       -4.1240    -0.8170     1.1010 C.ar  1 <1>  -0.0090 
  8 C       -4.3300    -1.8910     0.2410 C.ar  1 <1>  -0.1500 
  9 S       -5.5080    -0.0720     2.0090 S.o2  1 <1>   1.4470 
 10 O       -6.0960    -1.0760     2.8690 O.2   1 <1>  -0.6500 
 11 O       -5.1050     1.2000     2.5700 O.2   1 <1>  -0.6500 
 12 N       -6.6300     0.2630     0.7840 N.am  1 <1>  -0.8490 
 13 C       -7.9640     0.5350     1.3420 C.3   1 <1>   0.1960 
 14 C       -6.2000     1.3760    -0.0680 C.3   1 <1>   0.1960 
 15 C       -9.0280     0.6320     0.2300 C.3   1 <1>   0.0000 
 16 C       -7.1530     1.5340    -1.2570 C.3   1 <1>  -0.1600 
 17 C      -10.4230     0.8690     0.8390 C.3   1 <1>   0.2000 
 18 C       -8.6060     1.7250    -0.7920 C.3   1 <1>  -0.1600 
 19 C       -9.2440    -0.7200    -0.4760 C.3   1 <1>  -0.1600 
 20 O      -10.6730     2.1980     1.1230 O.3   1 <1>  -0.6800 
 21 C      -11.4330     0.3460    -0.1810 C.3   1 <1>  -0.1600 
 22 C      -10.6710    -0.6760    -1.0350 C.3   1 <1>  -0.1600 
 23 H       -2.6240     0.4890     1.8980 H     1 <1>   0.1500 
 24 H       -3.4860    -3.2980    -1.1190 H     1 <1>   0.1500 
 25 H       -1.1900    -3.4260    -1.7070 H     1 <1>   0.0800 
 26 H       -0.1090    -2.9940    -0.4070 H     1 <1>   0.0800 
 27 H       -0.3810    -1.8790    -1.7260 H     1 <1>   0.0800 
 28 H       -5.3280    -2.2790     0.1220 H     1 <1>   0.1500 
 29 H       -8.2440    -0.2560     2.0170 H     1 <1>   0.0800 
 30 H       -7.9430     1.4540     1.9070 H     1 <1>   0.0800 
 31 H       -6.1770     2.2900     0.5040 H     1 <1>   0.0800 
 32 H       -5.2060     1.1890    -0.4410 H     1 <1>   0.0800 
 33 H       -6.8500     2.3860    -1.8390 H     1 <1>   0.0800 
 34 H       -7.0680     0.6690    -1.8890 H     1 <1>   0.0800 
 35 H      -10.5240     0.3110     1.7550 H     1 <1>   0.0800 
 36 H       -9.2630     1.7300    -1.6430 H     1 <1>   0.0800 
 37 H       -8.6640     2.6930    -0.3260 H     1 <1>   0.0800 
 38 H       -8.5190    -0.9230    -1.2430 H     1 <1>   0.0800 
 39 H       -9.1850    -1.5130     0.2500 H     1 <1>   0.0800 
 40 H      -10.6690     2.7150     0.2970 H     1 <1>   0.4000 
 41 H      -12.2620    -0.1190     0.3230 H     1 <1>   0.0800 
 42 H      -11.7970     1.1390    -0.8110 H     1 <1>   0.0800 
 43 H      -11.1300    -1.6490    -0.9910 H     1 <1>   0.0800 
 44 H      -10.6520    -0.3500    -2.0610 H     1 <1>   0.0800 
@<TRIPOS>BOND
  1   1   2  1   
  2   2   3  ar  
  3   2   4  ar  
  4   3   5  ar  
  5   3   6  1   
  6   4   7  ar  
  7   4  23  1   
  8   5   8  ar  
  9   5  24  1   
 10   6  25  1   
 11   6  26  1   
 12   6  27  1   
 13   7   8  ar  
 14   7   9  1   
 15   8  28  1   
 16   9  10  2   
 17   9  11  2   
 18   9  12  am  
 19  12  13  1   
 20  12  14  1   
 21  13  15  1   
 22  13  29  1   
 23  13  30  1   
 24  14  16  1   
 25  14  31  1   
 26  14  32  1   
 27  15  17  1   
 28  15  18  1   
 29  15  19  1   
 30  16  18  1   
 31  16  33  1   
 32  16  34  1   
 33  17  20  1   
 34  17  21  1   
 35  17  35  1   
 36  18  36  1   
 37  18  37  1   
 38  19  22  1   
 39  19  38  1   
 40  19  39  1   
 41  20  40  1   
 42  21  22  1   
 43  21  41  1   
 44  21  42  1   
 45  22  43  1   
 46  22  44  1   
@<TRIPOS>SUBSTRUCTURE
  1 ****  12 GROUP 4 **** **** 0

# MOE 2024.06 (io_trps.svl 2023.06)
