@<TRIPOS>MOLECULE
NONAME
38 39 1 0 0 
SMALL
USER_CHARGES


@<TRIPOS>ATOM
  1 CL       0.3450    -1.1940     2.7780 Cl    1 <1>  -0.1770 
  2 C       -0.0190    -2.5880     1.7890 C.ar  1 <1>   0.1770 
  3 C       -0.5060    -3.7470     2.3680 C.ar  1 <1>   0.1600 
  4 C        0.1800    -2.5290     0.4270 C.ar  1 <1>  -0.1500 
  5 N       -0.8090    -4.8490     1.6940 N.ar  1 <1>  -0.6200 
  6 C       -0.1310    -3.6690    -0.2810 C.ar  1 <1>  -0.1500 
  7 C       -0.6210    -4.7970     0.3810 C.ar  1 <1>   0.4270 
  8 N       -0.9520    -5.9700    -0.2570 N.am  1 <1>  -0.5470 
  9 C       -1.1210    -6.3210    -1.5610 C.2   1 <1>   0.5690 
 10 O       -0.9510    -5.5690    -2.4900 O.2   1 <1>  -0.5700 
 11 C       -1.5620    -7.7620    -1.8350 C.3   1 <1>   0.1710 
 12 N       -2.2140    -8.4270    -0.6660 N.3   1 <1>  -0.8100 
 13 C       -2.2290    -9.8940    -0.8370 C.3   1 <1>   0.1100 
 14 C       -3.5760    -7.9100    -0.4460 C.3   1 <1>   0.1100 
 15 C       -2.7990   -10.5820     0.4140 C.3   1 <1>   0.2000 
 16 C       -4.1550    -8.5070     0.8410 C.3   1 <1>  -0.1600 
 17 O       -2.8750   -11.9480     0.1850 O.3   1 <1>  -0.6800 
 18 C       -4.1940   -10.0490     0.7850 C.3   1 <1>  -0.0800 
 19 C       -4.6730   -10.6720     2.1070 C.3   1 <1>   0.1200 
 20 O       -5.9410   -10.2060     2.4140 O.3   1 <1>  -0.6800 
 21 H       -0.6500    -3.7610     3.4340 H     1 <1>   0.1500 
 22 H        0.5590    -1.6400    -0.0460 H     1 <1>   0.1500 
 23 H        0.0080    -3.6850    -1.3450 H     1 <1>   0.1500 
 24 H       -1.2160    -6.7170     0.3900 H     1 <1>   0.3700 
 25 H       -0.6770    -8.3090    -2.1070 H     1 <1>   0.0800 
 26 H       -2.2260    -7.7690    -2.6810 H     1 <1>   0.0800 
 27 H       -2.8250   -10.1490    -1.6970 H     1 <1>   0.0800 
 28 H       -1.2230   -10.2450    -0.9900 H     1 <1>   0.0800 
 29 H       -3.5550    -6.8370    -0.3520 H     1 <1>   0.0800 
 30 H       -4.2060    -8.1610    -1.2830 H     1 <1>   0.0800 
 31 H       -2.1140   -10.4320     1.2310 H     1 <1>   0.0800 
 32 H       -3.5550    -8.1810     1.6730 H     1 <1>   0.0800 
 33 H       -5.1480    -8.1190     0.9750 H     1 <1>   0.0800 
 34 H       -3.5670   -12.1430    -0.4750 H     1 <1>   0.4000 
 35 H       -4.8790   -10.3370     0.0070 H     1 <1>   0.0800 
 36 H       -4.0120   -10.4190     2.9190 H     1 <1>   0.0800 
 37 H       -4.7300   -11.7440     2.0250 H     1 <1>   0.0800 
 38 H       -5.9160    -9.2480     2.5990 H     1 <1>   0.4000 
@<TRIPOS>BOND
  1   1   2  1   
  2   2   3  ar  
  3   2   4  ar  
  4   3   5  ar  
  5   3  21  1   
  6   4   6  ar  
  7   4  22  1   
  8   5   7  ar  
  9   6   7  ar  
 10   6  23  1   
 11   7   8  1   
 12   8   9  am  
 13   8  24  1   
 14   9  10  2   
 15   9  11  1   
 16  11  12  1   
 17  11  25  1   
 18  11  26  1   
 19  12  13  1   
 20  12  14  1   
 21  13  15  1   
 22  13  27  1   
 23  13  28  1   
 24  14  16  1   
 25  14  29  1   
 26  14  30  1   
 27  15  17  1   
 28  15  18  1   
 29  15  31  1   
 30  16  18  1   
 31  16  32  1   
 32  16  33  1   
 33  17  34  1   
 34  18  19  1   
 35  18  35  1   
 36  19  20  1   
 37  19  36  1   
 38  19  37  1   
 39  20  38  1   
@<TRIPOS>SUBSTRUCTURE
  1 ****   8 GROUP 4 **** **** 0

# MOE 2024.06 (io_trps.svl 2023.06)
