@<TRIPOS>MOLECULE
NONAME
56 60 1 0 0 
SMALL
USER_CHARGES


@<TRIPOS>ATOM
  1 O        1.1200     0.0510     0.7880 O.3   1 <1>  -0.6800 
  2 C        1.6830     0.0490    -0.4860 C.3   1 <1>   0.2000 
  3 C        2.4190    -1.2710    -0.7430 C.3   1 <1>  -0.0800 
  4 C        2.7950     1.1030    -0.5460 C.3   1 <1>   0.2090 
  5 C        3.7860    -1.0640    -0.0820 C.3   1 <1>   0.2090 
  6 C        1.6980    -2.5470    -0.2590 C.3   1 <1>  -0.0170 
  7 N        4.0600     0.3910    -0.1940 N.pl3 1 <1>  -0.8380 
  8 C        2.3980    -3.8760    -0.5740 C.ar  1 <1>  -0.1440 
  9 C        5.1960     1.0360     0.1920 C.ar  1 <1>   0.4100 
 10 C        2.0780    -5.0460     0.1630 C.ar  1 <1>   0.0000 
 11 C        3.3320    -4.0080    -1.5650 C.ar  1 <1>  -0.1500 
 12 N        5.2360     2.3510    -0.0190 N.ar  1 <1>  -0.6200 
 13 C        6.2620     0.3650     0.7760 C.ar  1 <1>  -0.1500 
 14 C        2.7790    -6.2390    -0.1470 C.ar  1 <1>   0.3100 
 15 C        1.0980    -5.1110     1.1840 C.ar  1 <1>  -0.1500 
 16 C        3.9550    -5.2400    -1.7980 C.ar  1 <1>   0.1600 
 17 C        6.3100     3.0040     0.3560 C.ar  1 <1>   0.7710 
 18 C        7.3760     1.0650     1.1510 C.ar  1 <1>   0.4610 
 19 N        3.7120    -6.3180    -1.1260 N.ar  1 <1>  -0.6200 
 20 C        2.5000    -7.4060     0.5820 C.ar  1 <1>  -0.1500 
 21 C        0.8470    -6.2660     1.8720 C.ar  1 <1>  -0.1500 
 22 N        7.3630     2.3870     0.9230 N.ar  1 <1>  -0.1790 
 23 N        6.3770     4.3500     0.1640 N.pl3 1 <1>  -0.8380 
 24 N        8.4640     0.4930     1.7280 N.pl3 1 <1>  -0.9000 
 25 C        1.5580    -7.4300     1.5730 C.ar  1 <1>  -0.1500 
 26 C        5.2910     5.0830    -0.5450 C.3   1 <1>   0.2090 
 27 C        7.3730     5.3140     0.7050 C.3   1 <1>   0.2090 
 28 C        5.7750     6.5230    -0.6350 C.3   1 <1>  -0.1600 
 29 C        6.7220     6.6820     0.5480 C.3   1 <1>  -0.1600 
 30 H        0.3170    -0.5020     0.8150 H     1 <1>   0.4000 
 31 H        0.9050     0.2500    -1.2010 H     1 <1>   0.0800 
 32 H        2.5710    -1.3310    -1.8050 H     1 <1>   0.0800 
 33 H        2.5970     1.9160     0.1320 H     1 <1>   0.0800 
 34 H        2.8840     1.4870    -1.5470 H     1 <1>   0.0800 
 35 H        4.5510    -1.6410    -0.5700 H     1 <1>   0.0800 
 36 H        3.7360    -1.3310     0.9610 H     1 <1>   0.0800 
 37 H        0.7100    -2.5780    -0.6850 H     1 <1>   0.0800 
 38 H        1.5950    -2.4660     0.8080 H     1 <1>   0.0800 
 39 H        3.6270    -3.1970    -2.2010 H     1 <1>   0.1500 
 40 H        6.2110    -0.6920     0.9360 H     1 <1>   0.1500 
 41 H        0.5260    -4.2380     1.4310 H     1 <1>   0.1500 
 42 H        4.6850    -5.2930    -2.5880 H     1 <1>   0.1500 
 43 H        3.0570    -8.2890     0.3300 H     1 <1>   0.1500 
 44 H        0.1010    -6.2960     2.6480 H     1 <1>   0.1500 
 45 H        8.1550     2.9640     1.1420 H     1 <1>   0.4570 
 46 H        9.3170     0.9700     2.0400 H     1 <1>   0.4000 
 47 H        8.5000    -0.5170     1.9170 H     1 <1>   0.4000 
 48 H        1.3540    -8.3320     2.1230 H     1 <1>   0.1500 
 49 H        5.1130     4.6660    -1.5230 H     1 <1>   0.0800 
 50 H        4.3850     5.0290     0.0370 H     1 <1>   0.0800 
 51 H        7.5990     5.1200     1.7400 H     1 <1>   0.0800 
 52 H        8.2720     5.2730     0.1110 H     1 <1>   0.0800 
 53 H        6.3110     6.6560    -1.5590 H     1 <1>   0.0800 
 54 H        4.9570     7.2210    -0.6030 H     1 <1>   0.0800 
 55 H        6.1590     6.9090     1.4370 H     1 <1>   0.0800 
 56 H        7.4500     7.4590     0.3880 H     1 <1>   0.0800 
@<TRIPOS>BOND
  1   1   2  1   
  2   1  30  1   
  3   2   3  1   
  4   2   4  1   
  5   2  31  1   
  6   3   5  1   
  7   3   6  1   
  8   3  32  1   
  9   4   7  1   
 10   4  33  1   
 11   4  34  1   
 12   5   7  1   
 13   5  35  1   
 14   5  36  1   
 15   6   8  1   
 16   6  37  1   
 17   6  38  1   
 18   7   9  1   
 19   8  10  ar  
 20   8  11  ar  
 21   9  12  ar  
 22   9  13  ar  
 23  10  14  ar  
 24  10  15  ar  
 25  11  16  ar  
 26  11  39  1   
 27  12  17  ar  
 28  13  18  ar  
 29  13  40  1   
 30  14  19  ar  
 31  14  20  ar  
 32  15  21  ar  
 33  15  41  1   
 34  16  19  ar  
 35  16  42  1   
 36  17  22  ar  
 37  17  23  1   
 38  18  22  ar  
 39  18  24  1   
 40  20  25  ar  
 41  20  43  1   
 42  21  25  ar  
 43  21  44  1   
 44  22  45  1   
 45  23  26  1   
 46  23  27  1   
 47  24  46  1   
 48  24  47  1   
 49  25  48  1   
 50  26  28  1   
 51  26  49  1   
 52  26  50  1   
 53  27  29  1   
 54  27  51  1   
 55  27  52  1   
 56  28  29  1   
 57  28  53  1   
 58  28  54  1   
 59  29  55  1   
 60  29  56  1   
@<TRIPOS>SUBSTRUCTURE
  1 ****   5 GROUP 4 **** **** 0

# MOE 2024.06 (io_trps.svl 2023.06)
