@<TRIPOS>MOLECULE
NONAME
48 50 1 0 0 
SMALL
USER_CHARGES


@<TRIPOS>ATOM
  1 O       -1.1830     0.4300    -0.5540 O.2   1 <1>  -0.5700 
  2 C       -2.1320    -0.3330    -0.4130 C.2   1 <1>   0.4690 
  3 C       -3.1190    -0.1490     0.6130 C.ar  1 <1>   0.0860 
  4 C       -2.2700    -1.4460    -1.2700 C.2   1 <1>  -0.1360 
  5 C       -4.2040    -1.0450     0.6940 C.ar  1 <1>   0.1000 
  6 C       -3.0150     0.8920     1.5440 C.ar  1 <1>  -0.1500 
  7 C       -3.3320    -2.2840    -1.2030 C.2   1 <1>  -0.0380 
  8 N       -4.3430    -2.0650    -0.2780 N.pl3 1 <1>  -0.5690 
  9 C       -5.1030    -0.8830     1.7590 C.ar  1 <1>  -0.1500 
 10 C       -3.9300     1.0440     2.5580 C.ar  1 <1>  -0.1500 
 11 C       -3.4020    -3.4740    -2.1470 C.3   1 <1>  -0.1020 
 12 C       -5.6450    -2.8410    -0.3630 C.3   1 <1>   0.2700 
 13 C       -4.9760     0.1430     2.6700 C.ar  1 <1>  -0.1500 
 14 C       -5.6720    -4.1530     0.4470 C.2   1 <1>   0.5690 
 15 O       -5.5040    -4.0720     1.6440 O.2   1 <1>  -0.5700 
 16 N       -5.9350    -5.3800    -0.1310 N.am  1 <1>  -0.6600 
 17 C       -5.9760    -6.5970     0.7250 C.3   1 <1>   0.3200 
 18 C       -6.3570    -5.5850    -1.5560 C.3   1 <1>   0.1400 
 19 C       -7.4240    -6.9000     1.0530 C.2   1 <1>  -0.3320 
 20 C       -7.8660    -5.3780    -1.7890 C.3   1 <1>   0.1200 
 21 N       -8.1190    -7.9900     0.6670 N.pl3 1 <1>   0.0480 
 22 C       -8.2730    -6.1390     1.7770 C.2   1 <1>   0.0770 
 23 O       -8.3310    -4.2660    -1.1040 O.3   1 <1>  -0.6800 
 24 C       -9.3580    -7.7990     1.1740 C.2   1 <1>   0.0360 
 25 C       -7.6520    -9.1530    -0.1090 C.3   1 <1>   0.0160 
 26 N       -9.4930    -6.6990     1.8390 N.2   1 <1>  -0.5650 
 27 H       -1.4760    -1.5830    -1.9790 H     1 <1>   0.1500 
 28 H       -2.1920     1.5820     1.4590 H     1 <1>   0.1500 
 29 H       -5.9140    -1.5680     1.9030 H     1 <1>   0.1500 
 30 H       -3.8350     1.8490     3.2670 H     1 <1>   0.1500 
 31 H       -3.5310    -4.3810    -1.5870 H     1 <1>   0.0800 
 32 H       -2.4900    -3.5630    -2.7100 H     1 <1>   0.0800 
 33 H       -4.2080    -3.3510    -2.8460 H     1 <1>   0.0800 
 34 H       -5.8710    -3.0260    -1.3910 H     1 <1>   0.0800 
 35 H       -6.4510    -2.2250    -0.0170 H     1 <1>   0.0800 
 36 H       -5.6850     0.2450     3.4730 H     1 <1>   0.1500 
 37 H       -5.4300    -6.4390     1.6400 H     1 <1>   0.0800 
 38 H       -5.5110    -7.4190     0.2110 H     1 <1>   0.0800 
 39 H       -6.0940    -6.5800    -1.8680 H     1 <1>   0.0800 
 40 H       -5.8180    -4.9180    -2.2000 H     1 <1>   0.0800 
 41 H       -8.4300    -6.2310    -1.4570 H     1 <1>   0.0800 
 42 H       -8.0610    -5.2270    -2.8370 H     1 <1>   0.0800 
 43 H       -8.0590    -5.1980     2.2610 H     1 <1>   0.1500 
 44 H       -8.4810    -4.5170    -0.1650 H     1 <1>   0.4000 
 45 H      -10.1510    -8.5120     1.0290 H     1 <1>   0.1500 
 46 H       -7.2850    -8.8230    -1.0630 H     1 <1>   0.0800 
 47 H       -8.4670    -9.8380    -0.2580 H     1 <1>   0.0800 
 48 H       -6.8670    -9.6480     0.4310 H     1 <1>   0.0800 
@<TRIPOS>BOND
  1   1   2  2   
  2   2   3  1   
  3   2   4  1   
  4   3   5  ar  
  5   3   6  ar  
  6   4   7  2   
  7   4  27  1   
  8   5   8  1   
  9   5   9  ar  
 10   6  10  ar  
 11   6  28  1   
 12   7   8  1   
 13   7  11  1   
 14   8  12  1   
 15   9  13  ar  
 16   9  29  1   
 17  10  13  ar  
 18  10  30  1   
 19  11  31  1   
 20  11  32  1   
 21  11  33  1   
 22  12  14  1   
 23  12  34  1   
 24  12  35  1   
 25  13  36  1   
 26  14  15  2   
 27  14  16  am  
 28  16  17  1   
 29  16  18  1   
 30  17  19  1   
 31  17  37  1   
 32  17  38  1   
 33  18  20  1   
 34  18  39  1   
 35  18  40  1   
 36  19  21  1   
 37  19  22  2   
 38  20  23  1   
 39  20  41  1   
 40  20  42  1   
 41  21  24  1   
 42  21  25  1   
 43  22  26  1   
 44  22  43  1   
 45  23  44  1   
 46  24  26  2   
 47  24  45  1   
 48  25  46  1   
 49  25  47  1   
 50  25  48  1   
@<TRIPOS>SUBSTRUCTURE
  1 ****  14 GROUP 4 **** **** 0

# MOE 2024.06 (io_trps.svl 2023.06)
