@<TRIPOS>MOLECULE
NONAME
45 47 1 0 0 
SMALL
USER_CHARGES


@<TRIPOS>ATOM
  1 O        1.4440     0.6520    -1.0720 O.3   1 <1>  -0.6800 
  2 C        1.4630     0.2790     0.2580 C.3   1 <1>   0.2800 
  3 C        2.9390     0.1810     0.7220 C.3   1 <1>  -0.0800 
  4 C        0.7910    -1.1010     0.3670 C.3   1 <1>  -0.1600 
  5 C        0.6410     1.3270     1.0410 C.3   1 <1>  -0.1600 
  6 C        3.6450    -1.1600     0.4340 C.3   1 <1>  -0.0800 
  7 C        3.8440     1.2230     0.0790 C.3   1 <1>   0.3430 
  8 C        1.4890    -2.2210    -0.4330 C.3   1 <1>  -0.1600 
  9 C        1.1400     2.7810     0.9760 C.3   1 <1>  -0.2400 
 10 C        2.9790    -1.9550    -0.7020 C.3   1 <1>  -0.1600 
 11 C        5.0900    -0.8060     0.0640 C.3   1 <1>   0.3430 
 12 N        5.2200     0.6700     0.2110 N.4   1 <1>  -0.9590 
 13 C        6.1830     1.2800    -0.7480 C.3   1 <1>   0.4860 
 14 C        6.2260     2.7740    -0.5220 C.ar  1 <1>  -0.1440 
 15 C        6.9530     3.3310     0.5060 C.ar  1 <1>   0.1600 
 16 C        5.5240     3.6420    -1.3310 C.ar  1 <1>   0.1600 
 17 N        6.9560     4.6190     0.7380 N.ar  1 <1>  -0.6200 
 18 N        5.5120     4.9330    -1.1190 N.ar  1 <1>  -0.6200 
 19 C        6.2210     5.3470    -0.0840 C.ar  1 <1>   0.7200 
 20 N        6.2020     6.6570     0.1520 N.pl3 1 <1>  -0.9000 
 21 H        0.5190     0.6590    -1.3900 H     1 <1>   0.4000 
 22 H        2.9630     0.3330     1.7870 H     1 <1>   0.0800 
 23 H        0.7950    -1.3850     1.4050 H     1 <1>   0.0800 
 24 H       -0.2420    -1.0410     0.0710 H     1 <1>   0.0800 
 25 H       -0.3740     1.3050     0.6810 H     1 <1>   0.0800 
 26 H        0.6000     1.0330     2.0760 H     1 <1>   0.0800 
 27 H        3.6410    -1.7700     1.3220 H     1 <1>   0.0800 
 28 H        3.7520     2.1860     0.5540 H     1 <1>   0.0800 
 29 H        3.5930     1.3200    -0.9650 H     1 <1>   0.0800 
 30 H        1.3780    -3.1470     0.1050 H     1 <1>   0.0800 
 31 H        0.9910    -2.3440    -1.3800 H     1 <1>   0.0800 
 32 H        1.2730     3.1010    -0.0430 H     1 <1>   0.0800 
 33 H        2.0620     2.9020     1.5130 H     1 <1>   0.0800 
 34 H        0.4120     3.4300     1.4330 H     1 <1>   0.0800 
 35 H        3.0620    -1.3980    -1.6200 H     1 <1>   0.0800 
 36 H        3.4840    -2.8960    -0.8510 H     1 <1>   0.0800 
 37 H        5.2720    -1.0930    -0.9590 H     1 <1>   0.0800 
 38 H        5.7890    -1.3230     0.7020 H     1 <1>   0.0800 
 39 H        5.5270     0.8740     1.1700 H     1 <1>   0.4500 
 40 H        7.1660     0.8630    -0.6030 H     1 <1>   0.0800 
 41 H        5.8730     1.0750    -1.7610 H     1 <1>   0.0800 
 42 H        7.5450     2.7150     1.1640 H     1 <1>   0.1500 
 43 H        4.9500     3.2780    -2.1680 H     1 <1>   0.1500 
 44 H        5.9060     7.2470    -0.6210 H     1 <1>   0.4000 
 45 H        6.9490     7.0150     0.7410 H     1 <1>   0.4000 
@<TRIPOS>BOND
  1   1   2  1   
  2   1  21  1   
  3   2   3  1   
  4   2   4  1   
  5   2   5  1   
  6   3   6  1   
  7   3   7  1   
  8   3  22  1   
  9   4   8  1   
 10   4  23  1   
 11   4  24  1   
 12   5   9  1   
 13   5  25  1   
 14   5  26  1   
 15   6  10  1   
 16   6  11  1   
 17   6  27  1   
 18   7  12  1   
 19   7  28  1   
 20   7  29  1   
 21   8  10  1   
 22   8  30  1   
 23   8  31  1   
 24   9  32  1   
 25   9  33  1   
 26   9  34  1   
 27  10  35  1   
 28  10  36  1   
 29  11  12  1   
 30  11  37  1   
 31  11  38  1   
 32  12  13  1   
 33  12  39  1   
 34  13  14  1   
 35  13  40  1   
 36  13  41  1   
 37  14  15  ar  
 38  14  16  ar  
 39  15  17  ar  
 40  15  42  1   
 41  16  18  ar  
 42  16  43  1   
 43  17  19  ar  
 44  18  19  ar  
 45  19  20  1   
 46  20  44  1   
 47  20  45  1   
@<TRIPOS>SUBSTRUCTURE
  1 ****   7 GROUP 4 **** **** 0

# MOE 2024.06 (io_trps.svl 2023.06)
