@<TRIPOS>MOLECULE
NONAME
45 46 1 0 0 
SMALL
USER_CHARGES


@<TRIPOS>ATOM
  1 O       -0.6350    -0.8690    -2.1520 O.2   1 <1>  -0.5700 
  2 C       -0.4820    -1.9830    -1.6970 C.2   1 <1>   0.5690 
  3 N        0.5440    -2.2600    -0.8190 N.am  1 <1>  -0.6600 
  4 C       -1.4740    -3.0920    -2.1450 C.3   1 <1>   0.3500 
  5 C        0.6900    -3.6150    -0.2090 C.3   1 <1>   0.1400 
  6 C        1.4340    -1.1910    -0.2830 C.3   1 <1>   0.1400 
  7 N       -1.2890    -4.4390    -1.5010 N.pl3 1 <1>  -0.8380 
  8 C       -1.4200    -3.3250    -3.6580 C.3   1 <1>  -0.2400 
  9 C        0.1130    -4.7300    -1.0960 C.3   1 <1>   0.2090 
 10 C        1.1110    -0.8500     1.1860 C.3   1 <1>  -0.0800 
 11 C       -2.2910    -4.8740    -0.6620 C.ar  1 <1>   0.4100 
 12 C       -0.3480    -0.4070     1.3730 C.3   1 <1>  -0.2400 
 13 C        2.0500     0.2580     1.6820 C.3   1 <1>  -0.2400 
 14 N       -2.4680    -4.1410     0.4280 N.ar  1 <1>  -0.6200 
 15 C       -3.0450    -6.0140    -0.9570 C.ar  1 <1>   0.0730 
 16 C       -3.4180    -4.5190     1.2650 C.ar  1 <1>   0.1670 
 17 C       -2.7970    -6.7660    -2.1470 C.1   1 <1>   0.4840 
 18 C       -4.0280    -6.3890    -0.0690 C.ar  1 <1>  -0.1500 
 19 C       -4.2440    -5.6320     1.0770 C.ar  1 <1>  -0.1790 
 20 C       -3.5500    -3.6390     2.4960 C.3   1 <1>  -0.0970 
 21 N       -2.6120    -7.3820    -3.0920 N.1   1 <1>  -0.5570 
 22 C       -5.2880    -6.0340     2.0000 C.2   1 <1>   0.9790 
 23 O       -5.5400    -7.2420     2.1490 O.co2 1 <1>  -0.9000 
 24 O       -5.9660    -5.2050     2.6290 O.co2 1 <1>  -0.9000 
 25 H       -2.4590    -2.7310    -1.9020 H     1 <1>   0.0800 
 26 H        0.1790    -3.6270     0.7380 H     1 <1>   0.0800 
 27 H        1.7300    -3.8170    -0.0300 H     1 <1>   0.0800 
 28 H        1.3320    -0.3010    -0.8810 H     1 <1>   0.0800 
 29 H        2.4560    -1.5160    -0.3650 H     1 <1>   0.0800 
 30 H       -0.4410    -3.6580    -3.9470 H     1 <1>   0.0800 
 31 H       -1.6380    -2.4080    -4.1740 H     1 <1>   0.0800 
 32 H       -2.1490    -4.0620    -3.9440 H     1 <1>   0.0800 
 33 H        0.1430    -5.6610    -0.5570 H     1 <1>   0.0800 
 34 H        0.7210    -4.8390    -1.9770 H     1 <1>   0.0800 
 35 H        1.2870    -1.7230     1.7910 H     1 <1>   0.0800 
 36 H       -0.5720     0.4310     0.7360 H     1 <1>   0.0800 
 37 H       -0.5310    -0.1260     2.3940 H     1 <1>   0.0800 
 38 H       -1.0210    -1.2090     1.1240 H     1 <1>   0.0800 
 39 H        1.9030     1.1590     1.1130 H     1 <1>   0.0800 
 40 H        3.0760    -0.0480     1.5850 H     1 <1>   0.0800 
 41 H        1.8580     0.4730     2.7190 H     1 <1>   0.0800 
 42 H       -4.6360    -7.2630    -0.2430 H     1 <1>   0.1500 
 43 H       -2.7020    -2.9860     2.5930 H     1 <1>   0.0800 
 44 H       -3.6190    -4.2450     3.3800 H     1 <1>   0.0800 
 45 H       -4.4400    -3.0430     2.4150 H     1 <1>   0.0800 
@<TRIPOS>BOND
  1   1   2  2   
  2   2   3  am  
  3   2   4  1   
  4   3   5  1   
  5   3   6  1   
  6   4   7  1   
  7   4   8  1   
  8   4  25  1   
  9   5   9  1   
 10   5  26  1   
 11   5  27  1   
 12   6  10  1   
 13   6  28  1   
 14   6  29  1   
 15   7   9  1   
 16   7  11  1   
 17   8  30  1   
 18   8  31  1   
 19   8  32  1   
 20   9  33  1   
 21   9  34  1   
 22  10  12  1   
 23  10  13  1   
 24  10  35  1   
 25  11  14  ar  
 26  11  15  ar  
 27  12  36  1   
 28  12  37  1   
 29  12  38  1   
 30  13  39  1   
 31  13  40  1   
 32  13  41  1   
 33  14  16  ar  
 34  15  17  1   
 35  15  18  ar  
 36  16  19  ar  
 37  16  20  1   
 38  17  21  3   
 39  18  19  ar  
 40  18  42  1   
 41  19  22  1   
 42  20  43  1   
 43  20  44  1   
 44  20  45  1   
 45  22  23  ar  
 46  22  24  ar  
@<TRIPOS>SUBSTRUCTURE
  1 ****  14 GROUP 4 **** **** 0

# MOE 2024.06 (io_trps.svl 2023.06)
