@<TRIPOS>MOLECULE
NONAME
40 41 1 0 0 
SMALL
USER_CHARGES


@<TRIPOS>ATOM
  1 S        0.1440    -0.3010     0.5410 S.3   1 <1>  -0.0800 
  2 C       -1.3850    -0.9040    -0.0150 C.2   1 <1>   0.4420 
  3 C       -0.4010     1.2790     0.0970 C.2   1 <1>   0.1980 
  4 N       -2.1350     0.0360    -0.4650 N.2   1 <1>  -0.3380 
  5 N       -1.5850    -2.2660     0.0820 N.am  1 <1>  -0.4940 
  6 N       -1.5690     1.2770    -0.3970 N.2   1 <1>  -0.3380 
  7 C        0.5150     2.4600     0.3280 C.3   1 <1>   0.0200 
  8 C       -2.7210    -3.0040    -0.1490 C.2   1 <1>   0.5440 
  9 C       -0.2180     3.7410    -0.0910 C.3   1 <1>   0.3430 
 10 O       -3.7840    -2.4420    -0.3060 O.2   1 <1>  -0.5700 
 11 C       -2.6500    -4.4530    -0.1610 C.ar  1 <1>   0.0860 
 12 N        0.5820     4.9870     0.1600 N.4   1 <1>  -0.9590 
 13 C       -3.7480    -5.2240     0.2270 C.ar  1 <1>  -0.1500 
 14 C       -1.5000    -5.1420    -0.5560 C.ar  1 <1>  -0.1500 
 15 C       -0.2970     6.1860    -0.0130 C.3   1 <1>   0.2630 
 16 C        1.7750     5.0950    -0.7400 C.3   1 <1>   0.2630 
 17 C       -3.7060    -6.6060     0.2410 C.ar  1 <1>  -0.1500 
 18 C       -1.4470    -6.5240    -0.5420 C.ar  1 <1>  -0.1500 
 19 C       -2.5430    -7.2700    -0.1390 C.ar  1 <1>   0.0820 
 20 O       -2.3990    -8.6140    -0.1480 O.3   1 <1>  -0.3630 
 21 C       -3.4020    -9.4700     0.3490 C.3   1 <1>   0.8800 
 22 F       -2.8920   -10.6900     0.4340 F     1 <1>  -0.3400 
 23 F       -4.3790    -9.5450    -0.5460 F     1 <1>  -0.3400 
 24 H       -0.7850    -2.7970     0.4120 H     1 <1>   0.3700 
 25 H        1.4040     2.3200    -0.2580 H     1 <1>   0.0800 
 26 H        0.7690     2.5010     1.3710 H     1 <1>   0.0800 
 27 H       -1.1420     3.7920     0.4630 H     1 <1>   0.0800 
 28 H       -0.4750     3.6740    -1.1360 H     1 <1>   0.0800 
 29 H        0.9050     4.9770     1.1410 H     1 <1>   0.4500 
 30 H       -4.6550    -4.7190     0.5170 H     1 <1>   0.1500 
 31 H       -0.6350    -4.5990    -0.8940 H     1 <1>   0.1500 
 32 H       -0.6660     6.2390    -1.0250 H     1 <1>   0.0800 
 33 H        0.2530     7.0890     0.2000 H     1 <1>   0.0800 
 34 H       -1.1400     6.1340     0.6580 H     1 <1>   0.0800 
 35 H        1.4670     5.0930    -1.7730 H     1 <1>   0.0800 
 36 H        2.4480     4.2690    -0.5790 H     1 <1>   0.0800 
 37 H        2.3100     6.0110    -0.5440 H     1 <1>   0.0800 
 38 H       -4.5910    -7.1380     0.5400 H     1 <1>   0.1500 
 39 H       -0.5530    -7.0380    -0.8500 H     1 <1>   0.1500 
 40 H       -3.7880    -9.1640     1.3040 H     1 <1>   0.0800 
@<TRIPOS>BOND
  1   1   2  1   
  2   1   3  1   
  3   2   4  2   
  4   2   5  1   
  5   3   6  2   
  6   3   7  1   
  7   4   6  1   
  8   5   8  am  
  9   5  24  1   
 10   7   9  1   
 11   7  25  1   
 12   7  26  1   
 13   8  10  2   
 14   8  11  1   
 15   9  12  1   
 16   9  27  1   
 17   9  28  1   
 18  11  13  ar  
 19  11  14  ar  
 20  12  15  1   
 21  12  16  1   
 22  12  29  1   
 23  13  17  ar  
 24  13  30  1   
 25  14  18  ar  
 26  14  31  1   
 27  15  32  1   
 28  15  33  1   
 29  15  34  1   
 30  16  35  1   
 31  16  36  1   
 32  16  37  1   
 33  17  19  ar  
 34  17  38  1   
 35  18  19  ar  
 36  18  39  1   
 37  19  20  1   
 38  20  21  1   
 39  21  22  1   
 40  21  23  1   
 41  21  40  1   
@<TRIPOS>SUBSTRUCTURE
  1 ****   5 GROUP 4 **** **** 0

# MOE 2024.06 (io_trps.svl 2023.06)
