@<TRIPOS>MOLECULE
NONAME
52 55 1 0 0 
SMALL
USER_CHARGES


@<TRIPOS>ATOM
  1 S       -0.1640     0.0010    -0.1440 S.o2  1 <1>   1.2040 
  2 O       -1.3960     0.6350     0.2660 O.2   1 <1>  -0.6500 
  3 O        0.3130     0.1450    -1.5010 O.2   1 <1>  -0.6500 
  4 C       -0.2530    -1.7630     0.2590 C.ar  1 <1>  -0.0090 
  5 C        1.1250     0.5820     0.9410 C.3   1 <1>  -0.1350 
  6 C       -1.0850    -2.2270     1.2700 C.ar  1 <1>  -0.1500 
  7 C        0.5200    -2.6960    -0.4200 C.ar  1 <1>  -0.1500 
  8 C       -1.1570    -3.5730     1.5830 C.ar  1 <1>  -0.1500 
  9 C        0.4560    -4.0450    -0.1160 C.ar  1 <1>  -0.1500 
 10 C       -0.3940    -4.4940     0.8830 C.ar  1 <1>  -0.1430 
 11 C       -0.5050    -5.9760     1.1960 C.3   1 <1>   0.4860 
 12 N       -1.3140    -6.6230     0.1250 N.4   1 <1>  -0.9590 
 13 C       -1.3940    -8.1210     0.3120 C.3   1 <1>   0.3430 
 14 C       -2.7010    -6.0270     0.0390 C.3   1 <1>   0.3430 
 15 C       -2.4010    -8.8040    -0.6430 C.3   1 <1>   0.3430 
 16 C       -3.6400    -6.8040    -0.9160 C.3   1 <1>   0.2950 
 17 O       -3.6420    -8.1570    -0.5660 O.3   1 <1>  -0.5600 
 18 C       -2.5580   -10.2630    -0.2430 C.ar  1 <1>  -0.1430 
 19 C       -5.0970    -6.3240    -0.8590 C.3   1 <1>  -0.1950 
 20 C       -3.4510   -10.6460     0.7500 C.ar  1 <1>  -0.1500 
 21 C       -1.7830   -11.2340    -0.8640 C.ar  1 <1>  -0.1500 
 22 C       -5.4820    -4.8940    -0.6270 C.3   1 <1>  -0.2000 
 23 C       -5.7980    -5.9390     0.4070 C.3   1 <1>  -0.2000 
 24 C       -3.5600   -11.9750     1.1220 C.ar  1 <1>  -0.1500 
 25 C       -1.8930   -12.5620    -0.4920 C.ar  1 <1>  -0.1500 
 26 C       -2.7790   -12.9330     0.5030 C.ar  1 <1>  -0.1500 
 27 H        0.8570     0.4160     1.9660 H     1 <1>   0.0800 
 28 H        1.2770     1.6340     0.7960 H     1 <1>   0.0800 
 29 H        2.0470     0.0740     0.7350 H     1 <1>   0.0800 
 30 H       -1.6920    -1.5200     1.8160 H     1 <1>   0.1500 
 31 H        1.1790    -2.3590    -1.2060 H     1 <1>   0.1500 
 32 H       -1.8180    -3.8840     2.3760 H     1 <1>   0.1500 
 33 H        1.0780    -4.7290    -0.6690 H     1 <1>   0.1500 
 34 H       -0.9760    -6.1140     2.1550 H     1 <1>   0.0800 
 35 H        0.4820    -6.4090     1.2340 H     1 <1>   0.0800 
 36 H       -0.8430    -6.4200    -0.7650 H     1 <1>   0.4500 
 37 H       -0.4240    -8.5670     0.1700 H     1 <1>   0.0800 
 38 H       -1.7080    -8.3440     1.3190 H     1 <1>   0.0800 
 39 H       -3.1540    -6.0270     1.0160 H     1 <1>   0.0800 
 40 H       -2.6410    -5.0030    -0.2900 H     1 <1>   0.0800 
 41 H       -2.0560    -8.7480    -1.6610 H     1 <1>   0.0800 
 42 H       -3.2890    -6.7150    -1.9300 H     1 <1>   0.0800 
 43 H       -5.6910    -6.8540    -1.5860 H     1 <1>   0.1000 
 44 H       -4.0760    -9.9170     1.2360 H     1 <1>   0.1500 
 45 H       -1.0900   -10.9740    -1.6450 H     1 <1>   0.1500 
 46 H       -4.7520    -4.1440    -0.3780 H     1 <1>   0.1000 
 47 H       -6.2980    -4.4820    -1.1980 H     1 <1>   0.1000 
 48 H       -6.8240    -6.2460     0.5320 H     1 <1>   0.1000 
 49 H       -5.2700    -5.9210     1.3440 H     1 <1>   0.1000 
 50 H       -4.2560   -12.2650     1.8900 H     1 <1>   0.1500 
 51 H       -1.2910   -13.3120    -0.9770 H     1 <1>   0.1500 
 52 H       -2.8650   -13.9670     0.7910 H     1 <1>   0.1500 
@<TRIPOS>BOND
  1   1   2  2   
  2   1   3  2   
  3   1   4  1   
  4   1   5  1   
  5   4   6  ar  
  6   4   7  ar  
  7   5  27  1   
  8   5  28  1   
  9   5  29  1   
 10   6   8  ar  
 11   6  30  1   
 12   7   9  ar  
 13   7  31  1   
 14   8  10  ar  
 15   8  32  1   
 16   9  10  ar  
 17   9  33  1   
 18  10  11  1   
 19  11  12  1   
 20  11  34  1   
 21  11  35  1   
 22  12  13  1   
 23  12  14  1   
 24  12  36  1   
 25  13  15  1   
 26  13  37  1   
 27  13  38  1   
 28  14  16  1   
 29  14  39  1   
 30  14  40  1   
 31  15  17  1   
 32  15  18  1   
 33  15  41  1   
 34  16  17  1   
 35  16  19  1   
 36  16  42  1   
 37  18  20  ar  
 38  18  21  ar  
 39  19  22  1   
 40  19  23  1   
 41  19  43  1   
 42  20  24  ar  
 43  20  44  1   
 44  21  25  ar  
 45  21  45  1   
 46  22  23  1   
 47  22  46  1   
 48  22  47  1   
 49  23  48  1   
 50  23  49  1   
 51  24  26  ar  
 52  24  50  1   
 53  25  26  ar  
 54  25  51  1   
 55  26  52  1   
@<TRIPOS>SUBSTRUCTURE
  1 ****  14 GROUP 4 **** **** 0

# MOE 2024.06 (io_trps.svl 2023.06)
