@<TRIPOS>MOLECULE
NONAME
48 50 1 0 0 
SMALL
USER_CHARGES


@<TRIPOS>ATOM
  1 O       -5.3560    -3.1630    -1.7360 O.co2 1 <1>  -0.9000 
  2 C       -4.4680    -2.5940    -1.0870 C.2   1 <1>   0.9060 
  3 O       -3.9900    -3.1290    -0.0820 O.co2 1 <1>  -0.9000 
  4 C       -4.1850    -1.1270    -1.3480 C.3   1 <1>   0.0140 
  5 O       -5.3980    -0.3760    -1.4160 O.3   1 <1>  -0.3630 
  6 C       -5.7990     0.3800    -0.3710 C.ar  1 <1>   0.0830 
  7 C       -6.2900    -0.1500     0.8250 C.ar  1 <1>  -0.1440 
  8 C       -5.7720     1.7520    -0.5660 C.ar  1 <1>  -0.1500 
  9 C       -6.7360     0.7260     1.8070 C.ar  1 <1>  -0.1500 
 10 C       -6.3530    -1.6380     1.1420 C.3   1 <1>   0.4870 
 11 C       -6.2190     2.6100     0.4200 C.ar  1 <1>  -0.1500 
 12 C       -6.7020     2.0950     1.6080 C.ar  1 <1>  -0.1500 
 13 N       -7.1630    -2.4790     0.2080 N.4   1 <1>  -0.9590 
 14 C       -8.5770    -2.0840    -0.0210 C.3   1 <1>   0.4230 
 15 C       -6.9580    -3.9050     0.6100 C.3   1 <1>   0.2630 
 16 C       -9.3740    -3.1750    -0.7400 C.3   1 <1>  -0.1600 
 17 C       -8.7230    -0.8870    -0.9590 C.3   1 <1>  -0.1600 
 18 C      -10.5610    -2.4560    -1.3870 C.3   1 <1>  -0.0800 
 19 C      -10.1320    -0.9920    -1.5550 C.3   1 <1>  -0.0800 
 20 C      -11.8260    -2.4400    -0.5160 C.3   1 <1>  -0.1600 
 21 C      -11.1790    -0.1420    -0.8180 C.3   1 <1>  -0.1600 
 22 C      -12.3980    -1.0450    -0.7100 C.3   1 <1>   0.2000 
 23 O      -13.1650    -0.6870     0.3750 O.3   1 <1>  -0.6800 
 24 H       -3.6890    -1.0360    -2.2940 H     1 <1>   0.0800 
 25 H       -3.5610    -0.7270    -0.5710 H     1 <1>   0.0800 
 26 H       -5.4020     2.1400    -1.4980 H     1 <1>   0.1500 
 27 H       -7.1120     0.3530     2.7440 H     1 <1>   0.1500 
 28 H       -6.7550    -1.7510     2.1330 H     1 <1>   0.0800 
 29 H       -5.3460    -2.0120     1.1790 H     1 <1>   0.0800 
 30 H       -6.1920     3.6750     0.2610 H     1 <1>   0.1500 
 31 H       -7.0490     2.7630     2.3780 H     1 <1>   0.1500 
 32 H       -6.6580    -2.4360    -0.7130 H     1 <1>   0.4500 
 33 H       -9.0600    -1.8610     0.9160 H     1 <1>   0.0800 
 34 H       -7.4640    -4.1200     1.5340 H     1 <1>   0.0800 
 35 H       -5.9030    -4.1030     0.7270 H     1 <1>   0.0800 
 36 H       -7.3210    -4.5620    -0.1620 H     1 <1>   0.0800 
 37 H       -8.7710    -3.5950    -1.5270 H     1 <1>   0.0800 
 38 H       -9.6950    -3.9560    -0.0740 H     1 <1>   0.0800 
 39 H       -8.5840     0.0520    -0.4580 H     1 <1>   0.0800 
 40 H       -8.0080    -0.9740    -1.7600 H     1 <1>   0.0800 
 41 H      -10.7900    -2.8870    -2.3490 H     1 <1>   0.0800 
 42 H      -10.1190    -0.7260    -2.6000 H     1 <1>   0.0800 
 43 H      -11.5720    -2.5880     0.5190 H     1 <1>   0.0800 
 44 H      -12.5270    -3.1930    -0.8290 H     1 <1>   0.0800 
 45 H      -11.4080     0.7550    -1.3650 H     1 <1>   0.0800 
 46 H      -10.8280     0.1170     0.1660 H     1 <1>   0.0800 
 47 H      -13.0020    -0.9930    -1.6020 H     1 <1>   0.0800 
 48 H      -12.6300    -0.6880     1.1880 H     1 <1>   0.4000 
@<TRIPOS>BOND
  1   1   2  ar  
  2   2   3  ar  
  3   2   4  1   
  4   4   5  1   
  5   4  24  1   
  6   4  25  1   
  7   5   6  1   
  8   6   7  ar  
  9   6   8  ar  
 10   7   9  ar  
 11   7  10  1   
 12   8  11  ar  
 13   8  26  1   
 14   9  12  ar  
 15   9  27  1   
 16  10  13  1   
 17  10  28  1   
 18  10  29  1   
 19  11  12  ar  
 20  11  30  1   
 21  12  31  1   
 22  13  14  1   
 23  13  15  1   
 24  13  32  1   
 25  14  16  1   
 26  14  17  1   
 27  14  33  1   
 28  15  34  1   
 29  15  35  1   
 30  15  36  1   
 31  16  18  1   
 32  16  37  1   
 33  16  38  1   
 34  17  19  1   
 35  17  39  1   
 36  17  40  1   
 37  18  19  1   
 38  18  20  1   
 39  18  41  1   
 40  19  21  1   
 41  19  42  1   
 42  20  22  1   
 43  20  43  1   
 44  20  44  1   
 45  21  22  1   
 46  21  45  1   
 47  21  46  1   
 48  22  23  1   
 49  22  47  1   
 50  23  48  1   
@<TRIPOS>SUBSTRUCTURE
  1 ****  17 GROUP 4 **** **** 0

# MOE 2024.06 (io_trps.svl 2023.06)
