@<TRIPOS>MOLECULE
NONAME
44 46 1 0 0 
SMALL
USER_CHARGES


@<TRIPOS>ATOM
  1 CL      -2.8110     0.3660     2.4920 Cl    1 <1>  -0.1770 
  2 C       -2.6360     0.8780     0.8320 C.ar  1 <1>   0.1770 
  3 C       -2.8020    -0.0350    -0.2140 C.ar  1 <1>   0.0860 
  4 C       -2.3210     2.2050     0.6080 C.ar  1 <1>  -0.1500 
  5 C       -3.1510    -1.4190     0.0160 C.2   1 <1>   0.5440 
  6 C       -2.6130     0.4340    -1.5180 C.ar  1 <1>  -0.1500 
  7 C       -2.1580     2.6220    -0.6970 C.ar  1 <1>   0.1900 
  8 O       -2.4320    -2.2980    -0.4240 O.2   1 <1>  -0.5700 
  9 N       -4.3110    -1.7890     0.6560 N.am  1 <1>  -0.6600 
 10 C       -2.2950     1.7580    -1.7680 C.ar  1 <1>  -0.1500 
 11 F       -1.8640     3.8700    -0.9280 F     1 <1>  -0.1900 
 12 C       -4.5500    -3.2050     1.0530 C.3   1 <1>   0.1400 
 13 C       -5.5580    -0.9770     0.6190 C.3   1 <1>   0.1400 
 14 C       -5.4510    -3.8600    -0.0180 C.3   1 <1>   0.4230 
 15 C       -6.5120    -1.6090    -0.4080 C.3   1 <1>  -0.1600 
 16 N       -5.6810    -5.3320     0.1750 N.4   1 <1>  -0.9590 
 17 C       -6.8000    -3.1090    -0.1000 C.3   1 <1>  -0.1060 
 18 C       -6.4420    -5.9260    -0.9520 C.3   1 <1>   0.3430 
 19 C       -4.4690    -6.1190     0.5230 C.3   1 <1>   0.2630 
 20 C       -7.5300    -3.2560     1.2500 C.2   1 <1>   0.9060 
 21 C       -7.6500    -3.7000    -1.2500 C.3   1 <1>  -0.1600 
 22 C       -7.7930    -5.2250    -1.1170 C.3   1 <1>  -0.1600 
 23 O       -7.3750    -4.2980     1.9070 O.co2 1 <1>  -0.9000 
 24 O       -8.2410    -2.3380     1.6560 O.co2 1 <1>  -0.9000 
 25 H       -2.2020     2.8920     1.4250 H     1 <1>   0.1500 
 26 H       -2.7160    -0.2560    -2.3390 H     1 <1>   0.1500 
 27 H       -2.1520     2.1190    -2.7710 H     1 <1>   0.1500 
 28 H       -3.6080    -3.7160     1.1230 H     1 <1>   0.0800 
 29 H       -5.0200    -3.2280     2.0210 H     1 <1>   0.0800 
 30 H       -6.0130    -0.9690     1.5970 H     1 <1>   0.0800 
 31 H       -5.3510     0.0420     0.3440 H     1 <1>   0.0800 
 32 H       -4.9430    -3.7310    -0.9580 H     1 <1>   0.0800 
 33 H       -7.4360    -1.0560    -0.4020 H     1 <1>   0.0800 
 34 H       -6.0800    -1.5020    -1.3870 H     1 <1>   0.0800 
 35 H       -6.3400    -5.3190     1.0020 H     1 <1>   0.4500 
 36 H       -5.8720    -5.8280    -1.8610 H     1 <1>   0.0800 
 37 H       -6.6110    -6.9740    -0.7650 H     1 <1>   0.0800 
 38 H       -3.7340    -6.0390    -0.2610 H     1 <1>   0.0800 
 39 H       -4.7280    -7.1560     0.6590 H     1 <1>   0.0800 
 40 H       -4.0410    -5.7560     1.4430 H     1 <1>   0.0800 
 41 H       -8.6290    -3.2470    -1.2380 H     1 <1>   0.0800 
 42 H       -7.1930    -3.4720    -2.1970 H     1 <1>   0.0800 
 43 H       -8.2890    -5.6140    -1.9890 H     1 <1>   0.0800 
 44 H       -8.4140    -5.4600    -0.2690 H     1 <1>   0.0800 
@<TRIPOS>BOND
  1   1   2  1   
  2   2   3  ar  
  3   2   4  ar  
  4   3   5  1   
  5   3   6  ar  
  6   4   7  ar  
  7   4  25  1   
  8   5   8  2   
  9   5   9  am  
 10   6  10  ar  
 11   6  26  1   
 12   7  10  ar  
 13   7  11  1   
 14   9  12  1   
 15   9  13  1   
 16  10  27  1   
 17  12  14  1   
 18  12  28  1   
 19  12  29  1   
 20  13  15  1   
 21  13  30  1   
 22  13  31  1   
 23  14  16  1   
 24  14  17  1   
 25  14  32  1   
 26  15  17  1   
 27  15  33  1   
 28  15  34  1   
 29  16  18  1   
 30  16  19  1   
 31  16  35  1   
 32  17  20  1   
 33  17  21  1   
 34  18  22  1   
 35  18  36  1   
 36  18  37  1   
 37  19  38  1   
 38  19  39  1   
 39  19  40  1   
 40  20  23  ar  
 41  20  24  ar  
 42  21  22  1   
 43  21  41  1   
 44  21  42  1   
 45  22  43  1   
 46  22  44  1   
@<TRIPOS>SUBSTRUCTURE
  1 ****   9 GROUP 4 **** **** 0

# MOE 2024.06 (io_trps.svl 2023.06)
