@<TRIPOS>MOLECULE
NONAME
47 49 1 0 0 
SMALL
USER_CHARGES


@<TRIPOS>ATOM
  1 O        0.2460     0.8580    -1.1160 O.2   1 <1>  -0.5700 
  2 C        0.1270     2.0120    -0.7760 C.2   1 <1>   0.5690 
  3 N       -1.0070     2.4860    -0.1730 N.am  1 <1>  -0.6600 
  4 C        1.2890     2.9650    -1.0680 C.3   1 <1>   0.1810 
  5 C       -1.1300     3.9230     0.2440 C.3   1 <1>   0.3640 
  6 C       -2.1350     1.5880     0.2140 C.3   1 <1>   0.0600 
  7 O        1.2670     4.1300    -0.2790 O.3   1 <1>  -0.5600 
  8 C       -2.4770     4.4780    -0.2470 C.ar  1 <1>  -0.1440 
  9 C        0.0280     4.8100    -0.2870 C.3   1 <1>   0.2610 
 10 C       -3.4350     5.0180     0.6130 C.ar  1 <1>  -0.1440 
 11 C       -2.7510     4.4330    -1.6110 C.ar  1 <1>  -0.1500 
 12 C        0.1380     6.1220     0.5000 C.2   1 <1>   0.5690 
 13 C       -4.6190     5.5190     0.0910 C.ar  1 <1>  -0.1500 
 14 C       -3.2470     5.0820     2.1240 C.3   1 <1>  -0.0960 
 15 C       -3.9350     4.9300    -2.1210 C.ar  1 <1>  -0.1500 
 16 O       -0.0950     6.1440     1.6870 O.2   1 <1>  -0.5700 
 17 N        0.5210     7.2560    -0.1550 N.am  1 <1>  -0.7300 
 18 C       -4.8700     5.4790    -1.2670 C.ar  1 <1>  -0.1500 
 19 C        0.6230     8.5940     0.4750 C.3   1 <1>   0.1400 
 20 C        1.9960     8.7700     1.1290 C.3   1 <1>   0.0200 
 21 C        2.1890    10.1710     1.6940 C.2   1 <1>  -0.3320 
 22 N        3.3000    10.5380     2.3620 N.pl3 1 <1>   0.0330 
 23 C        1.3910    11.2640     1.6730 C.2   1 <1>   0.0770 
 24 C        3.1050    11.8290     2.6980 C.2   1 <1>   0.0360 
 25 N        1.9700    12.3040     2.3010 N.2   1 <1>  -0.5650 
 26 H        1.2630     3.2530    -2.1030 H     1 <1>   0.0800 
 27 H        2.2160     2.4590    -0.8730 H     1 <1>   0.0800 
 28 H       -1.0890     3.9390     1.3170 H     1 <1>   0.0800 
 29 H       -2.3720     1.7260     1.2550 H     1 <1>   0.0800 
 30 H       -1.8720     0.5560     0.0570 H     1 <1>   0.0800 
 31 H       -3.0040     1.8140    -0.3780 H     1 <1>   0.0800 
 32 H       -0.1770     5.0680    -1.3090 H     1 <1>   0.0800 
 33 H       -2.0410     3.9960    -2.2920 H     1 <1>   0.1500 
 34 H       -5.3610     5.9450     0.7430 H     1 <1>   0.1500 
 35 H       -4.1640     5.3540     2.6140 H     1 <1>   0.0800 
 36 H       -2.5070     5.8180     2.3770 H     1 <1>   0.0800 
 37 H       -2.9440     4.1260     2.5100 H     1 <1>   0.0800 
 38 H       -4.1300     4.8880    -3.1780 H     1 <1>   0.1500 
 39 H        0.8240     7.2010    -1.1290 H     1 <1>   0.3700 
 40 H       -5.7940     5.8700    -1.6570 H     1 <1>   0.1500 
 41 H        0.4710     9.3510    -0.2750 H     1 <1>   0.0800 
 42 H       -0.1450     8.6990     1.2250 H     1 <1>   0.0800 
 43 H        2.7620     8.5790     0.3990 H     1 <1>   0.0800 
 44 H        2.0920     8.0510     1.9250 H     1 <1>   0.0800 
 45 H        4.1210     9.9650     2.5780 H     1 <1>   0.2700 
 46 H        0.4120    11.3680     1.2340 H     1 <1>   0.1500 
 47 H        3.8370    12.3950     3.2460 H     1 <1>   0.1500 
@<TRIPOS>BOND
  1   1   2  2   
  2   2   3  am  
  3   2   4  1   
  4   3   5  1   
  5   3   6  1   
  6   4   7  1   
  7   4  26  1   
  8   4  27  1   
  9   5   8  1   
 10   5   9  1   
 11   5  28  1   
 12   6  29  1   
 13   6  30  1   
 14   6  31  1   
 15   7   9  1   
 16   8  10  ar  
 17   8  11  ar  
 18   9  12  1   
 19   9  32  1   
 20  10  13  ar  
 21  10  14  1   
 22  11  15  ar  
 23  11  33  1   
 24  12  16  2   
 25  12  17  am  
 26  13  18  ar  
 27  13  34  1   
 28  14  35  1   
 29  14  36  1   
 30  14  37  1   
 31  15  18  ar  
 32  15  38  1   
 33  17  19  1   
 34  17  39  1   
 35  18  40  1   
 36  19  20  1   
 37  19  41  1   
 38  19  42  1   
 39  20  21  1   
 40  20  43  1   
 41  20  44  1   
 42  21  22  1   
 43  21  23  2   
 44  22  24  1   
 45  22  45  1   
 46  23  25  1   
 47  23  46  1   
 48  24  25  2   
 49  24  47  1   
@<TRIPOS>SUBSTRUCTURE
  1 ****  12 GROUP 4 **** **** 0

# MOE 2024.06 (io_trps.svl 2023.06)
