@<TRIPOS>MOLECULE
NONAME
42 43 1 0 0 
SMALL
USER_CHARGES


@<TRIPOS>ATOM
  1 O        1.4430    -0.5170    -2.5480 O.2   1 <1>  -0.5700 
  2 C        1.7940    -0.9720    -1.4830 C.2   1 <1>   0.5690 
  3 N        2.3840    -0.1680    -0.5330 N.am  1 <1>  -0.6600 
  4 C        1.5870    -2.4840    -1.2680 C.3   1 <1>   0.1710 
  5 C        2.9850    -0.6110     0.7630 C.3   1 <1>   0.1400 
  6 C        2.4940     1.3110    -0.7320 C.3   1 <1>   0.1400 
  7 N        0.3040    -2.8950    -0.6210 N.3   1 <1>  -0.8100 
  8 C        4.3970    -0.0190     0.9440 C.3   1 <1>   0.2000 
  9 C        3.9290     1.8040    -0.4570 C.3   1 <1>   0.2000 
 10 C        0.1590    -4.3690    -0.6270 C.3   1 <1>   0.2540 
 11 C        0.1410    -2.3400     0.7330 C.3   1 <1>   0.0300 
 12 O        4.3580     1.3670     0.7990 O.3   1 <1>  -0.5600 
 13 C        4.9650    -0.3050     2.3320 C.3   1 <1>  -0.2400 
 14 C        4.0220     3.3270    -0.4540 C.3   1 <1>  -0.2400 
 15 C       -1.2450    -4.8370    -0.2580 C.ar  1 <1>   0.1670 
 16 N       -1.3360    -5.9160     0.5090 N.ar  1 <1>  -0.6200 
 17 C       -2.3530    -4.1380    -0.7350 C.ar  1 <1>   0.1600 
 18 C       -2.5930    -6.2390     0.7630 C.ar  1 <1>   0.1600 
 19 N       -3.6120    -4.4630    -0.4810 N.ar  1 <1>  -0.6200 
 20 C       -3.6930    -5.5370     0.2840 C.ar  1 <1>   0.1600 
 21 H        2.4160    -2.8900    -0.7220 H     1 <1>   0.0800 
 22 H        1.6180    -2.9280    -2.2480 H     1 <1>   0.0800 
 23 H        2.3590    -0.2730     1.5700 H     1 <1>   0.0800 
 24 H        3.0470    -1.6800     0.8190 H     1 <1>   0.0800 
 25 H        2.2160     1.5830    -1.7350 H     1 <1>   0.0800 
 26 H        1.8140     1.8050    -0.0600 H     1 <1>   0.0800 
 27 H        5.0610    -0.4180     0.1950 H     1 <1>   0.0800 
 28 H        4.5980     1.4060    -1.2010 H     1 <1>   0.0800 
 29 H        0.3780    -4.7470    -1.6100 H     1 <1>   0.0800 
 30 H        0.8670    -4.8020     0.0600 H     1 <1>   0.0800 
 31 H       -0.8110    -2.6320     1.1450 H     1 <1>   0.0800 
 32 H        0.1610    -1.2650     0.6960 H     1 <1>   0.0800 
 33 H        0.9210    -2.6930     1.3840 H     1 <1>   0.0800 
 34 H        4.3310     0.1200     3.0890 H     1 <1>   0.0800 
 35 H        5.9480     0.1220     2.4150 H     1 <1>   0.0800 
 36 H        5.0390    -1.3640     2.4930 H     1 <1>   0.0800 
 37 H        3.3840     3.7380     0.3080 H     1 <1>   0.0800 
 38 H        3.7180     3.7170    -1.4080 H     1 <1>   0.0800 
 39 H        5.0370     3.6290    -0.2690 H     1 <1>   0.0800 
 40 H       -2.1840    -3.2710    -1.3510 H     1 <1>   0.1500 
 41 H       -2.7630    -7.1030     1.3800 H     1 <1>   0.1500 
 42 H       -4.6780    -5.8790     0.5460 H     1 <1>   0.1500 
@<TRIPOS>BOND
  1   1   2  2   
  2   2   3  am  
  3   2   4  1   
  4   3   5  1   
  5   3   6  1   
  6   4   7  1   
  7   4  21  1   
  8   4  22  1   
  9   5   8  1   
 10   5  23  1   
 11   5  24  1   
 12   6   9  1   
 13   6  25  1   
 14   6  26  1   
 15   7  10  1   
 16   7  11  1   
 17   8  12  1   
 18   8  13  1   
 19   8  27  1   
 20   9  12  1   
 21   9  14  1   
 22   9  28  1   
 23  10  15  1   
 24  10  29  1   
 25  10  30  1   
 26  11  31  1   
 27  11  32  1   
 28  11  33  1   
 29  13  34  1   
 30  13  35  1   
 31  13  36  1   
 32  14  37  1   
 33  14  38  1   
 34  14  39  1   
 35  15  16  ar  
 36  15  17  ar  
 37  16  18  ar  
 38  17  19  ar  
 39  17  40  1   
 40  18  20  ar  
 41  18  41  1   
 42  19  20  ar  
 43  20  42  1   
@<TRIPOS>SUBSTRUCTURE
  1 ****   7 GROUP 4 **** **** 0

# MOE 2024.06 (io_trps.svl 2023.06)
