@<TRIPOS>MOLECULE
NONAME
45 46 1 0 0 
SMALL
USER_CHARGES


@<TRIPOS>ATOM
  1 CL      -2.3080    -2.3930     2.8300 Cl    1 <1>  -0.1770 
  2 C       -2.9850    -0.8710     2.2870 C.ar  1 <1>   0.1770 
  3 C       -3.9200    -0.8540     1.2580 C.ar  1 <1>   0.0830 
  4 C       -2.5670     0.2930     2.9040 C.ar  1 <1>  -0.1500 
  5 O       -4.2790    -2.0410     0.7030 O.3   1 <1>  -0.3630 
  6 C       -4.4380     0.3730     0.8480 C.ar  1 <1>  -0.1500 
  7 C       -3.0890     1.5060     2.4890 C.ar  1 <1>  -0.1500 
  8 C       -5.2200    -2.1230    -0.3570 C.3   1 <1>   0.1810 
  9 C       -4.0210     1.5430     1.4640 C.ar  1 <1>  -0.1500 
 10 C       -5.4180    -3.5680    -0.8010 C.2   1 <1>   0.5690 
 11 O       -6.2910    -3.8190    -1.5990 O.2   1 <1>  -0.5700 
 12 N       -4.6250    -4.5450    -0.2890 N.am  1 <1>  -0.7300 
 13 C       -4.7300    -5.9820    -0.6160 C.3   1 <1>   0.2200 
 14 C       -5.8780    -6.6020     0.1750 C.3   1 <1>  -0.0800 
 15 C       -3.5000    -6.7610    -0.1520 C.3   1 <1>   0.1200 
 16 C       -5.2120    -7.7170     0.9820 C.3   1 <1>   0.1200 
 17 C       -7.0090    -7.0860    -0.7510 C.3   1 <1>  -0.0550 
 18 O       -3.8650    -7.3770     1.0390 O.3   1 <1>  -0.5600 
 19 S       -8.4980    -7.5900     0.1130 S.o2  1 <1>   1.3330 
 20 O       -8.1460    -8.6490     1.0330 O.2   1 <1>  -0.6500 
 21 O       -9.5510    -7.8090    -0.8520 O.2   1 <1>  -0.6500 
 22 N       -8.9230    -6.2260     1.0300 N.am  1 <1>  -0.8490 
 23 C       -9.8770    -6.5620     2.0890 C.3   1 <1>   0.1160 
 24 C       -9.4440    -5.1190     0.2190 C.3   1 <1>   0.1160 
 25 H       -1.8430     0.2460     3.6980 H     1 <1>   0.1500 
 26 H       -5.1610     0.4440     0.0580 H     1 <1>   0.1500 
 27 H       -2.7710     2.4200     2.9620 H     1 <1>   0.1500 
 28 H       -6.1560    -1.7240    -0.0130 H     1 <1>   0.0800 
 29 H       -4.8520    -1.5460    -1.1850 H     1 <1>   0.0800 
 30 H       -4.4230     2.4900     1.1450 H     1 <1>   0.1500 
 31 H       -3.9960    -4.3030     0.4850 H     1 <1>   0.3700 
 32 H       -4.8570    -6.0940    -1.6800 H     1 <1>   0.0800 
 33 H       -6.2730    -5.8830     0.8720 H     1 <1>   0.0800 
 34 H       -2.6440    -6.1330     0.0180 H     1 <1>   0.0800 
 35 H       -3.2550    -7.5360    -0.8570 H     1 <1>   0.0800 
 36 H       -5.2940    -8.6730     0.4930 H     1 <1>   0.0800 
 37 H       -5.6020    -7.7870     1.9840 H     1 <1>   0.0800 
 38 H       -6.6560    -7.9030    -1.3480 H     1 <1>   0.0800 
 39 H       -7.2620    -6.2880    -1.4210 H     1 <1>   0.0800 
 40 H      -10.1070    -5.6890     2.6750 H     1 <1>   0.0800 
 41 H       -9.4530    -7.3040     2.7440 H     1 <1>   0.0800 
 42 H      -10.7860    -6.9550     1.6630 H     1 <1>   0.0800 
 43 H       -9.6570    -4.2700     0.8460 H     1 <1>   0.0800 
 44 H      -10.3480    -5.4150    -0.2890 H     1 <1>   0.0800 
 45 H       -8.7160    -4.8170    -0.5150 H     1 <1>   0.0800 
@<TRIPOS>BOND
  1   1   2  1   
  2   2   3  ar  
  3   2   4  ar  
  4   3   5  1   
  5   3   6  ar  
  6   4   7  ar  
  7   4  25  1   
  8   5   8  1   
  9   6   9  ar  
 10   6  26  1   
 11   7   9  ar  
 12   7  27  1   
 13   8  10  1   
 14   8  28  1   
 15   8  29  1   
 16   9  30  1   
 17  10  11  2   
 18  10  12  am  
 19  12  13  1   
 20  12  31  1   
 21  13  14  1   
 22  13  15  1   
 23  13  32  1   
 24  14  16  1   
 25  14  17  1   
 26  14  33  1   
 27  15  18  1   
 28  15  34  1   
 29  15  35  1   
 30  16  18  1   
 31  16  36  1   
 32  16  37  1   
 33  17  19  1   
 34  17  38  1   
 35  17  39  1   
 36  19  20  2   
 37  19  21  2   
 38  19  22  am  
 39  22  23  1   
 40  22  24  1   
 41  23  40  1   
 42  23  41  1   
 43  23  42  1   
 44  24  43  1   
 45  24  44  1   
 46  24  45  1   
@<TRIPOS>SUBSTRUCTURE
  1 ****  12 GROUP 4 **** **** 0

# MOE 2024.06 (io_trps.svl 2023.06)
