@<TRIPOS>MOLECULE
NONAME
53 56 1 0 0 
SMALL
USER_CHARGES


@<TRIPOS>ATOM
  1 O        0.0190     0.4730     1.4100 O.2   1 <1>  -0.5700 
  2 C        0.3300     1.5100     0.8670 C.2   1 <1>   0.5690 
  3 N       -0.5920     2.5010     0.6210 N.am  1 <1>  -0.6600 
  4 C        1.7870     1.6480     0.4290 C.3   1 <1>   0.1810 
  5 C       -2.0220     2.3480     1.0230 C.3   1 <1>   0.1400 
  6 C       -0.2540     3.7930    -0.0500 C.3   1 <1>   0.1400 
  7 O        2.3930     2.8180     0.9620 O.3   1 <1>  -0.3620 
  8 C       -2.9710     2.4160    -0.2050 C.3   1 <1>   0.0000 
  9 C       -1.4990     4.4790    -0.6330 C.3   1 <1>  -0.1600 
 10 C        3.6450     3.1850     0.5990 C.ar  1 <1>   0.0820 
 11 C       -4.4020     2.6860     0.3140 C.3   1 <1>   0.2000 
 12 C       -2.4500     3.4450    -1.2540 C.3   1 <1>  -0.1600 
 13 C       -3.1070     1.0160    -0.8270 C.3   1 <1>  -0.1600 
 14 C        4.4740     2.4420    -0.2070 C.ar  1 <1>  -0.1500 
 15 C        4.0890     4.4160     1.0990 C.ar  1 <1>  -0.1500 
 16 O       -5.2440     3.0530    -0.7430 O.3   1 <1>  -0.5600 
 17 C       -4.8810     1.3300     0.8440 C.3   1 <1>  -0.1600 
 18 C       -4.1460     0.2650     0.0180 C.3   1 <1>  -0.1600 
 19 C        5.7620     2.9000    -0.5490 C.ar  1 <1>   0.0000 
 20 C        5.3340     4.8830     0.7830 C.ar  1 <1>  -0.1500 
 21 C       -6.3600     3.8010    -0.3800 C.3   1 <1>   0.0400 
 22 C        6.2010     4.1440    -0.0470 C.ar  1 <1>   0.0000 
 23 C        6.6330     2.1610    -1.3770 C.ar  1 <1>  -0.1500 
 24 C        7.4890     4.6000    -0.3930 C.ar  1 <1>  -0.1500 
 25 C        7.8780     2.6280    -1.6960 C.ar  1 <1>  -0.1500 
 26 C        8.3110     3.8620    -1.1990 C.ar  1 <1>  -0.1500 
 27 H        1.8290     1.6980    -0.6430 H     1 <1>   0.0800 
 28 H        2.3450     0.7980     0.7760 H     1 <1>   0.0800 
 29 H       -2.1660     1.4260     1.5580 H     1 <1>   0.0800 
 30 H       -2.2550     3.1470     1.7050 H     1 <1>   0.0800 
 31 H        0.2280     4.4480     0.6560 H     1 <1>   0.0800 
 32 H        0.4370     3.6000    -0.8520 H     1 <1>   0.0800 
 33 H       -2.0080     5.0250     0.1410 H     1 <1>   0.0800 
 34 H       -1.1920     5.1890    -1.3790 H     1 <1>   0.0800 
 35 H       -4.4170     3.4600     1.0630 H     1 <1>   0.0800 
 36 H       -1.9020     2.9190    -2.0160 H     1 <1>   0.0800 
 37 H       -3.2580     3.9520    -1.7500 H     1 <1>   0.0800 
 38 H       -3.4900     1.1090    -1.8290 H     1 <1>   0.0800 
 39 H       -2.1660     0.4940    -0.8640 H     1 <1>   0.0800 
 40 H        4.1740     1.4910    -0.6010 H     1 <1>   0.1500 
 41 H        3.4270     4.9780     1.7330 H     1 <1>   0.1500 
 42 H       -4.5910     1.2330     1.8760 H     1 <1>   0.0800 
 43 H       -5.9480     1.2180     0.7780 H     1 <1>   0.0800 
 44 H       -3.6620    -0.4430     0.6690 H     1 <1>   0.0800 
 45 H       -4.8320    -0.2610    -0.6240 H     1 <1>   0.0800 
 46 H        5.6730     5.8280     1.1670 H     1 <1>   0.1500 
 47 H       -6.9370     3.9900    -1.2680 H     1 <1>   0.0800 
 48 H       -6.0360     4.7340     0.0470 H     1 <1>   0.0800 
 49 H       -6.9530     3.2460     0.3250 H     1 <1>   0.0800 
 50 H        6.2980     1.2130    -1.7570 H     1 <1>   0.1500 
 51 H        7.8180     5.5480    -0.0070 H     1 <1>   0.1500 
 52 H        8.5390     2.0590    -2.3290 H     1 <1>   0.1500 
 53 H        9.2940     4.2150    -1.4590 H     1 <1>   0.1500 
@<TRIPOS>BOND
  1   1   2  2   
  2   2   3  am  
  3   2   4  1   
  4   3   5  1   
  5   3   6  1   
  6   4   7  1   
  7   4  27  1   
  8   4  28  1   
  9   5   8  1   
 10   5  29  1   
 11   5  30  1   
 12   6   9  1   
 13   6  31  1   
 14   6  32  1   
 15   7  10  1   
 16   8  11  1   
 17   8  12  1   
 18   8  13  1   
 19   9  12  1   
 20   9  33  1   
 21   9  34  1   
 22  10  14  ar  
 23  10  15  ar  
 24  11  16  1   
 25  11  17  1   
 26  11  35  1   
 27  12  36  1   
 28  12  37  1   
 29  13  18  1   
 30  13  38  1   
 31  13  39  1   
 32  14  19  ar  
 33  14  40  1   
 34  15  20  ar  
 35  15  41  1   
 36  16  21  1   
 37  17  18  1   
 38  17  42  1   
 39  17  43  1   
 40  18  44  1   
 41  18  45  1   
 42  19  22  ar  
 43  19  23  ar  
 44  20  22  ar  
 45  20  46  1   
 46  21  47  1   
 47  21  48  1   
 48  21  49  1   
 49  22  24  ar  
 50  23  25  ar  
 51  23  50  1   
 52  24  26  ar  
 53  24  51  1   
 54  25  26  ar  
 55  25  52  1   
 56  26  53  1   
@<TRIPOS>SUBSTRUCTURE
  1 ****   4 GROUP 4 **** **** 0

# MOE 2024.06 (io_trps.svl 2023.06)
