@<TRIPOS>MOLECULE
NONAME
50 52 1 0 0 
SMALL
USER_CHARGES


@<TRIPOS>ATOM
  1 O       -0.5880     1.2220     0.3440 O.2   1 <1>  -0.5700 
  2 C       -1.5490     1.7970     0.8140 C.2   1 <1>   0.5690 
  3 N       -2.7310     1.1180     1.0060 N.am  1 <1>  -0.6600 
  4 C       -1.4170     3.2950     1.1930 C.3   1 <1>   0.2610 
  5 C       -2.8330    -0.3430     0.6970 C.3   1 <1>   0.1400 
  6 C       -4.0270     1.7540     1.3810 C.3   1 <1>   0.1400 
  7 O       -2.0540     4.1170     0.2540 O.3   1 <1>  -0.5600 
  8 C        0.0120     3.8430     1.2220 C.3   1 <1>  -0.1600 
  9 C       -3.3740    -0.5960    -0.7170 C.3   1 <1>   0.1400 
 10 C       -4.7830     2.3090     0.1630 C.3   1 <1>  -0.1600 
 11 C       -1.1810     4.3940    -0.7940 C.3   1 <1>   0.1200 
 12 C        0.2200     4.3780    -0.1880 C.3   1 <1>  -0.1600 
 13 N       -4.6930     0.0780    -0.9450 N.am  1 <1>  -0.6600 
 14 C       -4.5860     1.5480    -1.1520 C.3   1 <1>   0.1400 
 15 C       -5.9140    -0.5440    -0.9560 C.2   1 <1>   0.5690 
 16 O       -6.9390     0.0730    -1.1340 O.2   1 <1>  -0.5700 
 17 C       -6.0080    -2.0390    -0.7160 C.3   1 <1>  -0.0990 
 18 C       -7.4530    -2.5560    -0.7500 C.3   1 <1>   0.0960 
 19 N       -7.5090    -3.9830    -0.3800 N.pl3 1 <1>   0.3140 
 20 N       -6.7230    -4.9120    -0.9590 N.2   1 <1>  -0.7070 
 21 C       -8.3100    -4.5360     0.5530 C.2   1 <1>  -0.3020 
 22 C       -7.0480    -6.0280    -0.3820 C.2   1 <1>   0.1390 
 23 C       -8.0390    -5.8560     0.5780 C.2   1 <1>  -0.1810 
 24 C       -8.6600    -6.9330     1.4440 C.3   1 <1>  -0.0590 
 25 H       -1.8840     3.4540     2.1470 H     1 <1>   0.0800 
 26 H       -3.4720    -0.8220     1.4170 H     1 <1>   0.0800 
 27 H       -1.8620    -0.8000     0.7830 H     1 <1>   0.0800 
 28 H       -3.8680     2.5420     2.0950 H     1 <1>   0.0800 
 29 H       -4.6470     1.0160     1.8590 H     1 <1>   0.0800 
 30 H        0.7350     3.0950     1.4940 H     1 <1>   0.0800 
 31 H        0.0610     4.6490     1.9320 H     1 <1>   0.0800 
 32 H       -3.4550    -1.6560    -0.8750 H     1 <1>   0.0800 
 33 H       -2.6570    -0.2280    -1.4320 H     1 <1>   0.0800 
 34 H       -4.4890     3.3300     0.0050 H     1 <1>   0.0800 
 35 H       -5.8330     2.3290     0.3940 H     1 <1>   0.0800 
 36 H       -1.4360     5.3500    -1.2160 H     1 <1>   0.0800 
 37 H       -1.2910     3.6190    -1.5340 H     1 <1>   0.0800 
 38 H        0.8550     3.7250    -0.7610 H     1 <1>   0.0800 
 39 H        0.6480     5.3650    -0.1760 H     1 <1>   0.0800 
 40 H       -3.6170     1.7850    -1.5590 H     1 <1>   0.0800 
 41 H       -5.3250     1.8690    -1.8670 H     1 <1>   0.0800 
 42 H       -5.5780    -2.2580     0.2430 H     1 <1>   0.0800 
 43 H       -5.4450    -2.5430    -1.4800 H     1 <1>   0.0800 
 44 H       -7.8620    -2.4430    -1.7370 H     1 <1>   0.0800 
 45 H       -8.0610    -1.9990    -0.0600 H     1 <1>   0.0800 
 46 H       -9.0140    -3.9690     1.1340 H     1 <1>   0.1500 
 47 H       -6.5950    -6.9740    -0.6280 H     1 <1>   0.1500 
 48 H       -9.4000    -6.5040     2.0950 H     1 <1>   0.0800 
 49 H       -7.9020    -7.4040     2.0430 H     1 <1>   0.0800 
 50 H       -9.1300    -7.6750     0.8250 H     1 <1>   0.0800 
@<TRIPOS>BOND
  1   1   2  2   
  2   2   3  am  
  3   2   4  1   
  4   3   5  1   
  5   3   6  1   
  6   4   7  1   
  7   4   8  1   
  8   4  25  1   
  9   5   9  1   
 10   5  26  1   
 11   5  27  1   
 12   6  10  1   
 13   6  28  1   
 14   6  29  1   
 15   7  11  1   
 16   8  12  1   
 17   8  30  1   
 18   8  31  1   
 19   9  13  1   
 20   9  32  1   
 21   9  33  1   
 22  10  14  1   
 23  10  34  1   
 24  10  35  1   
 25  11  12  1   
 26  11  36  1   
 27  11  37  1   
 28  12  38  1   
 29  12  39  1   
 30  13  14  1   
 31  13  15  am  
 32  14  40  1   
 33  14  41  1   
 34  15  16  2   
 35  15  17  1   
 36  17  18  1   
 37  17  42  1   
 38  17  43  1   
 39  18  19  1   
 40  18  44  1   
 41  18  45  1   
 42  19  20  1   
 43  19  21  1   
 44  20  22  2   
 45  21  23  2   
 46  21  46  1   
 47  22  23  1   
 48  22  47  1   
 49  23  24  1   
 50  24  48  1   
 51  24  49  1   
 52  24  50  1   
@<TRIPOS>SUBSTRUCTURE
  1 ****  13 GROUP 4 **** **** 0

# MOE 2024.06 (io_trps.svl 2023.06)
