@<TRIPOS>MOLECULE
NONAME
57 60 1 0 0 
SMALL
USER_CHARGES


@<TRIPOS>ATOM
  1 O        1.4910     4.1330    -1.3710 O.3   1 <1>  -0.5600 
  2 C        1.2000     2.9870    -0.6370 C.3   1 <1>   0.1200 
  3 C        2.1660     5.1360    -0.6820 C.3   1 <1>   0.1200 
  4 C        2.5170     2.3120    -0.2480 C.3   1 <1>  -0.1600 
  5 C        3.5510     4.6130    -0.3030 C.3   1 <1>  -0.1600 
  6 C        3.4060     3.3110     0.4960 C.3   1 <1>   0.4230 
  7 N        4.7170     2.6860     0.8390 N.4   1 <1>  -0.9590 
  8 C        5.4700     3.5310     1.8410 C.3   1 <1>   0.3430 
  9 C        5.6010     2.4180    -0.3640 C.3   1 <1>   0.3430 
 10 C        6.8290     2.9160     2.2470 C.3   1 <1>   0.2090 
 11 C        6.9750     1.8160     0.0140 C.3   1 <1>   0.2090 
 12 N        7.6720     2.6400     1.0480 N.pl3 1 <1>  -0.8380 
 13 C        8.3490     3.7370     0.5660 C.ar  1 <1>   0.4100 
 14 N        7.6510     4.6250    -0.0710 N.ar  1 <1>  -0.6200 
 15 C        9.7220     3.8620     0.7890 C.ar  1 <1>  -0.1500 
 16 C        8.2910     5.7250    -0.5520 C.ar  1 <1>   0.3100 
 17 C       10.4080     4.9490     0.3430 C.ar  1 <1>  -0.1440 
 18 C        9.6830     5.9560    -0.3620 C.ar  1 <1>   0.0000 
 19 C        7.5100     6.6680    -1.2730 C.ar  1 <1>   0.0820 
 20 C       11.9050     5.0020     0.6300 C.3   1 <1>  -0.0970 
 21 C       10.2290     7.1630    -0.8910 C.ar  1 <1>   0.0820 
 22 O        6.1790     6.3960    -1.4610 O.3   1 <1>  -0.3620 
 23 C        8.0820     7.8170    -1.7650 C.ar  1 <1>  -0.1500 
 24 O       11.5530     7.4170    -0.7090 O.3   1 <1>  -0.3630 
 25 C        9.4360     8.0610    -1.5710 C.ar  1 <1>  -0.1500 
 26 C        5.4160     7.0970    -2.4220 C.3   1 <1>   0.0400 
 27 C       12.1960     8.5790    -1.1880 C.3   1 <1>   0.0400 
 28 H        0.6090     2.3390    -1.2630 H     1 <1>   0.0800 
 29 H        0.6160     3.2650     0.2250 H     1 <1>   0.0800 
 30 H        1.5870     5.4170     0.1820 H     1 <1>   0.0800 
 31 H        2.2460     5.9870    -1.3380 H     1 <1>   0.0800 
 32 H        2.9870     1.9700    -1.1520 H     1 <1>   0.0800 
 33 H        2.3020     1.4650     0.3760 H     1 <1>   0.0800 
 34 H        4.0580     5.3650     0.2740 H     1 <1>   0.0800 
 35 H        4.0960     4.4580    -1.2150 H     1 <1>   0.0800 
 36 H        2.8990     3.5580     1.4150 H     1 <1>   0.0800 
 37 H        4.5290     1.7810     1.2830 H     1 <1>   0.4500 
 38 H        4.8730     3.6740     2.7250 H     1 <1>   0.0800 
 39 H        5.6670     4.5010     1.4140 H     1 <1>   0.0800 
 40 H        5.7870     3.3420    -0.8860 H     1 <1>   0.0800 
 41 H        5.1050     1.7510    -1.0490 H     1 <1>   0.0800 
 42 H        6.6770     2.0050     2.7980 H     1 <1>   0.0800 
 43 H        7.3480     3.6060     2.8920 H     1 <1>   0.0800 
 44 H        7.5890     1.7660    -0.8700 H     1 <1>   0.0800 
 45 H        6.8500     0.8120     0.3810 H     1 <1>   0.0800 
 46 H       10.2000     3.0650     1.3250 H     1 <1>   0.1500 
 47 H       12.2340     4.1270     1.1590 H     1 <1>   0.0800 
 48 H       12.1350     5.8620     1.2330 H     1 <1>   0.0800 
 49 H       12.4550     5.0590    -0.2920 H     1 <1>   0.0800 
 50 H        7.5170     8.5550    -2.3020 H     1 <1>   0.1500 
 51 H        9.8260     8.9750    -1.9750 H     1 <1>   0.1500 
 52 H        4.4550     6.6230    -2.5030 H     1 <1>   0.0800 
 53 H        5.9220     7.0540    -3.3710 H     1 <1>   0.0800 
 54 H        5.2930     8.1150    -2.0970 H     1 <1>   0.0800 
 55 H       13.2320     8.5240    -0.9080 H     1 <1>   0.0800 
 56 H       11.7410     9.4420    -0.7350 H     1 <1>   0.0800 
 57 H       12.1090     8.6100    -2.2590 H     1 <1>   0.0800 
@<TRIPOS>BOND
  1   1   2  1   
  2   1   3  1   
  3   2   4  1   
  4   2  28  1   
  5   2  29  1   
  6   3   5  1   
  7   3  30  1   
  8   3  31  1   
  9   4   6  1   
 10   4  32  1   
 11   4  33  1   
 12   5   6  1   
 13   5  34  1   
 14   5  35  1   
 15   6   7  1   
 16   6  36  1   
 17   7   8  1   
 18   7   9  1   
 19   7  37  1   
 20   8  10  1   
 21   8  38  1   
 22   8  39  1   
 23   9  11  1   
 24   9  40  1   
 25   9  41  1   
 26  10  12  1   
 27  10  42  1   
 28  10  43  1   
 29  11  12  1   
 30  11  44  1   
 31  11  45  1   
 32  12  13  1   
 33  13  14  ar  
 34  13  15  ar  
 35  14  16  ar  
 36  15  17  ar  
 37  15  46  1   
 38  16  18  ar  
 39  16  19  ar  
 40  17  18  ar  
 41  17  20  1   
 42  18  21  ar  
 43  19  22  1   
 44  19  23  ar  
 45  20  47  1   
 46  20  48  1   
 47  20  49  1   
 48  21  24  1   
 49  21  25  ar  
 50  22  26  1   
 51  23  25  ar  
 52  23  50  1   
 53  24  27  1   
 54  25  51  1   
 55  26  52  1   
 56  26  53  1   
 57  26  54  1   
 58  27  55  1   
 59  27  56  1   
 60  27  57  1   
@<TRIPOS>SUBSTRUCTURE
  1 ****  14 GROUP 4 **** **** 0

# MOE 2024.06 (io_trps.svl 2023.06)
