@<TRIPOS>MOLECULE
NONAME
48 50 1 0 0 
SMALL
USER_CHARGES


@<TRIPOS>ATOM
  1 S       -2.0680     0.2560    -1.7990 S.3   1 <1>  -0.0800 
  2 C       -1.2150     0.7990    -0.3600 C.2   1 <1>  -0.1400 
  3 C       -0.5660    -0.2210    -2.5680 C.2   1 <1>  -0.1100 
  4 C        0.1100     0.6100    -0.5060 C.2   1 <1>  -0.1500 
  5 C       -2.0190     1.3820     0.7950 C.3   1 <1>   0.0810 
  6 C        0.4800     0.0300    -1.7610 C.2   1 <1>  -0.1500 
  7 C       -2.7140     0.3180     1.6410 C.2   1 <1>   0.5690 
  8 O       -2.0570    -0.1490     2.5440 O.2   1 <1>  -0.5700 
  9 N       -4.0220    -0.0800     1.4360 N.am  1 <1>  -0.6600 
 10 C       -4.8720     0.3980     0.3030 C.3   1 <1>   0.2200 
 11 C       -4.6000    -1.1160     2.3510 C.3   1 <1>   0.0600 
 12 C       -6.0280     1.2820     0.7570 C.3   1 <1>  -0.1600 
 13 C       -5.5500    -0.7110    -0.4960 C.3   1 <1>  -0.1600 
 14 C       -7.0070     1.2690    -0.4270 C.3   1 <1>  -0.0800 
 15 C       -6.6850     0.0040    -1.2430 C.3   1 <1>  -0.0800 
 16 C       -8.4820     1.1630    -0.0170 C.3   1 <1>  -0.1600 
 17 C       -7.9830    -0.8090    -1.3220 C.3   1 <1>  -0.1600 
 18 C       -8.8100    -0.3250    -0.1340 C.3   1 <1>   0.4230 
 19 N      -10.2680    -0.6370    -0.2700 N.4   1 <1>  -0.9590 
 20 C      -10.9640     0.0270    -1.4230 C.3   1 <1>   0.2630 
 21 C      -10.9930    -0.3380     1.0040 C.3   1 <1>   0.2630 
 22 H       -0.6260    -0.6450    -3.5550 H     1 <1>   0.1500 
 23 H        0.8590     0.8530     0.2280 H     1 <1>   0.1500 
 24 H       -1.3360     1.9020     1.4410 H     1 <1>   0.0800 
 25 H       -2.7140     2.1160     0.4390 H     1 <1>   0.0800 
 26 H        1.5110    -0.1700    -1.9920 H     1 <1>   0.1500 
 27 H       -4.2860     0.9690    -0.3920 H     1 <1>   0.0800 
 28 H       -5.6600    -0.9880     2.4620 H     1 <1>   0.0800 
 29 H       -4.1530    -1.0470     3.3280 H     1 <1>   0.0800 
 30 H       -4.3980    -2.0960     1.9540 H     1 <1>   0.0800 
 31 H       -6.4880     0.8670     1.6340 H     1 <1>   0.0800 
 32 H       -5.6880     2.2790     0.9750 H     1 <1>   0.0800 
 33 H       -4.8570    -1.1730    -1.1780 H     1 <1>   0.0800 
 34 H       -5.9550    -1.4610     0.1580 H     1 <1>   0.0800 
 35 H       -6.8440     2.1460    -1.0330 H     1 <1>   0.0800 
 36 H       -6.3440     0.2760    -2.2300 H     1 <1>   0.0800 
 37 H       -9.0580     1.7430    -0.7130 H     1 <1>   0.0800 
 38 H       -8.6480     1.5370     0.9780 H     1 <1>   0.0800 
 39 H       -7.7970    -1.8680    -1.2800 H     1 <1>   0.0800 
 40 H       -8.4630    -0.5710    -2.2520 H     1 <1>   0.0800 
 41 H       -8.4230    -0.8150     0.7460 H     1 <1>   0.0800 
 42 H      -10.3250    -1.6540    -0.4270 H     1 <1>   0.4500 
 43 H      -10.9570     1.0980    -1.3040 H     1 <1>   0.0800 
 44 H      -11.9890    -0.3020    -1.4770 H     1 <1>   0.0800 
 45 H      -10.4810    -0.2210    -2.3540 H     1 <1>   0.0800 
 46 H      -10.9670     0.7200     1.2100 H     1 <1>   0.0800 
 47 H      -10.5350    -0.8610     1.8280 H     1 <1>   0.0800 
 48 H      -12.0220    -0.6490     0.9310 H     1 <1>   0.0800 
@<TRIPOS>BOND
  1   1   2  1   
  2   1   3  1   
  3   2   4  2   
  4   2   5  1   
  5   3   6  2   
  6   3  22  1   
  7   4   6  1   
  8   4  23  1   
  9   5   7  1   
 10   5  24  1   
 11   5  25  1   
 12   6  26  1   
 13   7   8  2   
 14   7   9  am  
 15   9  10  1   
 16   9  11  1   
 17  10  12  1   
 18  10  13  1   
 19  10  27  1   
 20  11  28  1   
 21  11  29  1   
 22  11  30  1   
 23  12  14  1   
 24  12  31  1   
 25  12  32  1   
 26  13  15  1   
 27  13  33  1   
 28  13  34  1   
 29  14  15  1   
 30  14  16  1   
 31  14  35  1   
 32  15  17  1   
 33  15  36  1   
 34  16  18  1   
 35  16  37  1   
 36  16  38  1   
 37  17  18  1   
 38  17  39  1   
 39  17  40  1   
 40  18  19  1   
 41  18  41  1   
 42  19  20  1   
 43  19  21  1   
 44  19  42  1   
 45  20  43  1   
 46  20  44  1   
 47  20  45  1   
 48  21  46  1   
 49  21  47  1   
 50  21  48  1   
@<TRIPOS>SUBSTRUCTURE
  1 ****  10 GROUP 4 **** **** 0

# MOE 2024.06 (io_trps.svl 2023.06)
