@<TRIPOS>MOLECULE
NONAME
56 60 1 0 0 
SMALL
USER_CHARGES


@<TRIPOS>ATOM
  1 O       -0.7120    -1.4680     2.3010 O.2   1 <1>  -0.5700 
  2 C       -0.3310    -0.9660     1.2710 C.2   1 <1>   0.5690 
  3 N       -1.0100    -1.2000     0.0930 N.am  1 <1>  -0.6600 
  4 C        0.8800    -0.0460     1.3590 C.3   1 <1>   0.0820 
  5 C       -0.7310    -0.5550    -1.2290 C.3   1 <1>   0.1400 
  6 C       -2.4050    -1.7330     0.1460 C.3   1 <1>   0.1400 
  7 C        0.5950     1.3540     0.8280 C.2   1 <1>   0.0460 
  8 C       -1.7610     0.5690    -1.5400 C.3   1 <1>   0.4230 
  9 C       -3.4260    -0.5830    -0.0210 C.3   1 <1>   0.3430 
 10 N       -0.5750     1.9760     1.0730 N.2   1 <1>  -0.5650 
 11 C        1.3660     2.1470     0.0670 C.2   1 <1>  -0.0400 
 12 N       -2.7910     0.7240    -0.4430 N.4   1 <1>  -0.9590 
 13 C       -2.4490     0.3680    -2.9070 C.3   1 <1>   0.1200 
 14 C       -0.4570     3.1130     0.4590 C.2   1 <1>   0.4250 
 15 O        0.6960     3.2360    -0.1690 O.3   1 <1>  -0.2800 
 16 C        2.7600     2.0130    -0.5120 C.3   1 <1>  -0.0600 
 17 C       -3.7620     1.8110    -0.7850 C.3   1 <1>   0.5180 
 18 O       -3.3410     1.4170    -3.1580 O.3   1 <1>  -0.5600 
 19 C       -1.4650     4.1420     0.3610 C.ar  1 <1>   0.0530 
 20 C       -4.8120     1.9310     0.3370 C.3   1 <1>  -0.1950 
 21 C       -4.3550     1.5870    -2.2000 C.3   1 <1>   0.1200 
 22 C       -1.5530     4.9740    -0.7560 C.ar  1 <1>  -0.1500 
 23 C       -2.4200     4.3060     1.3640 C.ar  1 <1>  -0.1500 
 24 C       -6.1050     1.1700     0.3950 C.3   1 <1>  -0.2000 
 25 C       -6.1130     2.6540     0.1580 C.3   1 <1>  -0.2000 
 26 C       -2.5650     5.9070    -0.8780 C.ar  1 <1>  -0.1500 
 27 C       -3.4350     5.2380     1.2480 C.ar  1 <1>  -0.1500 
 28 C       -3.5110     6.0380     0.1220 C.ar  1 <1>  -0.1500 
 29 H        1.1660     0.0400     2.3910 H     1 <1>   0.0800 
 30 H        1.6970    -0.4940     0.8280 H     1 <1>   0.0800 
 31 H        0.2640    -0.1510    -1.2600 H     1 <1>   0.0800 
 32 H       -0.7730    -1.3110    -1.9940 H     1 <1>   0.0800 
 33 H       -2.5400    -2.4530    -0.6420 H     1 <1>   0.0800 
 34 H       -2.5930    -2.2470     1.0740 H     1 <1>   0.0800 
 35 H       -1.2040     1.4890    -1.6130 H     1 <1>   0.0800 
 36 H       -3.9300    -0.4430     0.9210 H     1 <1>   0.0800 
 37 H       -4.1700    -0.8820    -0.7400 H     1 <1>   0.0800 
 38 H       -2.2390     1.0470     0.3750 H     1 <1>   0.4500 
 39 H       -2.9900    -0.5620    -2.9440 H     1 <1>   0.0800 
 40 H       -1.7180     0.3720    -3.6960 H     1 <1>   0.0800 
 41 H        3.2080     1.0780    -0.2290 H     1 <1>   0.0800 
 42 H        3.3800     2.8130    -0.1480 H     1 <1>   0.0800 
 43 H        2.7210     2.0720    -1.5850 H     1 <1>   0.0800 
 44 H       -3.2290     2.7460    -0.8220 H     1 <1>   0.0800 
 45 H       -4.3260     2.1280     1.2770 H     1 <1>   0.1000 
 46 H       -4.9310     2.4460    -2.4950 H     1 <1>   0.0800 
 47 H       -4.9940     0.7240    -2.2240 H     1 <1>   0.0800 
 48 H       -0.8200     4.8890    -1.5410 H     1 <1>   0.1500 
 49 H       -2.3630     3.6960     2.2510 H     1 <1>   0.1500 
 50 H       -6.4340     0.5430    -0.4170 H     1 <1>   0.1000 
 51 H       -6.4610     0.8130     1.3480 H     1 <1>   0.1000 
 52 H       -6.4590     3.2970     0.9500 H     1 <1>   0.1000 
 53 H       -6.4250     3.0100    -0.8090 H     1 <1>   0.1000 
 54 H       -2.6170     6.5390    -1.7500 H     1 <1>   0.1500 
 55 H       -4.1620     5.3500     2.0350 H     1 <1>   0.1500 
 56 H       -4.2990     6.7680     0.0290 H     1 <1>   0.1500 
@<TRIPOS>BOND
  1   1   2  2   
  2   2   3  am  
  3   2   4  1   
  4   3   5  1   
  5   3   6  1   
  6   4   7  1   
  7   4  29  1   
  8   4  30  1   
  9   5   8  1   
 10   5  31  1   
 11   5  32  1   
 12   6   9  1   
 13   6  33  1   
 14   6  34  1   
 15   7  10  1   
 16   7  11  2   
 17   8  12  1   
 18   8  13  1   
 19   8  35  1   
 20   9  12  1   
 21   9  36  1   
 22   9  37  1   
 23  10  14  2   
 24  11  15  1   
 25  11  16  1   
 26  12  17  1   
 27  12  38  1   
 28  13  18  1   
 29  13  39  1   
 30  13  40  1   
 31  14  15  1   
 32  14  19  1   
 33  16  41  1   
 34  16  42  1   
 35  16  43  1   
 36  17  20  1   
 37  17  21  1   
 38  17  44  1   
 39  18  21  1   
 40  19  22  ar  
 41  19  23  ar  
 42  20  24  1   
 43  20  25  1   
 44  20  45  1   
 45  21  46  1   
 46  21  47  1   
 47  22  26  ar  
 48  22  48  1   
 49  23  27  ar  
 50  23  49  1   
 51  24  25  1   
 52  24  50  1   
 53  24  51  1   
 54  25  52  1   
 55  25  53  1   
 56  26  28  ar  
 57  26  54  1   
 58  27  28  ar  
 59  27  55  1   
 60  28  56  1   
@<TRIPOS>SUBSTRUCTURE
  1 ****  12 GROUP 4 **** **** 0

# MOE 2024.06 (io_trps.svl 2023.06)
