@<TRIPOS>MOLECULE
NONAME
44 46 1 0 0 
SMALL
USER_CHARGES


@<TRIPOS>ATOM
  1 S        0.8420    -0.0160    -0.9900 S.o2  1 <1>   1.4470 
  2 O        0.4120    -1.0790    -1.8740 O.2   1 <1>  -0.6500 
  3 O        1.8550     0.9120    -1.4440 O.2   1 <1>  -0.6500 
  4 N       -0.5320     0.8980    -0.5990 N.am  1 <1>  -0.8490 
  5 C        1.3480    -0.7060     0.6120 C.ar  1 <1>  -0.0090 
  6 C       -1.7090     0.0760    -0.2070 C.3   1 <1>   0.1960 
  7 C       -0.9320     1.7840    -1.6770 C.3   1 <1>   0.1960 
  8 C        1.6590    -2.0580     0.7460 C.ar  1 <1>  -0.1500 
  9 C        1.4410     0.1090     1.7390 C.ar  1 <1>  -0.1500 
 10 C       -3.1750     0.6900     0.0790 C.3   1 <1>   0.0000 
 11 C       -2.0240     2.7080    -1.1410 C.3   1 <1>  -0.1600 
 12 C        2.0470    -2.5890     1.9660 C.ar  1 <1>  -0.1500 
 13 C        1.8260    -0.4020     2.9680 C.ar  1 <1>  -0.1500 
 14 C       -4.6680     1.2290     0.3010 C.3   1 <1>   0.2000 
 15 C       -2.6160     2.1850     0.1830 C.3   1 <1>  -0.1600 
 16 C       -3.7740    -0.7910     0.0590 C.3   1 <1>  -0.1600 
 17 C        2.1230    -1.7480     3.0580 C.ar  1 <1>   0.1900 
 18 O       -4.8910     1.3640     1.6810 O.3   1 <1>  -0.5600 
 19 C       -5.7650     0.3320    -0.2840 C.3   1 <1>  -0.1600 
 20 C       -5.0160    -0.8510    -0.8000 C.3   1 <1>  -0.1600 
 21 F        2.4880    -2.2390     4.2100 F     1 <1>  -0.1900 
 22 C       -5.8360     2.3200     2.0470 C.3   1 <1>   0.0400 
 23 H       -1.7940    -0.5970    -1.0450 H     1 <1>   0.0800 
 24 H       -1.4200    -0.5020     0.6570 H     1 <1>   0.0800 
 25 H       -0.0950     2.3740    -2.0130 H     1 <1>   0.0800 
 26 H       -1.2990     1.2050    -2.5100 H     1 <1>   0.0800 
 27 H        1.5970    -2.7020    -0.1160 H     1 <1>   0.1500 
 28 H        1.2060     1.1570     1.6480 H     1 <1>   0.1500 
 29 H       -1.5950     3.6800    -0.9710 H     1 <1>   0.0800 
 30 H       -2.7950     2.8180    -1.8820 H     1 <1>   0.0800 
 31 H        2.2870    -3.6320     2.0710 H     1 <1>   0.1500 
 32 H        1.8960     0.2260     3.8380 H     1 <1>   0.1500 
 33 H       -4.8580     2.1760    -0.1790 H     1 <1>   0.0800 
 34 H       -3.2540     2.9710     0.5560 H     1 <1>   0.0800 
 35 H       -1.8550     2.2040     0.9480 H     1 <1>   0.0800 
 36 H       -3.1860    -1.6470    -0.2330 H     1 <1>   0.0800 
 37 H       -4.0560    -1.0320     1.0740 H     1 <1>   0.0800 
 38 H       -6.4640     0.0260     0.4750 H     1 <1>   0.0800 
 39 H       -6.2900     0.8210    -1.0860 H     1 <1>   0.0800 
 40 H       -5.5650    -1.7670    -0.6660 H     1 <1>   0.0800 
 41 H       -4.7570    -0.7210    -1.8380 H     1 <1>   0.0800 
 42 H       -5.9240     2.3080     3.1190 H     1 <1>   0.0800 
 43 H       -6.7870     2.0780     1.6050 H     1 <1>   0.0800 
 44 H       -5.5030     3.2910     1.7230 H     1 <1>   0.0800 
@<TRIPOS>BOND
  1   1   2  2   
  2   1   3  2   
  3   1   4  am  
  4   1   5  1   
  5   4   6  1   
  6   4   7  1   
  7   5   8  ar  
  8   5   9  ar  
  9   6  10  1   
 10   6  23  1   
 11   6  24  1   
 12   7  11  1   
 13   7  25  1   
 14   7  26  1   
 15   8  12  ar  
 16   8  27  1   
 17   9  13  ar  
 18   9  28  1   
 19  10  14  1   
 20  10  15  1   
 21  10  16  1   
 22  11  15  1   
 23  11  29  1   
 24  11  30  1   
 25  12  17  ar  
 26  12  31  1   
 27  13  17  ar  
 28  13  32  1   
 29  14  18  1   
 30  14  19  1   
 31  14  33  1   
 32  15  34  1   
 33  15  35  1   
 34  16  20  1   
 35  16  36  1   
 36  16  37  1   
 37  17  21  1   
 38  18  22  1   
 39  19  20  1   
 40  19  38  1   
 41  19  39  1   
 42  20  40  1   
 43  20  41  1   
 44  22  42  1   
 45  22  43  1   
 46  22  44  1   
@<TRIPOS>SUBSTRUCTURE
  1 ****   6 GROUP 4 **** **** 0

# MOE 2024.06 (io_trps.svl 2023.06)
