@<TRIPOS>MOLECULE
NONAME
51 52 1 0 0 
SMALL
USER_CHARGES


@<TRIPOS>ATOM
  1 S       -0.0670     0.9550    -1.1870 S.o2  1 <1>   1.3330 
  2 O        0.5420     0.5100    -2.4190 O.2   1 <1>  -0.6500 
  3 O       -0.8890     2.1440    -1.1780 O.2   1 <1>  -0.6500 
  4 N        1.1710     1.1530    -0.0430 N.am  1 <1>  -0.8490 
  5 C       -1.0380    -0.3700    -0.4990 C.3   1 <1>  -0.1350 
  6 C        1.7460     2.5060    -0.1210 C.3   1 <1>   0.1960 
  7 C        2.2270     0.1360    -0.1740 C.3   1 <1>   0.1160 
  8 C        2.5850     2.8660     1.1120 C.3   1 <1>   0.1400 
  9 N        2.8970     4.3130     1.0870 N.am  1 <1>  -0.7300 
 10 C        3.9200     4.8980     0.4090 C.2   1 <1>   0.7160 
 11 O        4.7980     4.1810    -0.0330 O.2   1 <1>  -0.5700 
 12 C        3.9170     6.3150     0.2020 C.2   1 <1>  -0.0860 
 13 C        2.7960     7.1500     0.3150 C.2   1 <1>   0.3720 
 14 C        4.9190     7.1840    -0.1070 C.2   1 <1>   0.0870 
 15 N        3.1080     8.3800     0.1110 N.2   1 <1>  -0.4100 
 16 N        1.4840     6.7250     0.5910 N.pl3 1 <1>  -0.8210 
 17 O        4.3890     8.3810    -0.1390 O.3   1 <1>  -0.0190 
 18 C        6.3280     7.0360    -0.3670 C.ar  1 <1>   0.0530 
 19 C        0.7050     7.6560     1.4570 C.3   1 <1>   0.1290 
 20 C        0.7210     6.3580    -0.6350 C.3   1 <1>   0.1290 
 21 C        7.2510     7.8750     0.2590 C.ar  1 <1>  -0.1500 
 22 C        6.8180     6.0750    -1.2530 C.ar  1 <1>  -0.1500 
 23 C        8.6150     7.7770     0.0380 C.ar  1 <1>   0.0820 
 24 C        8.1730     5.9480    -1.4960 C.ar  1 <1>  -0.1500 
 25 O        9.3850     8.6680     0.7270 O.3   1 <1>  -0.3630 
 26 C        9.0580     6.7930    -0.8540 C.ar  1 <1>   0.1900 
 27 C       10.7930     8.6890     0.6490 C.3   1 <1>   0.0400 
 28 F       10.3260     6.6240    -1.1280 F     1 <1>  -0.1900 
 29 H       -1.8850    -0.5640    -1.1270 H     1 <1>   0.0800 
 30 H       -1.3880    -0.0990     0.4770 H     1 <1>   0.0800 
 31 H       -0.4540    -1.2650    -0.4240 H     1 <1>   0.0800 
 32 H        0.9500     3.2280    -0.1710 H     1 <1>   0.0800 
 33 H        2.3420     2.6030    -1.0140 H     1 <1>   0.0800 
 34 H        1.7990    -0.8510    -0.1530 H     1 <1>   0.0800 
 35 H        2.9280     0.2090     0.6390 H     1 <1>   0.0800 
 36 H        2.7560     0.2590    -1.1050 H     1 <1>   0.0800 
 37 H        3.5040     2.3050     1.1160 H     1 <1>   0.0800 
 38 H        2.0310     2.6420     2.0060 H     1 <1>   0.0800 
 39 H        2.1150     4.9560     1.2920 H     1 <1>   0.3700 
 40 H        1.2990     7.9470     2.3070 H     1 <1>   0.0800 
 41 H       -0.1890     7.1710     1.8090 H     1 <1>   0.0800 
 42 H        0.4370     8.5410     0.9050 H     1 <1>   0.0800 
 43 H        1.3130     5.7140    -1.2620 H     1 <1>   0.0800 
 44 H        0.4670     7.2440    -1.1920 H     1 <1>   0.0800 
 45 H       -0.1830     5.8380    -0.3660 H     1 <1>   0.0800 
 46 H        6.8960     8.6280     0.9400 H     1 <1>   0.1500 
 47 H        6.1290     5.4210    -1.7570 H     1 <1>   0.1500 
 48 H        8.5410     5.2010    -2.1760 H     1 <1>   0.1500 
 49 H       11.1520     9.4680     1.2980 H     1 <1>   0.0800 
 50 H       11.0840     8.8980    -0.3650 H     1 <1>   0.0800 
 51 H       11.1770     7.7390     0.9740 H     1 <1>   0.0800 
@<TRIPOS>BOND
  1   1   2  2   
  2   1   3  2   
  3   1   4  am  
  4   1   5  1   
  5   4   6  1   
  6   4   7  1   
  7   5  29  1   
  8   5  30  1   
  9   5  31  1   
 10   6   8  1   
 11   6  32  1   
 12   6  33  1   
 13   7  34  1   
 14   7  35  1   
 15   7  36  1   
 16   8   9  1   
 17   8  37  1   
 18   8  38  1   
 19   9  10  am  
 20   9  39  1   
 21  10  11  2   
 22  10  12  1   
 23  12  13  1   
 24  12  14  2   
 25  13  15  2   
 26  13  16  1   
 27  14  17  1   
 28  14  18  1   
 29  15  17  1   
 30  16  19  1   
 31  16  20  1   
 32  18  21  ar  
 33  18  22  ar  
 34  19  40  1   
 35  19  41  1   
 36  19  42  1   
 37  20  43  1   
 38  20  44  1   
 39  20  45  1   
 40  21  23  ar  
 41  21  46  1   
 42  22  24  ar  
 43  22  47  1   
 44  23  25  1   
 45  23  26  ar  
 46  24  26  ar  
 47  24  48  1   
 48  25  27  1   
 49  26  28  1   
 50  27  49  1   
 51  27  50  1   
 52  27  51  1   
@<TRIPOS>SUBSTRUCTURE
  1 ****  10 GROUP 4 **** **** 0

# MOE 2024.06 (io_trps.svl 2023.06)
