@<TRIPOS>MOLECULE
NONAME
58 61 1 0 0 
SMALL
USER_CHARGES


@<TRIPOS>ATOM
  1 O       -3.6970    -0.2640    -2.2700 O.2   1 <1>  -0.5700 
  2 C       -3.4800     0.5080    -1.3580 C.2   1 <1>   0.7060 
  3 O       -3.5210     1.8140    -1.6480 O.3   1 <1>  -0.2320 
  4 C       -3.1910     0.1170    -0.0080 C.2   1 <1>   0.0290 
  5 C       -3.2770     2.7870    -0.7440 C.ar  1 <1>   0.0830 
  6 C       -3.1790    -1.2840     0.2920 C.2   1 <1>   0.6160 
  7 C       -2.9280     1.0730     0.9250 C.2   1 <1>  -0.1780 
  8 C       -2.9670     2.4500     0.5790 C.ar  1 <1>   0.0280 
  9 C       -3.3380     4.1110    -1.1420 C.ar  1 <1>  -0.1500 
 10 O       -2.1330    -1.8120     0.6220 O.2   1 <1>  -0.5700 
 11 N       -4.3290    -2.0350     0.2950 N.am  1 <1>  -0.6600 
 12 C       -2.7180     3.4840     1.4830 C.ar  1 <1>  -0.1500 
 13 C       -3.0910     5.1290    -0.2380 C.ar  1 <1>   0.0830 
 14 C       -5.6990    -1.5310     0.0590 C.3   1 <1>   0.1400 
 15 C       -4.3370    -3.4970     0.5140 C.3   1 <1>   0.1400 
 16 C       -2.7780     4.8040     1.0840 C.ar  1 <1>  -0.1500 
 17 O       -3.1750     6.3930    -0.7110 O.3   1 <1>  -0.3620 
 18 C       -6.6170    -2.6330     0.6040 C.3   1 <1>  -0.0800 
 19 C       -5.8040    -3.9270     0.4050 C.3   1 <1>  -0.0800 
 20 C       -2.9070     7.5460     0.0570 C.3   1 <1>   0.2000 
 21 C       -8.0680    -2.6660     0.0330 C.3   1 <1>   0.2800 
 22 C       -6.1290    -4.5690    -0.9530 C.3   1 <1>  -0.1600 
 23 C       -3.5870     8.7180    -0.6450 C.3   1 <1>  -0.2400 
 24 C       -1.3930     7.7510     0.1310 C.3   1 <1>  -0.2400 
 25 O       -8.1020    -2.0860    -1.2210 O.3   1 <1>  -0.6800 
 26 C       -8.5370    -4.1220    -0.1460 C.3   1 <1>  -0.1600 
 27 C       -9.0740    -1.8920     0.9120 C.3   1 <1>  -0.1600 
 28 C       -7.6140    -4.9620    -1.0570 C.3   1 <1>  -0.1600 
 29 C       -8.7730    -0.3940     1.1050 C.3   1 <1>  -0.2400 
 30 H       -2.6850     0.8070     1.9400 H     1 <1>   0.1500 
 31 H       -3.5780     4.3550    -2.1610 H     1 <1>   0.1500 
 32 H       -2.4750     3.2430     2.5030 H     1 <1>   0.1500 
 33 H       -5.8640    -0.5930     0.5580 H     1 <1>   0.0800 
 34 H       -5.8250    -1.4020    -1.0030 H     1 <1>   0.0800 
 35 H       -3.7170    -3.9870    -0.2170 H     1 <1>   0.0800 
 36 H       -3.9550    -3.7040     1.4990 H     1 <1>   0.0800 
 37 H       -2.5790     5.5710     1.8080 H     1 <1>   0.1500 
 38 H       -6.6840    -2.4880     1.6680 H     1 <1>   0.0800 
 39 H       -6.0240    -4.6380     1.1820 H     1 <1>   0.0800 
 40 H       -3.3400     7.4230     1.0350 H     1 <1>   0.0800 
 41 H       -5.9000    -3.8610    -1.7330 H     1 <1>   0.0800 
 42 H       -5.5140    -5.4380    -1.1140 H     1 <1>   0.0800 
 43 H       -3.1940     8.8390    -1.6390 H     1 <1>   0.0800 
 44 H       -3.4190     9.6250    -0.0950 H     1 <1>   0.0800 
 45 H       -4.6470     8.5460    -0.7010 H     1 <1>   0.0800 
 46 H       -0.9840     7.8560    -0.8580 H     1 <1>   0.0800 
 47 H       -0.9190     6.9210     0.6200 H     1 <1>   0.0800 
 48 H       -1.1710     8.6420     0.6890 H     1 <1>   0.0800 
 49 H       -8.9850    -2.2090    -1.6110 H     1 <1>   0.4000 
 50 H       -8.5570    -4.5830     0.8260 H     1 <1>   0.0800 
 51 H       -9.5430    -4.1520    -0.5240 H     1 <1>   0.0800 
 52 H      -10.0570    -1.9910     0.4870 H     1 <1>   0.0800 
 53 H       -9.1100    -2.3550     1.8830 H     1 <1>   0.0800 
 54 H       -7.7310    -6.0010    -0.8010 H     1 <1>   0.0800 
 55 H       -7.9220    -4.8460    -2.0820 H     1 <1>   0.0800 
 56 H       -8.6820     0.1020     0.1540 H     1 <1>   0.0800 
 57 H       -7.8640    -0.2530     1.6600 H     1 <1>   0.0800 
 58 H       -9.5740     0.0700     1.6530 H     1 <1>   0.0800 
@<TRIPOS>BOND
  1   1   2  2   
  2   2   3  1   
  3   2   4  1   
  4   3   5  1   
  5   4   6  1   
  6   4   7  2   
  7   5   8  ar  
  8   5   9  ar  
  9   6  10  2   
 10   6  11  am  
 11   7   8  1   
 12   7  30  1   
 13   8  12  ar  
 14   9  13  ar  
 15   9  31  1   
 16  11  14  1   
 17  11  15  1   
 18  12  16  ar  
 19  12  32  1   
 20  13  16  ar  
 21  13  17  1   
 22  14  18  1   
 23  14  33  1   
 24  14  34  1   
 25  15  19  1   
 26  15  35  1   
 27  15  36  1   
 28  16  37  1   
 29  17  20  1   
 30  18  19  1   
 31  18  21  1   
 32  18  38  1   
 33  19  22  1   
 34  19  39  1   
 35  20  23  1   
 36  20  24  1   
 37  20  40  1   
 38  21  25  1   
 39  21  26  1   
 40  21  27  1   
 41  22  28  1   
 42  22  41  1   
 43  22  42  1   
 44  23  43  1   
 45  23  44  1   
 46  23  45  1   
 47  24  46  1   
 48  24  47  1   
 49  24  48  1   
 50  25  49  1   
 51  26  28  1   
 52  26  50  1   
 53  26  51  1   
 54  27  29  1   
 55  27  52  1   
 56  27  53  1   
 57  28  54  1   
 58  28  55  1   
 59  29  56  1   
 60  29  57  1   
 61  29  58  1   
@<TRIPOS>SUBSTRUCTURE
  1 ****   4 GROUP 4 **** **** 0

# MOE 2024.06 (io_trps.svl 2023.06)
