@<TRIPOS>MOLECULE
NONAME
67 70 1 0 0 
SMALL
USER_CHARGES


@<TRIPOS>ATOM
  1 O        0.2380    -1.9050     0.6900 O.2   1 <1>  -0.5700 
  2 C        0.0050    -1.7040    -0.4790 C.2   1 <1>   0.5690 
  3 N        0.9510    -1.2050    -1.3230 N.am  1 <1>  -0.7300 
  4 C       -1.4190    -1.9840    -1.0020 C.3   1 <1>   0.4040 
  5 C        2.3300    -0.8520    -0.9240 C.3   1 <1>   0.2200 
  6 N       -2.5410    -1.6540    -0.0440 N.4   1 <1>  -0.9590 
  7 C        2.4590     0.6840    -0.9440 C.3   1 <1>  -0.1600 
  8 C        3.2980    -1.5610    -1.8810 C.3   1 <1>  -0.1600 
  9 C       -2.4320    -0.2630     0.5040 C.3   1 <1>   0.3430 
 10 C       -2.6480    -2.6430     1.0650 C.3   1 <1>   0.3430 
 11 C        2.9150     1.2620     0.4040 C.3   1 <1>  -0.1600 
 12 C        4.6830    -1.8470    -1.2760 C.3   1 <1>  -0.1600 
 13 C       -3.7200     0.1190     1.2580 C.3   1 <1>   0.1430 
 14 C       -3.9190    -2.3640     1.8760 C.3   1 <1>  -0.1600 
 15 C        4.4370     1.2760     0.6070 C.3   1 <1>  -0.1600 
 16 C        5.4760    -0.6090    -0.8290 C.3   1 <1>  -0.1600 
 17 C       -4.8730     0.2060     0.2700 C.ar  1 <1>   0.1670 
 18 C       -3.9980    -0.9090     2.3780 C.3   1 <1>  -0.1600 
 19 C       -3.6660     1.5600     1.8290 C.3   1 <1>  -0.1600 
 20 C        5.1190    -0.1010     0.5830 C.3   1 <1>  -0.1600 
 21 N       -5.1490    -0.6850    -0.6540 N.ar  1 <1>  -0.6200 
 22 C       -5.5850     1.3550     0.4310 C.ar  1 <1>  -0.1430 
 23 C       -5.0420     2.1980     1.5570 C.3   1 <1>  -0.0170 
 24 C       -6.1880    -0.3810    -1.4350 C.ar  1 <1>   0.7200 
 25 C       -6.6390     1.5780    -0.4200 C.ar  1 <1>   0.1600 
 26 N       -6.9430     0.7150    -1.3620 N.ar  1 <1>  -0.6200 
 27 N       -6.4860    -1.2970    -2.4140 N.pl3 1 <1>  -0.8380 
 28 C       -7.1750    -0.8590    -3.6600 C.3   1 <1>   0.1290 
 29 C       -6.7130    -2.7220    -2.0550 C.3   1 <1>   0.1290 
 30 H        0.7660    -1.0390    -2.3140 H     1 <1>   0.3700 
 31 H       -1.4760    -3.0250    -1.2700 H     1 <1>   0.0800 
 32 H       -1.5550    -1.4100    -1.9020 H     1 <1>   0.0800 
 33 H        2.5020    -1.2250     0.0730 H     1 <1>   0.0800 
 34 H       -3.4530    -1.6630    -0.5520 H     1 <1>   0.4500 
 35 H        1.5030     1.1220    -1.1710 H     1 <1>   0.0800 
 36 H        3.1360     1.0080    -1.7140 H     1 <1>   0.0800 
 37 H        3.4120    -0.9910    -2.7860 H     1 <1>   0.0800 
 38 H        2.8810    -2.5160    -2.1500 H     1 <1>   0.0800 
 39 H       -2.2840     0.4360    -0.3020 H     1 <1>   0.0800 
 40 H       -1.5890    -0.2000     1.1740 H     1 <1>   0.0800 
 41 H       -1.7840    -2.5670     1.7070 H     1 <1>   0.0800 
 42 H       -2.6890    -3.6440     0.6680 H     1 <1>   0.0800 
 43 H        2.4420     0.7320     1.2140 H     1 <1>   0.0800 
 44 H        2.5770     2.2830     0.4610 H     1 <1>   0.0800 
 45 H        5.2620    -2.3520    -2.0310 H     1 <1>   0.0800 
 46 H        4.5870    -2.5340    -0.4520 H     1 <1>   0.0800 
 47 H       -3.9470    -3.0320     2.7200 H     1 <1>   0.0800 
 48 H       -4.7790    -2.5890     1.2690 H     1 <1>   0.0800 
 49 H        4.6240     1.7160     1.5730 H     1 <1>   0.0800 
 50 H        4.8970     1.9250    -0.1180 H     1 <1>   0.0800 
 51 H        5.3940     0.1730    -1.5630 H     1 <1>   0.0800 
 52 H        6.5150    -0.8940    -0.8090 H     1 <1>   0.0800 
 53 H       -4.9700    -0.7290     2.8070 H     1 <1>   0.0800 
 54 H       -3.2690    -0.7820     3.1600 H     1 <1>   0.0800 
 55 H       -2.9250     2.1330     1.2980 H     1 <1>   0.0800 
 56 H       -3.4230     1.5860     2.8770 H     1 <1>   0.0800 
 57 H        4.5330    -0.8200     1.1280 H     1 <1>   0.0800 
 58 H        6.0450     0.0000     1.1240 H     1 <1>   0.0800 
 59 H       -4.9540     3.2340     1.2770 H     1 <1>   0.0800 
 60 H       -5.6830     2.1070     2.4180 H     1 <1>   0.0800 
 61 H       -7.2350     2.4700    -0.3330 H     1 <1>   0.1500 
 62 H       -6.8480     0.1300    -3.9350 H     1 <1>   0.0800 
 63 H       -8.2400    -0.8400    -3.5010 H     1 <1>   0.0800 
 64 H       -6.9450    -1.5330    -4.4660 H     1 <1>   0.0800 
 65 H       -6.4080    -2.9140    -1.0410 H     1 <1>   0.0800 
 66 H       -6.1490    -3.3560    -2.7170 H     1 <1>   0.0800 
 67 H       -7.7590    -2.9590    -2.1460 H     1 <1>   0.0800 
@<TRIPOS>BOND
  1   1   2  2   
  2   2   3  am  
  3   2   4  1   
  4   3   5  1   
  5   3  30  1   
  6   4   6  1   
  7   4  31  1   
  8   4  32  1   
  9   5   7  1   
 10   5   8  1   
 11   5  33  1   
 12   6   9  1   
 13   6  10  1   
 14   6  34  1   
 15   7  11  1   
 16   7  35  1   
 17   7  36  1   
 18   8  12  1   
 19   8  37  1   
 20   8  38  1   
 21   9  13  1   
 22   9  39  1   
 23   9  40  1   
 24  10  14  1   
 25  10  41  1   
 26  10  42  1   
 27  11  15  1   
 28  11  43  1   
 29  11  44  1   
 30  12  16  1   
 31  12  45  1   
 32  12  46  1   
 33  13  17  1   
 34  13  18  1   
 35  13  19  1   
 36  14  18  1   
 37  14  47  1   
 38  14  48  1   
 39  15  20  1   
 40  15  49  1   
 41  15  50  1   
 42  16  20  1   
 43  16  51  1   
 44  16  52  1   
 45  17  21  ar  
 46  17  22  ar  
 47  18  53  1   
 48  18  54  1   
 49  19  23  1   
 50  19  55  1   
 51  19  56  1   
 52  20  57  1   
 53  20  58  1   
 54  21  24  ar  
 55  22  23  1   
 56  22  25  ar  
 57  23  59  1   
 58  23  60  1   
 59  24  26  ar  
 60  24  27  1   
 61  25  26  ar  
 62  25  61  1   
 63  27  28  1   
 64  27  29  1   
 65  28  62  1   
 66  28  63  1   
 67  28  64  1   
 68  29  65  1   
 69  29  66  1   
 70  29  67  1   
@<TRIPOS>SUBSTRUCTURE
  1 ****   9 GROUP 4 **** **** 0

# MOE 2024.06 (io_trps.svl 2023.06)
