@<TRIPOS>MOLECULE
NONAME
50 51 1 0 0 
SMALL
USER_CHARGES


@<TRIPOS>ATOM
  1 O        0.4940    -0.2560    -0.4240 O.2   1 <1>  -0.5700 
  2 C        1.5330    -0.6360     0.0710 C.2   1 <1>   0.5440 
  3 N        1.5710    -1.9400     0.4310 N.am  1 <1>  -0.8000 
  4 C        2.6680     0.2540     0.2460 C.ar  1 <1>   0.0860 
  5 C        3.6950    -0.0180     1.1550 C.ar  1 <1>  -0.1500 
  6 C        2.7770     1.4310    -0.4970 C.ar  1 <1>  -0.1500 
  7 C        4.7740     0.8330     1.3020 C.ar  1 <1>  -0.1500 
  8 C        3.8520     2.2900    -0.3570 C.ar  1 <1>  -0.1500 
  9 C        4.8660     1.9920     0.5490 C.ar  1 <1>   0.0820 
 10 O        5.9530     2.7700     0.7510 O.3   1 <1>  -0.3630 
 11 C        6.1450     3.9750     0.0550 C.3   1 <1>   0.1200 
 12 C        7.4630     4.5710     0.5480 C.3   1 <1>  -0.1600 
 13 C        7.7660     5.8880    -0.1650 C.3   1 <1>   0.3430 
 14 N        8.9540     6.5710     0.4390 N.4   1 <1>  -0.9590 
 15 C        9.1830     7.9960    -0.0150 C.3   1 <1>   0.4230 
 16 C       10.2050     5.7550     0.3600 C.3   1 <1>   0.5610 
 17 C       10.1460     8.7010     0.9670 C.3   1 <1>  -0.0220 
 18 C        7.8770     8.8070    -0.1610 C.3   1 <1>  -0.0220 
 19 C       11.3030     6.4900     1.0980 C.2   1 <1>  -0.2880 
 20 C       10.6360     5.4850    -1.0820 C.3   1 <1>  -0.2400 
 21 C       11.2860     7.7930     1.3880 C.2   1 <1>  -0.2880 
 22 C        8.1370    10.2560    -0.5410 C.2   1 <1>  -0.2880 
 23 C        7.8270    11.3090     0.2200 C.2   1 <1>  -0.3000 
 24 H        0.7500    -2.5170     0.2480 H     1 <1>   0.3700 
 25 H        2.4160    -2.4240     0.7290 H     1 <1>   0.3700 
 26 H        3.6470    -0.9030     1.7630 H     1 <1>   0.1500 
 27 H        1.9960     1.6700    -1.2000 H     1 <1>   0.1500 
 28 H        5.5530     0.6050     2.0070 H     1 <1>   0.1500 
 29 H        3.8790     3.1780    -0.9590 H     1 <1>   0.1500 
 30 H        6.1830     3.7520    -0.9980 H     1 <1>   0.0800 
 31 H        5.3130     4.6250     0.2720 H     1 <1>   0.0800 
 32 H        7.3800     4.7400     1.6080 H     1 <1>   0.0800 
 33 H        8.2390     3.8520     0.3560 H     1 <1>   0.0800 
 34 H        6.9000     6.5220    -0.0680 H     1 <1>   0.0800 
 35 H        7.9330     5.7110    -1.2150 H     1 <1>   0.0800 
 36 H        8.7910     6.6500     1.4490 H     1 <1>   0.4500 
 37 H        9.6610     7.9750    -0.9810 H     1 <1>   0.0800 
 38 H       10.0420     4.8120     0.8580 H     1 <1>   0.0800 
 39 H       10.5550     9.5740     0.4900 H     1 <1>   0.0800 
 40 H        9.6140     9.0310     1.8430 H     1 <1>   0.0800 
 41 H        7.2620     8.3880    -0.9370 H     1 <1>   0.0800 
 42 H        7.3300     8.7800     0.7650 H     1 <1>   0.0800 
 43 H       12.1220     5.8450     1.3720 H     1 <1>   0.1500 
 44 H       10.8560     6.3980    -1.6050 H     1 <1>   0.0800 
 45 H        9.8930     4.9260    -1.6180 H     1 <1>   0.0800 
 46 H       11.5360     4.8960    -1.0710 H     1 <1>   0.0800 
 47 H       12.0730     8.2970     1.9300 H     1 <1>   0.1500 
 48 H        8.6020    10.3710    -1.5090 H     1 <1>   0.1500 
 49 H        8.0160    12.3310    -0.0680 H     1 <1>   0.1500 
 50 H        7.3580    11.2560     1.1880 H     1 <1>   0.1500 
@<TRIPOS>BOND
  1   1   2  2   
  2   2   3  am  
  3   2   4  1   
  4   3  24  1   
  5   3  25  1   
  6   4   5  ar  
  7   4   6  ar  
  8   5   7  ar  
  9   5  26  1   
 10   6   8  ar  
 11   6  27  1   
 12   7   9  ar  
 13   7  28  1   
 14   8   9  ar  
 15   8  29  1   
 16   9  10  1   
 17  10  11  1   
 18  11  12  1   
 19  11  30  1   
 20  11  31  1   
 21  12  13  1   
 22  12  32  1   
 23  12  33  1   
 24  13  14  1   
 25  13  34  1   
 26  13  35  1   
 27  14  15  1   
 28  14  16  1   
 29  14  36  1   
 30  15  17  1   
 31  15  18  1   
 32  15  37  1   
 33  16  19  1   
 34  16  20  1   
 35  16  38  1   
 36  17  21  1   
 37  17  39  1   
 38  17  40  1   
 39  18  22  1   
 40  18  41  1   
 41  18  42  1   
 42  19  21  2   
 43  19  43  1   
 44  20  44  1   
 45  20  45  1   
 46  20  46  1   
 47  21  47  1   
 48  22  23  2   
 49  22  48  1   
 50  23  49  1   
 51  23  50  1   
@<TRIPOS>SUBSTRUCTURE
  1 ****  11 GROUP 4 **** **** 0

# MOE 2024.06 (io_trps.svl 2023.06)
