@<TRIPOS>MOLECULE
NONAME
47 49 1 0 0 
SMALL
USER_CHARGES


@<TRIPOS>ATOM
  1 O       -0.0800     2.1830    -0.9160 O.2   1 <1>  -0.5700 
  2 C       -0.6190     3.2510    -0.7450 C.2   1 <1>   0.5690 
  3 N       -1.6760     3.4340     0.1120 N.am  1 <1>  -0.6600 
  4 C       -0.0410     4.4380    -1.5220 C.3   1 <1>   0.1810 
  5 C       -2.3170     4.7780     0.2490 C.3   1 <1>   0.3640 
  6 C       -2.2940     2.3660     0.9430 C.3   1 <1>   0.2200 
  7 O       -0.8630     5.5880    -1.5560 O.3   1 <1>  -0.5600 
  8 C       -3.6940     4.7590    -0.4160 C.ar  1 <1>  -0.1440 
  9 C       -1.4560     5.9370    -0.3130 C.3   1 <1>   0.2610 
 10 C       -1.2870     1.8400     1.9640 C.3   1 <1>  -0.2400 
 11 C       -2.8690     1.2510     0.0680 C.3   1 <1>  -0.2400 
 12 C       -4.8180     5.1160     0.3170 C.ar  1 <1>  -0.1500 
 13 C       -3.8490     4.3950    -1.7470 C.ar  1 <1>  -0.1500 
 14 C       -0.4170     6.4520     0.6940 C.2   1 <1>   0.5690 
 15 C       -6.0720     5.1090    -0.2690 C.ar  1 <1>  -0.1500 
 16 C       -5.1010     4.3870    -2.3350 C.ar  1 <1>  -0.1500 
 17 O       -0.6150     6.3340     1.8810 O.2   1 <1>  -0.5700 
 18 N        0.6980     7.0640     0.2160 N.am  1 <1>  -0.6550 
 19 C       -6.2140     4.7440    -1.5960 C.ar  1 <1>  -0.1500 
 20 C        1.8060     7.5990     1.0300 C.3   1 <1>   0.2250 
 21 C        2.3170     8.9730     0.5260 C.3   1 <1>   0.0000 
 22 C        3.1830     7.0130     0.6290 C.3   1 <1>   0.0000 
 23 C        3.7510     8.4460     0.7900 C.3   1 <1>   0.0000 
 24 H        0.1290     4.1360    -2.5390 H     1 <1>   0.0800 
 25 H        0.9050     4.7050    -1.0890 H     1 <1>   0.0800 
 26 H       -2.4750     4.9610     1.2980 H     1 <1>   0.0800 
 27 H       -3.1180     2.7910     1.4930 H     1 <1>   0.0800 
 28 H       -2.1130     6.7630    -0.5120 H     1 <1>   0.0800 
 29 H       -0.4760     1.3310     1.4770 H     1 <1>   0.0800 
 30 H       -1.7690     1.1450     2.6270 H     1 <1>   0.0800 
 31 H       -0.8960     2.6530     2.5490 H     1 <1>   0.0800 
 32 H       -2.0900     0.7210    -0.4490 H     1 <1>   0.0800 
 33 H       -3.5560     1.6620    -0.6490 H     1 <1>   0.0800 
 34 H       -3.4010     0.5470     0.6810 H     1 <1>   0.0800 
 35 H       -4.7280     5.4020     1.3510 H     1 <1>   0.1500 
 36 H       -2.9920     4.1120    -2.3340 H     1 <1>   0.1500 
 37 H       -6.9370     5.3860     0.3070 H     1 <1>   0.1500 
 38 H       -5.2080     4.1020    -3.3670 H     1 <1>   0.1500 
 39 H        0.8090     7.1470    -0.7980 H     1 <1>   0.3700 
 40 H       -7.1890     4.7380    -2.0520 H     1 <1>   0.1500 
 41 H        1.6250     7.5750     2.0910 H     1 <1>   0.0000 
 42 H        2.1320     9.1430    -0.5220 H     1 <1>   0.0000 
 43 H        2.0460     9.7990     1.1580 H     1 <1>   0.0000 
 44 H        3.5850     6.3150     1.3420 H     1 <1>   0.0000 
 45 H        3.2240     6.6700    -0.3920 H     1 <1>   0.0000 
 46 H        4.0880     8.6480     1.7930 H     1 <1>   0.0000 
 47 H        4.4630     8.7210     0.0320 H     1 <1>   0.0000 
@<TRIPOS>BOND
  1   1   2  2   
  2   2   3  am  
  3   2   4  1   
  4   3   5  1   
  5   3   6  1   
  6   4   7  1   
  7   4  24  1   
  8   4  25  1   
  9   5   8  1   
 10   5   9  1   
 11   5  26  1   
 12   6  10  1   
 13   6  11  1   
 14   6  27  1   
 15   7   9  1   
 16   8  12  ar  
 17   8  13  ar  
 18   9  14  1   
 19   9  28  1   
 20  10  29  1   
 21  10  30  1   
 22  10  31  1   
 23  11  32  1   
 24  11  33  1   
 25  11  34  1   
 26  12  15  ar  
 27  12  35  1   
 28  13  16  ar  
 29  13  36  1   
 30  14  17  2   
 31  14  18  am  
 32  15  19  ar  
 33  15  37  1   
 34  16  19  ar  
 35  16  38  1   
 36  18  20  1   
 37  18  39  1   
 38  19  40  1   
 39  20  21  1   
 40  20  22  1   
 41  20  41  1   
 42  21  23  1   
 43  21  42  1   
 44  21  43  1   
 45  22  23  1   
 46  22  44  1   
 47  22  45  1   
 48  23  46  1   
 49  23  47  1   
@<TRIPOS>SUBSTRUCTURE
  1 ****   9 GROUP 4 **** **** 0

# MOE 2024.06 (io_trps.svl 2023.06)
