@<TRIPOS>MOLECULE
NONAME
47 49 1 0 0 
SMALL
USER_CHARGES


@<TRIPOS>ATOM
  1 O        0.7160    -0.3850     1.3320 O.2   1 <1>  -0.5700 
  2 C        1.7110    -0.9100     0.8920 C.2   1 <1>   0.5690 
  3 N        2.9310    -0.2850     0.9470 N.am  1 <1>  -0.6600 
  4 C        1.5810    -2.2930     0.2600 C.3   1 <1>  -0.0990 
  5 C        3.0820     1.0590     1.5910 C.3   1 <1>   0.1400 
  6 C        4.2060    -0.7810     0.3380 C.3   1 <1>   0.1400 
  7 C        0.1710    -2.9110     0.3670 C.3   1 <1>  -0.1600 
  8 C        3.6420     2.0930     0.6000 C.3   1 <1>   0.2090 
  9 C        4.7870     0.2450    -0.6550 C.3   1 <1>   0.2090 
 10 C        0.1110    -4.2990    -0.2830 C.3   1 <1>   0.0960 
 11 N        4.9080     1.6070    -0.0420 N.pl3 1 <1>  -0.8380 
 12 N       -1.2490    -4.8630    -0.1860 N.pl3 1 <1>   0.0480 
 13 C        6.0710     2.3060    -0.0150 C.ar  1 <1>   0.1000 
 14 C       -1.7010    -5.8030     0.6750 C.2   1 <1>   0.0360 
 15 C       -2.3130    -4.5700    -0.9560 C.2   1 <1>  -0.3020 
 16 C        6.2100     3.5980    -0.5620 C.ar  1 <1>  -0.1440 
 17 C        7.2020     1.7360     0.5800 C.ar  1 <1>  -0.1500 
 18 N       -2.9440    -6.1190     0.5080 N.2   1 <1>  -0.5650 
 19 C       -3.3320    -5.3400    -0.5190 C.2   1 <1>   0.0770 
 20 C        7.4180     4.2470    -0.4780 C.ar  1 <1>   0.2110 
 21 C        5.0420     4.2760    -1.2760 C.3   1 <1>  -0.0970 
 22 C        8.3890     2.4160     0.6420 C.ar  1 <1>   0.2110 
 23 N        8.4870     3.6620     0.1180 N.ar  1 <1>  -0.1790 
 24 H        2.2840    -2.9470     0.7440 H     1 <1>   0.0800 
 25 H        1.8460    -2.2100    -0.7780 H     1 <1>   0.0800 
 26 H        3.7520     0.9750     2.4280 H     1 <1>   0.0800 
 27 H        2.1370     1.4120     1.9660 H     1 <1>   0.0800 
 28 H        4.0550    -1.7120    -0.1750 H     1 <1>   0.0800 
 29 H        4.9220    -0.9510     1.1220 H     1 <1>   0.0800 
 30 H       -0.5360    -2.2590    -0.1160 H     1 <1>   0.0800 
 31 H       -0.1020    -2.9900     1.4060 H     1 <1>   0.0800 
 32 H        3.8280     3.0130     1.1240 H     1 <1>   0.0800 
 33 H        2.9050     2.2830    -0.1610 H     1 <1>   0.0800 
 34 H        4.1390     0.3060    -1.5120 H     1 <1>   0.0800 
 35 H        5.7500    -0.0910    -0.9980 H     1 <1>   0.0800 
 36 H        0.7970    -4.9680     0.2050 H     1 <1>   0.0800 
 37 H        0.3760    -4.2340    -1.3230 H     1 <1>   0.0800 
 38 H       -1.0670    -6.2400     1.4260 H     1 <1>   0.1500 
 39 H       -2.2910    -3.8470    -1.7500 H     1 <1>   0.1500 
 40 H        7.1150     0.7510     1.0020 H     1 <1>   0.1500 
 41 H       -4.3410    -5.3760    -0.8950 H     1 <1>   0.1500 
 42 H        7.5420     5.2350    -0.8900 H     1 <1>   0.1500 
 43 H        4.5500     3.5740    -1.9270 H     1 <1>   0.0800 
 44 H        5.3740     5.1050    -1.8740 H     1 <1>   0.0800 
 45 H        4.3270     4.6390    -0.5600 H     1 <1>   0.0800 
 46 H        9.2570     1.9760     1.1060 H     1 <1>   0.1500 
 47 H        9.3790     4.1670     0.1680 H     1 <1>   0.4570 
@<TRIPOS>BOND
  1   1   2  2   
  2   2   3  am  
  3   2   4  1   
  4   3   5  1   
  5   3   6  1   
  6   4   7  1   
  7   4  24  1   
  8   4  25  1   
  9   5   8  1   
 10   5  26  1   
 11   5  27  1   
 12   6   9  1   
 13   6  28  1   
 14   6  29  1   
 15   7  10  1   
 16   7  30  1   
 17   7  31  1   
 18   8  11  1   
 19   8  32  1   
 20   8  33  1   
 21   9  11  1   
 22   9  34  1   
 23   9  35  1   
 24  10  12  1   
 25  10  36  1   
 26  10  37  1   
 27  11  13  1   
 28  12  14  1   
 29  12  15  1   
 30  13  16  ar  
 31  13  17  ar  
 32  14  18  2   
 33  14  38  1   
 34  15  19  2   
 35  15  39  1   
 36  16  20  ar  
 37  16  21  1   
 38  17  22  ar  
 39  17  40  1   
 40  18  19  1   
 41  19  41  1   
 42  20  23  ar  
 43  20  42  1   
 44  21  43  1   
 45  21  44  1   
 46  21  45  1   
 47  22  23  ar  
 48  22  46  1   
 49  23  47  1   
@<TRIPOS>SUBSTRUCTURE
  1 ****   3 GROUP 4 **** **** 0

# MOE 2024.06 (io_trps.svl 2023.06)
