@<TRIPOS>MOLECULE
NONAME
46 47 1 0 0 
SMALL
USER_CHARGES


@<TRIPOS>ATOM
  1 O        0.3400     3.0410    -1.5870 O.2   1 <1>  -0.5700 
  2 C        1.0830     3.9860    -1.5440 C.2   1 <1>   0.4230 
  3 C        2.3290     3.9690    -0.8160 C.ar  1 <1>   0.0860 
  4 C        0.6440     5.2220    -2.3070 C.3   1 <1>  -0.1790 
  5 C        3.1820     5.0720    -0.7230 C.ar  1 <1>   0.1600 
  6 C        2.7520     2.8200    -0.1530 C.ar  1 <1>  -0.1500 
  7 N        4.3320     5.1250    -0.0730 N.ar  1 <1>  -0.6200 
  8 C        3.9460     2.8490     0.5240 C.ar  1 <1>  -0.1500 
  9 C        4.7150     4.0130     0.5480 C.ar  1 <1>   0.4100 
 10 N        5.9200     4.0880     1.2210 N.pl3 1 <1>  -0.8380 
 11 C        7.1170     4.6920     0.5420 C.3   1 <1>   0.2090 
 12 C        6.2310     3.1720     2.3590 C.3   1 <1>   0.1290 
 13 C        7.4500     6.0900     1.1060 C.3   1 <1>   0.3430 
 14 N        6.1960     6.8800     1.3070 N.4   1 <1>  -0.9590 
 15 C        6.1140     8.1410     0.5270 C.3   1 <1>   0.4230 
 16 C        5.8950     7.0530     2.7560 C.3   1 <1>   0.2630 
 17 C        4.7030     8.7420     0.5810 C.3   1 <1>  -0.1600 
 18 C        6.3950     7.9270    -0.9590 C.3   1 <1>  -0.1600 
 19 C        4.3520     9.2000    -0.8400 C.3   1 <1>  -0.1600 
 20 C        5.6290     9.0440    -1.6600 C.3   1 <1>  -0.1600 
 21 H        1.3770     5.4820    -3.0480 H     1 <1>   0.0800 
 22 H        0.4980     6.0430    -1.6300 H     1 <1>   0.0800 
 23 H       -0.2880     5.0270    -2.8070 H     1 <1>   0.0800 
 24 H        2.8910     5.9770    -1.2240 H     1 <1>   0.1500 
 25 H        2.1480     1.9270    -0.1790 H     1 <1>   0.1500 
 26 H        4.2890     1.9670     1.0280 H     1 <1>   0.1500 
 27 H        6.9210     4.7800    -0.5130 H     1 <1>   0.0800 
 28 H        7.9700     4.0450     0.6520 H     1 <1>   0.0800 
 29 H        5.3340     2.9410     2.9080 H     1 <1>   0.0800 
 30 H        6.9280     3.6390     3.0330 H     1 <1>   0.0800 
 31 H        6.6610     2.2570     1.9870 H     1 <1>   0.0800 
 32 H        8.1170     6.5970     0.4310 H     1 <1>   0.0800 
 33 H        7.9600     5.9710     2.0460 H     1 <1>   0.0800 
 34 H        5.4590     6.2370     0.9290 H     1 <1>   0.4500 
 35 H        6.8150     8.8640     0.9120 H     1 <1>   0.0800 
 36 H        6.6400     7.6750     3.2240 H     1 <1>   0.0800 
 37 H        5.8830     6.0910     3.2430 H     1 <1>   0.0800 
 38 H        4.9280     7.5090     2.8860 H     1 <1>   0.0800 
 39 H        4.6950     9.5830     1.2520 H     1 <1>   0.0800 
 40 H        3.9730     8.0210     0.9060 H     1 <1>   0.0800 
 41 H        5.9950     6.9830    -1.2870 H     1 <1>   0.0800 
 42 H        7.4450     7.9820    -1.1860 H     1 <1>   0.0800 
 43 H        3.9940    10.2160    -0.8600 H     1 <1>   0.0800 
 44 H        3.5870     8.5590    -1.2460 H     1 <1>   0.0800 
 45 H        5.4210     8.8110    -2.6910 H     1 <1>   0.0800 
 46 H        6.1980     9.9580    -1.6170 H     1 <1>   0.0800 
@<TRIPOS>BOND
  1   1   2  2   
  2   2   3  1   
  3   2   4  1   
  4   3   5  ar  
  5   3   6  ar  
  6   4  21  1   
  7   4  22  1   
  8   4  23  1   
  9   5   7  ar  
 10   5  24  1   
 11   6   8  ar  
 12   6  25  1   
 13   7   9  ar  
 14   8   9  ar  
 15   8  26  1   
 16   9  10  1   
 17  10  11  1   
 18  10  12  1   
 19  11  13  1   
 20  11  27  1   
 21  11  28  1   
 22  12  29  1   
 23  12  30  1   
 24  12  31  1   
 25  13  14  1   
 26  13  32  1   
 27  13  33  1   
 28  14  15  1   
 29  14  16  1   
 30  14  34  1   
 31  15  17  1   
 32  15  18  1   
 33  15  35  1   
 34  16  36  1   
 35  16  37  1   
 36  16  38  1   
 37  17  19  1   
 38  17  39  1   
 39  17  40  1   
 40  18  20  1   
 41  18  41  1   
 42  18  42  1   
 43  19  20  1   
 44  19  43  1   
 45  19  44  1   
 46  20  45  1   
 47  20  46  1   
@<TRIPOS>SUBSTRUCTURE
  1 ****   7 GROUP 4 **** **** 0

# MOE 2024.06 (io_trps.svl 2023.06)
