@<TRIPOS>MOLECULE
NONAME
47 49 1 0 0 
SMALL
USER_CHARGES


@<TRIPOS>ATOM
  1 S        0.3240    -1.2150     2.4770 S.3   1 <1>  -0.0800 
  2 C        0.3250    -1.1310     0.7010 C.2   1 <1>  -0.0450 
  3 C        2.0800    -1.1500     2.5630 C.2   1 <1>  -0.1100 
  4 C        1.6140    -1.0470     0.2790 C.2   1 <1>   0.0620 
  5 C       -0.9360    -1.1560     0.0240 C.2   1 <1>   0.7150 
  6 C        2.5940    -1.0690     1.3240 C.2   1 <1>   0.0620 
  7 O        1.9930    -0.9420    -1.0120 O.3   1 <1>  -0.3420 
  8 O       -1.8230    -0.3920     0.3740 O.2   1 <1>  -0.5700 
  9 N       -1.2420    -2.0510    -0.9800 N.am  1 <1>  -0.6600 
 10 O        3.9240    -1.0110     1.0440 O.3   1 <1>  -0.3420 
 11 C        3.3240    -0.5250    -1.2610 C.3   1 <1>   0.1200 
 12 C       -0.3830    -3.2380    -1.2880 C.3   1 <1>   0.3210 
 13 C       -2.4740    -1.9060    -1.8230 C.3   1 <1>   0.1400 
 14 C        4.2940    -1.2370    -0.3050 C.3   1 <1>   0.1200 
 15 C       -0.7780    -4.4480    -0.4450 C.2   1 <1>   0.0460 
 16 C       -3.7380    -2.5510    -1.2120 C.3   1 <1>   0.3430 
 17 N       -1.9410    -5.1020    -0.6620 N.2   1 <1>  -0.5650 
 18 C       -0.0780    -5.0370     0.5550 C.2   1 <1>  -0.3320 
 19 N       -3.9950    -2.0970     0.1930 N.4   1 <1>  -0.9590 
 20 C       -1.9120    -6.0790     0.1850 C.2   1 <1>   0.0360 
 21 N       -0.8090    -6.0920     0.9600 N.pl3 1 <1>   0.0330 
 22 C        1.2700    -4.7060     1.1760 C.3   1 <1>  -0.0600 
 23 C       -3.5430    -3.1290     1.1710 C.3   1 <1>   0.2630 
 24 C       -5.4090    -1.6940     0.4230 C.3   1 <1>   0.2630 
 25 H        2.5460    -1.1770     3.5310 H     1 <1>   0.1500 
 26 H        3.3740     0.5400    -1.1200 H     1 <1>   0.0800 
 27 H        3.5580    -0.7560    -2.2850 H     1 <1>   0.0800 
 28 H        0.6500    -3.0140    -1.1190 H     1 <1>   0.0800 
 29 H       -0.4760    -3.4980    -2.3280 H     1 <1>   0.0800 
 30 H       -2.3000    -2.3410    -2.7920 H     1 <1>   0.0800 
 31 H       -2.6670    -0.8590    -1.9830 H     1 <1>   0.0800 
 32 H        4.2850    -2.2980    -0.4820 H     1 <1>   0.0800 
 33 H        5.2960    -0.8680    -0.4360 H     1 <1>   0.0800 
 34 H       -3.6440    -3.6230    -1.2420 H     1 <1>   0.0800 
 35 H       -4.5780    -2.2890    -1.8330 H     1 <1>   0.0800 
 36 H       -3.3740    -1.2690     0.3400 H     1 <1>   0.4500 
 37 H       -2.6800    -6.8280     0.2790 H     1 <1>   0.1500 
 38 H       -0.5690    -6.7770     1.6840 H     1 <1>   0.2700 
 39 H        1.7440    -3.8900     0.6630 H     1 <1>   0.0800 
 40 H        1.9240    -5.5590     1.1220 H     1 <1>   0.0800 
 41 H        1.1470    -4.4300     2.2080 H     1 <1>   0.0800 
 42 H       -4.0790    -4.0510     1.0190 H     1 <1>   0.0800 
 43 H       -3.7060    -2.7870     2.1790 H     1 <1>   0.0800 
 44 H       -2.4910    -3.3220     1.0430 H     1 <1>   0.0800 
 45 H       -6.0660    -2.5350     0.2760 H     1 <1>   0.0800 
 46 H       -5.6880    -0.9090    -0.2600 H     1 <1>   0.0800 
 47 H       -5.5300    -1.3290     1.4300 H     1 <1>   0.0800 
@<TRIPOS>BOND
  1   1   2  1   
  2   1   3  1   
  3   2   4  2   
  4   2   5  1   
  5   3   6  2   
  6   3  25  1   
  7   4   6  1   
  8   4   7  1   
  9   5   8  2   
 10   5   9  am  
 11   6  10  1   
 12   7  11  1   
 13   9  12  1   
 14   9  13  1   
 15  10  14  1   
 16  11  14  1   
 17  11  26  1   
 18  11  27  1   
 19  12  15  1   
 20  12  28  1   
 21  12  29  1   
 22  13  16  1   
 23  13  30  1   
 24  13  31  1   
 25  14  32  1   
 26  14  33  1   
 27  15  17  1   
 28  15  18  2   
 29  16  19  1   
 30  16  34  1   
 31  16  35  1   
 32  17  20  2   
 33  18  21  1   
 34  18  22  1   
 35  19  23  1   
 36  19  24  1   
 37  19  36  1   
 38  20  21  1   
 39  20  37  1   
 40  21  38  1   
 41  22  39  1   
 42  22  40  1   
 43  22  41  1   
 44  23  42  1   
 45  23  43  1   
 46  23  44  1   
 47  24  45  1   
 48  24  46  1   
 49  24  47  1   
@<TRIPOS>SUBSTRUCTURE
  1 ****   5 GROUP 4 **** **** 0

# MOE 2024.06 (io_trps.svl 2023.06)
