@<TRIPOS>MOLECULE
NONAME
39 41 1 0 0 
SMALL
USER_CHARGES


@<TRIPOS>ATOM
  1 S       -1.4980     1.4610    -0.2940 S.3   1 <1>  -0.0800 
  2 C       -2.0310    -0.0230     0.4810 C.2   1 <1>  -0.1400 
  3 C       -0.4130     0.5720    -1.3500 C.2   1 <1>  -0.1100 
  4 C       -1.4010    -1.0860    -0.0560 C.2   1 <1>  -0.1500 
  5 C       -3.0730     0.1090     1.5830 C.3   1 <1>   0.0810 
  6 C       -0.4820    -0.7470    -1.0980 C.2   1 <1>  -0.1500 
  7 C       -3.7170    -1.2220     1.9410 C.2   1 <1>   0.5690 
  8 O       -3.5020    -1.6870     3.0350 O.2   1 <1>  -0.5700 
  9 N       -4.5240    -1.8670     1.0410 N.am  1 <1>  -0.6600 
 10 C       -4.9200    -1.3780    -0.3040 C.3   1 <1>   0.1400 
 11 C       -4.9800    -3.2650     1.2390 C.3   1 <1>   0.1400 
 12 C       -5.9780    -2.3760    -0.7730 C.3   1 <1>   0.2000 
 13 C       -5.5760    -3.6970    -0.1110 C.3   1 <1>  -0.0800 
 14 O       -7.2030    -1.9920    -0.2540 O.3   1 <1>  -0.6800 
 15 C       -4.5540    -4.4500    -0.9870 C.3   1 <1>  -0.0170 
 16 C       -4.1640    -5.7920    -0.3900 C.ar  1 <1>   0.1670 
 17 N       -3.0080    -5.8370     0.2540 N.ar  1 <1>  -0.6200 
 18 C       -5.0100    -6.8810    -0.5410 C.ar  1 <1>  -0.1500 
 19 C       -2.6840    -7.0100     0.7730 C.ar  1 <1>   0.1600 
 20 C       -4.6590    -8.0980     0.0030 C.ar  1 <1>  -0.1500 
 21 C       -3.4600    -8.1530     0.6790 C.ar  1 <1>  -0.1500 
 22 H        0.1680     1.1410    -2.0540 H     1 <1>   0.1500 
 23 H       -1.5420    -2.1130     0.2410 H     1 <1>   0.1500 
 24 H       -2.6030     0.5180     2.4590 H     1 <1>   0.0800 
 25 H       -3.8420     0.7910     1.2750 H     1 <1>   0.0800 
 26 H        0.0830    -1.5120    -1.6030 H     1 <1>   0.1500 
 27 H       -5.3090    -0.3750    -0.2720 H     1 <1>   0.0800 
 28 H       -4.0680    -1.4150    -0.9600 H     1 <1>   0.0800 
 29 H       -4.1610    -3.8890     1.5530 H     1 <1>   0.0800 
 30 H       -5.7370    -3.2780     2.0050 H     1 <1>   0.0800 
 31 H       -6.0680    -2.4300    -1.8450 H     1 <1>   0.0800 
 32 H       -6.4330    -4.3310     0.0350 H     1 <1>   0.0800 
 33 H       -7.1020    -1.8350     0.7070 H     1 <1>   0.4000 
 34 H       -3.6660    -3.8560    -1.1200 H     1 <1>   0.0800 
 35 H       -4.9750    -4.6230    -1.9610 H     1 <1>   0.0800 
 36 H       -5.9350    -6.7800    -1.0780 H     1 <1>   0.1500 
 37 H       -1.7490    -7.0630     1.3030 H     1 <1>   0.1500 
 38 H       -5.2920    -8.9640    -0.0940 H     1 <1>   0.1500 
 39 H       -3.1260    -9.0700     1.1290 H     1 <1>   0.1500 
@<TRIPOS>BOND
  1   1   2  1   
  2   1   3  1   
  3   2   4  2   
  4   2   5  1   
  5   3   6  2   
  6   3  22  1   
  7   4   6  1   
  8   4  23  1   
  9   5   7  1   
 10   5  24  1   
 11   5  25  1   
 12   6  26  1   
 13   7   8  2   
 14   7   9  am  
 15   9  10  1   
 16   9  11  1   
 17  10  12  1   
 18  10  27  1   
 19  10  28  1   
 20  11  13  1   
 21  11  29  1   
 22  11  30  1   
 23  12  13  1   
 24  12  14  1   
 25  12  31  1   
 26  13  15  1   
 27  13  32  1   
 28  14  33  1   
 29  15  16  1   
 30  15  34  1   
 31  15  35  1   
 32  16  17  ar  
 33  16  18  ar  
 34  17  19  ar  
 35  18  20  ar  
 36  18  36  1   
 37  19  21  ar  
 38  19  37  1   
 39  20  21  ar  
 40  20  38  1   
 41  21  39  1   
@<TRIPOS>SUBSTRUCTURE
  1 ****   9 GROUP 4 **** **** 0

# MOE 2024.06 (io_trps.svl 2023.06)
