@<TRIPOS>MOLECULE
NONAME
53 56 1 0 0 
SMALL
USER_CHARGES


@<TRIPOS>ATOM
  1 N       -0.7780    -0.1770     0.3290 N.ar  1 <1>  -0.6200 
  2 C       -1.4080    -1.3310     0.5020 C.ar  1 <1>   0.4100 
  3 C        0.5410    -0.2890     0.3710 C.ar  1 <1>   0.4100 
  4 N       -2.8040    -1.2980     0.4560 N.pl3 1 <1>  -0.8380 
  5 C       -0.7170    -2.5350     0.7230 C.ar  1 <1>   0.1600 
  6 N        1.2720     0.8840     0.2130 N.pl3 1 <1>  -0.8380 
  7 C        1.1950    -1.5110     0.5780 C.ar  1 <1>   0.1600 
  8 C       -3.5710    -0.0280     0.6890 C.3   1 <1>   0.2090 
  9 C       -3.5830    -2.4330    -0.1230 C.3   1 <1>   0.2090 
 10 N        0.5980    -2.6750     0.7650 N.ar  1 <1>  -0.6200 
 11 C        1.7700     1.5140     1.4620 C.3   1 <1>   0.1290 
 12 C        0.8000     1.8600    -0.8050 C.3   1 <1>   0.1290 
 13 C       -4.2500     0.4920    -0.6020 C.3   1 <1>   0.1440 
 14 C       -4.9160    -1.9700    -0.7330 C.3   1 <1>  -0.1600 
 15 C       -5.3780     1.4120    -0.1660 C.ar  1 <1>   0.1670 
 16 C       -4.7400    -0.6610    -1.5160 C.3   1 <1>  -0.1600 
 17 C       -3.3370     1.4690    -1.3880 C.3   1 <1>  -0.1600 
 18 N       -6.5340     1.0240     0.3150 N.ar  1 <1>  -0.6200 
 19 C       -5.0420     2.7230    -0.3160 C.ar  1 <1>  -0.1430 
 20 C       -3.6520     2.8840    -0.8770 C.3   1 <1>  -0.0170 
 21 C       -7.3740     2.0080     0.6450 C.ar  1 <1>   0.7200 
 22 C       -5.9680     3.6660     0.0510 C.ar  1 <1>   0.1600 
 23 N       -7.1380     3.3190     0.5330 N.ar  1 <1>  -0.6200 
 24 N       -8.6030     1.6330     1.1530 N.pl3 1 <1>  -0.8380 
 25 C       -9.5070     2.6030     1.8310 C.3   1 <1>   0.1290 
 26 C       -9.1180     0.2410     1.0330 C.3   1 <1>   0.1290 
 27 H       -1.3000    -3.4210     0.8780 H     1 <1>   0.1500 
 28 H        2.2680    -1.4940     0.5850 H     1 <1>   0.1500 
 29 H       -2.9410     0.7340     1.1120 H     1 <1>   0.0800 
 30 H       -4.3320    -0.2400     1.4200 H     1 <1>   0.0800 
 31 H       -3.7730    -3.1650     0.6440 H     1 <1>   0.0800 
 32 H       -2.9920    -2.8970    -0.8960 H     1 <1>   0.0800 
 33 H        2.0160     0.7590     2.1880 H     1 <1>   0.0800 
 34 H        1.0110     2.1560     1.8750 H     1 <1>   0.0800 
 35 H        2.6520     2.0940     1.2510 H     1 <1>   0.0800 
 36 H        0.4380     1.3340    -1.6720 H     1 <1>   0.0800 
 37 H        1.6110     2.5010    -1.1020 H     1 <1>   0.0800 
 38 H        0.0000     2.4540    -0.4000 H     1 <1>   0.0800 
 39 H       -5.6400    -1.8280     0.0500 H     1 <1>   0.0800 
 40 H       -5.2920    -2.7390    -1.3840 H     1 <1>   0.0800 
 41 H       -4.0120    -0.8400    -2.2880 H     1 <1>   0.0800 
 42 H       -5.6640    -0.3850    -1.9940 H     1 <1>   0.0800 
 43 H       -3.5930     1.4340    -2.4330 H     1 <1>   0.0800 
 44 H       -2.2950     1.2240    -1.2900 H     1 <1>   0.0800 
 45 H       -3.6180     3.6100    -1.6700 H     1 <1>   0.0800 
 46 H       -2.9720     3.1620    -0.0900 H     1 <1>   0.0800 
 47 H       -5.7480     4.7140    -0.0500 H     1 <1>   0.1500 
 48 H       -8.9360     3.3830     2.3040 H     1 <1>   0.0800 
 49 H      -10.0870     2.1030     2.5870 H     1 <1>   0.0800 
 50 H      -10.1680     3.0440     1.1060 H     1 <1>   0.0800 
 51 H       -8.7140    -0.2360     0.1570 H     1 <1>   0.0800 
 52 H      -10.1900     0.2480     0.9490 H     1 <1>   0.0800 
 53 H       -8.8310    -0.3230     1.9030 H     1 <1>   0.0800 
@<TRIPOS>BOND
  1   1   2  ar  
  2   1   3  ar  
  3   2   4  1   
  4   2   5  ar  
  5   3   6  1   
  6   3   7  ar  
  7   4   8  1   
  8   4   9  1   
  9   5  10  ar  
 10   5  27  1   
 11   6  11  1   
 12   6  12  1   
 13   7  10  ar  
 14   7  28  1   
 15   8  13  1   
 16   8  29  1   
 17   8  30  1   
 18   9  14  1   
 19   9  31  1   
 20   9  32  1   
 21  11  33  1   
 22  11  34  1   
 23  11  35  1   
 24  12  36  1   
 25  12  37  1   
 26  12  38  1   
 27  13  15  1   
 28  13  16  1   
 29  13  17  1   
 30  14  16  1   
 31  14  39  1   
 32  14  40  1   
 33  15  18  ar  
 34  15  19  ar  
 35  16  41  1   
 36  16  42  1   
 37  17  20  1   
 38  17  43  1   
 39  17  44  1   
 40  18  21  ar  
 41  19  20  1   
 42  19  22  ar  
 43  20  45  1   
 44  20  46  1   
 45  21  23  ar  
 46  21  24  1   
 47  22  23  ar  
 48  22  47  1   
 49  24  25  1   
 50  24  26  1   
 51  25  48  1   
 52  25  49  1   
 53  25  50  1   
 54  26  51  1   
 55  26  52  1   
 56  26  53  1   
@<TRIPOS>SUBSTRUCTURE
  1 ****   8 GROUP 4 **** **** 0

# MOE 2024.06 (io_trps.svl 2023.06)
