@<TRIPOS>MOLECULE
NONAME
51 53 1 0 0 
SMALL
USER_CHARGES


@<TRIPOS>ATOM
  1 O        0.8250     3.7000     2.6400 O.2   1 <1>  -0.5700 
  2 C        0.4660     3.2300     1.5840 C.2   1 <1>   0.5690 
  3 N       -0.7670     2.6350     1.4440 N.am  1 <1>  -0.6600 
  4 C        1.4370     3.3570     0.4120 C.3   1 <1>   0.0820 
  5 C       -1.1790     1.8850     0.2200 C.3   1 <1>   0.1400 
  6 C       -1.7830     2.7190     2.5260 C.3   1 <1>   0.1400 
  7 C        1.8260     2.0340    -0.2450 C.2   1 <1>  -0.1810 
  8 C       -2.6880     1.6110     0.1810 C.3   1 <1>  -0.1600 
  9 C       -3.1090     3.2930     2.0030 C.3   1 <1>  -0.1600 
 10 C        1.7750     1.7380    -1.6070 C.2   1 <1>   0.1080 
 11 C        2.2710     0.8980     0.3370 C.2   1 <1>  -0.3320 
 12 C       -3.5040     2.8710     0.5660 C.3   1 <1>   0.2800 
 13 N        2.1330     0.5190    -1.8570 N.2   1 <1>  -0.7070 
 14 C        1.3630     2.6850    -2.7120 C.3   1 <1>  -0.0590 
 15 N        2.4480     0.0020    -0.6560 N.pl3 1 <1>   0.3000 
 16 C        2.5490     0.5860     1.7980 C.3   1 <1>  -0.0600 
 17 O       -3.0840     3.9180    -0.2760 O.3   1 <1>  -0.5600 
 18 C       -5.0650     2.7120     0.4770 C.3   1 <1>   0.2000 
 19 C       -3.3550     3.8690    -1.6500 C.3   1 <1>   0.1200 
 20 O       -5.4240     1.3640     0.6600 O.3   1 <1>  -0.6800 
 21 C       -5.6990     3.2990    -0.8210 C.3   1 <1>   0.2800 
 22 C       -4.7070     3.2180    -1.9810 C.3   1 <1>  -0.1600 
 23 O       -5.9770     4.6370    -0.6070 O.3   1 <1>  -0.6800 
 24 C       -7.0490     2.6770    -1.2050 C.3   1 <1>  -0.2400 
 25 H        0.9870     4.0120    -0.3080 H     1 <1>   0.0800 
 26 H        2.3340     3.8350     0.7600 H     1 <1>   0.0800 
 27 H       -0.9150     2.4660    -0.6440 H     1 <1>   0.0800 
 28 H       -0.6420     0.9530     0.1760 H     1 <1>   0.0800 
 29 H       -1.9460     1.7270     2.9110 H     1 <1>   0.0800 
 30 H       -1.4290     3.3280     3.3400 H     1 <1>   0.0800 
 31 H       -2.9030     0.8160     0.8720 H     1 <1>   0.0800 
 32 H       -2.9560     1.2540    -0.7940 H     1 <1>   0.0800 
 33 H       -3.0790     4.3670     2.0610 H     1 <1>   0.0800 
 34 H       -3.8630     2.9680     2.6960 H     1 <1>   0.0800 
 35 H        1.9500     3.5820    -2.6610 H     1 <1>   0.0800 
 36 H        0.3220     2.9310    -2.6190 H     1 <1>   0.0800 
 37 H        1.5250     2.2200    -3.6680 H     1 <1>   0.0800 
 38 H        2.7820    -0.9620    -0.5470 H     1 <1>   0.2700 
 39 H        2.4670     1.4720     2.4010 H     1 <1>   0.0800 
 40 H        3.5440     0.1950     1.9130 H     1 <1>   0.0800 
 41 H        1.8420    -0.1390     2.1620 H     1 <1>   0.0800 
 42 H       -5.5180     3.2360     1.3000 H     1 <1>   0.0800 
 43 H       -3.3530     4.8900    -1.9920 H     1 <1>   0.0800 
 44 H       -2.5500     3.3480    -2.1380 H     1 <1>   0.0800 
 45 H       -5.0910     0.8250    -0.0810 H     1 <1>   0.4000 
 46 H       -4.5390     2.1850    -2.2220 H     1 <1>   0.0800 
 47 H       -5.1170     3.6730    -2.8640 H     1 <1>   0.0800 
 48 H       -6.4060     5.0190    -1.3930 H     1 <1>   0.4000 
 49 H       -6.9280     1.6410    -1.4620 H     1 <1>   0.0800 
 50 H       -7.4800     3.1800    -2.0520 H     1 <1>   0.0800 
 51 H       -7.7290     2.7360    -0.3730 H     1 <1>   0.0800 
@<TRIPOS>BOND
  1   1   2  2   
  2   2   3  am  
  3   2   4  1   
  4   3   5  1   
  5   3   6  1   
  6   4   7  1   
  7   4  25  1   
  8   4  26  1   
  9   5   8  1   
 10   5  27  1   
 11   5  28  1   
 12   6   9  1   
 13   6  29  1   
 14   6  30  1   
 15   7  10  1   
 16   7  11  2   
 17   8  12  1   
 18   8  31  1   
 19   8  32  1   
 20   9  12  1   
 21   9  33  1   
 22   9  34  1   
 23  10  13  2   
 24  10  14  1   
 25  11  15  1   
 26  11  16  1   
 27  12  17  1   
 28  12  18  1   
 29  13  15  1   
 30  14  35  1   
 31  14  36  1   
 32  14  37  1   
 33  15  38  1   
 34  16  39  1   
 35  16  40  1   
 36  16  41  1   
 37  17  19  1   
 38  18  20  1   
 39  18  21  1   
 40  18  42  1   
 41  19  22  1   
 42  19  43  1   
 43  19  44  1   
 44  20  45  1   
 45  21  22  1   
 46  21  23  1   
 47  21  24  1   
 48  22  46  1   
 49  22  47  1   
 50  23  48  1   
 51  24  49  1   
 52  24  50  1   
 53  24  51  1   
@<TRIPOS>SUBSTRUCTURE
  1 ****   5 GROUP 4 **** **** 0

# MOE 2024.06 (io_trps.svl 2023.06)
