@<TRIPOS>MOLECULE
NONAME
44 46 1 0 0 
SMALL
USER_CHARGES


@<TRIPOS>ATOM
  1 O       -0.7820     0.4410    -1.7930 O.co2 1 <1>  -0.9000 
  2 C       -1.2450     0.7880    -0.7010 C.2   1 <1>   0.9060 
  3 O       -1.9990     0.0400    -0.0580 O.co2 1 <1>  -0.9000 
  4 C       -0.8880     2.1530    -0.1030 C.3   1 <1>  -0.1060 
  5 C       -2.2020     2.8140     0.3570 C.3   1 <1>   0.2000 
  6 C       -0.3240     3.0550    -1.2290 C.3   1 <1>   0.1100 
  7 C        0.0980     1.9080     1.0850 C.3   1 <1>  -0.0170 
  8 O       -2.7360     2.1030     1.4160 O.3   1 <1>  -0.6800 
  9 C       -2.0690     4.2910     0.7630 C.3   1 <1>  -0.1600 
 10 N       -0.2870     4.5190    -0.9480 N.3   1 <1>  -0.8100 
 11 C        1.5840     1.9020     0.7300 C.ar  1 <1>  -0.1440 
 12 C       -0.7170     4.9140     0.4010 C.3   1 <1>   0.1100 
 13 C        1.0500     5.0620    -1.2860 C.3   1 <1>   0.2900 
 14 C        2.1030     0.9340    -0.1160 C.ar  1 <1>  -0.1500 
 15 C        2.4350     2.8630     1.2560 C.ar  1 <1>  -0.1500 
 16 C        1.1510     6.5820    -1.1840 C.2   1 <1>   0.2980 
 17 C        3.4480     0.9340    -0.4430 C.ar  1 <1>  -0.1500 
 18 C        3.7810     2.8650     0.9320 C.ar  1 <1>  -0.1500 
 19 O        0.4160     7.3160    -1.9830 O.3   1 <1>  -0.0190 
 20 N        1.9030     7.2320    -0.3830 N.2   1 <1>  -0.5650 
 21 C        4.2890     1.9000     0.0800 C.ar  1 <1>  -0.1500 
 22 N        0.7260     8.5360    -1.6630 N.2   1 <1>  -0.4100 
 23 C        1.5890     8.4690    -0.7320 C.2   1 <1>   0.3350 
 24 C        2.2300     9.6540    -0.0520 C.3   1 <1>  -0.0590 
 25 H       -2.9110     2.7470    -0.4520 H     1 <1>   0.0800 
 26 H       -0.9530     2.9270    -2.0940 H     1 <1>   0.0800 
 27 H        0.6450     2.6910    -1.5230 H     1 <1>   0.0800 
 28 H       -0.0710     2.6330     1.8560 H     1 <1>   0.0800 
 29 H       -0.1360     0.9610     1.5410 H     1 <1>   0.0800 
 30 H       -2.6840     1.1440     1.1310 H     1 <1>   0.4000 
 31 H       -2.8380     4.8470     0.2600 H     1 <1>   0.0800 
 32 H       -2.2240     4.4040     1.8210 H     1 <1>   0.0800 
 33 H        0.0310     4.6270     1.1160 H     1 <1>   0.0800 
 34 H       -0.8130     5.9860     0.4490 H     1 <1>   0.0800 
 35 H        1.7870     4.6240    -0.6390 H     1 <1>   0.0800 
 36 H        1.2920     4.7830    -2.2960 H     1 <1>   0.0800 
 37 H        1.4550     0.1790    -0.5320 H     1 <1>   0.1500 
 38 H        2.0520     3.6160     1.9210 H     1 <1>   0.1500 
 39 H        3.8310     0.1780    -1.1060 H     1 <1>   0.1500 
 40 H        4.4310     3.6180     1.3430 H     1 <1>   0.1500 
 41 H        5.3340     1.9000    -0.1750 H     1 <1>   0.1500 
 42 H        3.2940     9.6150    -0.1900 H     1 <1>   0.0800 
 43 H        2.0070     9.6280     0.9980 H     1 <1>   0.0800 
 44 H        1.8520    10.5680    -0.4720 H     1 <1>   0.0800 
@<TRIPOS>BOND
  1   1   2  ar  
  2   2   3  ar  
  3   2   4  1   
  4   4   5  1   
  5   4   6  1   
  6   4   7  1   
  7   5   8  1   
  8   5   9  1   
  9   5  25  1   
 10   6  10  1   
 11   6  26  1   
 12   6  27  1   
 13   7  11  1   
 14   7  28  1   
 15   7  29  1   
 16   8  30  1   
 17   9  12  1   
 18   9  31  1   
 19   9  32  1   
 20  10  12  1   
 21  10  13  1   
 22  11  14  ar  
 23  11  15  ar  
 24  12  33  1   
 25  12  34  1   
 26  13  16  1   
 27  13  35  1   
 28  13  36  1   
 29  14  17  ar  
 30  14  37  1   
 31  15  18  ar  
 32  15  38  1   
 33  16  19  1   
 34  16  20  2   
 35  17  21  ar  
 36  17  39  1   
 37  18  21  ar  
 38  18  40  1   
 39  19  22  1   
 40  20  23  1   
 41  21  41  1   
 42  22  23  2   
 43  23  24  1   
 44  24  42  1   
 45  24  43  1   
 46  24  44  1   
@<TRIPOS>SUBSTRUCTURE
  1 ****  10 GROUP 4 **** **** 0

# MOE 2024.06 (io_trps.svl 2023.06)
