@<TRIPOS>MOLECULE
NONAME
47 49 1 0 0 
SMALL
USER_CHARGES


@<TRIPOS>ATOM
  1 O       -1.7750    -0.5920    -2.8070 O.2   1 <1>  -0.5700 
  2 C       -1.9470    -0.8990    -1.6560 C.2   1 <1>   0.5690 
  3 N       -1.9100     0.0160    -0.6420 N.am  1 <1>  -0.6600 
  4 C       -2.2570    -2.3450    -1.3660 C.3   1 <1>  -0.0190 
  5 C       -2.2000    -0.3330     0.7770 C.3   1 <1>   0.2200 
  6 C       -1.5220     1.4390    -0.8970 C.3   1 <1>   0.0600 
  7 C       -1.2210    -2.9880    -0.4200 C.3   1 <1>   0.1200 
  8 C       -3.7330    -2.4580    -0.9670 C.3   1 <1>   0.3430 
  9 C       -1.1680    -1.3520     1.3190 C.3   1 <1>   0.1200 
 10 C       -3.6810    -0.7740     0.9480 C.3   1 <1>   0.3430 
 11 O       -1.4400    -2.6730     0.9280 O.3   1 <1>  -0.5600 
 12 N       -3.9890    -2.1740     0.4850 N.4   1 <1>  -0.9590 
 13 C       -5.3170    -2.6600     0.9450 C.3   1 <1>   0.4860 
 14 C       -5.3680    -4.1580     0.7490 C.ar  1 <1>  -0.1440 
 15 C       -6.2360    -4.7080    -0.1800 C.ar  1 <1>   0.1600 
 16 C       -4.5430    -5.0030     1.4710 C.ar  1 <1>  -0.1500 
 17 N       -6.3270    -5.9920    -0.4580 N.ar  1 <1>  -0.6200 
 18 C       -4.6410    -6.3460     1.1960 C.ar  1 <1>  -0.1500 
 19 C       -5.5310    -6.8050     0.2280 C.ar  1 <1>   0.4100 
 20 N       -5.6110    -8.1580    -0.0480 N.pl3 1 <1>  -0.8380 
 21 C       -6.8900    -8.7300    -0.5520 C.3   1 <1>   0.1290 
 22 C       -4.3940    -8.9020    -0.4650 C.3   1 <1>   0.1290 
 23 H       -2.1590    -2.8560    -2.3080 H     1 <1>   0.0800 
 24 H       -2.0760     0.5670     1.3550 H     1 <1>   0.0800 
 25 H       -0.6470     1.6900    -0.3220 H     1 <1>   0.0800 
 26 H       -2.3280     2.0970    -0.6250 H     1 <1>   0.0800 
 27 H       -1.2940     1.5970    -1.9380 H     1 <1>   0.0800 
 28 H       -0.2190    -2.6940    -0.6890 H     1 <1>   0.0800 
 29 H       -1.2830    -4.0600    -0.5010 H     1 <1>   0.0800 
 30 H       -4.0450    -3.4670    -1.1850 H     1 <1>   0.0800 
 31 H       -4.3200    -1.7960    -1.5840 H     1 <1>   0.0800 
 32 H       -1.1920    -1.3410     2.3950 H     1 <1>   0.0800 
 33 H       -0.1690    -1.0900     1.0090 H     1 <1>   0.0800 
 34 H       -4.3100    -0.0700     0.4290 H     1 <1>   0.0800 
 35 H       -3.9150    -0.7060     1.9970 H     1 <1>   0.0800 
 36 H       -3.2750    -2.7620     0.9610 H     1 <1>   0.4500 
 37 H       -5.4530    -2.4370     1.9910 H     1 <1>   0.0800 
 38 H       -6.1040    -2.1810     0.3860 H     1 <1>   0.0800 
 39 H       -6.8950    -4.0640    -0.7380 H     1 <1>   0.1500 
 40 H       -3.8540    -4.6500     2.2190 H     1 <1>   0.1500 
 41 H       -4.0440    -7.0640     1.7250 H     1 <1>   0.1500 
 42 H       -6.9480    -9.7760    -0.3070 H     1 <1>   0.0800 
 43 H       -6.9490    -8.6080    -1.6200 H     1 <1>   0.0800 
 44 H       -7.7240    -8.2230    -0.0980 H     1 <1>   0.0800 
 45 H       -4.2900    -9.7880     0.1370 H     1 <1>   0.0800 
 46 H       -3.5160    -8.2920    -0.3440 H     1 <1>   0.0800 
 47 H       -4.4740    -9.1850    -1.5000 H     1 <1>   0.0800 
@<TRIPOS>BOND
  1   1   2  2   
  2   2   3  am  
  3   2   4  1   
  4   3   5  1   
  5   3   6  1   
  6   4   7  1   
  7   4   8  1   
  8   4  23  1   
  9   5   9  1   
 10   5  10  1   
 11   5  24  1   
 12   6  25  1   
 13   6  26  1   
 14   6  27  1   
 15   7  11  1   
 16   7  28  1   
 17   7  29  1   
 18   8  12  1   
 19   8  30  1   
 20   8  31  1   
 21   9  11  1   
 22   9  32  1   
 23   9  33  1   
 24  10  12  1   
 25  10  34  1   
 26  10  35  1   
 27  12  13  1   
 28  12  36  1   
 29  13  14  1   
 30  13  37  1   
 31  13  38  1   
 32  14  15  ar  
 33  14  16  ar  
 34  15  17  ar  
 35  15  39  1   
 36  16  18  ar  
 37  16  40  1   
 38  17  19  ar  
 39  18  19  ar  
 40  18  41  1   
 41  19  20  1   
 42  20  21  1   
 43  20  22  1   
 44  21  42  1   
 45  21  43  1   
 46  21  44  1   
 47  22  45  1   
 48  22  46  1   
 49  22  47  1   
@<TRIPOS>SUBSTRUCTURE
  1 ****   8 GROUP 4 **** **** 0

# MOE 2024.06 (io_trps.svl 2023.06)
