@<TRIPOS>MOLECULE
NONAME
49 51 1 0 0 
SMALL
USER_CHARGES


@<TRIPOS>ATOM
  1 O        0.4440    -0.6370     1.3210 O.2   1 <1>  -0.5700 
  2 C        0.2660    -1.8350     1.1440 C.2   1 <1>   0.6160 
  3 N        0.7700    -2.4690     0.0180 N.am  1 <1>  -0.4690 
  4 C       -0.4610    -2.6250     2.0750 C.2   1 <1>  -0.1360 
  5 C        0.5530    -3.8130    -0.1810 C.2   1 <1>  -0.0410 
  6 C        1.5620    -1.6830    -0.9630 C.3   1 <1>   0.0600 
  7 C       -0.6720    -3.9510     1.8680 C.2   1 <1>  -0.1500 
  8 C       -0.1670    -4.5900     0.6930 C.2   1 <1>   0.0140 
  9 C       -0.3930    -5.9970     0.4500 C.2   1 <1>   0.6160 
 10 O        0.4360    -6.6470    -0.1630 O.2   1 <1>  -0.5700 
 11 N       -1.5420    -6.6360     0.8640 N.am  1 <1>  -0.6600 
 12 C       -1.6080    -8.1300     0.9440 C.3   1 <1>   0.1400 
 13 C       -2.8910    -6.0190     0.6950 C.3   1 <1>   0.1400 
 14 C       -2.4330    -8.7060    -0.2200 C.3   1 <1>   0.3430 
 15 C       -3.6620    -6.7020    -0.4600 C.3   1 <1>   0.2000 
 16 O       -3.6950    -8.0880    -0.2620 O.3   1 <1>  -0.5600 
 17 C       -2.6040   -10.2140    -0.0610 C.ar  1 <1>  -0.1430 
 18 C       -5.1180    -6.2090    -0.6320 C.3   1 <1>  -0.0800 
 19 C       -1.6710   -11.0700    -0.6290 C.ar  1 <1>  -0.1500 
 20 C       -3.6660   -10.7540     0.6530 C.ar  1 <1>  -0.1500 
 21 C       -5.1820    -4.7160    -0.9910 C.3   1 <1>  -0.2400 
 22 C       -6.0130    -6.4850     0.5900 C.3   1 <1>  -0.2400 
 23 C       -1.7950   -12.4410    -0.4860 C.ar  1 <1>  -0.1500 
 24 C       -3.7920   -12.1250     0.7970 C.ar  1 <1>  -0.1500 
 25 C       -2.8560   -12.9700     0.2280 C.ar  1 <1>  -0.1500 
 26 H       -0.8240    -2.1110     2.9450 H     1 <1>   0.1500 
 27 H        0.9730    -4.2590    -1.0680 H     1 <1>   0.1500 
 28 H        1.8990    -2.3090    -1.7690 H     1 <1>   0.0800 
 29 H        2.4160    -1.2520    -0.4700 H     1 <1>   0.0800 
 30 H        0.9530    -0.8890    -1.3610 H     1 <1>   0.0800 
 31 H       -1.2110    -4.5500     2.5820 H     1 <1>   0.1500 
 32 H       -0.6200    -8.5540     0.9230 H     1 <1>   0.0800 
 33 H       -2.0660    -8.4170     1.8740 H     1 <1>   0.0800 
 34 H       -3.4410    -6.1250     1.6130 H     1 <1>   0.0800 
 35 H       -2.7960    -4.9700     0.4810 H     1 <1>   0.0800 
 36 H       -1.9330    -8.5020    -1.1510 H     1 <1>   0.0800 
 37 H       -3.1360    -6.5200    -1.3810 H     1 <1>   0.0800 
 38 H       -5.5270    -6.7540    -1.4660 H     1 <1>   0.0800 
 39 H       -0.8400   -10.6730    -1.1850 H     1 <1>   0.1500 
 40 H       -4.4010   -10.1050     1.0970 H     1 <1>   0.1500 
 41 H       -4.8560    -4.1020    -0.1710 H     1 <1>   0.0800 
 42 H       -6.1930    -4.4410    -1.2350 H     1 <1>   0.0800 
 43 H       -4.5640    -4.5100    -1.8470 H     1 <1>   0.0800 
 44 H       -5.6980    -5.9150     1.4440 H     1 <1>   0.0800 
 45 H       -5.9850    -7.5310     0.8430 H     1 <1>   0.0800 
 46 H       -7.0320    -6.2250     0.3660 H     1 <1>   0.0800 
 47 H       -1.0670   -13.0970    -0.9300 H     1 <1>   0.1500 
 48 H       -4.6200   -12.5320     1.3500 H     1 <1>   0.1500 
 49 H       -2.9540   -14.0360     0.3390 H     1 <1>   0.1500 
@<TRIPOS>BOND
  1   1   2  2   
  2   2   3  am  
  3   2   4  1   
  4   3   5  1   
  5   3   6  1   
  6   4   7  2   
  7   4  26  1   
  8   5   8  2   
  9   5  27  1   
 10   6  28  1   
 11   6  29  1   
 12   6  30  1   
 13   7   8  1   
 14   7  31  1   
 15   8   9  1   
 16   9  10  2   
 17   9  11  am  
 18  11  12  1   
 19  11  13  1   
 20  12  14  1   
 21  12  32  1   
 22  12  33  1   
 23  13  15  1   
 24  13  34  1   
 25  13  35  1   
 26  14  16  1   
 27  14  17  1   
 28  14  36  1   
 29  15  16  1   
 30  15  18  1   
 31  15  37  1   
 32  17  19  ar  
 33  17  20  ar  
 34  18  21  1   
 35  18  22  1   
 36  18  38  1   
 37  19  23  ar  
 38  19  39  1   
 39  20  24  ar  
 40  20  40  1   
 41  21  41  1   
 42  21  42  1   
 43  21  43  1   
 44  22  44  1   
 45  22  45  1   
 46  22  46  1   
 47  23  25  ar  
 48  23  47  1   
 49  24  25  ar  
 50  24  48  1   
 51  25  49  1   
@<TRIPOS>SUBSTRUCTURE
  1 ****  11 GROUP 4 **** **** 0

# MOE 2024.06 (io_trps.svl 2023.06)
