@<TRIPOS>MOLECULE
NONAME
45 47 1 0 0 
SMALL
USER_CHARGES


@<TRIPOS>ATOM
  1 CL      -0.6010    -0.2150    -0.0030 Cl    1 <1>  -0.1770 
  2 C        0.9940    -0.9300    -0.1930 C.ar  1 <1>   0.1770 
  3 C        1.1830    -2.3100    -0.1970 C.ar  1 <1>   0.4100 
  4 C        2.0870    -0.1260    -0.3620 C.ar  1 <1>   0.1600 
  5 N        2.3890    -2.8160    -0.3810 N.ar  1 <1>  -0.6200 
  6 N        0.1590    -3.2250    -0.0220 N.pl3 1 <1>  -0.8380 
  7 N        3.2980    -0.6270    -0.5320 N.ar  1 <1>  -0.6200 
  8 C        3.3740    -1.9470    -0.5320 C.ar  1 <1>   0.4770 
  9 C        0.2030    -4.5390    -0.7510 C.3   1 <1>   0.2090 
 10 C       -0.6370    -3.2360     1.2440 C.3   1 <1>   0.2090 
 11 C        4.7550    -2.5240    -0.7340 C.3   1 <1>  -0.0960 
 12 C       -1.1100    -5.3620    -0.5980 C.3   1 <1>   0.4230 
 13 C       -2.1000    -3.6670     0.9790 C.3   1 <1>   0.3430 
 14 N       -2.2650    -4.4360    -0.3120 N.4   1 <1>  -0.9590 
 15 C       -0.9980    -6.4770     0.4670 C.3   1 <1>  -0.1600 
 16 C       -3.5850    -5.1030    -0.4600 C.3   1 <1>   0.4380 
 17 C       -1.2580    -7.8590    -0.1330 C.3   1 <1>   0.1200 
 18 C       -4.6960    -4.0520    -0.4440 C.3   1 <1>  -0.1950 
 19 O       -2.4660    -7.8240    -0.8060 O.3   1 <1>  -0.6800 
 20 C       -5.3240    -3.5550     0.8240 C.3   1 <1>  -0.2000 
 21 C       -6.0970    -4.4500    -0.1000 C.3   1 <1>  -0.2000 
 22 H        1.9750     0.9440    -0.3630 H     1 <1>   0.1500 
 23 H        1.0530    -5.1120    -0.4210 H     1 <1>   0.0800 
 24 H        0.3580    -4.3370    -1.7970 H     1 <1>   0.0800 
 25 H       -0.6210    -2.2720     1.7210 H     1 <1>   0.0800 
 26 H       -0.1840    -3.9330     1.9290 H     1 <1>   0.0800 
 27 H        4.7600    -3.5780    -0.5280 H     1 <1>   0.0800 
 28 H        5.4490    -2.0370    -0.0760 H     1 <1>   0.0800 
 29 H        5.0630    -2.3630    -1.7500 H     1 <1>   0.0800 
 30 H       -1.2840    -5.8460    -1.5460 H     1 <1>   0.0800 
 31 H       -2.7150    -2.7830     0.9420 H     1 <1>   0.0800 
 32 H       -2.4430    -4.2600     1.8100 H     1 <1>   0.0800 
 33 H       -2.1980    -3.7150    -1.0420 H     1 <1>   0.4500 
 34 H       -1.6840    -6.3270     1.2800 H     1 <1>   0.0800 
 35 H       -0.0110    -6.4910     0.8940 H     1 <1>   0.0800 
 36 H       -3.7350    -5.8110     0.3390 H     1 <1>   0.0800 
 37 H       -3.6190    -5.6440    -1.3920 H     1 <1>   0.0800 
 38 H       -1.3170    -8.6090     0.6400 H     1 <1>   0.0800 
 39 H       -0.4870    -8.1320    -0.8360 H     1 <1>   0.0800 
 40 H       -4.6100    -3.3640    -1.2680 H     1 <1>   0.1000 
 41 H       -2.7020    -8.7230    -1.1280 H     1 <1>   0.4000 
 42 H       -5.6250    -2.5230     0.8940 H     1 <1>   0.1000 
 43 H       -5.0460    -3.9640     1.7810 H     1 <1>   0.1000 
 44 H       -6.3080    -5.4560     0.2240 H     1 <1>   0.1000 
 45 H       -6.9150    -4.0250    -0.6580 H     1 <1>   0.1000 
@<TRIPOS>BOND
  1   1   2  1   
  2   2   3  ar  
  3   2   4  ar  
  4   3   5  ar  
  5   3   6  1   
  6   4   7  ar  
  7   4  22  1   
  8   5   8  ar  
  9   6   9  1   
 10   6  10  1   
 11   7   8  ar  
 12   8  11  1   
 13   9  12  1   
 14   9  23  1   
 15   9  24  1   
 16  10  13  1   
 17  10  25  1   
 18  10  26  1   
 19  11  27  1   
 20  11  28  1   
 21  11  29  1   
 22  12  14  1   
 23  12  15  1   
 24  12  30  1   
 25  13  14  1   
 26  13  31  1   
 27  13  32  1   
 28  14  16  1   
 29  14  33  1   
 30  15  17  1   
 31  15  34  1   
 32  15  35  1   
 33  16  18  1   
 34  16  36  1   
 35  16  37  1   
 36  17  19  1   
 37  17  38  1   
 38  17  39  1   
 39  18  20  1   
 40  18  21  1   
 41  18  40  1   
 42  19  41  1   
 43  20  21  1   
 44  20  42  1   
 45  20  43  1   
 46  21  44  1   
 47  21  45  1   
@<TRIPOS>SUBSTRUCTURE
  1 ****   6 GROUP 4 **** **** 0

# MOE 2024.06 (io_trps.svl 2023.06)
