@<TRIPOS>MOLECULE
NONAME
41 42 1 0 0 
SMALL
USER_CHARGES


@<TRIPOS>ATOM
  1 CL      -1.5130    -0.9520    -1.5920 Cl    1 <1>  -0.1770 
  2 C       -2.2450     0.3920    -0.7490 C.ar  1 <1>   0.1770 
  3 C       -2.9840     0.1810     0.4140 C.ar  1 <1>   0.0860 
  4 C       -2.0560     1.6550    -1.2790 C.ar  1 <1>  -0.1500 
  5 C       -3.2040    -1.1350     0.9700 C.2   1 <1>   0.5440 
  6 C       -3.5150     1.3080     1.0420 C.ar  1 <1>  -0.1500 
  7 C       -2.6040     2.7540    -0.6420 C.ar  1 <1>  -0.1500 
  8 O       -2.7840    -1.3950     2.0790 O.2   1 <1>  -0.5700 
  9 N       -3.9280    -2.0930     0.3000 N.am  1 <1>  -0.6600 
 10 C       -3.3320     2.5780     0.5220 C.ar  1 <1>  -0.1500 
 11 C       -4.7580    -1.8660    -0.9080 C.3   1 <1>   0.1400 
 12 C       -4.1420    -3.4660     0.8230 C.3   1 <1>   0.1400 
 13 C       -5.8620    -2.9140    -0.7940 C.3   1 <1>   0.2000 
 14 C       -5.1640    -4.1040    -0.1300 C.3   1 <1>  -0.0800 
 15 O       -6.8360    -2.4220     0.0620 O.3   1 <1>  -0.6800 
 16 C       -6.1290    -5.1020     0.5470 C.3   1 <1>  -0.0550 
 17 S       -5.3540    -6.6240     1.0950 S.o2  1 <1>   1.3330 
 18 O       -4.2720    -6.2840     1.9910 O.2   1 <1>  -0.6500 
 19 O       -6.3780    -7.5470     1.5290 O.2   1 <1>  -0.6500 
 20 N       -4.6740    -7.2470    -0.3330 N.am  1 <1>  -0.8490 
 21 C       -5.6310    -8.0010    -1.1500 C.3   1 <1>   0.1160 
 22 C       -3.4900    -8.0700    -0.0690 C.3   1 <1>   0.1160 
 23 H       -1.4810     1.7760    -2.1800 H     1 <1>   0.1500 
 24 H       -4.0750     1.1770     1.9530 H     1 <1>   0.1500 
 25 H       -2.4620     3.7430    -1.0470 H     1 <1>   0.1500 
 26 H       -3.7550     3.4310     1.0250 H     1 <1>   0.1500 
 27 H       -5.1580    -0.8670    -0.9500 H     1 <1>   0.0800 
 28 H       -4.1620    -2.0570    -1.7840 H     1 <1>   0.0800 
 29 H       -3.2140    -4.0150     0.8340 H     1 <1>   0.0800 
 30 H       -4.5250    -3.4070     1.8280 H     1 <1>   0.0800 
 31 H       -6.3200    -3.1530    -1.7380 H     1 <1>   0.0800 
 32 H       -4.6110    -4.6200    -0.8950 H     1 <1>   0.0800 
 33 H       -6.3940    -2.0620     0.8590 H     1 <1>   0.4000 
 34 H       -6.9070    -5.3460    -0.1490 H     1 <1>   0.0800 
 35 H       -6.5960    -4.6300     1.3890 H     1 <1>   0.0800 
 36 H       -5.1740    -8.2930    -2.0800 H     1 <1>   0.0800 
 37 H       -6.4920    -7.3940    -1.3700 H     1 <1>   0.0800 
 38 H       -5.9580    -8.8860    -0.6280 H     1 <1>   0.0800 
 39 H       -3.0780    -8.4410    -0.9920 H     1 <1>   0.0800 
 40 H       -3.7450    -8.9010     0.5660 H     1 <1>   0.0800 
 41 H       -2.7330    -7.4800     0.4220 H     1 <1>   0.0800 
@<TRIPOS>BOND
  1   1   2  1   
  2   2   3  ar  
  3   2   4  ar  
  4   3   5  1   
  5   3   6  ar  
  6   4   7  ar  
  7   4  23  1   
  8   5   8  2   
  9   5   9  am  
 10   6  10  ar  
 11   6  24  1   
 12   7  10  ar  
 13   7  25  1   
 14   9  11  1   
 15   9  12  1   
 16  10  26  1   
 17  11  13  1   
 18  11  27  1   
 19  11  28  1   
 20  12  14  1   
 21  12  29  1   
 22  12  30  1   
 23  13  14  1   
 24  13  15  1   
 25  13  31  1   
 26  14  16  1   
 27  14  32  1   
 28  15  33  1   
 29  16  17  1   
 30  16  34  1   
 31  16  35  1   
 32  17  18  2   
 33  17  19  2   
 34  17  20  am  
 35  20  21  1   
 36  20  22  1   
 37  21  36  1   
 38  21  37  1   
 39  21  38  1   
 40  22  39  1   
 41  22  40  1   
 42  22  41  1   
@<TRIPOS>SUBSTRUCTURE
  1 ****   9 GROUP 4 **** **** 0

# MOE 2024.06 (io_trps.svl 2023.06)
