@<TRIPOS>MOLECULE
NONAME
34 35 1 0 0 
SMALL
USER_CHARGES


@<TRIPOS>ATOM
  1 S        0.7610     0.1810    -0.6080 S.3   1 <1>  -0.0800 
  2 C       -0.6920     1.1560    -0.6080 C.2   1 <1>   0.1980 
  3 C       -0.2140    -1.2280    -0.3010 C.2   1 <1>  -0.1400 
  4 N       -1.7620     0.5010    -0.4010 N.2   1 <1>  -0.5650 
  5 C       -0.5370     2.6420    -0.8370 C.3   1 <1>   0.0200 
  6 C       -1.5020    -0.8480    -0.2280 C.2   1 <1>   0.0460 
  7 C        0.5210    -2.5490    -0.1800 C.3   1 <1>  -0.0600 
  8 C       -0.1260     3.3240     0.4640 C.3   1 <1>   0.2090 
  9 C       -2.7090    -1.7270     0.0210 C.3   1 <1>  -0.0590 
 10 N        0.0430     4.7800     0.2410 N.pl3 1 <1>  -0.8690 
 11 C        1.2350     5.3710     0.0010 C.ar  1 <1>   0.7200 
 12 N        1.2860     6.6420     0.3570 N.ar  1 <1>  -0.6200 
 13 N        2.1970     4.6340    -0.5480 N.ar  1 <1>  -0.6200 
 14 C        2.4260     7.2620     0.1360 C.ar  1 <1>   0.3930 
 15 C        3.3330     5.2620    -0.7660 C.ar  1 <1>   0.1600 
 16 O        2.4240     8.5600     0.5160 O.3   1 <1>  -0.3630 
 17 C        3.4970     6.5830    -0.4390 C.ar  1 <1>   0.1900 
 18 C        3.5060     9.4500     0.3480 C.3   1 <1>   0.0400 
 19 F        4.6620     7.1410    -0.6860 F     1 <1>  -0.1900 
 20 H       -1.4760     3.0430    -1.1710 H     1 <1>   0.0800 
 21 H        0.2060     2.8110    -1.5940 H     1 <1>   0.0800 
 22 H        1.2280    -2.5000     0.6270 H     1 <1>   0.0800 
 23 H        1.0490    -2.7560    -1.0930 H     1 <1>   0.0800 
 24 H       -0.1660    -3.3520     0.0100 H     1 <1>   0.0800 
 25 H        0.7960     2.8990     0.8240 H     1 <1>   0.0800 
 26 H       -0.8840     3.1610     1.2110 H     1 <1>   0.0800 
 27 H       -2.4220    -2.7530     0.1440 H     1 <1>   0.0800 
 28 H       -3.3850    -1.6500    -0.8110 H     1 <1>   0.0800 
 29 H       -3.2140    -1.3960     0.9100 H     1 <1>   0.0800 
 30 H       -0.5790     5.3930     0.7680 H     1 <1>   0.4000 
 31 H        4.1450     4.7150    -1.2110 H     1 <1>   0.1500 
 32 H        3.2070    10.4120     0.7220 H     1 <1>   0.0800 
 33 H        3.7420     9.5240    -0.6990 H     1 <1>   0.0800 
 34 H        4.3490     9.0880     0.9110 H     1 <1>   0.0800 
@<TRIPOS>BOND
  1   1   2  1   
  2   1   3  1   
  3   2   4  2   
  4   2   5  1   
  5   3   6  2   
  6   3   7  1   
  7   4   6  1   
  8   5   8  1   
  9   5  20  1   
 10   5  21  1   
 11   6   9  1   
 12   7  22  1   
 13   7  23  1   
 14   7  24  1   
 15   8  10  1   
 16   8  25  1   
 17   8  26  1   
 18   9  27  1   
 19   9  28  1   
 20   9  29  1   
 21  10  11  1   
 22  10  30  1   
 23  11  12  ar  
 24  11  13  ar  
 25  12  14  ar  
 26  13  15  ar  
 27  14  16  1   
 28  14  17  ar  
 29  15  17  ar  
 30  15  31  1   
 31  16  18  1   
 32  17  19  1   
 33  18  32  1   
 34  18  33  1   
 35  18  34  1   
@<TRIPOS>SUBSTRUCTURE
  1 ****   8 GROUP 4 **** **** 0

# MOE 2024.06 (io_trps.svl 2023.06)
