@<TRIPOS>MOLECULE
NONAME
42 44 1 0 0 
SMALL
USER_CHARGES


@<TRIPOS>ATOM
  1 O       -1.9910     0.6240    -2.1310 O.2   1 <1>  -0.5700 
  2 C       -2.0650    -0.2280    -1.2800 C.2   1 <1>   0.5690 
  3 N       -2.3760     0.1040    -0.0100 N.am  1 <1>  -0.7300 
  4 C       -1.7690    -1.6730    -1.6300 C.3   1 <1>  -0.0190 
  5 C       -2.5560    -0.8890     1.0810 C.3   1 <1>   0.2200 
  6 C       -0.5680    -2.1960    -0.8250 C.3   1 <1>   0.1200 
  7 C       -3.0070    -2.5880    -1.5310 C.3   1 <1>   0.1100 
  8 C       -1.2270    -1.6140     1.3800 C.3   1 <1>   0.1200 
  9 C       -3.7110    -1.8880     0.8020 C.3   1 <1>   0.1100 
 10 O       -0.9290    -2.6220     0.4550 O.3   1 <1>  -0.5600 
 11 N       -4.0710    -2.0990    -0.6250 N.3   1 <1>  -0.8100 
 12 C       -5.3360    -2.8490    -0.7840 C.3   1 <1>   0.2900 
 13 C       -5.3080    -4.3020    -0.3130 C.2   1 <1>  -0.0400 
 14 O       -6.4400    -4.9740    -0.4080 O.3   1 <1>  -0.2800 
 15 C       -4.3450    -5.1010     0.2050 C.2   1 <1>  -0.1500 
 16 C       -6.2360    -6.1980     0.0370 C.2   1 <1>  -0.0400 
 17 C       -4.9530    -6.3400     0.4330 C.2   1 <1>  -0.1500 
 18 C       -7.4100    -7.1620     0.0240 C.3   1 <1>   0.0200 
 19 C       -7.0410    -8.5490     0.5660 C.3   1 <1>  -0.1600 
 20 C       -8.2420    -9.5020     0.5420 C.3   1 <1>  -0.2400 
 21 H       -2.7110     1.0540     0.1430 H     1 <1>   0.3700 
 22 H       -1.4560    -1.6780    -2.6570 H     1 <1>   0.0800 
 23 H       -2.8090    -0.3430     1.9720 H     1 <1>   0.0800 
 24 H        0.2030    -1.4480    -0.7450 H     1 <1>   0.0800 
 25 H       -0.1550    -3.0540    -1.3270 H     1 <1>   0.0800 
 26 H       -2.6980    -3.5780    -1.2480 H     1 <1>   0.0800 
 27 H       -3.4290    -2.6580    -2.5190 H     1 <1>   0.0800 
 28 H       -1.3020    -2.0960     2.3380 H     1 <1>   0.0800 
 29 H       -0.4090    -0.9160     1.4190 H     1 <1>   0.0800 
 30 H       -4.5820    -1.5070     1.3060 H     1 <1>   0.0800 
 31 H       -3.4770    -2.8280     1.2670 H     1 <1>   0.0800 
 32 H       -6.1100    -2.3340    -0.2420 H     1 <1>   0.0800 
 33 H       -5.6200    -2.8340    -1.8210 H     1 <1>   0.0800 
 34 H       -3.3150    -4.8800     0.4160 H     1 <1>   0.1500 
 35 H       -4.4620    -7.2040     0.8430 H     1 <1>   0.1500 
 36 H       -8.2020    -6.7410     0.6170 H     1 <1>   0.0800 
 37 H       -7.7640    -7.2520    -0.9880 H     1 <1>   0.0800 
 38 H       -6.2470    -8.9650    -0.0300 H     1 <1>   0.0800 
 39 H       -6.6860    -8.4530     1.5780 H     1 <1>   0.0800 
 40 H       -8.6000    -9.6300    -0.4650 H     1 <1>   0.0800 
 41 H       -9.0420    -9.1160     1.1490 H     1 <1>   0.0800 
 42 H       -7.9550   -10.4650     0.9260 H     1 <1>   0.0800 
@<TRIPOS>BOND
  1   1   2  2   
  2   2   3  am  
  3   2   4  1   
  4   3   5  1   
  5   3  21  1   
  6   4   6  1   
  7   4   7  1   
  8   4  22  1   
  9   5   8  1   
 10   5   9  1   
 11   5  23  1   
 12   6  10  1   
 13   6  24  1   
 14   6  25  1   
 15   7  11  1   
 16   7  26  1   
 17   7  27  1   
 18   8  10  1   
 19   8  28  1   
 20   8  29  1   
 21   9  11  1   
 22   9  30  1   
 23   9  31  1   
 24  11  12  1   
 25  12  13  1   
 26  12  32  1   
 27  12  33  1   
 28  13  14  1   
 29  13  15  2   
 30  14  16  1   
 31  15  17  1   
 32  15  34  1   
 33  16  17  2   
 34  16  18  1   
 35  17  35  1   
 36  18  19  1   
 37  18  36  1   
 38  18  37  1   
 39  19  20  1   
 40  19  38  1   
 41  19  39  1   
 42  20  40  1   
 43  20  41  1   
 44  20  42  1   
@<TRIPOS>SUBSTRUCTURE
  1 ****  11 GROUP 4 **** **** 0

# MOE 2024.06 (io_trps.svl 2023.06)
