@<TRIPOS>MOLECULE
NONAME
55 58 1 0 0 
SMALL
USER_CHARGES


@<TRIPOS>ATOM
  1 O       -0.7910     0.6580    -1.6850 O.2   1 <1>  -0.5700 
  2 C       -1.7720     1.1080    -1.1200 C.2   1 <1>   0.7160 
  3 N       -2.9910     0.4880    -1.3070 N.am  1 <1>  -0.6600 
  4 C       -1.6390     2.2690    -0.2720 C.2   1 <1>  -0.0860 
  5 C       -3.2210    -0.4770    -2.4180 C.3   1 <1>   0.1400 
  6 C       -4.1210     0.5850    -0.3410 C.3   1 <1>   0.1400 
  7 C       -0.7300     2.5990     0.6920 C.2   1 <1>  -0.3320 
  8 C       -2.4890     3.3770    -0.2960 C.2   1 <1>   0.1390 
  9 C       -3.4990    -1.8660    -1.8400 C.3   1 <1>  -0.1600 
 10 C       -4.4030    -0.7990     0.2480 C.3   1 <1>  -0.1600 
 11 N       -1.0700     3.8090     1.1720 N.pl3 1 <1>   0.3140 
 12 C        0.4660     1.7870     1.1680 C.3   1 <1>  -0.0600 
 13 N       -2.1660     4.2880     0.5640 N.2   1 <1>  -0.7070 
 14 C       -4.6680    -1.8490    -0.8450 C.3   1 <1>   0.4240 
 15 C       -0.3850     4.5830     2.2150 C.3   1 <1>   0.0160 
 16 O       -5.7870    -1.4300    -1.5920 O.3   1 <1>  -0.5600 
 17 C       -4.8810    -3.2510    -0.2350 C.ar  1 <1>  -0.1440 
 18 C       -7.0500    -1.7390    -1.0900 C.3   1 <1>   0.1200 
 19 C       -6.0930    -3.9170    -0.3620 C.ar  1 <1>  -0.1440 
 20 C       -3.8580    -3.8780     0.4640 C.ar  1 <1>  -0.1500 
 21 C       -7.2310    -3.2540    -1.1120 C.3   1 <1>  -0.0170 
 22 C       -6.2700    -5.1750     0.1920 C.ar  1 <1>  -0.1500 
 23 C       -4.0140    -5.1370     1.0180 C.ar  1 <1>   0.0820 
 24 C       -5.2440    -5.8010     0.8950 C.ar  1 <1>   0.0820 
 25 O       -2.9130    -5.6220     1.6600 O.3   1 <1>  -0.3620 
 26 O       -5.4200    -7.0260     1.4740 O.3   1 <1>  -0.3620 
 27 C       -2.6090    -6.9990     1.6370 C.3   1 <1>   0.0400 
 28 C       -6.6810    -7.6560     1.5290 C.3   1 <1>   0.0400 
 29 H       -2.3660    -0.5200    -3.0710 H     1 <1>   0.0800 
 30 H       -4.0640    -0.1470    -3.0000 H     1 <1>   0.0800 
 31 H       -4.9930     0.9530    -0.8550 H     1 <1>   0.0800 
 32 H       -3.8890     1.2640     0.4610 H     1 <1>   0.0800 
 33 H       -3.3290     3.4670    -0.9640 H     1 <1>   0.1500 
 34 H       -2.6030    -2.2110    -1.3590 H     1 <1>   0.0800 
 35 H       -3.7240    -2.5540    -2.6350 H     1 <1>   0.0800 
 36 H       -5.2360    -0.7500     0.9230 H     1 <1>   0.0800 
 37 H       -3.5480    -1.0960     0.8280 H     1 <1>   0.0800 
 38 H        0.5160     0.8480     0.6460 H     1 <1>   0.0800 
 39 H        0.3860     1.5850     2.2210 H     1 <1>   0.0800 
 40 H        1.3770     2.3260     0.9790 H     1 <1>   0.0800 
 41 H       -0.3900     4.0230     3.1310 H     1 <1>   0.0800 
 42 H       -0.9010     5.5140     2.3590 H     1 <1>   0.0800 
 43 H        0.6240     4.7750     1.9050 H     1 <1>   0.0800 
 44 H       -7.7810    -1.2630    -1.7190 H     1 <1>   0.0800 
 45 H       -7.1400    -1.3520    -0.0900 H     1 <1>   0.0800 
 46 H       -2.9060    -3.3950     0.5900 H     1 <1>   0.1500 
 47 H       -7.2440    -3.5980    -2.1310 H     1 <1>   0.0800 
 48 H       -8.1730    -3.5030    -0.6580 H     1 <1>   0.0800 
 49 H       -7.2210    -5.6540     0.0650 H     1 <1>   0.1500 
 50 H       -1.5610    -7.1140     1.8440 H     1 <1>   0.0800 
 51 H       -2.8390    -7.3940     0.6630 H     1 <1>   0.0800 
 52 H       -3.1860    -7.4940     2.3960 H     1 <1>   0.0800 
 53 H       -6.5740    -8.5640     2.0930 H     1 <1>   0.0800 
 54 H       -7.0020    -7.8840     0.5280 H     1 <1>   0.0800 
 55 H       -7.3780    -7.0000     2.0200 H     1 <1>   0.0800 
@<TRIPOS>BOND
  1   1   2  2   
  2   2   3  am  
  3   2   4  1   
  4   3   5  1   
  5   3   6  1   
  6   4   7  2   
  7   4   8  1   
  8   5   9  1   
  9   5  29  1   
 10   5  30  1   
 11   6  10  1   
 12   6  31  1   
 13   6  32  1   
 14   7  11  1   
 15   7  12  1   
 16   8  13  2   
 17   8  33  1   
 18   9  14  1   
 19   9  34  1   
 20   9  35  1   
 21  10  14  1   
 22  10  36  1   
 23  10  37  1   
 24  11  13  1   
 25  11  15  1   
 26  12  38  1   
 27  12  39  1   
 28  12  40  1   
 29  14  16  1   
 30  14  17  1   
 31  15  41  1   
 32  15  42  1   
 33  15  43  1   
 34  16  18  1   
 35  17  19  ar  
 36  17  20  ar  
 37  18  21  1   
 38  18  44  1   
 39  18  45  1   
 40  19  21  1   
 41  19  22  ar  
 42  20  23  ar  
 43  20  46  1   
 44  21  47  1   
 45  21  48  1   
 46  22  24  ar  
 47  22  49  1   
 48  23  24  ar  
 49  23  25  1   
 50  24  26  1   
 51  25  27  1   
 52  26  28  1   
 53  27  50  1   
 54  27  51  1   
 55  27  52  1   
 56  28  53  1   
 57  28  54  1   
 58  28  55  1   
@<TRIPOS>SUBSTRUCTURE
  1 ****  10 GROUP 4 **** **** 0

# MOE 2024.06 (io_trps.svl 2023.06)
