@<TRIPOS>MOLECULE
NONAME
53 54 1 0 0 
SMALL
USER_CHARGES


@<TRIPOS>ATOM
  1 F       -0.4350     0.3550    -0.1370 F     1 <1>  -0.1900 
  2 C       -1.7130     0.6360    -0.1570 C.ar  1 <1>   0.1900 
  3 C       -2.2730     1.6090     0.6790 C.ar  1 <1>   0.0830 
  4 C       -2.4850    -0.0790    -1.0530 C.ar  1 <1>  -0.1500 
  5 O       -1.6200     2.3760     1.5980 O.3   1 <1>  -0.3630 
  6 C       -3.6360     1.8330     0.5790 C.ar  1 <1>  -0.1500 
  7 C       -3.8430     0.1710    -1.1260 C.ar  1 <1>  -0.1500 
  8 C       -0.2400     2.2510     1.8640 C.3   1 <1>   0.0400 
  9 C       -4.4490     1.1280    -0.3100 C.ar  1 <1>   0.0530 
 10 C       -5.8620     1.4040    -0.3840 C.2   1 <1>   0.0870 
 11 O       -6.2750     2.6450    -0.3080 O.3   1 <1>  -0.0190 
 12 C       -6.9710     0.6260    -0.5350 C.2   1 <1>  -0.0860 
 13 N       -7.5710     2.7610    -0.4080 N.2   1 <1>  -0.4100 
 14 C       -8.0150     1.5620    -0.5470 C.2   1 <1>   0.3720 
 15 C       -7.1160    -0.7960    -0.6380 C.2   1 <1>   0.7160 
 16 N       -9.3820     1.2660    -0.6710 N.pl3 1 <1>  -0.8210 
 17 O       -6.2050    -1.5550    -0.3690 O.2   1 <1>  -0.5700 
 18 N       -8.3020    -1.3350    -1.0260 N.am  1 <1>  -0.7300 
 19 C      -10.0750     1.1950     0.6440 C.3   1 <1>   0.1290 
 20 C      -10.1090     2.1590    -1.6190 C.3   1 <1>   0.1290 
 21 C       -8.6450    -2.7750    -1.0800 C.3   1 <1>   0.1400 
 22 C       -8.9320    -3.3030     0.3280 C.3   1 <1>   0.1400 
 23 N       -9.3480    -4.7240     0.2700 N.am  1 <1>  -0.7300 
 24 C      -10.6200    -5.1400     0.0360 C.2   1 <1>   0.5690 
 25 O      -11.5110    -4.3540    -0.1800 O.2   1 <1>  -0.5700 
 26 C      -10.9270    -6.6390     0.0350 C.3   1 <1>  -0.0190 
 27 C      -10.6370    -7.2870     1.4000 C.3   1 <1>  -0.2400 
 28 C      -10.1670    -7.3820    -1.0770 C.3   1 <1>  -0.2400 
 29 H       -2.0280    -0.8220    -1.6820 H     1 <1>   0.1500 
 30 H       -4.0780     2.5790     1.2160 H     1 <1>   0.1500 
 31 H       -4.4420    -0.3840    -1.8260 H     1 <1>   0.1500 
 32 H        0.0150     2.9490     2.6410 H     1 <1>   0.0800 
 33 H        0.3120     2.4840     0.9710 H     1 <1>   0.0800 
 34 H       -0.0360     1.2480     2.1950 H     1 <1>   0.0800 
 35 H       -9.0750    -0.6580    -1.1210 H     1 <1>   0.3700 
 36 H       -9.5380     0.5390     1.3070 H     1 <1>   0.0800 
 37 H      -11.0730     0.8140     0.5150 H     1 <1>   0.0800 
 38 H      -10.1230     2.1750     1.0900 H     1 <1>   0.0800 
 39 H       -9.5500     2.2510    -2.5350 H     1 <1>   0.0800 
 40 H      -10.2310     3.1390    -1.1900 H     1 <1>   0.0800 
 41 H      -11.0770     1.7460    -1.8450 H     1 <1>   0.0800 
 42 H       -7.8210    -3.3190    -1.5090 H     1 <1>   0.0800 
 43 H       -9.5140    -2.9070    -1.7010 H     1 <1>   0.0800 
 44 H       -9.7240    -2.7230     0.7700 H     1 <1>   0.0800 
 45 H       -8.0500    -3.2140     0.9390 H     1 <1>   0.0800 
 46 H       -8.6150    -5.4180     0.4220 H     1 <1>   0.3700 
 47 H      -11.9810    -6.7440    -0.1600 H     1 <1>   0.0800 
 48 H       -9.5880    -7.2380     1.6340 H     1 <1>   0.0800 
 49 H      -10.9420    -8.3190     1.3960 H     1 <1>   0.0800 
 50 H      -11.1840    -6.7740     2.1710 H     1 <1>   0.0800 
 51 H       -9.1050    -7.3330    -0.9160 H     1 <1>   0.0800 
 52 H      -10.3900    -6.9370    -2.0310 H     1 <1>   0.0800 
 53 H      -10.4650    -8.4150    -1.1070 H     1 <1>   0.0800 
@<TRIPOS>BOND
  1   1   2  1   
  2   2   3  ar  
  3   2   4  ar  
  4   3   5  1   
  5   3   6  ar  
  6   4   7  ar  
  7   4  29  1   
  8   5   8  1   
  9   6   9  ar  
 10   6  30  1   
 11   7   9  ar  
 12   7  31  1   
 13   8  32  1   
 14   8  33  1   
 15   8  34  1   
 16   9  10  1   
 17  10  11  1   
 18  10  12  2   
 19  11  13  1   
 20  12  14  1   
 21  12  15  1   
 22  13  14  2   
 23  14  16  1   
 24  15  17  2   
 25  15  18  am  
 26  16  19  1   
 27  16  20  1   
 28  18  21  1   
 29  18  35  1   
 30  19  36  1   
 31  19  37  1   
 32  19  38  1   
 33  20  39  1   
 34  20  40  1   
 35  20  41  1   
 36  21  22  1   
 37  21  42  1   
 38  21  43  1   
 39  22  23  1   
 40  22  44  1   
 41  22  45  1   
 42  23  24  am  
 43  23  46  1   
 44  24  25  2   
 45  24  26  1   
 46  26  27  1   
 47  26  28  1   
 48  26  47  1   
 49  27  48  1   
 50  27  49  1   
 51  27  50  1   
 52  28  51  1   
 53  28  52  1   
 54  28  53  1   
@<TRIPOS>SUBSTRUCTURE
  1 ****  15 GROUP 4 **** **** 0

# MOE 2024.06 (io_trps.svl 2023.06)
