@<TRIPOS>MOLECULE
NONAME
46 47 1 0 0 
SMALL
USER_CHARGES


@<TRIPOS>ATOM
  1 S       -0.3180     0.2650     1.6040 S.o2  1 <1>   1.4470 
  2 O       -1.6890     0.6570     1.3800 O.2   1 <1>  -0.6500 
  3 O        0.0850    -0.2180     2.9050 O.2   1 <1>  -0.6500 
  4 N        0.5160     1.6980     1.3640 N.am  1 <1>  -0.9140 
  5 C        0.3320    -0.8250     0.2920 C.ar  1 <1>  -0.0090 
  6 C        0.4830     2.5510     2.5730 C.3   1 <1>   0.2570 
  7 C       -0.0920    -0.7760    -1.0450 C.ar  1 <1>  -0.1430 
  8 C        1.3290    -1.7400     0.6320 C.ar  1 <1>  -0.1500 
  9 C        1.1510     3.9180     2.3820 C.2   1 <1>   0.5690 
 10 C        0.4690    -1.6280    -1.9890 C.ar  1 <1>  -0.1500 
 11 C       -1.1730     0.1850    -1.5250 C.3   1 <1>  -0.0960 
 12 C        1.8940    -2.5910    -0.3010 C.ar  1 <1>  -0.1500 
 13 O        0.7250     4.8740     2.9820 O.2   1 <1>  -0.5700 
 14 N        2.2070     4.0260     1.5300 N.am  1 <1>  -0.7300 
 15 C        1.4490    -2.5170    -1.6020 C.ar  1 <1>   0.1900 
 16 C        3.0430     5.2420     1.3670 C.3   1 <1>   0.1400 
 17 F        1.9700    -3.3130    -2.4960 F     1 <1>  -0.1900 
 18 C        2.2790     6.3270     0.6030 C.3   1 <1>   0.0960 
 19 N        3.1530     7.4990     0.4040 N.pl3 1 <1>   0.0480 
 20 C        3.9460     7.8150    -0.6520 C.2   1 <1>   0.0070 
 21 C        3.3460     8.4910     1.2910 C.2   1 <1>  -0.3020 
 22 N        4.6070     8.9160    -0.4830 N.2   1 <1>  -0.5650 
 23 C        4.0310     6.9470    -1.9050 C.3   1 <1>   0.0200 
 24 C        4.2320     9.3420     0.7350 C.2   1 <1>   0.0770 
 25 C        5.1400     7.3780    -2.8730 C.3   1 <1>  -0.2400 
 26 H       -0.0560     2.1780     0.6710 H     1 <1>   0.4200 
 27 H        0.9920     2.0540     3.3800 H     1 <1>   0.0800 
 28 H       -0.5380     2.7130     2.8760 H     1 <1>   0.0800 
 29 H        1.6740    -1.7920     1.6530 H     1 <1>   0.1500 
 30 H        0.1570    -1.6130    -3.0180 H     1 <1>   0.1500 
 31 H       -0.9390     1.1950    -1.2450 H     1 <1>   0.0800 
 32 H       -2.1240    -0.0860    -1.1000 H     1 <1>   0.0800 
 33 H       -1.2710     0.1550    -2.5960 H     1 <1>   0.0800 
 34 H        2.6600    -3.2950    -0.0300 H     1 <1>   0.1500 
 35 H        2.5250     3.1720     1.0600 H     1 <1>   0.3700 
 36 H        3.9440     4.9850     0.8370 H     1 <1>   0.0800 
 37 H        3.3100     5.6160     2.3420 H     1 <1>   0.0800 
 38 H        1.4170     6.6360     1.1670 H     1 <1>   0.0800 
 39 H        1.9590     5.9570    -0.3520 H     1 <1>   0.0800 
 40 H        2.8570     8.5390     2.2470 H     1 <1>   0.1500 
 41 H        3.0870     6.9910    -2.4180 H     1 <1>   0.0800 
 42 H        4.2100     5.9280    -1.6140 H     1 <1>   0.0800 
 43 H        4.6260    10.2540     1.1520 H     1 <1>   0.1500 
 44 H        4.9660     8.3860    -3.2060 H     1 <1>   0.0800 
 45 H        5.1650     6.7280    -3.7290 H     1 <1>   0.0800 
 46 H        6.0950     7.3440    -2.3780 H     1 <1>   0.0800 
@<TRIPOS>BOND
  1   1   2  2   
  2   1   3  2   
  3   1   4  am  
  4   1   5  1   
  5   4   6  1   
  6   4  26  1   
  7   5   7  ar  
  8   5   8  ar  
  9   6   9  1   
 10   6  27  1   
 11   6  28  1   
 12   7  10  ar  
 13   7  11  1   
 14   8  12  ar  
 15   8  29  1   
 16   9  13  2   
 17   9  14  am  
 18  10  15  ar  
 19  10  30  1   
 20  11  31  1   
 21  11  32  1   
 22  11  33  1   
 23  12  15  ar  
 24  12  34  1   
 25  14  16  1   
 26  14  35  1   
 27  15  17  1   
 28  16  18  1   
 29  16  36  1   
 30  16  37  1   
 31  18  19  1   
 32  18  38  1   
 33  18  39  1   
 34  19  20  1   
 35  19  21  1   
 36  20  22  2   
 37  20  23  1   
 38  21  24  2   
 39  21  40  1   
 40  22  24  1   
 41  23  25  1   
 42  23  41  1   
 43  23  42  1   
 44  24  43  1   
 45  25  44  1   
 46  25  45  1   
 47  25  46  1   
@<TRIPOS>SUBSTRUCTURE
  1 ****  14 GROUP 4 **** **** 0

# MOE 2024.06 (io_trps.svl 2023.06)
