@<TRIPOS>MOLECULE
NONAME
51 54 1 0 0 
SMALL
USER_CHARGES


@<TRIPOS>ATOM
  1 S       -0.7820     0.8830     0.9990 S.o2  1 <1>   1.5010 
  2 O       -0.8370    -0.1670     1.9960 O.2   1 <1>  -0.6500 
  3 O       -1.3610     2.1760     1.2970 O.2   1 <1>  -0.6500 
  4 N       -1.5380     0.3060    -0.4080 N.am  1 <1>  -0.8490 
  5 C        0.9210     1.1090     0.4540 C.2   1 <1>  -0.0630 
  6 C       -2.9970     0.3540    -0.3410 C.3   1 <1>   0.1960 
  7 C       -1.2130    -1.0870    -0.7140 C.3   1 <1>   0.1960 
  8 C        1.4160     1.9280    -0.5020 C.2   1 <1>  -0.0400 
  9 C        2.0420     0.4250     0.9450 C.2   1 <1>  -0.1500 
 10 C       -3.4270    -0.9630     0.3090 C.3   1 <1>  -0.0800 
 11 C       -2.3690    -1.9580    -0.1990 C.3   1 <1>  -0.0800 
 12 O        2.7210     1.7870    -0.6140 O.3   1 <1>  -0.2800 
 13 C        0.7230     2.9220    -1.4110 C.3   1 <1>  -0.0600 
 14 C        3.1240     0.8730     0.2580 C.2   1 <1>   0.1410 
 15 C       -4.9080    -1.3920     0.1100 C.3   1 <1>   0.2800 
 16 C       -2.9090    -2.8870    -1.3000 C.3   1 <1>  -0.1600 
 17 C        4.5160     0.5030     0.3580 C.2   1 <1>   0.2880 
 18 O       -5.3450    -1.0130    -1.1460 O.3   1 <1>  -0.6800 
 19 C       -5.0120    -2.9270     0.1880 C.3   1 <1>  -0.1600 
 20 C       -5.8750    -0.7610     1.1390 C.3   1 <1>  -0.1600 
 21 C       -4.1430    -3.6790    -0.8420 C.3   1 <1>  -0.1600 
 22 N        4.9780    -0.4200     1.1690 N.2   1 <1>  -0.7070 
 23 C        5.5560     1.0680    -0.3870 C.2   1 <1>  -0.1500 
 24 C       -5.9460     0.7750     1.1600 C.3   1 <1>  -0.2400 
 25 N        6.3040    -0.4510     0.9510 N.pl3 1 <1>   0.3000 
 26 C        6.6790     0.4400     0.0140 C.2   1 <1>  -0.3020 
 27 H       -3.3470     1.2180     0.1950 H     1 <1>   0.0800 
 28 H       -3.3730     0.4090    -1.3480 H     1 <1>   0.0800 
 29 H       -1.1290    -1.1830    -1.7830 H     1 <1>   0.0800 
 30 H       -0.2740    -1.3850    -0.2780 H     1 <1>   0.0800 
 31 H        2.0320    -0.3170     1.7240 H     1 <1>   0.1500 
 32 H       -3.2710    -0.8630     1.3680 H     1 <1>   0.0800 
 33 H       -2.0210    -2.5600     0.6230 H     1 <1>   0.0800 
 34 H       -0.3350     2.9370    -1.2240 H     1 <1>   0.0800 
 35 H        0.8890     2.6520    -2.4380 H     1 <1>   0.0800 
 36 H        1.1190     3.9070    -1.2410 H     1 <1>   0.0800 
 37 H       -3.1870    -2.2870    -2.1500 H     1 <1>   0.0800 
 38 H       -2.1410    -3.5690    -1.6230 H     1 <1>   0.0800 
 39 H       -6.2530    -1.3370    -1.2800 H     1 <1>   0.4000 
 40 H       -4.6870    -3.2230     1.1700 H     1 <1>   0.0800 
 41 H       -6.0360    -3.2420     0.0930 H     1 <1>   0.0800 
 42 H       -6.8650    -1.1420     0.9580 H     1 <1>   0.0800 
 43 H       -5.5940    -1.0940     2.1230 H     1 <1>   0.0800 
 44 H       -3.8310    -4.6150    -0.4100 H     1 <1>   0.0800 
 45 H       -4.7380    -3.9090    -1.7090 H     1 <1>   0.0800 
 46 H        5.4350     1.8450    -1.1200 H     1 <1>   0.1500 
 47 H       -6.1060     1.1670     0.1710 H     1 <1>   0.0800 
 48 H       -5.0430     1.1930     1.5640 H     1 <1>   0.0800 
 49 H       -6.7620     1.0920     1.7850 H     1 <1>   0.0800 
 50 H        6.9280    -1.0910     1.4590 H     1 <1>   0.2700 
 51 H        7.6970     0.5710    -0.3040 H     1 <1>   0.1500 
@<TRIPOS>BOND
  1   1   2  2   
  2   1   3  2   
  3   1   4  am  
  4   1   5  1   
  5   4   6  1   
  6   4   7  1   
  7   5   8  2   
  8   5   9  1   
  9   6  10  1   
 10   6  27  1   
 11   6  28  1   
 12   7  11  1   
 13   7  29  1   
 14   7  30  1   
 15   8  12  1   
 16   8  13  1   
 17   9  14  2   
 18   9  31  1   
 19  10  11  1   
 20  10  15  1   
 21  10  32  1   
 22  11  16  1   
 23  11  33  1   
 24  12  14  1   
 25  13  34  1   
 26  13  35  1   
 27  13  36  1   
 28  14  17  1   
 29  15  18  1   
 30  15  19  1   
 31  15  20  1   
 32  16  21  1   
 33  16  37  1   
 34  16  38  1   
 35  17  22  2   
 36  17  23  1   
 37  18  39  1   
 38  19  21  1   
 39  19  40  1   
 40  19  41  1   
 41  20  24  1   
 42  20  42  1   
 43  20  43  1   
 44  21  44  1   
 45  21  45  1   
 46  22  25  1   
 47  23  26  2   
 48  23  46  1   
 49  24  47  1   
 50  24  48  1   
 51  24  49  1   
 52  25  26  1   
 53  25  50  1   
 54  26  51  1   
@<TRIPOS>SUBSTRUCTURE
  1 ****   4 GROUP 4 **** **** 0

# MOE 2024.06 (io_trps.svl 2023.06)
