@<TRIPOS>MOLECULE
NONAME
47 50 1 0 0 
SMALL
USER_CHARGES


@<TRIPOS>ATOM
  1 O        1.1440    -1.0730     2.1410 O.2   1 <1>  -0.5700 
  2 C        0.8010    -1.5240     1.0620 C.2   1 <1>   0.5440 
  3 N        1.7030    -2.3120     0.3960 N.am  1 <1>  -0.6600 
  4 C       -0.5290    -1.2750     0.5280 C.ar  1 <1>   0.0860 
  5 C        3.1650    -1.9220     0.3240 C.3   1 <1>   0.2810 
  6 C        1.4200    -3.7740     0.4240 C.3   1 <1>   0.1400 
  7 C       -1.5630    -0.8220     1.3490 C.ar  1 <1>  -0.1500 
  8 C       -0.8280    -1.4750    -0.8210 C.ar  1 <1>  -0.1500 
  9 C        3.4330    -0.3990     0.1510 C.2   1 <1>   0.5690 
 10 C        3.8630    -2.7260    -0.7980 C.3   1 <1>  -0.1600 
 11 C        2.1080    -4.5000    -0.7300 C.3   1 <1>  -0.1600 
 12 C       -2.8330    -0.5910     0.8550 C.ar  1 <1>  -0.1500 
 13 C       -2.0960    -1.2460    -1.3240 C.ar  1 <1>  -0.1500 
 14 O        3.8500     0.0280    -0.9030 O.2   1 <1>  -0.5700 
 15 N        3.2190     0.4400     1.2050 N.am  1 <1>  -0.4940 
 16 C        3.6130    -4.2350    -0.7160 C.3   1 <1>  -0.1600 
 17 C       -3.1030    -0.8040    -0.4850 C.ar  1 <1>  -0.1500 
 18 C        3.3860     1.8260     1.3080 C.2   1 <1>   0.2510 
 19 N        2.5980     2.5400     2.0490 N.2   1 <1>  -0.3380 
 20 N        4.3360     2.5840     0.7160 N.pl3 1 <1>   0.3340 
 21 N        2.9920     3.8090     1.9540 N.2   1 <1>  -0.3380 
 22 C        4.0240     3.8350     1.1630 C.2   1 <1>   0.3120 
 23 C        5.4770     2.4070    -0.0600 C.2   1 <1>  -0.1810 
 24 N        4.7450     4.9570     0.8160 N.2   1 <1>  -0.5760 
 25 C        6.1970     3.5060    -0.3920 C.2   1 <1>  -0.1360 
 26 C        5.7800     4.7870     0.0690 C.2   1 <1>   0.3750 
 27 C        6.5960     5.9940    -0.3360 C.3   1 <1>  -0.1790 
 28 H        3.6150    -2.2110     1.2570 H     1 <1>   0.0800 
 29 H        0.3570    -3.9420     0.3690 H     1 <1>   0.0800 
 30 H        1.7690    -4.1760     1.3610 H     1 <1>   0.0800 
 31 H       -1.3620    -0.6470     2.3930 H     1 <1>   0.1500 
 32 H       -0.0540    -1.8100    -1.4900 H     1 <1>   0.1500 
 33 H        4.9220    -2.5390    -0.7570 H     1 <1>   0.0800 
 34 H        3.5130    -2.3690    -1.7520 H     1 <1>   0.0800 
 35 H        1.6810    -4.1690    -1.6620 H     1 <1>   0.0800 
 36 H        1.9270    -5.5570    -0.6430 H     1 <1>   0.0800 
 37 H       -3.6120    -0.2420     1.5110 H     1 <1>   0.1500 
 38 H       -2.3010    -1.4080    -2.3680 H     1 <1>   0.1500 
 39 H        2.5730     0.0600     1.9150 H     1 <1>   0.3700 
 40 H        4.0460    -4.6290     0.1880 H     1 <1>   0.0800 
 41 H        4.0780    -4.7270    -1.5530 H     1 <1>   0.0800 
 42 H       -4.0910    -0.6240    -0.8730 H     1 <1>   0.1500 
 43 H        5.7290     1.4070    -0.3590 H     1 <1>   0.1500 
 44 H        7.0840     3.4460    -0.9960 H     1 <1>   0.1500 
 45 H        7.6010     5.8960     0.0300 H     1 <1>   0.0800 
 46 H        6.1650     6.8890     0.0760 H     1 <1>   0.0800 
 47 H        6.6120     6.0820    -1.4070 H     1 <1>   0.0800 
@<TRIPOS>BOND
  1   1   2  2   
  2   2   3  am  
  3   2   4  1   
  4   3   5  1   
  5   3   6  1   
  6   4   7  ar  
  7   4   8  ar  
  8   5   9  1   
  9   5  10  1   
 10   5  28  1   
 11   6  11  1   
 12   6  29  1   
 13   6  30  1   
 14   7  12  ar  
 15   7  31  1   
 16   8  13  ar  
 17   8  32  1   
 18   9  14  2   
 19   9  15  am  
 20  10  16  1   
 21  10  33  1   
 22  10  34  1   
 23  11  16  1   
 24  11  35  1   
 25  11  36  1   
 26  12  17  ar  
 27  12  37  1   
 28  13  17  ar  
 29  13  38  1   
 30  15  18  1   
 31  15  39  1   
 32  16  40  1   
 33  16  41  1   
 34  17  42  1   
 35  18  19  2   
 36  18  20  1   
 37  19  21  1   
 38  20  22  1   
 39  20  23  1   
 40  21  22  2   
 41  22  24  1   
 42  23  25  2   
 43  23  43  1   
 44  24  26  2   
 45  25  26  1   
 46  25  44  1   
 47  26  27  1   
 48  27  45  1   
 49  27  46  1   
 50  27  47  1   
@<TRIPOS>SUBSTRUCTURE
  1 ****  15 GROUP 4 **** **** 0

# MOE 2024.06 (io_trps.svl 2023.06)
