@<TRIPOS>MOLECULE
NONAME
41 43 1 0 0 
SMALL
USER_CHARGES


@<TRIPOS>ATOM
  1 S        0.1110    -0.0960     1.3870 S.o2  1 <1>   1.4470 
  2 O       -0.4680    -1.2180     2.0930 O.2   1 <1>  -0.6500 
  3 O        0.5200     1.0760     2.1320 O.2   1 <1>  -0.6500 
  4 N       -1.0300     0.4200     0.2450 N.am  1 <1>  -0.8490 
  5 C        1.4810    -0.6930     0.3550 C.ar  1 <1>  -0.0090 
  6 C       -2.3580     0.5890     0.8580 C.3   1 <1>   0.1960 
  7 C       -0.6220     1.6570    -0.4280 C.3   1 <1>   0.1960 
  8 C        1.2520    -1.6180    -0.6620 C.ar  1 <1>  -0.1500 
  9 C        2.7850    -0.2440     0.5600 C.ar  1 <1>  -0.1500 
 10 C       -3.4490     0.8830    -0.2040 C.3   1 <1>   0.0000 
 11 C       -1.6090     2.0040    -1.5470 C.3   1 <1>  -0.1600 
 12 C        2.2850    -2.0830    -1.4590 C.ar  1 <1>  -0.1500 
 13 C        3.8330    -0.6970    -0.2260 C.ar  1 <1>  -0.1500 
 14 C       -4.8470     1.0470     0.4250 C.3   1 <1>   0.2000 
 15 C       -3.0430     2.1330    -1.0100 C.3   1 <1>  -0.1600 
 16 C       -3.6590    -0.3470    -1.1060 C.3   1 <1>  -0.1600 
 17 C        3.5610    -1.6100    -1.2250 C.ar  1 <1>   0.1900 
 18 O       -4.8210     1.6960     1.6480 O.3   1 <1>  -0.6800 
 19 C       -5.4310    -0.3580     0.5850 C.3   1 <1>  -0.1600 
 20 C       -4.5990    -1.2700    -0.3270 C.3   1 <1>  -0.1600 
 21 F        4.5410    -2.0410    -1.9710 F     1 <1>  -0.1900 
 22 H       -2.6260    -0.3070     1.3920 H     1 <1>   0.0800 
 23 H       -2.3120     1.3960     1.5710 H     1 <1>   0.0800 
 24 H       -0.5800     2.4680     0.2830 H     1 <1>   0.0800 
 25 H        0.3600     1.5340    -0.8540 H     1 <1>   0.0800 
 26 H        0.2480    -1.9750    -0.8280 H     1 <1>   0.1500 
 27 H        2.9820     0.4680     1.3450 H     1 <1>   0.1500 
 28 H       -1.3140     2.9310    -2.0050 H     1 <1>   0.0800 
 29 H       -1.5640     1.2390    -2.3020 H     1 <1>   0.0800 
 30 H        2.1090    -2.7960    -2.2440 H     1 <1>   0.1500 
 31 H        4.8390    -0.3510    -0.0700 H     1 <1>   0.1500 
 32 H       -5.4740     1.6210    -0.2370 H     1 <1>   0.0800 
 33 H       -3.7260     2.2950    -1.8260 H     1 <1>   0.0800 
 34 H       -3.0970     2.9940    -0.3650 H     1 <1>   0.0800 
 35 H       -4.1470    -0.0480    -2.0180 H     1 <1>   0.0800 
 36 H       -2.7380    -0.8420    -1.3620 H     1 <1>   0.0800 
 37 H       -4.4920     1.0950     2.3420 H     1 <1>   0.4000 
 38 H       -5.3660    -0.7050     1.6010 H     1 <1>   0.0800 
 39 H       -6.4610    -0.3580     0.2750 H     1 <1>   0.0800 
 40 H       -4.0190    -1.9500     0.2740 H     1 <1>   0.0800 
 41 H       -5.2220    -1.8440    -0.9920 H     1 <1>   0.0800 
@<TRIPOS>BOND
  1   1   2  2   
  2   1   3  2   
  3   1   4  am  
  4   1   5  1   
  5   4   6  1   
  6   4   7  1   
  7   5   8  ar  
  8   5   9  ar  
  9   6  10  1   
 10   6  22  1   
 11   6  23  1   
 12   7  11  1   
 13   7  24  1   
 14   7  25  1   
 15   8  12  ar  
 16   8  26  1   
 17   9  13  ar  
 18   9  27  1   
 19  10  14  1   
 20  10  15  1   
 21  10  16  1   
 22  11  15  1   
 23  11  28  1   
 24  11  29  1   
 25  12  17  ar  
 26  12  30  1   
 27  13  17  ar  
 28  13  31  1   
 29  14  18  1   
 30  14  19  1   
 31  14  32  1   
 32  15  33  1   
 33  15  34  1   
 34  16  20  1   
 35  16  35  1   
 36  16  36  1   
 37  17  21  1   
 38  18  37  1   
 39  19  20  1   
 40  19  38  1   
 41  19  39  1   
 42  20  40  1   
 43  20  41  1   
@<TRIPOS>SUBSTRUCTURE
  1 ****   4 GROUP 4 **** **** 0

# MOE 2024.06 (io_trps.svl 2023.06)
