@<TRIPOS>MOLECULE
NONAME
46 48 1 0 0 
SMALL
USER_CHARGES


@<TRIPOS>ATOM
  1 N       -0.1810     0.3090     0.4390 N.ar  1 <1>  -0.1790 
  2 C        0.6030     0.1890    -0.6700 C.ar  1 <1>   0.7710 
  3 C       -0.4010    -0.6950     1.2970 C.ar  1 <1>   0.4610 
  4 N        1.1880    -0.9310    -1.0040 N.ar  1 <1>  -0.5670 
  5 N        0.7480     1.3080    -1.4440 N.pl3 1 <1>  -0.8380 
  6 N       -1.1930    -0.5200     2.3700 N.pl3 1 <1>  -0.9000 
  7 C        0.2340    -1.9020     0.9860 C.ar  1 <1>   0.0000 
  8 C        1.0010    -1.9710    -0.1530 C.ar  1 <1>   0.1050 
  9 C        1.2480     2.6030    -0.8950 C.3   1 <1>   0.2090 
 10 C        0.9650     1.1630    -2.9190 C.3   1 <1>   0.1290 
 11 C        0.3290    -3.1890     1.5380 C.2   1 <1>   0.1390 
 12 N        1.4920    -3.2330    -0.2160 N.pl3 1 <1>   0.3140 
 13 C        2.6690     2.4250    -0.3550 C.3   1 <1>  -0.1600 
 14 N        1.0680    -3.9780     0.8350 N.2   1 <1>  -0.7070 
 15 C        2.3760    -3.8030    -1.2440 C.3   1 <1>   0.0160 
 16 C        3.2860     3.7610     0.0720 C.3   1 <1>   0.0210 
 17 C        4.6590     3.5250     0.6760 C.2   1 <1>  -0.1810 
 18 C        5.8410     3.2670    -0.0190 C.2   1 <1>   0.1080 
 19 C        5.0180     3.5090     1.9800 C.2   1 <1>  -0.3320 
 20 N        6.8490     3.0990     0.7740 N.2   1 <1>  -0.7070 
 21 C        6.0040     3.1790    -1.5200 C.3   1 <1>  -0.0590 
 22 N        6.3430     3.2530     2.0080 N.pl3 1 <1>   0.3000 
 23 C        4.2050     3.7220     3.2470 C.3   1 <1>  -0.0600 
 24 H       -0.6330     1.2040     0.5380 H     1 <1>   0.4570 
 25 H       -1.3790    -1.2820     3.0360 H     1 <1>   0.4000 
 26 H       -1.6910     0.3360     2.6380 H     1 <1>   0.4000 
 27 H        0.5990     2.9580    -0.1130 H     1 <1>   0.0800 
 28 H        1.2520     3.3470    -1.6760 H     1 <1>   0.0800 
 29 H        0.5400     0.2400    -3.2790 H     1 <1>   0.0800 
 30 H        2.0200     1.1620    -3.1390 H     1 <1>   0.0800 
 31 H        0.4970     1.9760    -3.4470 H     1 <1>   0.0800 
 32 H       -0.1580    -3.4950     2.4490 H     1 <1>   0.1500 
 33 H        3.2900     1.9860    -1.1160 H     1 <1>   0.0800 
 34 H        2.6630     1.7650     0.4940 H     1 <1>   0.0800 
 35 H        2.6090    -3.0580    -1.9810 H     1 <1>   0.0800 
 36 H        1.8800    -4.6330    -1.7110 H     1 <1>   0.0800 
 37 H        3.2810    -4.1450    -0.7750 H     1 <1>   0.0800 
 38 H        2.6570     4.2460     0.7960 H     1 <1>   0.0800 
 39 H        3.3790     4.4210    -0.7730 H     1 <1>   0.0800 
 40 H        5.3800     3.9010    -2.0110 H     1 <1>   0.0800 
 41 H        5.7470     2.1910    -1.8530 H     1 <1>   0.0800 
 42 H        7.0280     3.3770    -1.7820 H     1 <1>   0.0800 
 43 H        6.9290     3.1790     2.8470 H     1 <1>   0.2700 
 44 H        3.1680     3.8740     3.0180 H     1 <1>   0.0800 
 45 H        4.5680     4.5880     3.7740 H     1 <1>   0.0800 
 46 H        4.2910     2.8640     3.8890 H     1 <1>   0.0800 
@<TRIPOS>BOND
  1   1   2  ar  
  2   1   3  ar  
  3   1  24  1   
  4   2   4  ar  
  5   2   5  1   
  6   3   6  1   
  7   3   7  ar  
  8   4   8  ar  
  9   5   9  1   
 10   5  10  1   
 11   6  25  1   
 12   6  26  1   
 13   7   8  ar  
 14   7  11  1   
 15   8  12  1   
 16   9  13  1   
 17   9  27  1   
 18   9  28  1   
 19  10  29  1   
 20  10  30  1   
 21  10  31  1   
 22  11  14  2   
 23  11  32  1   
 24  12  14  1   
 25  12  15  1   
 26  13  16  1   
 27  13  33  1   
 28  13  34  1   
 29  15  35  1   
 30  15  36  1   
 31  15  37  1   
 32  16  17  1   
 33  16  38  1   
 34  16  39  1   
 35  17  18  1   
 36  17  19  2   
 37  18  20  2   
 38  18  21  1   
 39  19  22  1   
 40  19  23  1   
 41  20  22  1   
 42  21  40  1   
 43  21  41  1   
 44  21  42  1   
 45  22  43  1   
 46  23  44  1   
 47  23  45  1   
 48  23  46  1   
@<TRIPOS>SUBSTRUCTURE
  1 ****  13 GROUP 4 **** **** 0

# MOE 2024.06 (io_trps.svl 2023.06)
