@<TRIPOS>MOLECULE
NONAME
42 44 1 0 0 
SMALL
USER_CHARGES


@<TRIPOS>ATOM
  1 O       -0.5730     0.2000     1.0570 O.2   1 <1>  -0.5700 
  2 C       -1.5620     0.8200     0.7140 C.2   1 <1>   0.7160 
  3 N       -2.7320     0.1240     0.5060 N.am  1 <1>  -0.6600 
  4 C       -1.4910     2.2490     0.5180 C.2   1 <1>  -0.0860 
  5 C       -3.8980     0.6380    -0.2610 C.3   1 <1>   0.1400 
  6 C       -2.8110    -1.3550     0.6210 C.3   1 <1>   0.1400 
  7 C       -0.5650     2.9800    -0.1610 C.2   1 <1>  -0.0400 
  8 C       -2.3890     3.2170     1.0180 C.2   1 <1>  -0.1500 
  9 C       -4.9150    -0.5000    -0.2140 C.3   1 <1>   0.2000 
 10 C       -4.0460    -1.7610    -0.1910 C.3   1 <1>  -0.0800 
 11 O       -0.8480     4.2590    -0.1190 O.3   1 <1>  -0.2800 
 12 C        0.6740     2.5460    -0.9150 C.3   1 <1>  -0.0600 
 13 C       -1.9420     4.4130     0.5910 C.2   1 <1>  -0.0400 
 14 O       -5.6170    -0.3990     0.9780 O.3   1 <1>  -0.6800 
 15 C       -4.7410    -3.0350     0.3240 C.3   1 <1>  -0.0170 
 16 C       -2.4760     5.8120     0.8040 C.3   1 <1>  -0.0600 
 17 C       -3.8140    -4.2360     0.2280 C.ar  1 <1>  -0.1430 
 18 C       -3.6550    -4.9380    -0.9490 C.ar  1 <1>  -0.1500 
 19 C       -3.0820    -4.6860     1.3090 C.ar  1 <1>  -0.1500 
 20 C       -2.7940    -6.0220    -0.9900 C.ar  1 <1>   0.1600 
 21 C       -2.2460    -5.7810     1.1610 C.ar  1 <1>   0.1600 
 22 N       -2.0840    -6.4590     0.0370 N.ar  1 <1>  -0.6200 
 23 H       -4.3020     1.5400     0.1620 H     1 <1>   0.0800 
 24 H       -3.5950     0.8210    -1.2770 H     1 <1>   0.0800 
 25 H       -1.9200    -1.8240     0.2360 H     1 <1>   0.0800 
 26 H       -2.9270    -1.6170     1.6590 H     1 <1>   0.0800 
 27 H       -3.2480     3.0050     1.6290 H     1 <1>   0.1500 
 28 H       -5.6180    -0.4760    -1.0300 H     1 <1>   0.0800 
 29 H       -3.7160    -1.9450    -1.1990 H     1 <1>   0.0800 
 30 H        0.7870     1.4780    -0.8800 H     1 <1>   0.0800 
 31 H        1.5410     3.0010    -0.4720 H     1 <1>   0.0800 
 32 H        0.6030     2.8580    -1.9410 H     1 <1>   0.0800 
 33 H       -4.9780    -0.2740     1.7080 H     1 <1>   0.4000 
 34 H       -5.6260    -3.2200    -0.2600 H     1 <1>   0.0800 
 35 H       -5.0540    -2.9060     1.3460 H     1 <1>   0.0800 
 36 H       -3.3680     5.7840     1.4030 H     1 <1>   0.0800 
 37 H       -2.7040     6.2610    -0.1460 H     1 <1>   0.0800 
 38 H       -1.7360     6.4090     1.3040 H     1 <1>   0.0800 
 39 H       -4.1930    -4.6540    -1.8350 H     1 <1>   0.1500 
 40 H       -3.1500    -4.1970     2.2630 H     1 <1>   0.1500 
 41 H       -2.6830    -6.5580    -1.9170 H     1 <1>   0.1500 
 42 H       -1.6810    -6.1160     2.0140 H     1 <1>   0.1500 
@<TRIPOS>BOND
  1   1   2  2   
  2   2   3  am  
  3   2   4  1   
  4   3   5  1   
  5   3   6  1   
  6   4   7  2   
  7   4   8  1   
  8   5   9  1   
  9   5  23  1   
 10   5  24  1   
 11   6  10  1   
 12   6  25  1   
 13   6  26  1   
 14   7  11  1   
 15   7  12  1   
 16   8  13  2   
 17   8  27  1   
 18   9  10  1   
 19   9  14  1   
 20   9  28  1   
 21  10  15  1   
 22  10  29  1   
 23  11  13  1   
 24  12  30  1   
 25  12  31  1   
 26  12  32  1   
 27  13  16  1   
 28  14  33  1   
 29  15  17  1   
 30  15  34  1   
 31  15  35  1   
 32  16  36  1   
 33  16  37  1   
 34  16  38  1   
 35  17  18  ar  
 36  17  19  ar  
 37  18  20  ar  
 38  18  39  1   
 39  19  21  ar  
 40  19  40  1   
 41  20  22  ar  
 42  20  41  1   
 43  21  22  ar  
 44  21  42  1   
@<TRIPOS>SUBSTRUCTURE
  1 ****   3 GROUP 4 **** **** 0

# MOE 2024.06 (io_trps.svl 2023.06)
