@<TRIPOS>MOLECULE
NONAME
29 30 1 0 0 
SMALL
USER_CHARGES


@<TRIPOS>ATOM
  1 N        0.7540    -0.5050     1.1840 N.ar  1 <1>  -0.6200 
  2 C        1.5950     0.3410     0.6080 C.ar  1 <1>   0.1600 
  3 C        0.8240    -1.7530     0.7660 C.ar  1 <1>   0.1600 
  4 C        2.5210     0.0070    -0.3720 C.ar  1 <1>   0.0730 
  5 C        1.7100    -2.2150    -0.1980 C.ar  1 <1>  -0.1440 
  6 C        3.3940     0.9900    -0.9400 C.1   1 <1>  -0.0730 
  7 C        2.5770    -1.3110    -0.7840 C.ar  1 <1>  -0.1500 
  8 C        1.7530    -3.6780    -0.5980 C.3   1 <1>   0.5670 
  9 C        4.1200     1.8060    -1.4120 C.1   1 <1>  -0.1770 
 10 N        2.3000    -4.4540     0.5400 N.4   1 <1>  -0.9590 
 11 C        0.3880    -4.2980    -0.9090 C.3   1 <1>  -0.1600 
 12 C        1.6060    -5.7630     0.5670 C.3   1 <1>   0.3430 
 13 C        3.7890    -4.5650     0.5120 C.3   1 <1>   0.2630 
 14 C        0.2000    -5.4350     0.0970 C.3   1 <1>  -0.1600 
 15 H        1.5490     1.3680     0.9320 H     1 <1>   0.1500 
 16 H        0.1300    -2.4360     1.2280 H     1 <1>   0.1500 
 17 H        3.2850    -1.5990    -1.5430 H     1 <1>   0.1500 
 18 H        2.3900    -3.7980    -1.4610 H     1 <1>   0.0800 
 19 H        4.7740     2.5480    -1.8370 H     1 <1>   0.1770 
 20 H        2.0290    -3.9320     1.3840 H     1 <1>   0.4500 
 21 H       -0.4150    -3.5830    -0.8620 H     1 <1>   0.0800 
 22 H        0.4160    -4.6920    -1.9100 H     1 <1>   0.0800 
 23 H        2.0710    -6.4420    -0.1300 H     1 <1>   0.0800 
 24 H        1.6080    -6.2010     1.5530 H     1 <1>   0.0800 
 25 H        4.1120    -5.0900    -0.3720 H     1 <1>   0.0800 
 26 H        4.1400    -5.1020     1.3790 H     1 <1>   0.0800 
 27 H        4.2360    -3.5840     0.5150 H     1 <1>   0.0800 
 28 H       -0.2820    -6.2930    -0.3410 H     1 <1>   0.0800 
 29 H       -0.3880    -5.1010     0.9350 H     1 <1>   0.0800 
@<TRIPOS>BOND
  1   1   2  ar  
  2   1   3  ar  
  3   2   4  ar  
  4   2  15  1   
  5   3   5  ar  
  6   3  16  1   
  7   4   6  1   
  8   4   7  ar  
  9   5   7  ar  
 10   5   8  1   
 11   6   9  3   
 12   7  17  1   
 13   8  10  1   
 14   8  11  1   
 15   8  18  1   
 16   9  19  1   
 17  10  12  1   
 18  10  13  1   
 19  10  20  1   
 20  11  14  1   
 21  11  21  1   
 22  11  22  1   
 23  12  14  1   
 24  12  23  1   
 25  12  24  1   
 26  13  25  1   
 27  13  26  1   
 28  13  27  1   
 29  14  28  1   
 30  14  29  1   
@<TRIPOS>SUBSTRUCTURE
  1 ****   5 GROUP 4 **** **** 0

# MOE 2024.06 (io_trps.svl 2023.06)
