@<TRIPOS>MOLECULE
NONAME
43 45 1 0 0 
SMALL
USER_CHARGES


@<TRIPOS>ATOM
  1 O        0.5670    -1.1360     2.4770 O.2   1 <1>  -0.5700 
  2 C        0.8000    -1.6850     1.4120 C.2   1 <1>   0.5440 
  3 N        0.7470    -0.8960     0.2750 N.am  1 <1>  -0.6600 
  4 C        1.1440    -3.1100     1.4170 C.ar  1 <1>   0.3960 
  5 C        1.0850    -1.3230    -1.1030 C.3   1 <1>   0.1400 
  6 C        0.4970     0.5620     0.3250 C.3   1 <1>   0.1400 
  7 N        0.8470    -3.9080     0.3760 N.ar  1 <1>  -0.6200 
  8 C        1.7890    -3.6130     2.5530 C.ar  1 <1>   0.1600 
  9 C        0.9240    -0.0720    -1.9610 C.3   1 <1>  -0.1600 
 10 C        1.0570     1.0950    -0.9870 C.3   1 <1>  -0.1600 
 11 C        1.2180    -5.1580     0.5440 C.ar  1 <1>   0.4100 
 12 N        2.1830    -4.8680     2.7320 N.ar  1 <1>  -0.6200 
 13 N        0.8920    -5.9670    -0.5120 N.pl3 1 <1>  -0.8690 
 14 C        1.8820    -5.6170     1.6920 C.ar  1 <1>   0.1600 
 15 C        0.1090    -7.2000    -0.3080 C.3   1 <1>   0.2090 
 16 C       -1.3540    -6.9050    -0.6280 C.3   1 <1>  -0.1600 
 17 C       -2.2270    -8.1450    -0.4040 C.3   1 <1>   0.0960 
 18 N       -3.6310    -7.8450    -0.7350 N.pl3 1 <1>   0.0480 
 19 C       -4.2150    -7.9650    -1.9570 C.2   1 <1>  -0.3020 
 20 C       -4.5840    -7.3890     0.1200 C.2   1 <1>  -0.3020 
 21 C       -5.5180    -7.5890    -1.8770 C.2   1 <1>  -0.1500 
 22 C       -5.7540    -7.2210    -0.5490 C.2   1 <1>  -0.1500 
 23 H        0.4220    -2.1020    -1.4370 H     1 <1>   0.0800 
 24 H        2.1030    -1.6730    -1.1270 H     1 <1>   0.0800 
 25 H        0.9800     1.0130     1.1750 H     1 <1>   0.0800 
 26 H       -0.5650     0.7310     0.3820 H     1 <1>   0.0800 
 27 H        1.9920    -2.9300     3.3600 H     1 <1>   0.1500 
 28 H       -0.0610    -0.0730    -2.3940 H     1 <1>   0.0800 
 29 H        1.6530    -0.0330    -2.7510 H     1 <1>   0.0800 
 30 H        2.0960     1.3400    -0.8480 H     1 <1>   0.0800 
 31 H        0.5310     1.9720    -1.3200 H     1 <1>   0.0800 
 32 H        0.5230    -5.4010    -1.2820 H     1 <1>   0.4000 
 33 H        2.1680    -6.6510     1.7230 H     1 <1>   0.1500 
 34 H        0.2030    -7.5390     0.7100 H     1 <1>   0.0800 
 35 H        0.4870    -7.9690    -0.9620 H     1 <1>   0.0800 
 36 H       -1.4390    -6.5960    -1.6550 H     1 <1>   0.0800 
 37 H       -1.7030    -6.1110     0.0100 H     1 <1>   0.0800 
 38 H       -2.1780    -8.4580     0.6240 H     1 <1>   0.0800 
 39 H       -1.8950    -8.9560    -1.0280 H     1 <1>   0.0800 
 40 H       -3.6780    -8.3090    -2.8230 H     1 <1>   0.1500 
 41 H       -4.3840    -7.2040     1.1610 H     1 <1>   0.1500 
 42 H       -6.2510    -7.5680    -2.6650 H     1 <1>   0.1500 
 43 H       -6.6960    -6.8740    -0.1610 H     1 <1>   0.1500 
@<TRIPOS>BOND
  1   1   2  2   
  2   2   3  am  
  3   2   4  1   
  4   3   5  1   
  5   3   6  1   
  6   4   7  ar  
  7   4   8  ar  
  8   5   9  1   
  9   5  23  1   
 10   5  24  1   
 11   6  10  1   
 12   6  25  1   
 13   6  26  1   
 14   7  11  ar  
 15   8  12  ar  
 16   8  27  1   
 17   9  10  1   
 18   9  28  1   
 19   9  29  1   
 20  10  30  1   
 21  10  31  1   
 22  11  13  1   
 23  11  14  ar  
 24  12  14  ar  
 25  13  15  1   
 26  13  32  1   
 27  14  33  1   
 28  15  16  1   
 29  15  34  1   
 30  15  35  1   
 31  16  17  1   
 32  16  36  1   
 33  16  37  1   
 34  17  18  1   
 35  17  38  1   
 36  17  39  1   
 37  18  19  1   
 38  18  20  1   
 39  19  21  2   
 40  19  40  1   
 41  20  22  2   
 42  20  41  1   
 43  21  22  1   
 44  21  42  1   
 45  22  43  1   
@<TRIPOS>SUBSTRUCTURE
  1 ****   7 GROUP 4 **** **** 0

# MOE 2024.06 (io_trps.svl 2023.06)
