@<TRIPOS>MOLECULE
NONAME
42 44 1 0 0 
SMALL
USER_CHARGES


@<TRIPOS>ATOM
  1 F        1.1650    -1.1310    -1.4700 F     1 <1>  -0.1900 
  2 C        1.5310    -1.9080    -0.4860 C.ar  1 <1>   0.1900 
  3 C        0.5650    -2.4590     0.3440 C.ar  1 <1>  -0.1440 
  4 C        2.8860    -2.1450    -0.3250 C.ar  1 <1>  -0.1500 
  5 C        1.0360    -3.2790     1.3590 C.ar  1 <1>   0.1900 
  6 C       -0.9290    -2.1890     0.1460 C.3   1 <1>   0.0440 
  7 C        3.3150    -2.9680     0.7050 C.ar  1 <1>  -0.1500 
  8 F        0.1820    -3.8480     2.1680 F     1 <1>  -0.1900 
  9 C        2.3820    -3.5410     1.5550 C.ar  1 <1>  -0.1500 
 10 C       -1.6040    -3.2630    -0.6910 C.2   1 <1>   0.5690 
 11 O       -2.3650    -2.9360    -1.5680 O.2   1 <1>  -0.5700 
 12 N       -1.3480    -4.5670    -0.4200 N.am  1 <1>  -0.7300 
 13 C       -1.8720    -5.7200    -1.1830 C.3   1 <1>   0.2200 
 14 C       -2.7660    -6.5500    -0.2790 C.3   1 <1>  -0.0800 
 15 C       -0.7340    -6.6920    -1.4800 C.3   1 <1>   0.1200 
 16 C       -1.7450    -7.4160     0.4650 C.3   1 <1>   0.1200 
 17 C       -3.7640    -7.3940    -1.0950 C.3   1 <1>  -0.0160 
 18 O       -0.6260    -7.5300    -0.3650 O.3   1 <1>  -0.5600 
 19 C       -4.6710    -8.2160    -0.1910 C.ar  1 <1>  -0.1430 
 20 C       -5.7140    -7.6400     0.5080 C.ar  1 <1>  -0.1500 
 21 C       -4.5030    -9.5750    -0.0220 C.ar  1 <1>  -0.1500 
 22 C       -6.5110    -8.4290     1.3210 C.ar  1 <1>   0.1600 
 23 C       -5.3570   -10.2730     0.8160 C.ar  1 <1>   0.1600 
 24 N       -6.3570    -9.7320     1.4930 N.ar  1 <1>  -0.6200 
 25 H        3.5910    -1.6910    -0.9990 H     1 <1>   0.1500 
 26 H       -1.0750    -1.2390    -0.3340 H     1 <1>   0.0800 
 27 H       -1.4260    -2.1400     1.0960 H     1 <1>   0.0800 
 28 H        4.3650    -3.1620     0.8430 H     1 <1>   0.1500 
 29 H        2.6920    -4.1850     2.3590 H     1 <1>   0.1500 
 30 H       -0.6960    -4.8120     0.3300 H     1 <1>   0.3700 
 31 H       -2.3650    -5.3840    -2.0800 H     1 <1>   0.0800 
 32 H       -3.3170    -5.9270     0.4040 H     1 <1>   0.0800 
 33 H        0.2030    -6.1920    -1.6500 H     1 <1>   0.0800 
 34 H       -0.9750    -7.3100    -2.3270 H     1 <1>   0.0800 
 35 H       -2.1100    -8.3990     0.7010 H     1 <1>   0.0800 
 36 H       -1.4260    -6.9290     1.3710 H     1 <1>   0.0800 
 37 H       -3.2370    -8.0500    -1.7660 H     1 <1>   0.0800 
 38 H       -4.3760    -6.7420    -1.6930 H     1 <1>   0.0800 
 39 H       -5.9130    -6.5870     0.4270 H     1 <1>   0.1500 
 40 H       -3.7150   -10.1000    -0.5330 H     1 <1>   0.1500 
 41 H       -7.3190    -7.9620     1.8580 H     1 <1>   0.1500 
 42 H       -5.2100   -11.3320     0.9350 H     1 <1>   0.1500 
@<TRIPOS>BOND
  1   1   2  1   
  2   2   3  ar  
  3   2   4  ar  
  4   3   5  ar  
  5   3   6  1   
  6   4   7  ar  
  7   4  25  1   
  8   5   8  1   
  9   5   9  ar  
 10   6  10  1   
 11   6  26  1   
 12   6  27  1   
 13   7   9  ar  
 14   7  28  1   
 15   9  29  1   
 16  10  11  2   
 17  10  12  am  
 18  12  13  1   
 19  12  30  1   
 20  13  14  1   
 21  13  15  1   
 22  13  31  1   
 23  14  16  1   
 24  14  17  1   
 25  14  32  1   
 26  15  18  1   
 27  15  33  1   
 28  15  34  1   
 29  16  18  1   
 30  16  35  1   
 31  16  36  1   
 32  17  19  1   
 33  17  37  1   
 34  17  38  1   
 35  19  20  ar  
 36  19  21  ar  
 37  20  22  ar  
 38  20  39  1   
 39  21  23  ar  
 40  21  40  1   
 41  22  24  ar  
 42  22  41  1   
 43  23  24  ar  
 44  23  42  1   
@<TRIPOS>SUBSTRUCTURE
  1 ****  12 GROUP 4 **** **** 0

# MOE 2024.06 (io_trps.svl 2023.06)
