@<TRIPOS>MOLECULE
NONAME
44 46 1 0 0 
SMALL
USER_CHARGES


@<TRIPOS>ATOM
  1 O        1.6480     0.7040    -1.4580 O.3   1 <1>  -0.0190 
  2 N        0.8110     1.6960    -1.4410 N.2   1 <1>  -0.4100 
  3 C        1.7590     0.3600    -0.1980 C.2   1 <1>   0.2980 
  4 C        0.4710     1.8830    -0.2260 C.2   1 <1>   0.3350 
  5 N        1.0620     1.0480     0.6190 N.2   1 <1>  -0.5650 
  6 C        2.6830    -0.8010     0.1800 C.3   1 <1>   0.3700 
  7 C       -0.5050     2.9460     0.2810 C.3   1 <1>   0.1010 
  8 N        2.3890    -2.0630    -0.5210 N.3   1 <1>  -0.8100 
  9 C        4.1510    -0.5390    -0.1500 C.3   1 <1>  -0.1600 
 10 C       -1.5890     3.2860    -0.7540 C.3   1 <1>  -0.2400 
 11 C        0.2480     4.2180     0.6940 C.3   1 <1>  -0.2400 
 12 C        3.5800    -2.8940    -0.3570 C.3   1 <1>   0.1100 
 13 C        1.1480    -2.6960    -0.0390 C.3   1 <1>   0.1100 
 14 C        4.7560    -1.9230    -0.3890 C.3   1 <1>  -0.1600 
 15 C        0.6570    -3.7500    -1.0310 C.3   1 <1>   0.0960 
 16 N       -0.4330    -4.5280    -0.4190 N.pl3 1 <1>   0.3140 
 17 N       -1.7090    -4.1070    -0.4730 N.2   1 <1>  -0.7070 
 18 C       -0.3290    -5.6880     0.2740 C.2   1 <1>  -0.3320 
 19 C       -2.3860    -5.0030     0.1760 C.2   1 <1>   0.1390 
 20 C       -1.5770    -6.0180     0.6680 C.2   1 <1>  -0.1500 
 21 C        0.9650    -6.4410     0.5360 C.3   1 <1>  -0.0600 
 22 H        2.5990    -0.9680     1.2400 H     1 <1>   0.0800 
 23 H       -0.9940     2.5430     1.1510 H     1 <1>   0.0800 
 24 H        4.2230     0.0480    -1.0480 H     1 <1>   0.0800 
 25 H        4.6360    -0.0120     0.6510 H     1 <1>   0.0800 
 26 H       -1.1460     3.7160    -1.6350 H     1 <1>   0.0800 
 27 H       -2.2950     3.9850    -0.3430 H     1 <1>   0.0800 
 28 H       -2.1160     2.3920    -1.0380 H     1 <1>   0.0800 
 29 H        0.7570     4.6410    -0.1540 H     1 <1>   0.0800 
 30 H        0.9780     3.9810     1.4480 H     1 <1>   0.0800 
 31 H       -0.4340     4.9470     1.0930 H     1 <1>   0.0800 
 32 H        3.5540    -3.3970     0.5960 H     1 <1>   0.0800 
 33 H        3.6510    -3.6230    -1.1470 H     1 <1>   0.0800 
 34 H        1.3130    -3.1400     0.9280 H     1 <1>   0.0800 
 35 H        0.3730    -1.9520     0.0580 H     1 <1>   0.0800 
 36 H        5.4750    -2.1800     0.3680 H     1 <1>   0.0800 
 37 H        5.2370    -1.9590    -1.3520 H     1 <1>   0.0800 
 38 H        1.4480    -4.4210    -1.3010 H     1 <1>   0.0800 
 39 H        0.2810    -3.2700    -1.9150 H     1 <1>   0.0800 
 40 H       -3.4540    -4.9530     0.3120 H     1 <1>   0.1500 
 41 H       -1.9080    -6.8670     1.2370 H     1 <1>   0.1500 
 42 H        0.7690    -7.3180     1.1260 H     1 <1>   0.0800 
 43 H        1.6580    -5.8170     1.0710 H     1 <1>   0.0800 
 44 H        1.4110    -6.7480    -0.3940 H     1 <1>   0.0800 
@<TRIPOS>BOND
  1   1   2  1   
  2   1   3  1   
  3   2   4  2   
  4   3   5  2   
  5   3   6  1   
  6   4   5  1   
  7   4   7  1   
  8   6   8  1   
  9   6   9  1   
 10   6  22  1   
 11   7  10  1   
 12   7  11  1   
 13   7  23  1   
 14   8  12  1   
 15   8  13  1   
 16   9  14  1   
 17   9  24  1   
 18   9  25  1   
 19  10  26  1   
 20  10  27  1   
 21  10  28  1   
 22  11  29  1   
 23  11  30  1   
 24  11  31  1   
 25  12  14  1   
 26  12  32  1   
 27  12  33  1   
 28  13  15  1   
 29  13  34  1   
 30  13  35  1   
 31  14  36  1   
 32  14  37  1   
 33  15  16  1   
 34  15  38  1   
 35  15  39  1   
 36  16  17  1   
 37  16  18  1   
 38  17  19  2   
 39  18  20  2   
 40  18  21  1   
 41  19  20  1   
 42  19  40  1   
 43  20  41  1   
 44  21  42  1   
 45  21  43  1   
 46  21  44  1   
@<TRIPOS>SUBSTRUCTURE
  1 ****  13 GROUP 4 **** **** 0

# MOE 2024.06 (io_trps.svl 2023.06)
