@<TRIPOS>MOLECULE
NONAME
49 51 1 0 0 
SMALL
USER_CHARGES


@<TRIPOS>ATOM
  1 F       -0.7700    -1.0670    -1.8720 F     1 <1>  -0.1900 
  2 C       -1.8990    -1.4070    -1.3120 C.ar  1 <1>   0.1900 
  3 C       -1.8860    -1.8720    -0.0120 C.ar  1 <1>  -0.1500 
  4 C       -3.0670    -1.2910    -2.0410 C.ar  1 <1>  -0.1500 
  5 C       -3.0880    -2.2310     0.5740 C.ar  1 <1>  -0.1500 
  6 C       -4.2620    -1.6530    -1.4420 C.ar  1 <1>  -0.1500 
  7 C       -4.2810    -2.1250    -0.1330 C.ar  1 <1>  -0.0320 
  8 C       -5.5820    -2.5360     0.5580 C.3   1 <1>   0.0320 
  9 C       -5.5930    -4.0480     0.8610 C.2   1 <1>   0.6300 
 10 C       -6.1960    -1.5550     1.5320 C.3   1 <1>  -0.1900 
 11 C       -6.8800    -1.8120     0.2390 C.3   1 <1>  -0.2000 
 12 O       -5.1470    -4.4060     1.9290 O.2   1 <1>  -0.5700 
 13 N       -6.0690    -4.9650    -0.0480 N.am  1 <1>  -0.6600 
 14 C       -6.8910    -2.0450     2.8110 C.3   1 <1>  -0.1450 
 15 C       -5.5630    -0.1720     1.7470 C.3   1 <1>  -0.1450 
 16 C       -6.0860    -6.4110     0.3000 C.3   1 <1>   0.3200 
 17 C       -6.4790    -4.6340    -1.4470 C.3   1 <1>   0.1400 
 18 C       -7.4960    -6.8170     0.6840 C.2   1 <1>  -0.3320 
 19 C       -7.9950    -4.7490    -1.6460 C.3   1 <1>   0.1200 
 20 N       -8.1750    -7.8680     0.1830 N.pl3 1 <1>   0.0480 
 21 C       -8.3180    -6.2190     1.5740 C.2   1 <1>   0.0770 
 22 O       -8.3310    -4.2230    -2.8860 O.3   1 <1>  -0.6800 
 23 C       -9.3770    -7.8250     0.8020 C.2   1 <1>   0.0360 
 24 C       -7.7360    -8.8500    -0.8250 C.3   1 <1>   0.0160 
 25 N       -9.5040    -6.8500     1.6420 N.2   1 <1>  -0.5650 
 26 H       -0.9590    -1.9510     0.5260 H     1 <1>   0.1500 
 27 H       -3.0360    -0.9240    -3.0510 H     1 <1>   0.1500 
 28 H       -3.1030    -2.5970     1.5870 H     1 <1>   0.1500 
 29 H       -5.1750    -1.5630    -2.0010 H     1 <1>   0.1500 
 30 H       -7.8060    -2.3560     0.2650 H     1 <1>   0.1000 
 31 H       -6.8940    -1.0210    -0.4880 H     1 <1>   0.1000 
 32 H       -7.4220    -2.9640     2.6420 H     1 <1>   0.0800 
 33 H       -7.5960    -1.3120     3.1600 H     1 <1>   0.0800 
 34 H       -6.1610    -2.2170     3.5820 H     1 <1>   0.0800 
 35 H       -5.1610     0.2250     0.8320 H     1 <1>   0.0800 
 36 H       -4.7660    -0.2420     2.4660 H     1 <1>   0.0800 
 37 H       -6.2980     0.5220     2.1150 H     1 <1>   0.0800 
 38 H       -5.4230    -6.6170     1.1240 H     1 <1>   0.0800 
 39 H       -5.7380    -6.9810    -0.5420 H     1 <1>   0.0800 
 40 H       -5.9830    -5.3050    -2.1270 H     1 <1>   0.0800 
 41 H       -6.1690    -3.6380    -1.6930 H     1 <1>   0.0800 
 42 H       -8.5370    -4.2120    -0.8880 H     1 <1>   0.0800 
 43 H       -8.3010    -5.7790    -1.6410 H     1 <1>   0.0800 
 44 H       -8.1090    -5.3500     2.1770 H     1 <1>   0.1500 
 45 H       -8.3800    -3.2480    -2.8490 H     1 <1>   0.4000 
 46 H      -10.1490    -8.5460     0.6010 H     1 <1>   0.1500 
 47 H       -6.8450    -9.3400    -0.4790 H     1 <1>   0.0800 
 48 H       -7.5390    -8.3450    -1.7520 H     1 <1>   0.0800 
 49 H       -8.5090    -9.5820    -0.9760 H     1 <1>   0.0800 
@<TRIPOS>BOND
  1   1   2  1   
  2   2   3  ar  
  3   2   4  ar  
  4   3   5  ar  
  5   3  26  1   
  6   4   6  ar  
  7   4  27  1   
  8   5   7  ar  
  9   5  28  1   
 10   6   7  ar  
 11   6  29  1   
 12   7   8  1   
 13   8   9  1   
 14   8  10  1   
 15   8  11  1   
 16   9  12  2   
 17   9  13  am  
 18  10  11  1   
 19  10  14  1   
 20  10  15  1   
 21  11  30  1   
 22  11  31  1   
 23  13  16  1   
 24  13  17  1   
 25  14  32  1   
 26  14  33  1   
 27  14  34  1   
 28  15  35  1   
 29  15  36  1   
 30  15  37  1   
 31  16  18  1   
 32  16  38  1   
 33  16  39  1   
 34  17  19  1   
 35  17  40  1   
 36  17  41  1   
 37  18  20  1   
 38  18  21  2   
 39  19  22  1   
 40  19  42  1   
 41  19  43  1   
 42  20  23  1   
 43  20  24  1   
 44  21  25  1   
 45  21  44  1   
 46  22  45  1   
 47  23  25  2   
 48  23  46  1   
 49  24  47  1   
 50  24  48  1   
 51  24  49  1   
@<TRIPOS>SUBSTRUCTURE
  1 ****   9 GROUP 4 **** **** 0

# MOE 2024.06 (io_trps.svl 2023.06)
