@<TRIPOS>MOLECULE
NONAME
40 41 1 0 0 
SMALL
USER_CHARGES


@<TRIPOS>ATOM
  1 CL      -0.0720     1.7230     1.3370 Cl    1 <1>  -0.1770 
  2 C        1.5820     2.1420     0.9530 C.ar  1 <1>   0.1770 
  3 C        1.8500     3.1030    -0.0070 C.ar  1 <1>   0.1600 
  4 C        2.6110     1.5080     1.6150 C.ar  1 <1>  -0.1500 
  5 N        3.0690     3.4900    -0.3690 N.ar  1 <1>  -0.6200 
  6 C        3.8700     1.9070     1.2410 C.ar  1 <1>   0.1900 
  7 C        4.0860     2.8890     0.2540 C.ar  1 <1>   0.4100 
  8 F        4.8880     1.3410     1.8480 F     1 <1>  -0.1900 
  9 N        5.3610     3.2910    -0.1330 N.pl3 1 <1>  -0.8380 
 10 C        5.5720     4.6820    -0.6270 C.3   1 <1>   0.2090 
 11 C        6.2360     2.2940    -0.8030 C.3   1 <1>   0.2090 
 12 C        7.0210     5.1010    -0.3630 C.3   1 <1>  -0.0190 
 13 C        7.7020     2.6670    -0.5590 C.3   1 <1>  -0.1600 
 14 C        7.2330     6.5210    -0.8680 C.2   1 <1>   0.4480 
 15 C        8.0060     4.1050    -1.0120 C.3   1 <1>  -0.1600 
 16 O        7.2040     6.7830    -2.0330 O.2   1 <1>  -0.5700 
 17 C        7.4910     7.6040     0.1690 C.3   1 <1>  -0.0990 
 18 C        6.2570     7.9380     1.0300 C.3   1 <1>  -0.0800 
 19 C        5.1100     8.4930     0.1750 C.3   1 <1>  -0.2400 
 20 C        6.6320     8.9580     2.1110 C.3   1 <1>  -0.2400 
 21 H        1.0190     3.5760    -0.5010 H     1 <1>   0.1500 
 22 H        2.4390     0.7600     2.3660 H     1 <1>   0.1500 
 23 H        4.9000     5.3520    -0.1180 H     1 <1>   0.0800 
 24 H        5.3570     4.7250    -1.6820 H     1 <1>   0.0800 
 25 H        6.0260     2.2960    -1.8600 H     1 <1>   0.0800 
 26 H        6.0420     1.3060    -0.4220 H     1 <1>   0.0800 
 27 H        7.1750     5.0840     0.7000 H     1 <1>   0.0800 
 28 H        8.3350     1.9790    -1.0910 H     1 <1>   0.0800 
 29 H        7.9110     2.5620     0.4910 H     1 <1>   0.0800 
 30 H        9.0160     4.3650    -0.7490 H     1 <1>   0.0800 
 31 H        7.9170     4.1640    -2.0840 H     1 <1>   0.0800 
 32 H        7.8170     8.4910    -0.3440 H     1 <1>   0.0800 
 33 H        8.3000     7.2820     0.8000 H     1 <1>   0.0800 
 34 H        5.9150     7.0430     1.5230 H     1 <1>   0.0800 
 35 H        5.4170     9.3910    -0.3330 H     1 <1>   0.0800 
 36 H        4.2610     8.7240     0.7940 H     1 <1>   0.0800 
 37 H        4.7980     7.7770    -0.5650 H     1 <1>   0.0800 
 38 H        6.9750     9.8760     1.6660 H     1 <1>   0.0800 
 39 H        7.4120     8.5700     2.7420 H     1 <1>   0.0800 
 40 H        5.7790     9.1770     2.7300 H     1 <1>   0.0800 
@<TRIPOS>BOND
  1   1   2  1   
  2   2   3  ar  
  3   2   4  ar  
  4   3   5  ar  
  5   3  21  1   
  6   4   6  ar  
  7   4  22  1   
  8   5   7  ar  
  9   6   7  ar  
 10   6   8  1   
 11   7   9  1   
 12   9  10  1   
 13   9  11  1   
 14  10  12  1   
 15  10  23  1   
 16  10  24  1   
 17  11  13  1   
 18  11  25  1   
 19  11  26  1   
 20  12  14  1   
 21  12  15  1   
 22  12  27  1   
 23  13  15  1   
 24  13  28  1   
 25  13  29  1   
 26  14  16  2   
 27  14  17  1   
 28  15  30  1   
 29  15  31  1   
 30  17  18  1   
 31  17  32  1   
 32  17  33  1   
 33  18  19  1   
 34  18  20  1   
 35  18  34  1   
 36  19  35  1   
 37  19  36  1   
 38  19  37  1   
 39  20  38  1   
 40  20  39  1   
 41  20  40  1   
@<TRIPOS>SUBSTRUCTURE
  1 ****  10 GROUP 4 **** **** 0

# MOE 2024.06 (io_trps.svl 2023.06)
