@<TRIPOS>MOLECULE
NONAME
48 50 1 0 0 
SMALL
USER_CHARGES


@<TRIPOS>ATOM
  1 S       -0.3680     0.3280     0.9260 S.o2  1 <1>   1.4470 
  2 O       -1.3930     1.3340     1.0850 O.2   1 <1>  -0.6500 
  3 O        0.2600    -0.2420     2.0990 O.2   1 <1>  -0.6500 
  4 N       -1.1040    -0.9700     0.1150 N.am  1 <1>  -0.8490 
  5 C        0.9380     0.8850    -0.2210 C.ar  1 <1>  -0.0090 
  6 C       -1.7950    -1.8720     1.0630 C.3   1 <1>   0.1960 
  7 C       -1.9080    -0.5690    -1.0660 C.3   1 <1>   0.1960 
  8 C        1.4300     2.1980    -0.2430 C.ar  1 <1>  -0.1440 
  9 C        1.5050    -0.0320    -1.1020 C.ar  1 <1>  -0.1500 
 10 C       -2.6930    -2.8470     0.2760 C.3   1 <1>   0.4230 
 11 C       -3.4240    -0.6840    -0.8350 C.3   1 <1>  -0.1600 
 12 C        2.4240     2.5750    -1.1400 C.ar  1 <1>  -0.1500 
 13 C        0.9020     3.2600     0.7140 C.3   1 <1>  -0.0960 
 14 C        2.4890     0.3650    -1.9820 C.ar  1 <1>   0.1900 
 15 N       -3.1500    -4.1040     0.9570 N.4   1 <1>  -0.9590 
 16 C       -3.8960    -2.0640    -0.2800 C.3   1 <1>  -0.1060 
 17 C        2.9620     1.6580    -2.0230 C.ar  1 <1>  -0.1500 
 18 F        2.9870    -0.5170    -2.8050 F     1 <1>  -0.1900 
 19 C       -3.8110    -5.0240    -0.0110 C.3   1 <1>   0.3430 
 20 C       -2.1360    -4.7820     1.8060 C.3   1 <1>   0.2630 
 21 C       -4.9330    -1.8060     0.8270 C.2   1 <1>   0.9060 
 22 C       -4.5160    -2.9540    -1.3830 C.3   1 <1>  -0.1600 
 23 C       -4.9290    -4.3190    -0.7950 C.3   1 <1>  -0.1600 
 24 O       -4.7460    -2.2790     1.9590 O.co2 1 <1>  -0.9000 
 25 O       -5.9610    -1.1970     0.5400 O.co2 1 <1>  -0.9000 
 26 H       -1.0490    -2.4050     1.6230 H     1 <1>   0.0800 
 27 H       -2.3930    -1.2970     1.7530 H     1 <1>   0.0800 
 28 H       -1.6690     0.4400    -1.3630 H     1 <1>   0.0800 
 29 H       -1.6410    -1.2100    -1.8880 H     1 <1>   0.0800 
 30 H        1.1890    -1.0590    -1.1100 H     1 <1>   0.1500 
 31 H       -2.0950    -3.1560    -0.5630 H     1 <1>   0.0800 
 32 H       -3.6920     0.0930    -0.1370 H     1 <1>   0.0800 
 33 H       -3.9490    -0.4530    -1.7450 H     1 <1>   0.0800 
 34 H        2.7890     3.5880    -1.1550 H     1 <1>   0.1500 
 35 H        1.5230     4.1380     0.7020 H     1 <1>   0.0800 
 36 H        0.8820     2.8870     1.7230 H     1 <1>   0.0800 
 37 H       -0.0950     3.5510     0.4320 H     1 <1>   0.0800 
 38 H       -3.9020    -3.7180     1.5920 H     1 <1>   0.4500 
 39 H        3.7300     1.9350    -2.7230 H     1 <1>   0.1500 
 40 H       -3.0750    -5.3920    -0.7070 H     1 <1>   0.0800 
 41 H       -4.2280    -5.8670     0.5150 H     1 <1>   0.0800 
 42 H       -1.2910    -5.0870     1.2110 H     1 <1>   0.0800 
 43 H       -2.5690    -5.6500     2.2740 H     1 <1>   0.0800 
 44 H       -1.7980    -4.1150     2.5820 H     1 <1>   0.0800 
 45 H       -5.3880    -2.4670    -1.7890 H     1 <1>   0.0800 
 46 H       -3.8120    -3.0960    -2.1840 H     1 <1>   0.0800 
 47 H       -5.2600    -4.9630    -1.5910 H     1 <1>   0.0800 
 48 H       -5.7720    -4.1820    -0.1380 H     1 <1>   0.0800 
@<TRIPOS>BOND
  1   1   2  2   
  2   1   3  2   
  3   1   4  am  
  4   1   5  1   
  5   4   6  1   
  6   4   7  1   
  7   5   8  ar  
  8   5   9  ar  
  9   6  10  1   
 10   6  26  1   
 11   6  27  1   
 12   7  11  1   
 13   7  28  1   
 14   7  29  1   
 15   8  12  ar  
 16   8  13  1   
 17   9  14  ar  
 18   9  30  1   
 19  10  15  1   
 20  10  16  1   
 21  10  31  1   
 22  11  16  1   
 23  11  32  1   
 24  11  33  1   
 25  12  17  ar  
 26  12  34  1   
 27  13  35  1   
 28  13  36  1   
 29  13  37  1   
 30  14  17  ar  
 31  14  18  1   
 32  15  19  1   
 33  15  20  1   
 34  15  38  1   
 35  16  21  1   
 36  16  22  1   
 37  17  39  1   
 38  19  23  1   
 39  19  40  1   
 40  19  41  1   
 41  20  42  1   
 42  20  43  1   
 43  20  44  1   
 44  21  24  ar  
 45  21  25  ar  
 46  22  23  1   
 47  22  45  1   
 48  22  46  1   
 49  23  47  1   
 50  23  48  1   
@<TRIPOS>SUBSTRUCTURE
  1 ****   4 GROUP 4 **** **** 0

# MOE 2024.06 (io_trps.svl 2023.06)
