@<TRIPOS>MOLECULE
NONAME
42 43 1 0 0 
SMALL
USER_CHARGES


@<TRIPOS>ATOM
  1 O       -1.9420     2.6670     0.5950 O.2   1 <1>  -0.5700 
  2 C       -1.1500     2.6380    -0.3330 C.2   1 <1>   0.7160 
  3 N       -1.5440     2.0010    -1.4890 N.am  1 <1>  -0.7300 
  4 C        0.1790     3.2540    -0.2510 C.2   1 <1>   0.4300 
  5 C       -2.8490     1.3330    -1.7310 C.3   1 <1>   0.0600 
  6 N        1.0440     3.2640    -1.2130 N.2   1 <1>  -0.4100 
  7 N        0.6640     3.8860     0.8340 N.2   1 <1>  -0.5650 
  8 O        2.1000     3.8890    -0.8020 O.3   1 <1>  -0.0190 
  9 C        1.8130     4.2340     0.4250 C.2   1 <1>   0.2980 
 10 C        2.8480     5.0100     1.2260 C.3   1 <1>   0.3200 
 11 N        2.9030     6.4280     0.7850 N.am  1 <1>  -0.7300 
 12 C        4.0310     7.0610     0.3790 C.2   1 <1>   0.5690 
 13 O        5.1060     6.5190     0.4220 O.2   1 <1>  -0.5700 
 14 C        3.9380     8.4930    -0.1410 C.3   1 <1>  -0.0190 
 15 C        3.3450     9.4540     0.9080 C.3   1 <1>  -0.1600 
 16 C        3.1630     8.5700    -1.4800 C.3   1 <1>  -0.1600 
 17 C        3.3950    10.9250     0.4430 C.3   1 <1>   0.2000 
 18 C        2.5770     9.9640    -1.7780 C.3   1 <1>  -0.1600 
 19 O        2.2740    11.5840     0.9770 O.3   1 <1>  -0.5600 
 20 C        3.3870    11.0720    -1.1020 C.3   1 <1>   0.2000 
 21 C        2.4180    12.0260     2.2910 C.3   1 <1>   0.0400 
 22 O        2.8190    12.2830    -1.4400 O.3   1 <1>  -0.6800 
 23 H       -0.8700     1.9830    -2.2590 H     1 <1>   0.3700 
 24 H       -3.4800     1.4070    -0.8610 H     1 <1>   0.0800 
 25 H       -2.6890     0.2930    -1.9550 H     1 <1>   0.0800 
 26 H       -3.3490     1.8020    -2.5610 H     1 <1>   0.0800 
 27 H        3.8090     4.5410     1.1100 H     1 <1>   0.0800 
 28 H        2.5810     4.9780     2.2670 H     1 <1>   0.0800 
 29 H        2.0010     6.9050     0.7300 H     1 <1>   0.3700 
 30 H        4.9480     8.8150    -0.3300 H     1 <1>   0.0800 
 31 H        3.8920     9.3580     1.8290 H     1 <1>   0.0800 
 32 H        2.3220     9.1770     1.0910 H     1 <1>   0.0800 
 33 H        3.8370     8.2900    -2.2730 H     1 <1>   0.0800 
 34 H        2.3550     7.8590    -1.4890 H     1 <1>   0.0800 
 35 H        4.2890    11.4010     0.8110 H     1 <1>   0.0800 
 36 H        1.5670    10.0060    -1.4070 H     1 <1>   0.0800 
 37 H        2.5520    10.1260    -2.8420 H     1 <1>   0.0800 
 38 H        4.3930    11.0620    -1.4850 H     1 <1>   0.0800 
 39 H        1.5010    12.5060     2.5840 H     1 <1>   0.0800 
 40 H        3.2270    12.7340     2.3410 H     1 <1>   0.0800 
 41 H        2.6070    11.1860     2.9360 H     1 <1>   0.0800 
 42 H        2.1640    12.4780    -0.7310 H     1 <1>   0.4000 
@<TRIPOS>BOND
  1   1   2  2   
  2   2   3  am  
  3   2   4  1   
  4   3   5  1   
  5   3  23  1   
  6   4   6  2   
  7   4   7  1   
  8   5  24  1   
  9   5  25  1   
 10   5  26  1   
 11   6   8  1   
 12   7   9  2   
 13   8   9  1   
 14   9  10  1   
 15  10  11  1   
 16  10  27  1   
 17  10  28  1   
 18  11  12  am  
 19  11  29  1   
 20  12  13  2   
 21  12  14  1   
 22  14  15  1   
 23  14  16  1   
 24  14  30  1   
 25  15  17  1   
 26  15  31  1   
 27  15  32  1   
 28  16  18  1   
 29  16  33  1   
 30  16  34  1   
 31  17  19  1   
 32  17  20  1   
 33  17  35  1   
 34  18  20  1   
 35  18  36  1   
 36  18  37  1   
 37  19  21  1   
 38  20  22  1   
 39  20  38  1   
 40  21  39  1   
 41  21  40  1   
 42  21  41  1   
 43  22  42  1   
@<TRIPOS>SUBSTRUCTURE
  1 ****  11 GROUP 4 **** **** 0

# MOE 2024.06 (io_trps.svl 2023.06)
