@<TRIPOS>MOLECULE
NONAME
42 44 1 0 0 
SMALL
USER_CHARGES


@<TRIPOS>ATOM
  1 O       -2.5180     0.3190    -2.2310 O.2   1 <1>  -0.5700 
  2 C       -2.1970     0.6650    -1.1080 C.2   1 <1>   0.6160 
  3 N       -2.0740    -0.3180    -0.1700 N.am  1 <1>  -0.7300 
  4 C       -1.9650     2.0600    -0.8190 C.2   1 <1>   0.0290 
  5 C       -2.2670    -1.7680    -0.3910 C.3   1 <1>   0.2200 
  6 C       -1.6910     2.5180     0.5130 C.2   1 <1>   0.5410 
  7 C       -1.9990     3.0050    -1.8180 C.2   1 <1>  -0.0500 
  8 C       -3.6150    -2.2190     0.1450 C.3   1 <1>  -0.0800 
  9 C       -1.2600    -2.6220     0.3830 C.3   1 <1>   0.1200 
 10 O       -1.6430     1.7730     1.4910 O.2   1 <1>  -0.5700 
 11 C       -1.4670     3.9070     0.7120 C.2   1 <1>  -0.1360 
 12 N       -1.7790     4.3330    -1.5780 N.pl3 1 <1>  -0.6000 
 13 C       -3.3040    -3.6110     0.6770 C.3   1 <1>   0.1200 
 14 C       -4.7280    -2.1840    -0.9140 C.3   1 <1>  -0.0170 
 15 O       -1.9950    -3.5390     1.1400 O.3   1 <1>  -0.5600 
 16 C       -1.5120     4.7900    -0.3150 C.2   1 <1>  -0.0380 
 17 C       -6.0210    -2.7790    -0.3770 C.ar  1 <1>  -0.1430 
 18 C       -1.2810     6.2790    -0.1590 C.3   1 <1>  -0.1020 
 19 C       -6.4680    -4.0280    -0.7590 C.ar  1 <1>  -0.1500 
 20 C       -6.8140    -2.0980     0.5240 C.ar  1 <1>  -0.1500 
 21 C       -7.6500    -4.5230    -0.2330 C.ar  1 <1>   0.1600 
 22 C       -7.9800    -2.6830     0.9900 C.ar  1 <1>   0.1600 
 23 N       -8.4170    -3.8810     0.6340 N.ar  1 <1>  -0.6200 
 24 H       -1.8890    -0.0200     0.8000 H     1 <1>   0.3700 
 25 H       -2.1740    -1.9980    -1.4400 H     1 <1>   0.0800 
 26 H       -2.2030     2.7150    -2.8380 H     1 <1>   0.1500 
 27 H       -3.8960    -1.6090     0.9870 H     1 <1>   0.0800 
 28 H       -0.6620    -2.0340     1.0570 H     1 <1>   0.0800 
 29 H       -0.6270    -3.1730    -0.2890 H     1 <1>   0.0800 
 30 H       -1.2620     4.2150     1.7200 H     1 <1>   0.1500 
 31 H       -1.8140     5.0070    -2.3560 H     1 <1>   0.4000 
 32 H       -3.3390    -4.3500    -0.1050 H     1 <1>   0.0800 
 33 H       -3.9530    -3.8980     1.4860 H     1 <1>   0.0800 
 34 H       -4.4170    -2.7260    -1.7900 H     1 <1>   0.0800 
 35 H       -4.9010    -1.1640    -1.2140 H     1 <1>   0.0800 
 36 H       -0.4400     6.5860    -0.7540 H     1 <1>   0.0800 
 37 H       -1.0810     6.5260     0.8680 H     1 <1>   0.0800 
 38 H       -2.1530     6.8220    -0.4770 H     1 <1>   0.0800 
 39 H       -5.9110    -4.6230    -1.4590 H     1 <1>   0.1500 
 40 H       -6.5360    -1.1180     0.8670 H     1 <1>   0.1500 
 41 H       -7.9830    -5.4990    -0.5420 H     1 <1>   0.1500 
 42 H       -8.5850    -2.1370     1.6930 H     1 <1>   0.1500 
@<TRIPOS>BOND
  1   1   2  2   
  2   2   3  am  
  3   2   4  1   
  4   3   5  1   
  5   3  24  1   
  6   4   6  1   
  7   4   7  2   
  8   5   8  1   
  9   5   9  1   
 10   5  25  1   
 11   6  10  2   
 12   6  11  1   
 13   7  12  1   
 14   7  26  1   
 15   8  13  1   
 16   8  14  1   
 17   8  27  1   
 18   9  15  1   
 19   9  28  1   
 20   9  29  1   
 21  11  16  2   
 22  11  30  1   
 23  12  16  1   
 24  12  31  1   
 25  13  15  1   
 26  13  32  1   
 27  13  33  1   
 28  14  17  1   
 29  14  34  1   
 30  14  35  1   
 31  16  18  1   
 32  17  19  ar  
 33  17  20  ar  
 34  18  36  1   
 35  18  37  1   
 36  18  38  1   
 37  19  21  ar  
 38  19  39  1   
 39  20  22  ar  
 40  20  40  1   
 41  21  23  ar  
 42  21  41  1   
 43  22  23  ar  
 44  22  42  1   
@<TRIPOS>SUBSTRUCTURE
  1 ****   3 GROUP 4 **** **** 0

# MOE 2024.06 (io_trps.svl 2023.06)
