@<TRIPOS>MOLECULE
NONAME
50 52 1 0 0 
SMALL
USER_CHARGES


@<TRIPOS>ATOM
  1 S        1.6630     0.4290     0.0350 S.3   1 <1>  -0.0800 
  2 C        1.3670    -1.2080     0.6420 C.2   1 <1>  -0.0130 
  3 C        0.1310     1.0200     0.6440 C.2   1 <1>  -0.1400 
  4 C        2.3590    -2.2340     0.4210 C.ar  1 <1>   0.3630 
  5 C        0.1570    -1.2180     1.2590 C.2   1 <1>  -0.1500 
  6 C       -0.5360     0.0290     1.2600 C.2   1 <1>  -0.1500 
  7 C       -0.2030     2.4770     0.4040 C.3   1 <1>  -0.0600 
  8 N        3.5950    -1.8580     0.0980 N.ar  1 <1>  -0.6200 
  9 C        2.0080    -3.5770     0.5490 C.ar  1 <1>  -0.1500 
 10 C        4.4930    -2.8140    -0.1010 C.ar  1 <1>   0.4100 
 11 C        2.9380    -4.5650     0.3360 C.ar  1 <1>  -0.1500 
 12 N        5.7430    -2.3310    -0.4190 N.pl3 1 <1>  -0.8380 
 13 C        4.2230    -4.1820    -0.0050 C.ar  1 <1>  -0.1790 
 14 C        5.9040    -1.4660    -1.6070 C.3   1 <1>   0.2090 
 15 C        6.9200    -2.6860     0.4050 C.3   1 <1>   0.2090 
 16 C        5.2440    -5.1550    -0.2740 C.2   1 <1>   0.9790 
 17 C        5.6610     0.0070    -1.2240 C.3   1 <1>   0.3430 
 18 C        7.6600    -1.4220     0.8460 C.3   1 <1>  -0.1600 
 19 O        5.3770    -5.6390    -1.4110 O.co2 1 <1>  -0.9000 
 20 O        6.0010    -5.5400     0.6370 O.co2 1 <1>  -0.9000 
 21 N        6.6540     0.5850    -0.2370 N.4   1 <1>  -0.9590 
 22 C        6.7200    -0.2260     1.0260 C.3   1 <1>   0.3430 
 23 C        6.3660     2.0230    -0.0150 C.3   1 <1>   0.4230 
 24 C        7.6090     2.6950     0.5600 C.3   1 <1>  -0.2400 
 25 C        5.1530     2.2360     0.8940 C.3   1 <1>  -0.2400 
 26 H       -0.2850    -2.0790     1.7270 H     1 <1>   0.1500 
 27 H       -1.5030     0.1250     1.7230 H     1 <1>   0.1500 
 28 H        0.5380     3.1040     0.8640 H     1 <1>   0.0800 
 29 H       -1.1650     2.7100     0.8230 H     1 <1>   0.0800 
 30 H       -0.2260     2.6780    -0.6520 H     1 <1>   0.0800 
 31 H        1.0030    -3.8450     0.8090 H     1 <1>   0.1500 
 32 H        2.6950    -5.6110     0.4200 H     1 <1>   0.1500 
 33 H        5.1740    -1.7610    -2.3420 H     1 <1>   0.0800 
 34 H        6.8790    -1.6020    -2.0380 H     1 <1>   0.0800 
 35 H        7.5680    -3.3510    -0.1430 H     1 <1>   0.0800 
 36 H        6.5820    -3.2130     1.2830 H     1 <1>   0.0800 
 37 H        4.6680     0.0740    -0.8130 H     1 <1>   0.0800 
 38 H        5.6760     0.5920    -2.1270 H     1 <1>   0.0800 
 39 H        8.4500    -1.1960     0.1540 H     1 <1>   0.0800 
 40 H        8.1220    -1.6440     1.7900 H     1 <1>   0.0800 
 41 H        7.5790     0.5190    -0.6690 H     1 <1>   0.4500 
 42 H        7.1030     0.3860     1.8250 H     1 <1>   0.0800 
 43 H        5.7340    -0.5660     1.3070 H     1 <1>   0.0800 
 44 H        6.1550     2.4810    -0.9690 H     1 <1>   0.0800 
 45 H        7.8440     2.3250     1.5410 H     1 <1>   0.0800 
 46 H        7.4360     3.7530     0.6420 H     1 <1>   0.0800 
 47 H        8.4530     2.5500    -0.0910 H     1 <1>   0.0800 
 48 H        5.3400     1.9020     1.8980 H     1 <1>   0.0800 
 49 H        4.2880     1.7310     0.5090 H     1 <1>   0.0800 
 50 H        4.9230     3.2860     0.9400 H     1 <1>   0.0800 
@<TRIPOS>BOND
  1   1   2  1   
  2   1   3  1   
  3   2   4  1   
  4   2   5  2   
  5   3   6  2   
  6   3   7  1   
  7   4   8  ar  
  8   4   9  ar  
  9   5   6  1   
 10   5  26  1   
 11   6  27  1   
 12   7  28  1   
 13   7  29  1   
 14   7  30  1   
 15   8  10  ar  
 16   9  11  ar  
 17   9  31  1   
 18  10  12  1   
 19  10  13  ar  
 20  11  13  ar  
 21  11  32  1   
 22  12  14  1   
 23  12  15  1   
 24  13  16  1   
 25  14  17  1   
 26  14  33  1   
 27  14  34  1   
 28  15  18  1   
 29  15  35  1   
 30  15  36  1   
 31  16  19  ar  
 32  16  20  ar  
 33  17  21  1   
 34  17  37  1   
 35  17  38  1   
 36  18  22  1   
 37  18  39  1   
 38  18  40  1   
 39  21  22  1   
 40  21  23  1   
 41  21  41  1   
 42  22  42  1   
 43  22  43  1   
 44  23  24  1   
 45  23  25  1   
 46  23  44  1   
 47  24  45  1   
 48  24  46  1   
 49  24  47  1   
 50  25  48  1   
 51  25  49  1   
 52  25  50  1   
@<TRIPOS>SUBSTRUCTURE
  1 ****   8 GROUP 4 **** **** 0

# MOE 2024.06 (io_trps.svl 2023.06)
