@<TRIPOS>MOLECULE
NONAME
36 37 1 0 0 
SMALL
USER_CHARGES


@<TRIPOS>ATOM
  1 S       -0.8000     0.7500     1.1160 S.o2  1 <1>   1.4470 
  2 O       -1.2260     2.0880     1.4750 O.2   1 <1>  -0.6500 
  3 O       -0.7820    -0.2530     2.1580 O.2   1 <1>  -0.6500 
  4 N       -1.8260     0.2320    -0.1350 N.am  1 <1>  -0.8490 
  5 C        0.8460     0.8420     0.3320 C.ar  1 <1>  -0.0090 
  6 C       -1.4990    -1.0710    -0.7500 C.3   1 <1>   0.1960 
  7 C       -3.2580     0.4000     0.1340 C.3   1 <1>   0.1960 
  8 C        1.1700     1.7410    -0.6950 C.ar  1 <1>  -0.1440 
  9 C        1.8390    -0.0340     0.7620 C.ar  1 <1>  -0.1500 
 10 C       -2.0560    -2.2700     0.0270 C.3   1 <1>  -0.1860 
 11 C       -3.8280    -0.7490     0.9690 C.3   1 <1>  -0.1600 
 12 C        2.4420     1.7570    -1.2560 C.ar  1 <1>  -0.1500 
 13 C        0.1460     2.7320    -1.2360 C.3   1 <1>  -0.0970 
 14 C        3.0940     0.0020     0.1910 C.ar  1 <1>   0.1900 
 15 C       -1.8170    -3.5490    -0.7450 C.2   1 <1>   0.9060 
 16 C       -3.5490    -2.0770     0.2760 C.3   1 <1>   0.2000 
 17 C        3.4190     0.8850    -0.8150 C.ar  1 <1>  -0.1500 
 18 F        4.0080    -0.8260     0.6210 F     1 <1>  -0.1900 
 19 O       -1.1480    -3.5170    -1.7830 O.co2 1 <1>  -0.9000 
 20 O       -2.3220    -4.5940    -0.3170 O.co2 1 <1>  -0.9000 
 21 O       -4.0020    -3.0970     1.0810 O.3   1 <1>  -0.6800 
 22 H       -1.9180    -1.0870    -1.7430 H     1 <1>   0.0800 
 23 H       -0.4330    -1.1800    -0.8620 H     1 <1>   0.0800 
 24 H       -3.4360     1.3380     0.6310 H     1 <1>   0.0800 
 25 H       -3.7770     0.4310    -0.8090 H     1 <1>   0.0800 
 26 H        1.6390    -0.7500     1.5410 H     1 <1>   0.1500 
 27 H       -1.5380    -2.3620     0.9600 H     1 <1>   0.0800 
 28 H       -4.8890    -0.6190     1.0750 H     1 <1>   0.0800 
 29 H       -3.3840    -0.7430     1.9480 H     1 <1>   0.0800 
 30 H        2.6820     2.4510    -2.0440 H     1 <1>   0.1500 
 31 H        0.5430     3.2900    -2.0640 H     1 <1>   0.0800 
 32 H       -0.1370     3.4310    -0.4700 H     1 <1>   0.0800 
 33 H       -0.7330     2.2170    -1.5800 H     1 <1>   0.0800 
 34 H       -4.0850    -2.1380    -0.6570 H     1 <1>   0.0800 
 35 H        4.4060     0.8850    -1.2390 H     1 <1>   0.1500 
 36 H       -3.5490    -3.9240     0.7440 H     1 <1>   0.4000 
@<TRIPOS>BOND
  1   1   2  2   
  2   1   3  2   
  3   1   4  am  
  4   1   5  1   
  5   4   6  1   
  6   4   7  1   
  7   5   8  ar  
  8   5   9  ar  
  9   6  10  1   
 10   6  22  1   
 11   6  23  1   
 12   7  11  1   
 13   7  24  1   
 14   7  25  1   
 15   8  12  ar  
 16   8  13  1   
 17   9  14  ar  
 18   9  26  1   
 19  10  15  1   
 20  10  16  1   
 21  10  27  1   
 22  11  16  1   
 23  11  28  1   
 24  11  29  1   
 25  12  17  ar  
 26  12  30  1   
 27  13  31  1   
 28  13  32  1   
 29  13  33  1   
 30  14  17  ar  
 31  14  18  1   
 32  15  19  ar  
 33  15  20  ar  
 34  16  21  1   
 35  16  34  1   
 36  17  35  1   
 37  21  36  1   
@<TRIPOS>SUBSTRUCTURE
  1 ****   6 GROUP 4 **** **** 0

# MOE 2024.06 (io_trps.svl 2023.06)
