@<TRIPOS>MOLECULE
NONAME
50 54 1 0 0 
SMALL
USER_CHARGES


@<TRIPOS>ATOM
  1 O        1.3270    -0.7590     1.3160 O.3   1 <1>  -0.5600 
  2 C        2.1100    -1.2560     0.2560 C.3   1 <1>   0.4240 
  3 C       -0.0580    -0.8740     1.2030 C.3   1 <1>   0.1200 
  4 C        1.5370    -2.5750    -0.3100 C.ar  1 <1>  -0.1440 
  5 C        2.1900    -0.1710    -0.8300 C.3   1 <1>  -0.1600 
  6 C        3.4990    -1.4940     0.8630 C.3   1 <1>  -0.1600 
  7 C       -0.4300    -2.3530     1.2330 C.3   1 <1>  -0.0160 
  8 C        0.3350    -3.0970     0.1570 C.ar  1 <1>  -0.1440 
  9 C        2.2150    -3.2660    -1.3100 C.ar  1 <1>  -0.1500 
 10 C        2.8330     1.1120    -0.3050 C.3   1 <1>   0.2090 
 11 C        4.1120    -0.1920     1.3760 C.3   1 <1>   0.2090 
 12 C       -0.1680    -4.2840    -0.3520 C.ar  1 <1>  -0.1500 
 13 C        1.7120    -4.4480    -1.8210 C.ar  1 <1>  -0.1500 
 14 N        4.1810     0.7880     0.2540 N.pl3 1 <1>  -0.8380 
 15 C        0.5220    -4.9680    -1.3470 C.ar  1 <1>   0.0830 
 16 C        5.2930     1.5280    -0.0350 C.2   1 <1>   0.2710 
 17 O        0.1000    -6.1340    -1.8980 O.3   1 <1>  -0.3630 
 18 N        5.0980     2.8020    -0.4070 N.2   1 <1>  -0.6210 
 19 C        6.5590     0.9990     0.0460 C.2   1 <1>  -0.1410 
 20 C       -1.0900    -6.7590    -1.4710 C.3   1 <1>   0.0400 
 21 C        6.1250     3.5410    -0.6700 C.2   1 <1>   0.9190 
 22 C        7.6110     1.8280    -0.2530 C.cat 1 <1>   0.7910 
 23 N        7.3970     3.0930    -0.6050 N.pl3 1 <1>  -0.6690 
 24 N        5.9070     4.8050    -1.0220 N.pl3 1 <1>  -0.8500 
 25 N        8.9410     1.6460    -0.2830 N.pl3 1 <1>  -0.3930 
 26 C        8.6370     3.6300    -0.8410 C.2   1 <1>   0.5030 
 27 N        9.5830     2.7870    -0.6560 N.2   1 <1>  -0.2600 
 28 H       -0.3800    -0.4110     0.2880 H     1 <1>   0.0800 
 29 H       -0.5010    -0.3570     2.0360 H     1 <1>   0.0800 
 30 H        1.2120     0.0390    -1.2170 H     1 <1>   0.0800 
 31 H        2.7830    -0.5260    -1.6510 H     1 <1>   0.0800 
 32 H        4.1600    -1.9140     0.1300 H     1 <1>   0.0800 
 33 H        3.4120    -2.2000     1.6680 H     1 <1>   0.0800 
 34 H       -1.4890    -2.4530     1.0750 H     1 <1>   0.0800 
 35 H       -0.1900    -2.7630     2.1980 H     1 <1>   0.0800 
 36 H        3.1410    -2.8900    -1.7030 H     1 <1>   0.1500 
 37 H        2.2220     1.5470     0.4680 H     1 <1>   0.0800 
 38 H        2.9140     1.8200    -1.1110 H     1 <1>   0.0800 
 39 H        5.0860    -0.3810     1.7890 H     1 <1>   0.0800 
 40 H        3.4980     0.2160     2.1630 H     1 <1>   0.0800 
 41 H       -1.0940    -4.6630     0.0340 H     1 <1>   0.1500 
 42 H        2.2420    -4.9770    -2.5920 H     1 <1>   0.1500 
 43 H        6.7200    -0.0240     0.3190 H     1 <1>   0.1500 
 44 H       -1.2130    -7.6640    -2.0380 H     1 <1>   0.0800 
 45 H       -1.9170    -6.0970    -1.6540 H     1 <1>   0.0800 
 46 H       -1.0050    -6.9920    -0.4240 H     1 <1>   0.0800 
 47 H        4.9360     5.1210    -1.0440 H     1 <1>   0.4000 
 48 H        6.6090     5.5190    -1.1870 H     1 <1>   0.4000 
 49 H        9.4320     0.7720    -0.0640 H     1 <1>   0.4500 
 50 H        8.7790     4.6540    -1.1510 H     1 <1>   0.1500 
@<TRIPOS>BOND
  1   1   2  1   
  2   1   3  1   
  3   2   4  1   
  4   2   5  1   
  5   2   6  1   
  6   3   7  1   
  7   3  28  1   
  8   3  29  1   
  9   4   8  ar  
 10   4   9  ar  
 11   5  10  1   
 12   5  30  1   
 13   5  31  1   
 14   6  11  1   
 15   6  32  1   
 16   6  33  1   
 17   7   8  1   
 18   7  34  1   
 19   7  35  1   
 20   8  12  ar  
 21   9  13  ar  
 22   9  36  1   
 23  10  14  1   
 24  10  37  1   
 25  10  38  1   
 26  11  14  1   
 27  11  39  1   
 28  11  40  1   
 29  12  15  ar  
 30  12  41  1   
 31  13  15  ar  
 32  13  42  1   
 33  14  16  1   
 34  15  17  1   
 35  16  18  1   
 36  16  19  2   
 37  17  20  1   
 38  18  21  2   
 39  19  22  1   
 40  19  43  1   
 41  20  44  1   
 42  20  45  1   
 43  20  46  1   
 44  21  23  1   
 45  21  24  1   
 46  22  23  ar  
 47  22  25  ar  
 48  23  26  1   
 49  24  47  1   
 50  24  48  1   
 51  25  27  1   
 52  25  49  1   
 53  26  27  2   
 54  26  50  1   
@<TRIPOS>SUBSTRUCTURE
  1 ****   6 GROUP 4 **** **** 0

# MOE 2024.06 (io_trps.svl 2023.06)
