@<TRIPOS>MOLECULE
NONAME
45 47 1 0 0 
SMALL
USER_CHARGES


@<TRIPOS>ATOM
  1 CL      -0.4350    -0.8010    -1.1500 Cl    1 <1>  -0.1770 
  2 C        1.1930    -1.2470    -0.6690 C.ar  1 <1>   0.1770 
  3 C        1.5020    -2.5570    -0.3260 C.ar  1 <1>   0.4100 
  4 C        2.1890    -0.3110    -0.6240 C.ar  1 <1>   0.1600 
  5 N        2.7320    -2.8840     0.0300 N.ar  1 <1>  -0.6200 
  6 N        0.5540    -3.5580    -0.3500 N.pl3 1 <1>  -0.8690 
  7 N        3.4220    -0.6270    -0.2660 N.ar  1 <1>  -0.6200 
  8 C        3.6170    -1.9000     0.0400 C.ar  1 <1>   0.4770 
  9 C        0.7940    -4.9520     0.0350 C.3   1 <1>   0.2890 
 10 C        5.0230    -2.2630     0.4500 C.3   1 <1>  -0.0970 
 11 C        1.1860    -5.7440    -1.2080 C.3   1 <1>  -0.1600 
 12 C       -0.4730    -5.5190     0.6650 C.3   1 <1>  -0.1600 
 13 C        1.3640    -7.2170    -0.8640 C.3   1 <1>   0.3430 
 14 C       -0.2820    -6.9950     0.9960 C.3   1 <1>   0.3430 
 15 N        0.1210    -7.7390    -0.2310 N.4   1 <1>  -0.9590 
 16 C        0.1620    -9.2230    -0.0320 C.3   1 <1>   0.3430 
 17 C       -1.2450    -9.8320    -0.2230 C.3   1 <1>   0.2000 
 18 O       -1.9780    -9.0170    -1.0950 O.3   1 <1>  -0.5600 
 19 C       -2.0950    -9.9300     1.0480 C.3   1 <1>  -0.1600 
 20 C       -3.3360    -9.1830    -0.8560 C.3   1 <1>   0.1200 
 21 C       -3.4380    -9.3310     0.6540 C.3   1 <1>  -0.1600 
 22 H        1.9790     0.7120    -0.8830 H     1 <1>   0.1500 
 23 H       -0.3810    -3.3130    -0.6890 H     1 <1>   0.4000 
 24 H        1.5950    -4.9950     0.7570 H     1 <1>   0.0800 
 25 H        5.1070    -3.3180     0.6340 H     1 <1>   0.0800 
 26 H        5.2820    -1.7300     1.3450 H     1 <1>   0.0800 
 27 H        5.7070    -1.9890    -0.3320 H     1 <1>   0.0800 
 28 H        2.1150    -5.3590    -1.5910 H     1 <1>   0.0800 
 29 H        0.4370    -5.6390    -1.9730 H     1 <1>   0.0800 
 30 H       -1.3090    -5.4090    -0.0030 H     1 <1>   0.0800 
 31 H       -0.6890    -4.9810     1.5710 H     1 <1>   0.0800 
 32 H        2.1950    -7.3300    -0.1850 H     1 <1>   0.0800 
 33 H        1.5810    -7.7700    -1.7630 H     1 <1>   0.0800 
 34 H       -1.2080    -7.3920     1.3790 H     1 <1>   0.0800 
 35 H        0.4770    -7.1010     1.7540 H     1 <1>   0.0800 
 36 H       -0.6620    -7.6370    -0.9090 H     1 <1>   0.4500 
 37 H        0.5580    -9.4780     0.9370 H     1 <1>   0.0800 
 38 H        0.8060    -9.6620    -0.7760 H     1 <1>   0.0800 
 39 H       -1.1660   -10.8070    -0.6740 H     1 <1>   0.0800 
 40 H       -1.6630    -9.4060     1.8810 H     1 <1>   0.0800 
 41 H       -2.2080   -10.9650     1.3250 H     1 <1>   0.0800 
 42 H       -3.6610   -10.0780    -1.3600 H     1 <1>   0.0800 
 43 H       -3.8770    -8.3300    -1.2300 H     1 <1>   0.0800 
 44 H       -3.5700    -8.3610     1.1010 H     1 <1>   0.0800 
 45 H       -4.2690    -9.9580     0.9310 H     1 <1>   0.0800 
@<TRIPOS>BOND
  1   1   2  1   
  2   2   3  ar  
  3   2   4  ar  
  4   3   5  ar  
  5   3   6  1   
  6   4   7  ar  
  7   4  22  1   
  8   5   8  ar  
  9   6   9  1   
 10   6  23  1   
 11   7   8  ar  
 12   8  10  1   
 13   9  11  1   
 14   9  12  1   
 15   9  24  1   
 16  10  25  1   
 17  10  26  1   
 18  10  27  1   
 19  11  13  1   
 20  11  28  1   
 21  11  29  1   
 22  12  14  1   
 23  12  30  1   
 24  12  31  1   
 25  13  15  1   
 26  13  32  1   
 27  13  33  1   
 28  14  15  1   
 29  14  34  1   
 30  14  35  1   
 31  15  16  1   
 32  15  36  1   
 33  16  17  1   
 34  16  37  1   
 35  16  38  1   
 36  17  18  1   
 37  17  19  1   
 38  17  39  1   
 39  18  20  1   
 40  19  21  1   
 41  19  40  1   
 42  19  41  1   
 43  20  21  1   
 44  20  42  1   
 45  20  43  1   
 46  21  44  1   
 47  21  45  1   
@<TRIPOS>SUBSTRUCTURE
  1 ****   9 GROUP 4 **** **** 0

# MOE 2024.06 (io_trps.svl 2023.06)
