@<TRIPOS>MOLECULE
NONAME
49 52 1 0 0 
SMALL
USER_CHARGES


@<TRIPOS>ATOM
  1 F        1.8470     1.6910    -1.8560 F     1 <1>  -0.1900 
  2 C        1.4760     2.8420    -1.3660 C.ar  1 <1>   0.1900 
  3 C        2.3530     3.5730    -0.6200 C.ar  1 <1>  -0.1500 
  4 C        0.1790     3.2780    -1.6330 C.ar  1 <1>  -0.1500 
  5 C        1.9620     4.8110    -0.0910 C.ar  1 <1>   0.3100 
  6 C       -0.2240     4.4840    -1.1260 C.ar  1 <1>  -0.1500 
  7 N        2.8740     5.4950     0.6390 N.ar  1 <1>  -0.6200 
  8 C        0.6460     5.2820    -0.3470 C.ar  1 <1>   0.0000 
  9 C        2.5050     6.6420     1.1160 C.ar  1 <1>   0.4100 
 10 C        0.2830     6.5330     0.2030 C.ar  1 <1>  -0.1440 
 11 N        3.4620     7.2970     1.8260 N.pl3 1 <1>  -0.8690 
 12 C        1.2240     7.1930     0.9310 C.ar  1 <1>  -0.1500 
 13 C       -1.1040     7.1260     0.0020 C.3   1 <1>  -0.0970 
 14 C        3.8340     8.6940     1.5200 C.3   1 <1>   0.2090 
 15 C        5.2920     8.7490     1.0550 C.3   1 <1>  -0.0800 
 16 C        5.7440    10.1820     0.7310 C.3   1 <1>   0.1400 
 17 C        5.5690     7.9290    -0.2220 C.3   1 <1>  -0.0990 
 18 N        6.6040    10.0310    -0.4570 N.am  1 <1>  -0.6600 
 19 C        6.5290     8.7910    -0.9910 C.2   1 <1>   0.5690 
 20 C        7.4420    11.1240    -1.0200 C.3   1 <1>   0.2200 
 21 O        7.1340     8.3970    -1.9580 O.2   1 <1>  -0.5700 
 22 C        8.4410    11.6480     0.0110 C.3   1 <1>  -0.1600 
 23 C        6.5980    12.3410    -1.3880 C.3   1 <1>  -0.1600 
 24 C        7.8010    12.8700     0.6840 C.3   1 <1>  -0.1600 
 25 C        6.5760    13.2500    -0.1550 C.3   1 <1>  -0.1600 
 26 H        3.3470     3.2190    -0.4260 H     1 <1>   0.1500 
 27 H       -0.4710     2.6610    -2.2280 H     1 <1>   0.1500 
 28 H       -1.2220     4.8300    -1.3250 H     1 <1>   0.1500 
 29 H        4.2730     6.6870     1.9560 H     1 <1>   0.4000 
 30 H        1.0220     8.1400     1.3920 H     1 <1>   0.1500 
 31 H       -1.8500     6.4650     0.4060 H     1 <1>   0.0800 
 32 H       -1.2930     7.2750    -1.0460 H     1 <1>   0.0800 
 33 H       -1.1910     8.0750     0.5000 H     1 <1>   0.0800 
 34 H        3.7080     9.2900     2.4080 H     1 <1>   0.0800 
 35 H        3.1910     9.0870     0.7500 H     1 <1>   0.0800 
 36 H        5.9240     8.3860     1.8460 H     1 <1>   0.0800 
 37 H        6.2920    10.6070     1.5540 H     1 <1>   0.0800 
 38 H        4.9070    10.8110     0.4820 H     1 <1>   0.0800 
 39 H        4.6800     7.7930    -0.8110 H     1 <1>   0.0800 
 40 H        6.0060     6.9740     0.0010 H     1 <1>   0.0800 
 41 H        7.9610    10.7530    -1.8890 H     1 <1>   0.0800 
 42 H        9.3220    11.9710    -0.5150 H     1 <1>   0.0800 
 43 H        8.7280    10.8880     0.7160 H     1 <1>   0.0800 
 44 H        5.6130    12.0670    -1.7240 H     1 <1>   0.0800 
 45 H        7.0970    12.8620    -2.1860 H     1 <1>   0.0800 
 46 H        8.5050    13.6840     0.7210 H     1 <1>   0.0800 
 47 H        7.5010    12.6330     1.6900 H     1 <1>   0.0800 
 48 H        5.6790    13.0750     0.4130 H     1 <1>   0.0800 
 49 H        6.6020    14.2880    -0.4410 H     1 <1>   0.0800 
@<TRIPOS>BOND
  1   1   2  1   
  2   2   3  ar  
  3   2   4  ar  
  4   3   5  ar  
  5   3  26  1   
  6   4   6  ar  
  7   4  27  1   
  8   5   7  ar  
  9   5   8  ar  
 10   6   8  ar  
 11   6  28  1   
 12   7   9  ar  
 13   8  10  ar  
 14   9  11  1   
 15   9  12  ar  
 16  10  12  ar  
 17  10  13  1   
 18  11  14  1   
 19  11  29  1   
 20  12  30  1   
 21  13  31  1   
 22  13  32  1   
 23  13  33  1   
 24  14  15  1   
 25  14  34  1   
 26  14  35  1   
 27  15  16  1   
 28  15  17  1   
 29  15  36  1   
 30  16  18  1   
 31  16  37  1   
 32  16  38  1   
 33  17  19  1   
 34  17  39  1   
 35  17  40  1   
 36  18  19  am  
 37  18  20  1   
 38  19  21  2   
 39  20  22  1   
 40  20  23  1   
 41  20  41  1   
 42  22  24  1   
 43  22  42  1   
 44  22  43  1   
 45  23  25  1   
 46  23  44  1   
 47  23  45  1   
 48  24  25  1   
 49  24  46  1   
 50  24  47  1   
 51  25  48  1   
 52  25  49  1   
@<TRIPOS>SUBSTRUCTURE
  1 ****  17 GROUP 4 **** **** 0

# MOE 2024.06 (io_trps.svl 2023.06)
