@<TRIPOS>MOLECULE
NONAME
55 59 1 0 0 
SMALL
USER_CHARGES


@<TRIPOS>ATOM
  1 O       -1.1580     0.8450     1.9330 O.2   1 <1>  -0.5700 
  2 C       -2.0280     1.2870     1.1930 C.2   1 <1>   0.7160 
  3 N       -3.2100     0.5650     1.0940 N.am  1 <1>  -0.6600 
  4 C       -1.7720     2.5240     0.4520 C.2   1 <1>   0.2030 
  5 C       -4.2260     0.7770     0.0260 C.3   1 <1>   0.1400 
  6 C       -3.5750    -0.5010     2.0700 C.3   1 <1>   0.1400 
  7 N       -2.6510     3.4770     0.1590 N.2   1 <1>  -0.7070 
  8 C       -0.5120     2.8880    -0.0540 C.2   1 <1>  -0.1810 
  9 C       -4.4550    -0.5340    -0.7310 C.3   1 <1>  -0.1600 
 10 C       -3.7940    -1.8240     1.3320 C.3   1 <1>  -0.1600 
 11 N       -1.9630     4.4160    -0.5050 N.pl3 1 <1>   0.3000 
 12 C       -0.6690     4.0820    -0.6450 C.2   1 <1>  -0.3320 
 13 C        0.8150     2.1520     0.0130 C.3   1 <1>   0.0210 
 14 C       -4.8370    -1.6940     0.2090 C.3   1 <1>   0.4240 
 15 C        0.4220     4.8790    -1.3350 C.3   1 <1>   0.0200 
 16 C        1.8120     2.7580    -0.9930 C.3   1 <1>  -0.1600 
 17 O       -6.0130    -1.3020     0.8860 O.3   1 <1>  -0.5600 
 18 C       -5.0380    -3.0380    -0.5510 C.ar  1 <1>  -0.1430 
 19 C        1.7990     4.3010    -0.9610 C.3   1 <1>  -0.1600 
 20 C       -7.2290    -1.5030     0.2460 C.3   1 <1>   0.1200 
 21 C       -3.9940    -3.6680    -1.2440 C.ar  1 <1>   0.0830 
 22 C       -6.2910    -3.6500    -0.5590 C.ar  1 <1>  -0.1430 
 23 C       -7.4650    -3.0010     0.1460 C.3   1 <1>  -0.0170 
 24 O       -2.7710    -3.0760    -1.2730 O.3   1 <1>  -0.3630 
 25 C       -4.2160    -4.8800    -1.8970 C.ar  1 <1>  -0.1500 
 26 C       -6.4990    -4.8550    -1.2090 C.ar  1 <1>  -0.1500 
 27 C       -1.6400    -3.6800    -1.8590 C.3   1 <1>   0.0400 
 28 C       -5.4620    -5.4710    -1.8770 C.ar  1 <1>  -0.1500 
 29 H       -3.9030     1.5220    -0.6760 H     1 <1>   0.0800 
 30 H       -5.1440     1.1140     0.4770 H     1 <1>   0.0800 
 31 H       -4.4780    -0.2110     2.5800 H     1 <1>   0.0800 
 32 H       -2.8050    -0.6250     2.8120 H     1 <1>   0.0800 
 33 H       -3.5470    -0.7650    -1.2510 H     1 <1>   0.0800 
 34 H       -5.2120    -0.4000    -1.4780 H     1 <1>   0.0800 
 35 H       -4.1180    -2.5780     2.0250 H     1 <1>   0.0800 
 36 H       -2.8450    -2.1350     0.9440 H     1 <1>   0.0800 
 37 H       -2.4000     5.2790    -0.8490 H     1 <1>   0.2700 
 38 H        0.6690     1.1080    -0.2000 H     1 <1>   0.0800 
 39 H        1.2030     2.2400     1.0130 H     1 <1>   0.0800 
 40 H        0.3740     5.9130    -1.0430 H     1 <1>   0.0800 
 41 H        0.2800     4.8160    -2.4000 H     1 <1>   0.0800 
 42 H        1.5490     2.4290    -1.9830 H     1 <1>   0.0800 
 43 H        2.8010     2.3950    -0.7750 H     1 <1>   0.0800 
 44 H        2.0520     4.6250     0.0340 H     1 <1>   0.0800 
 45 H        2.5450     4.6880    -1.6330 H     1 <1>   0.0800 
 46 H       -7.2030    -1.0440    -0.7270 H     1 <1>   0.0800 
 47 H       -7.9960    -1.0370     0.8390 H     1 <1>   0.0800 
 48 H       -8.3740    -3.1790    -0.3980 H     1 <1>   0.0800 
 49 H       -7.5710    -3.4140     1.1330 H     1 <1>   0.0800 
 50 H       -3.4330    -5.3810    -2.4310 H     1 <1>   0.1500 
 51 H       -7.4700    -5.3180    -1.1990 H     1 <1>   0.1500 
 52 H       -0.7980    -3.0280    -1.7050 H     1 <1>   0.0800 
 53 H       -1.8160    -3.8050    -2.9120 H     1 <1>   0.0800 
 54 H       -1.4610    -4.6260    -1.3790 H     1 <1>   0.0800 
 55 H       -5.6260    -6.4080    -2.3820 H     1 <1>   0.1500 
@<TRIPOS>BOND
  1   1   2  2   
  2   2   3  am  
  3   2   4  1   
  4   3   5  1   
  5   3   6  1   
  6   4   7  2   
  7   4   8  1   
  8   5   9  1   
  9   5  29  1   
 10   5  30  1   
 11   6  10  1   
 12   6  31  1   
 13   6  32  1   
 14   7  11  1   
 15   8  12  2   
 16   8  13  1   
 17   9  14  1   
 18   9  33  1   
 19   9  34  1   
 20  10  14  1   
 21  10  35  1   
 22  10  36  1   
 23  11  12  1   
 24  11  37  1   
 25  12  15  1   
 26  13  16  1   
 27  13  38  1   
 28  13  39  1   
 29  14  17  1   
 30  14  18  1   
 31  15  19  1   
 32  15  40  1   
 33  15  41  1   
 34  16  19  1   
 35  16  42  1   
 36  16  43  1   
 37  17  20  1   
 38  18  21  ar  
 39  18  22  ar  
 40  19  44  1   
 41  19  45  1   
 42  20  23  1   
 43  20  46  1   
 44  20  47  1   
 45  21  24  1   
 46  21  25  ar  
 47  22  23  1   
 48  22  26  ar  
 49  23  48  1   
 50  23  49  1   
 51  24  27  1   
 52  25  28  ar  
 53  25  50  1   
 54  26  28  ar  
 55  26  51  1   
 56  27  52  1   
 57  27  53  1   
 58  27  54  1   
 59  28  55  1   
@<TRIPOS>SUBSTRUCTURE
  1 ****   9 GROUP 4 **** **** 0

# MOE 2024.06 (io_trps.svl 2023.06)
