@<TRIPOS>MOLECULE
NONAME
40 40 1 0 0 
SMALL
USER_CHARGES


@<TRIPOS>ATOM
  1 S        0.8470     0.5710     1.6040 S.o2  1 <1>   1.0900 
  2 O        1.5490     1.5530     2.4030 O.2   1 <1>  -0.6500 
  3 O        0.6930    -0.7680     2.1190 O.2   1 <1>  -0.6500 
  4 C        1.7120     0.4540     0.0590 C.3   1 <1>   0.0060 
  5 C       -0.7820     1.2270     1.2020 C.3   1 <1>  -0.0550 
  6 C        1.6650     1.7740    -0.6520 C.2   1 <1>   0.5690 
  7 C       -1.5970     0.3840     0.2050 C.3   1 <1>  -0.2400 
  8 O        1.2360     1.7640    -1.7780 O.2   1 <1>  -0.5700 
  9 N        2.0980     2.8960    -0.0100 N.am  1 <1>  -0.4930 
 10 C        2.2300     4.2360    -0.4580 C.2   1 <1>   0.0630 
 11 C        1.4610     4.9880    -1.3550 C.2   1 <1>   0.1080 
 12 C        3.1860     5.0890    -0.0290 C.2   1 <1>  -0.3320 
 13 N        1.9040     6.2000    -1.4800 N.2   1 <1>  -0.7070 
 14 C        0.2330     4.5370    -2.1140 C.3   1 <1>  -0.0590 
 15 N        2.9710     6.2680    -0.6660 N.pl3 1 <1>   0.3140 
 16 C        4.3150     4.8510     0.9660 C.3   1 <1>  -0.0600 
 17 C        3.7510     7.5180    -0.5480 C.3   1 <1>   0.0960 
 18 C        3.2150     8.3970     0.5910 C.3   1 <1>  -0.1600 
 19 C        4.0290     9.6880     0.7330 C.3   1 <1>  -0.2400 
 20 H        1.2620    -0.2950    -0.5620 H     1 <1>   0.0800 
 21 H        2.7350     0.1820     0.2250 H     1 <1>   0.0800 
 22 H       -0.6850     2.2220     0.8090 H     1 <1>   0.0800 
 23 H       -1.3480     1.3060     2.1110 H     1 <1>   0.0800 
 24 H       -1.1170     0.3530    -0.7570 H     1 <1>   0.0800 
 25 H       -2.5770     0.8110     0.0800 H     1 <1>   0.0800 
 26 H       -1.7090    -0.6220     0.5730 H     1 <1>   0.0800 
 27 H        2.3810     2.7780     0.9720 H     1 <1>   0.3700 
 28 H       -0.3660     3.8910    -1.5020 H     1 <1>   0.0800 
 29 H        0.5330     4.0130    -3.0020 H     1 <1>   0.0800 
 30 H       -0.3540     5.3910    -2.3970 H     1 <1>   0.0800 
 31 H        4.2890     3.8450     1.3420 H     1 <1>   0.0800 
 32 H        4.2240     5.5260     1.7990 H     1 <1>   0.0800 
 33 H        5.2660     5.0080     0.4900 H     1 <1>   0.0800 
 34 H        3.6770     8.0440    -1.4820 H     1 <1>   0.0800 
 35 H        4.7810     7.2680    -0.3790 H     1 <1>   0.0800 
 36 H        3.2520     7.8510     1.5180 H     1 <1>   0.0800 
 37 H        2.1870     8.6470     0.3850 H     1 <1>   0.0800 
 38 H        5.0580     9.4640     0.9560 H     1 <1>   0.0800 
 39 H        3.6290    10.2880     1.5310 H     1 <1>   0.0800 
 40 H        3.9860    10.2610    -0.1770 H     1 <1>   0.0800 
@<TRIPOS>BOND
  1   1   2  2   
  2   1   3  2   
  3   1   4  1   
  4   1   5  1   
  5   4   6  1   
  6   4  20  1   
  7   4  21  1   
  8   5   7  1   
  9   5  22  1   
 10   5  23  1   
 11   6   8  2   
 12   6   9  am  
 13   7  24  1   
 14   7  25  1   
 15   7  26  1   
 16   9  10  1   
 17   9  27  1   
 18  10  11  1   
 19  10  12  2   
 20  11  13  2   
 21  11  14  1   
 22  12  15  1   
 23  12  16  1   
 24  13  15  1   
 25  14  28  1   
 26  14  29  1   
 27  14  30  1   
 28  15  17  1   
 29  16  31  1   
 30  16  32  1   
 31  16  33  1   
 32  17  18  1   
 33  17  34  1   
 34  17  35  1   
 35  18  19  1   
 36  18  36  1   
 37  18  37  1   
 38  19  38  1   
 39  19  39  1   
 40  19  40  1   
@<TRIPOS>SUBSTRUCTURE
  1 ****  10 GROUP 4 **** **** 0

# MOE 2024.06 (io_trps.svl 2023.06)
