@<TRIPOS>MOLECULE
NONAME
42 45 1 0 0 
SMALL
USER_CHARGES


@<TRIPOS>ATOM
  1 S        0.4090     0.3020     0.9890 S.o2  1 <1>   1.4470 
  2 O       -0.8520    -0.2250     0.5320 O.2   1 <1>  -0.6500 
  3 O        0.6070     0.8150     2.3200 O.2   1 <1>  -0.6500 
  4 N        0.8150     1.5790    -0.0940 N.am  1 <1>  -0.7300 
  5 C        1.7790    -0.7060     0.4370 C.ar  1 <1>  -0.0090 
  6 C        1.8760     1.2360    -0.8640 C.2   1 <1>   0.7200 
  7 C       -0.2080     2.5930    -0.4440 C.3   1 <1>   0.1960 
  8 C        2.4640    -0.0510    -0.5690 C.ar  1 <1>   0.0860 
  9 C        2.1810    -1.9590     0.8720 C.ar  1 <1>  -0.1500 
 10 O        2.2800     2.0000    -1.7160 O.2   1 <1>  -0.5700 
 11 C       -0.2550     3.7160     0.5970 C.3   1 <1>  -0.0990 
 12 C        3.5720    -0.6580    -1.1530 C.ar  1 <1>  -0.1500 
 13 C        3.2850    -2.5600     0.2870 C.ar  1 <1>  -0.1500 
 14 C        0.8600     4.7430     0.5210 C.2   1 <1>   0.5690 
 15 C        3.9780    -1.9100    -0.7230 C.ar  1 <1>  -0.1500 
 16 O        0.6450     5.8100     1.0420 O.2   1 <1>  -0.5700 
 17 N        2.0340     4.4570    -0.1220 N.am  1 <1>  -0.4940 
 18 C        3.2020     5.2360    -0.3110 C.2   1 <1>  -0.0880 
 19 N        3.7490     6.1680     0.5300 N.pl3 1 <1>   0.3140 
 20 C        4.0260     5.1840    -1.3820 C.2   1 <1>  -0.1810 
 21 N        4.8860     6.6990     0.0110 N.2   1 <1>  -0.7070 
 22 C        3.3220     6.5530     1.8820 C.3   1 <1>   0.0160 
 23 C        5.0240     6.1010    -1.1280 C.2   1 <1>   0.1080 
 24 C        4.0980     4.4220    -2.6840 C.3   1 <1>   0.2510 
 25 C        6.0940     6.2700    -2.1800 C.3   1 <1>   0.2510 
 26 S        5.5890     5.0970    -3.4790 S.3   1 <1>  -0.4600 
 27 H       -1.1720     2.1130    -0.4840 H     1 <1>   0.0800 
 28 H       -0.0140     3.0050    -1.4210 H     1 <1>   0.0800 
 29 H        1.6410    -2.4630     1.6570 H     1 <1>   0.1500 
 30 H       -0.2810     3.3040     1.5890 H     1 <1>   0.0800 
 31 H       -1.1760     4.2500     0.4560 H     1 <1>   0.0800 
 32 H        4.1090    -0.1500    -1.9370 H     1 <1>   0.1500 
 33 H        3.6060    -3.5340     0.6180 H     1 <1>   0.1500 
 34 H        4.8360    -2.3840    -1.1730 H     1 <1>   0.1500 
 35 H        2.0440     3.5680    -0.6370 H     1 <1>   0.3700 
 36 H        2.9180     5.6960     2.3860 H     1 <1>   0.0800 
 37 H        2.5740     7.3190     1.8050 H     1 <1>   0.0800 
 38 H        4.1680     6.9280     2.4260 H     1 <1>   0.0800 
 39 H        3.2550     4.6150    -3.3220 H     1 <1>   0.0800 
 40 H        4.2530     3.3690    -2.5360 H     1 <1>   0.0800 
 41 H        7.0640     5.9840    -1.8180 H     1 <1>   0.0800 
 42 H        6.0980     7.2600    -2.5950 H     1 <1>   0.0800 
@<TRIPOS>BOND
  1   1   2  2   
  2   1   3  2   
  3   1   4  am  
  4   1   5  1   
  5   4   6  am  
  6   4   7  1   
  7   5   8  ar  
  8   5   9  ar  
  9   6   8  1   
 10   6  10  2   
 11   7  11  1   
 12   7  27  1   
 13   7  28  1   
 14   8  12  ar  
 15   9  13  ar  
 16   9  29  1   
 17  11  14  1   
 18  11  30  1   
 19  11  31  1   
 20  12  15  ar  
 21  12  32  1   
 22  13  15  ar  
 23  13  33  1   
 24  14  16  2   
 25  14  17  am  
 26  15  34  1   
 27  17  18  1   
 28  17  35  1   
 29  18  19  1   
 30  18  20  2   
 31  19  21  1   
 32  19  22  1   
 33  20  23  1   
 34  20  24  1   
 35  21  23  2   
 36  22  36  1   
 37  22  37  1   
 38  22  38  1   
 39  23  25  1   
 40  24  26  1   
 41  24  39  1   
 42  24  40  1   
 43  25  26  1   
 44  25  41  1   
 45  25  42  1   
@<TRIPOS>SUBSTRUCTURE
  1 ****  10 GROUP 4 **** **** 0

# MOE 2024.06 (io_trps.svl 2023.06)
