@<TRIPOS>MOLECULE
NONAME
55 56 1 0 0 
SMALL
USER_CHARGES


@<TRIPOS>ATOM
  1 S       -0.0060    -0.2350     0.4190 S.o2  1 <1>   1.0900 
  2 O        0.0320     0.4800     1.6720 O.2   1 <1>  -0.6500 
  3 O        0.5800    -1.5510     0.3190 O.2   1 <1>  -0.6500 
  4 C       -1.7100    -0.3430    -0.0990 C.3   1 <1>  -0.0550 
  5 C        0.7420     0.7970    -0.8270 C.3   1 <1>  -0.1350 
  6 C       -2.4990    -1.2490     0.8420 C.3   1 <1>   0.1100 
  7 N       -3.8970    -1.3550     0.3840 N.3   1 <1>  -0.8100 
  8 C       -4.4860    -2.6490     0.7870 C.3   1 <1>   0.1100 
  9 C       -4.6850    -0.2060     0.8580 C.3   1 <1>   0.1100 
 10 C       -5.6340    -3.0640    -0.1460 C.3   1 <1>   0.1400 
 11 C       -6.0940    -0.1700     0.2630 C.3   1 <1>  -0.1600 
 12 N       -6.9890    -2.5320     0.2180 N.am  1 <1>  -0.6600 
 13 C       -7.0370    -1.1990     0.8930 C.3   1 <1>   0.1400 
 14 C       -8.1630    -3.2420     0.1050 C.2   1 <1>   0.5690 
 15 O       -9.0590    -3.0200     0.8900 O.2   1 <1>  -0.5700 
 16 C       -8.4390    -4.3530    -0.9630 C.3   1 <1>   0.0610 
 17 C       -8.1710    -5.7450    -0.3510 C.3   1 <1>  -0.1600 
 18 C       -9.9270    -4.3210    -1.4140 C.3   1 <1>  -0.1600 
 19 C       -7.6040    -4.1950    -2.2580 C.3   1 <1>  -0.2400 
 20 C       -9.1640    -6.0730     0.7660 C.3   1 <1>   0.3430 
 21 C      -10.9270    -4.7550    -0.3360 C.3   1 <1>   0.3430 
 22 N      -10.5480    -6.0900     0.2120 N.4   1 <1>  -0.9590 
 23 C      -11.5230    -6.5060     1.2630 C.3   1 <1>   0.2630 
 24 H       -1.7650    -0.7540    -1.0880 H     1 <1>   0.0800 
 25 H       -2.1440     0.6360    -0.1050 H     1 <1>   0.0800 
 26 H        1.7840     0.9330    -0.6100 H     1 <1>   0.0800 
 27 H        0.2730     1.7610    -0.8500 H     1 <1>   0.0800 
 28 H        0.6550     0.3430    -1.7950 H     1 <1>   0.0800 
 29 H       -2.4570    -0.8770     1.8530 H     1 <1>   0.0800 
 30 H       -2.0270    -2.2180     0.8290 H     1 <1>   0.0800 
 31 H       -4.8040    -2.6330     1.8160 H     1 <1>   0.0800 
 32 H       -3.7330    -3.4120     0.6940 H     1 <1>   0.0800 
 33 H       -4.1890     0.7040     0.5680 H     1 <1>   0.0800 
 34 H       -4.7410    -0.2170     1.9340 H     1 <1>   0.0800 
 35 H       -5.6740    -4.1360    -0.1270 H     1 <1>   0.0800 
 36 H       -5.3850    -2.7550    -1.1470 H     1 <1>   0.0800 
 37 H       -6.0650    -0.2690    -0.8080 H     1 <1>   0.0800 
 38 H       -6.4970     0.8020     0.4800 H     1 <1>   0.0800 
 39 H       -8.0390    -0.8100     0.8190 H     1 <1>   0.0800 
 40 H       -6.8180    -1.3180     1.9400 H     1 <1>   0.0800 
 41 H       -7.1780    -5.7750     0.0590 H     1 <1>   0.0800 
 42 H       -8.2270    -6.5070    -1.1080 H     1 <1>   0.0800 
 43 H      -10.0770    -4.9590    -2.2670 H     1 <1>   0.0800 
 44 H      -10.1770    -3.3210    -1.7240 H     1 <1>   0.0800 
 45 H       -6.5800    -4.4780    -2.1150 H     1 <1>   0.0800 
 46 H       -7.6370    -3.1740    -2.5990 H     1 <1>   0.0800 
 47 H       -7.9810    -4.8210    -3.0480 H     1 <1>   0.0800 
 48 H       -9.0920    -5.3310     1.5470 H     1 <1>   0.0800 
 49 H       -8.9250    -7.0350     1.1880 H     1 <1>   0.0800 
 50 H      -11.9150    -4.8000    -0.7650 H     1 <1>   0.0800 
 51 H      -10.9490    -4.0290     0.4600 H     1 <1>   0.0800 
 52 H      -10.5730    -6.7680    -0.5620 H     1 <1>   0.4500 
 53 H      -11.5110    -5.8030     2.0800 H     1 <1>   0.0800 
 54 H      -11.2720    -7.4830     1.6430 H     1 <1>   0.0800 
 55 H      -12.5210    -6.5420     0.8550 H     1 <1>   0.0800 
@<TRIPOS>BOND
  1   1   2  2   
  2   1   3  2   
  3   1   4  1   
  4   1   5  1   
  5   4   6  1   
  6   4  24  1   
  7   4  25  1   
  8   5  26  1   
  9   5  27  1   
 10   5  28  1   
 11   6   7  1   
 12   6  29  1   
 13   6  30  1   
 14   7   8  1   
 15   7   9  1   
 16   8  10  1   
 17   8  31  1   
 18   8  32  1   
 19   9  11  1   
 20   9  33  1   
 21   9  34  1   
 22  10  12  1   
 23  10  35  1   
 24  10  36  1   
 25  11  13  1   
 26  11  37  1   
 27  11  38  1   
 28  12  13  1   
 29  12  14  am  
 30  13  39  1   
 31  13  40  1   
 32  14  15  2   
 33  14  16  1   
 34  16  17  1   
 35  16  18  1   
 36  16  19  1   
 37  17  20  1   
 38  17  41  1   
 39  17  42  1   
 40  18  21  1   
 41  18  43  1   
 42  18  44  1   
 43  19  45  1   
 44  19  46  1   
 45  19  47  1   
 46  20  22  1   
 47  20  48  1   
 48  20  49  1   
 49  21  22  1   
 50  21  50  1   
 51  21  51  1   
 52  22  23  1   
 53  22  52  1   
 54  23  53  1   
 55  23  54  1   
 56  23  55  1   
@<TRIPOS>SUBSTRUCTURE
  1 ****  10 GROUP 4 **** **** 0

# MOE 2024.06 (io_trps.svl 2023.06)
