@<TRIPOS>MOLECULE
NONAME
56 58 1 0 0 
SMALL
USER_CHARGES


@<TRIPOS>ATOM
  1 O        2.4670    -0.6640     2.1680 O.co2 1 <1>  -0.9000 
  2 C        2.8420    -0.3330     1.0470 C.2   1 <1>   0.9060 
  3 O        3.9130    -0.7580     0.5790 O.co2 1 <1>  -0.9000 
  4 C        2.1220     0.8280     0.3370 C.3   1 <1>  -0.1060 
  5 C        2.7940     1.2050    -1.0190 C.3   1 <1>   0.2000 
  6 C        2.2860     2.0680     1.2570 C.3   1 <1>  -0.1600 
  7 C        0.6350     0.4370     0.1460 C.3   1 <1>  -0.0160 
  8 O        3.0950     0.0590    -1.7370 O.3   1 <1>  -0.6800 
  9 C        4.0870     2.0370    -0.8380 C.3   1 <1>   0.3430 
 10 C        3.7680     2.3180     1.6060 C.3   1 <1>   0.3430 
 11 C       -0.2270     1.5240    -0.4900 C.ar  1 <1>  -0.1440 
 12 N        4.6790     1.8310     0.5190 N.4   1 <1>  -0.9590 
 13 C       -0.4210     1.5490    -1.8630 C.ar  1 <1>  -0.1500 
 14 C       -0.8380     2.4880     0.2970 C.ar  1 <1>  -0.1500 
 15 C        6.0880     2.2650     0.6570 C.3   1 <1>   0.4860 
 16 C       -1.1970     2.5360    -2.4440 C.ar  1 <1>  -0.1500 
 17 C       -1.6140     3.4770    -0.2820 C.ar  1 <1>  -0.1500 
 18 C        6.1970     3.7760     0.5070 C.ar  1 <1>  -0.1430 
 19 C       -1.7920     3.5030    -1.6540 C.ar  1 <1>  -0.1500 
 20 C        6.1530     4.5960     1.6260 C.ar  1 <1>  -0.1500 
 21 C        6.3480     4.3520    -0.7460 C.ar  1 <1>  -0.1500 
 22 C        6.2370     5.9700     1.4870 C.ar  1 <1>  -0.1500 
 23 C        6.4300     5.7270    -0.8770 C.ar  1 <1>  -0.1500 
 24 C        6.3710     6.5540     0.2360 C.ar  1 <1>   0.0730 
 25 C        6.4480     7.9760     0.0960 C.1   1 <1>  -0.0730 
 26 C        6.5110     9.1590    -0.0200 C.1   1 <1>  -0.2000 
 27 C        6.5920    10.6410    -0.1650 C.3   1 <1>   0.0400 
 28 C        7.8880    11.1660     0.4540 C.3   1 <1>   0.1200 
 29 O        7.9640    12.5390     0.2700 O.3   1 <1>  -0.6800 
 30 H        2.1310     1.7850    -1.6330 H     1 <1>   0.0800 
 31 H        1.7430     1.9210     2.1750 H     1 <1>   0.0800 
 32 H        1.8820     2.9450     0.7830 H     1 <1>   0.0800 
 33 H        0.5860    -0.4520    -0.4610 H     1 <1>   0.0800 
 34 H        0.2120     0.1740     1.1010 H     1 <1>   0.0800 
 35 H        3.5080    -0.5840    -1.0900 H     1 <1>   0.4000 
 36 H        3.8490     3.0810    -0.9540 H     1 <1>   0.0800 
 37 H        4.7880     1.7580    -1.6060 H     1 <1>   0.0800 
 38 H        4.0010     1.7850     2.5160 H     1 <1>   0.0800 
 39 H        3.9150     3.3700     1.7800 H     1 <1>   0.0800 
 40 H        4.6780     0.7820     0.6230 H     1 <1>   0.4500 
 41 H        0.0350     0.7960    -2.4850 H     1 <1>   0.1500 
 42 H       -0.7130     2.4690     1.3650 H     1 <1>   0.1500 
 43 H        6.4640     1.9690     1.6220 H     1 <1>   0.0800 
 44 H        6.6890     1.7830    -0.0970 H     1 <1>   0.0800 
 45 H       -1.3400     2.5490    -3.5110 H     1 <1>   0.1500 
 46 H       -2.0830     4.2230     0.3350 H     1 <1>   0.1500 
 47 H       -2.3960     4.2710    -2.1050 H     1 <1>   0.1500 
 48 H        6.0560     4.1770     2.6130 H     1 <1>   0.1500 
 49 H        6.4050     3.7410    -1.6310 H     1 <1>   0.1500 
 50 H        6.1990     6.6030     2.3570 H     1 <1>   0.1500 
 51 H        6.5430     6.1700    -1.8510 H     1 <1>   0.1500 
 52 H        5.7490    11.0880     0.3320 H     1 <1>   0.0800 
 53 H        6.5570    10.8880    -1.2100 H     1 <1>   0.0800 
 54 H        8.7500    10.7120    -0.0050 H     1 <1>   0.0800 
 55 H        7.9060    10.9710     1.5130 H     1 <1>   0.0800 
 56 H        8.0760    12.7580    -0.6750 H     1 <1>   0.4000 
@<TRIPOS>BOND
  1   1   2  ar  
  2   2   3  ar  
  3   2   4  1   
  4   4   5  1   
  5   4   6  1   
  6   4   7  1   
  7   5   8  1   
  8   5   9  1   
  9   5  30  1   
 10   6  10  1   
 11   6  31  1   
 12   6  32  1   
 13   7  11  1   
 14   7  33  1   
 15   7  34  1   
 16   8  35  1   
 17   9  12  1   
 18   9  36  1   
 19   9  37  1   
 20  10  12  1   
 21  10  38  1   
 22  10  39  1   
 23  11  13  ar  
 24  11  14  ar  
 25  12  15  1   
 26  12  40  1   
 27  13  16  ar  
 28  13  41  1   
 29  14  17  ar  
 30  14  42  1   
 31  15  18  1   
 32  15  43  1   
 33  15  44  1   
 34  16  19  ar  
 35  16  45  1   
 36  17  19  ar  
 37  17  46  1   
 38  18  20  ar  
 39  18  21  ar  
 40  19  47  1   
 41  20  22  ar  
 42  20  48  1   
 43  21  23  ar  
 44  21  49  1   
 45  22  24  ar  
 46  22  50  1   
 47  23  24  ar  
 48  23  51  1   
 49  24  25  1   
 50  25  26  3   
 51  26  27  1   
 52  27  28  1   
 53  27  52  1   
 54  27  53  1   
 55  28  29  1   
 56  28  54  1   
 57  28  55  1   
 58  29  56  1   
@<TRIPOS>SUBSTRUCTURE
  1 ****   9 GROUP 4 **** **** 0

# MOE 2024.06 (io_trps.svl 2023.06)
