@<TRIPOS>MOLECULE
NONAME
46 47 1 0 0 
SMALL
USER_CHARGES


@<TRIPOS>ATOM
  1 O       -3.0380    -0.1960     1.2960 O.3   1 <1>  -0.5320 
  2 C       -2.8920    -1.1180     0.3330 C.ar  1 <1>   0.0830 
  3 C       -2.6610    -2.4450     0.6550 C.ar  1 <1>  -0.1500 
  4 C       -2.9740    -0.7180    -0.9880 C.ar  1 <1>  -0.1500 
  5 C       -2.5220    -3.3890    -0.3550 C.ar  1 <1>  -0.1430 
  6 C       -2.8160    -1.6490    -1.9970 C.ar  1 <1>  -0.1500 
  7 C       -2.5870    -2.9780    -1.6820 C.ar  1 <1>  -0.1500 
  8 C       -2.2980    -4.8580    -0.0260 C.3   1 <1>   0.4860 
  9 N       -3.6040    -5.5610     0.1500 N.4   1 <1>  -0.9590 
 10 C       -4.4730    -5.4620    -1.0610 C.3   1 <1>   0.3430 
 11 C       -4.3480    -5.0990     1.3530 C.3   1 <1>   0.3430 
 12 C       -5.6670    -6.4270    -0.9270 C.3   1 <1>   0.2000 
 13 C       -5.5840    -5.9700     1.5740 C.3   1 <1>  -0.1600 
 14 O       -5.0990    -7.7020    -0.8500 O.3   1 <1>  -0.6800 
 15 C       -6.5240    -6.1410     0.3450 C.3   1 <1>   0.0000 
 16 C       -7.4560    -7.3560     0.6270 C.3   1 <1>   0.1200 
 17 C       -7.4600    -4.9010     0.1580 C.3   1 <1>  -0.1600 
 18 O       -8.1980    -7.1490     1.7820 O.3   1 <1>  -0.6800 
 19 C       -6.9020    -3.5790    -0.4000 C.3   1 <1>  -0.1600 
 20 C       -7.9690    -2.4830    -0.3510 C.3   1 <1>  -0.2400 
 21 H       -2.8960    -0.5260     2.2000 H     1 <1>   0.4500 
 22 H       -2.5900    -2.7290     1.6890 H     1 <1>   0.1500 
 23 H       -3.1540     0.3180    -1.2170 H     1 <1>   0.1500 
 24 H       -2.8680    -1.3330    -3.0260 H     1 <1>   0.1500 
 25 H       -2.4570    -3.6810    -2.4870 H     1 <1>   0.1500 
 26 H       -1.7110    -4.9410     0.8730 H     1 <1>   0.0800 
 27 H       -1.7440    -5.3190    -0.8280 H     1 <1>   0.0800 
 28 H       -3.4420    -6.5750     0.2580 H     1 <1>   0.4500 
 29 H       -4.8050    -4.4480    -1.1870 H     1 <1>   0.0800 
 30 H       -3.9140    -5.7350    -1.9400 H     1 <1>   0.0800 
 31 H       -3.7150    -5.1620     2.2230 H     1 <1>   0.0800 
 32 H       -4.6420    -4.0710     1.2300 H     1 <1>   0.0800 
 33 H       -6.2760    -6.3860    -1.8140 H     1 <1>   0.0800 
 34 H       -5.2390    -6.9390     1.8900 H     1 <1>   0.0800 
 35 H       -6.1420    -5.5670     2.4020 H     1 <1>   0.0800 
 36 H       -5.7620    -8.3970    -1.0440 H     1 <1>   0.4000 
 37 H       -6.8910    -8.2600     0.7770 H     1 <1>   0.0800 
 38 H       -8.1450    -7.5070    -0.1870 H     1 <1>   0.0800 
 39 H       -8.2690    -5.1900    -0.4910 H     1 <1>   0.0800 
 40 H       -7.9160    -4.6820     1.1100 H     1 <1>   0.0800 
 41 H       -8.8180    -7.8900     1.9460 H     1 <1>   0.4000 
 42 H       -6.0570    -3.2380     0.1670 H     1 <1>   0.0800 
 43 H       -6.6140    -3.7000    -1.4290 H     1 <1>   0.0800 
 44 H       -8.2790    -2.2990     0.6640 H     1 <1>   0.0800 
 45 H       -8.8330    -2.7640    -0.9280 H     1 <1>   0.0800 
 46 H       -7.5760    -1.5650    -0.7540 H     1 <1>   0.0800 
@<TRIPOS>BOND
  1   1   2  1   
  2   1  21  1   
  3   2   3  ar  
  4   2   4  ar  
  5   3   5  ar  
  6   3  22  1   
  7   4   6  ar  
  8   4  23  1   
  9   5   7  ar  
 10   5   8  1   
 11   6   7  ar  
 12   6  24  1   
 13   7  25  1   
 14   8   9  1   
 15   8  26  1   
 16   8  27  1   
 17   9  10  1   
 18   9  11  1   
 19   9  28  1   
 20  10  12  1   
 21  10  29  1   
 22  10  30  1   
 23  11  13  1   
 24  11  31  1   
 25  11  32  1   
 26  12  14  1   
 27  12  15  1   
 28  12  33  1   
 29  13  15  1   
 30  13  34  1   
 31  13  35  1   
 32  14  36  1   
 33  15  16  1   
 34  15  17  1   
 35  16  18  1   
 36  16  37  1   
 37  16  38  1   
 38  17  19  1   
 39  17  39  1   
 40  17  40  1   
 41  18  41  1   
 42  19  20  1   
 43  19  42  1   
 44  19  43  1   
 45  20  44  1   
 46  20  45  1   
 47  20  46  1   
@<TRIPOS>SUBSTRUCTURE
  1 ****  10 GROUP 4 **** **** 0

# MOE 2024.06 (io_trps.svl 2023.06)
