@<TRIPOS>MOLECULE
NONAME
59 61 1 0 0 
SMALL
USER_CHARGES


@<TRIPOS>ATOM
  1 N       -1.2230    -0.3790     1.8660 N.2   1 <1>  -0.7070 
  2 N       -0.1110    -0.1990     1.1240 N.pl3 1 <1>   0.3140 
  3 C       -1.2970    -1.6580     2.0550 C.2   1 <1>   0.1390 
  4 C        0.4640    -1.3870     0.8110 C.2   1 <1>  -0.3320 
  5 C        0.3490     1.1580     0.7500 C.3   1 <1>   0.0960 
  6 C       -0.3010    -2.3490     1.3780 C.2   1 <1>  -0.1810 
  7 C        1.7350    -1.5180    -0.0200 C.3   1 <1>  -0.0600 
  8 C       -0.2220     1.5730    -0.6140 C.3   1 <1>  -0.1600 
  9 C       -0.1930    -3.8570     1.3240 C.3   1 <1>   0.5240 
 10 C        0.2340     2.9850    -0.9990 C.3   1 <1>  -0.2400 
 11 N       -0.4190    -4.3290    -0.0820 N.4   1 <1>  -0.9590 
 12 C       -1.7690    -4.1420    -0.7120 C.3   1 <1>   0.4230 
 13 C        0.0030    -5.7570    -0.2040 C.3   1 <1>   0.2630 
 14 C       -1.8920    -2.8100    -1.4450 C.3   1 <1>  -0.1600 
 15 C       -2.9790    -4.1980     0.2230 C.3   1 <1>  -0.1600 
 16 C       -3.3970    -2.5320    -1.5560 C.3   1 <1>  -0.0800 
 17 C       -4.0870    -3.3990    -0.4890 C.3   1 <1>  -0.0800 
 18 C       -3.7710    -1.0740    -1.2450 C.3   1 <1>  -0.1600 
 19 C       -4.8420    -2.4240     0.4310 C.3   1 <1>  -0.1600 
 20 C       -4.1330    -1.0890     0.2380 C.3   1 <1>   0.4230 
 21 N       -4.9280     0.0730     0.7260 N.4   1 <1>  -0.9590 
 22 C       -6.1460     0.4120    -0.0780 C.3   1 <1>   0.2630 
 23 C       -4.0360     1.2650     0.8720 C.3   1 <1>   0.2630 
 24 H       -2.0620    -2.1120     2.6630 H     1 <1>   0.1500 
 25 H        0.0230     1.8440     1.5110 H     1 <1>   0.0800 
 26 H        1.4230     1.1690     0.7270 H     1 <1>   0.0800 
 27 H        2.0470    -2.5430    -0.0960 H     1 <1>   0.0800 
 28 H        2.5350    -0.9640     0.4420 H     1 <1>   0.0800 
 29 H        1.5800    -1.1300    -1.0110 H     1 <1>   0.0800 
 30 H        0.1080     0.8830    -1.3710 H     1 <1>   0.0800 
 31 H       -1.2960     1.5520    -0.5740 H     1 <1>   0.0800 
 32 H       -0.9060    -4.3090     1.9930 H     1 <1>   0.0800 
 33 H        0.7950    -4.1390     1.6490 H     1 <1>   0.0800 
 34 H        1.3070     3.0320    -1.0670 H     1 <1>   0.0800 
 35 H       -0.0970     3.7040    -0.2700 H     1 <1>   0.0800 
 36 H       -0.1770     3.2580    -1.9560 H     1 <1>   0.0800 
 37 H        0.2220    -3.7550    -0.6450 H     1 <1>   0.4500 
 38 H       -1.9120    -4.9080    -1.4590 H     1 <1>   0.0800 
 39 H       -0.6470    -6.3920     0.3770 H     1 <1>   0.0800 
 40 H        1.0140    -5.8840     0.1500 H     1 <1>   0.0800 
 41 H       -0.0380    -6.0750    -1.2340 H     1 <1>   0.0800 
 42 H       -1.4230    -2.0190    -0.8990 H     1 <1>   0.0800 
 43 H       -1.4460    -2.8680    -2.4230 H     1 <1>   0.0800 
 44 H       -3.2900    -5.2160     0.3800 H     1 <1>   0.0800 
 45 H       -2.7750    -3.7490     1.1720 H     1 <1>   0.0800 
 46 H       -3.7450    -2.8080    -2.5400 H     1 <1>   0.0800 
 47 H       -4.7790    -4.0820    -0.9580 H     1 <1>   0.0800 
 48 H       -4.6230    -0.8170    -1.8480 H     1 <1>   0.0800 
 49 H       -2.9680    -0.3910    -1.4570 H     1 <1>   0.0800 
 50 H       -4.8370    -2.7410     1.4590 H     1 <1>   0.0800 
 51 H       -5.8590    -2.3590     0.0880 H     1 <1>   0.0800 
 52 H       -3.2130    -1.1300     0.7920 H     1 <1>   0.0800 
 53 H       -5.2400    -0.1760     1.6760 H     1 <1>   0.4500 
 54 H       -5.8660     0.7360    -1.0670 H     1 <1>   0.0800 
 55 H       -6.6950     1.2080     0.3980 H     1 <1>   0.0800 
 56 H       -6.7940    -0.4450    -0.1640 H     1 <1>   0.0800 
 57 H       -3.6630     1.5740    -0.0900 H     1 <1>   0.0800 
 58 H       -3.1960     1.0290     1.5070 H     1 <1>   0.0800 
 59 H       -4.5770     2.0870     1.3140 H     1 <1>   0.0800 
@<TRIPOS>BOND
  1   1   2  1   
  2   1   3  2   
  3   2   4  1   
  4   2   5  1   
  5   3   6  1   
  6   3  24  1   
  7   4   6  2   
  8   4   7  1   
  9   5   8  1   
 10   5  25  1   
 11   5  26  1   
 12   6   9  1   
 13   7  27  1   
 14   7  28  1   
 15   7  29  1   
 16   8  10  1   
 17   8  30  1   
 18   8  31  1   
 19   9  11  1   
 20   9  32  1   
 21   9  33  1   
 22  10  34  1   
 23  10  35  1   
 24  10  36  1   
 25  11  12  1   
 26  11  13  1   
 27  11  37  1   
 28  12  14  1   
 29  12  15  1   
 30  12  38  1   
 31  13  39  1   
 32  13  40  1   
 33  13  41  1   
 34  14  16  1   
 35  14  42  1   
 36  14  43  1   
 37  15  17  1   
 38  15  44  1   
 39  15  45  1   
 40  16  17  1   
 41  16  18  1   
 42  16  46  1   
 43  17  19  1   
 44  17  47  1   
 45  18  20  1   
 46  18  48  1   
 47  18  49  1   
 48  19  20  1   
 49  19  50  1   
 50  19  51  1   
 51  20  21  1   
 52  20  52  1   
 53  21  22  1   
 54  21  23  1   
 55  21  53  1   
 56  22  54  1   
 57  22  55  1   
 58  22  56  1   
 59  23  57  1   
 60  23  58  1   
 61  23  59  1   
@<TRIPOS>SUBSTRUCTURE
  1 ****   3 GROUP 4 **** **** 0

# MOE 2024.06 (io_trps.svl 2023.06)
