@<TRIPOS>MOLECULE
NONAME
67 71 1 0 0 
SMALL
USER_CHARGES


@<TRIPOS>ATOM
  1 O       -0.7710     0.4240    -2.3770 O.2   1 <1>  -0.5700 
  2 C       -1.6770     1.0410    -1.8430 C.2   1 <1>   0.7150 
  3 N       -2.8960     0.4040    -1.6980 N.am  1 <1>  -0.6600 
  4 C       -1.3970     2.3970    -1.4050 C.2   1 <1>   0.0550 
  5 C       -3.3130    -0.6840    -2.6290 C.3   1 <1>   0.1400 
  6 C       -3.9020     0.7180    -0.6450 C.3   1 <1>   0.1400 
  7 O       -2.3230     3.2390    -0.9560 O.3   1 <1>  -0.2800 
  8 C       -0.2070     3.0550    -1.4000 C.2   1 <1>  -0.1500 
  9 C       -3.6260    -1.9550    -1.8380 C.3   1 <1>  -0.1600 
 10 C       -4.2250    -0.5500     0.1510 C.3   1 <1>  -0.1600 
 11 C       -1.7760     4.3970    -0.6660 C.2   1 <1>  -0.0400 
 12 C       -0.4440     4.3450    -0.9180 C.2   1 <1>  -0.1810 
 13 C       -4.6830    -1.7060    -0.7530 C.3   1 <1>   0.4240 
 14 C       -2.7340     5.4630    -0.1470 C.3   1 <1>   0.0200 
 15 C        0.6380     5.3890    -0.7600 C.3   1 <1>   0.5240 
 16 O       -5.8380    -1.2910    -1.4450 O.3   1 <1>  -0.5600 
 17 C       -4.9360    -2.9920     0.0640 C.ar  1 <1>  -0.1440 
 18 C       -2.1020     6.8310     0.1300 C.3   1 <1>  -0.2400 
 19 N        1.2180     5.2490     0.5990 N.4   1 <1>  -0.9590 
 20 C       -7.0600    -1.4100    -0.7870 C.3   1 <1>   0.1200 
 21 C       -6.2070    -3.5540     0.1460 C.ar  1 <1>  -0.1430 
 22 C       -3.8930    -3.6130     0.7430 C.ar  1 <1>  -0.1500 
 23 C        2.1260     6.3510     0.9850 C.3   1 <1>   0.3430 
 24 C        1.9770     3.9910     0.7980 C.3   1 <1>   0.3430 
 25 C       -7.3630    -2.8900    -0.5760 C.3   1 <1>  -0.0170 
 26 C       -6.4240    -4.7100     0.8790 C.ar  1 <1>  -0.1500 
 27 C       -4.1090    -4.7650     1.4770 C.ar  1 <1>  -0.1500 
 28 C        2.9230     5.7860     2.1530 C.3   1 <1>  -0.1600 
 29 C        2.8340     4.2620     2.0270 C.3   1 <1>  -0.1600 
 30 C       -5.3720    -5.3240     1.5510 C.ar  1 <1>   0.0820 
 31 O       -5.5000    -6.4550     2.2890 O.3   1 <1>  -0.3630 
 32 C       -6.7400    -7.1150     2.4100 C.3   1 <1>   0.0400 
 33 H       -2.5400    -0.8880    -3.3500 H     1 <1>   0.0800 
 34 H       -4.1890    -0.3650    -3.1690 H     1 <1>   0.0800 
 35 H       -4.7940     1.1010    -1.1120 H     1 <1>   0.0800 
 36 H       -3.5280     1.4580     0.0370 H     1 <1>   0.0800 
 37 H        0.7340     2.6460    -1.7280 H     1 <1>   0.1500 
 38 H       -2.7120    -2.3070    -1.3990 H     1 <1>   0.0800 
 39 H       -3.9800    -2.7200    -2.5040 H     1 <1>   0.0800 
 40 H       -4.9760    -0.3390     0.8880 H     1 <1>   0.0800 
 41 H       -3.3400    -0.8440     0.6830 H     1 <1>   0.0800 
 42 H       -3.1910     5.0970     0.7560 H     1 <1>   0.0800 
 43 H       -3.5200     5.5870    -0.8730 H     1 <1>   0.0800 
 44 H        0.2140     6.3710    -0.8810 H     1 <1>   0.0800 
 45 H        1.3970     5.2510    -1.5130 H     1 <1>   0.0800 
 46 H       -1.3390     6.7560     0.8810 H     1 <1>   0.0800 
 47 H       -2.8600     7.5050     0.4900 H     1 <1>   0.0800 
 48 H       -1.6950     7.2460    -0.7740 H     1 <1>   0.0800 
 49 H        0.4290     5.2250     1.2570 H     1 <1>   0.4500 
 50 H       -7.8140    -0.9570    -1.4060 H     1 <1>   0.0800 
 51 H       -7.0120    -0.8870     0.1510 H     1 <1>   0.0800 
 52 H       -2.8980    -3.2060     0.7080 H     1 <1>   0.1500 
 53 H        1.5830     7.2410     1.2640 H     1 <1>   0.0800 
 54 H        2.7960     6.5770     0.1700 H     1 <1>   0.0800 
 55 H        2.6140     3.8070    -0.0520 H     1 <1>   0.0800 
 56 H        1.3200     3.1470     0.9430 H     1 <1>   0.0800 
 57 H       -7.5130    -3.3640    -1.5300 H     1 <1>   0.0800 
 58 H       -8.2660    -2.9880    -0.0020 H     1 <1>   0.0800 
 59 H       -7.4140    -5.1220     0.9180 H     1 <1>   0.1500 
 60 H       -3.2980    -5.2390     1.9980 H     1 <1>   0.1500 
 61 H        2.4870     6.1120     3.0830 H     1 <1>   0.0800 
 62 H        3.9420     6.1320     2.1160 H     1 <1>   0.0800 
 63 H        3.8050     3.8110     1.9130 H     1 <1>   0.0800 
 64 H        2.3640     3.8390     2.8990 H     1 <1>   0.0800 
 65 H       -6.5960    -7.9830     3.0290 H     1 <1>   0.0800 
 66 H       -7.0730    -7.4140     1.4320 H     1 <1>   0.0800 
 67 H       -7.4460    -6.4490     2.8730 H     1 <1>   0.0800 
@<TRIPOS>BOND
  1   1   2  2   
  2   2   3  am  
  3   2   4  1   
  4   3   5  1   
  5   3   6  1   
  6   4   7  1   
  7   4   8  2   
  8   5   9  1   
  9   5  33  1   
 10   5  34  1   
 11   6  10  1   
 12   6  35  1   
 13   6  36  1   
 14   7  11  1   
 15   8  12  1   
 16   8  37  1   
 17   9  13  1   
 18   9  38  1   
 19   9  39  1   
 20  10  13  1   
 21  10  40  1   
 22  10  41  1   
 23  11  12  2   
 24  11  14  1   
 25  12  15  1   
 26  13  16  1   
 27  13  17  1   
 28  14  18  1   
 29  14  42  1   
 30  14  43  1   
 31  15  19  1   
 32  15  44  1   
 33  15  45  1   
 34  16  20  1   
 35  17  21  ar  
 36  17  22  ar  
 37  18  46  1   
 38  18  47  1   
 39  18  48  1   
 40  19  23  1   
 41  19  24  1   
 42  19  49  1   
 43  20  25  1   
 44  20  50  1   
 45  20  51  1   
 46  21  25  1   
 47  21  26  ar  
 48  22  27  ar  
 49  22  52  1   
 50  23  28  1   
 51  23  53  1   
 52  23  54  1   
 53  24  29  1   
 54  24  55  1   
 55  24  56  1   
 56  25  57  1   
 57  25  58  1   
 58  26  30  ar  
 59  26  59  1   
 60  27  30  ar  
 61  27  60  1   
 62  28  29  1   
 63  28  61  1   
 64  28  62  1   
 65  29  63  1   
 66  29  64  1   
 67  30  31  1   
 68  31  32  1   
 69  32  65  1   
 70  32  66  1   
 71  32  67  1   
@<TRIPOS>SUBSTRUCTURE
  1 ****   6 GROUP 4 **** **** 0

# MOE 2024.06 (io_trps.svl 2023.06)
