@<TRIPOS>MOLECULE
NONAME
53 56 1 0 0 
SMALL
USER_CHARGES


@<TRIPOS>ATOM
  1 O        1.9100     0.7270     2.4580 O.2   1 <1>  -0.5700 
  2 C        1.9360     0.8810     1.2500 C.2   1 <1>   0.5440 
  3 N        1.2680     1.9590     0.7120 N.am  1 <1>  -0.6600 
  4 C        2.6920    -0.0070     0.4070 C.ar  1 <1>   0.0860 
  5 C        0.4360     2.8720     1.5230 C.3   1 <1>   0.1400 
  6 C        1.2510     2.3400    -0.7160 C.3   1 <1>   0.1400 
  7 C        2.2180    -1.2820     0.0380 C.ar  1 <1>   0.4100 
  8 C        3.9300     0.3940    -0.0760 C.ar  1 <1>  -0.1500 
  9 C       -0.0010     3.9660     0.5540 C.3   1 <1>  -0.1600 
 10 C        0.0950     3.3260    -0.8300 C.3   1 <1>  -0.1600 
 11 N        2.8900    -2.1060    -0.7690 N.ar  1 <1>  -0.6200 
 12 N        1.0070    -1.7780     0.4850 N.pl3 1 <1>  -0.8380 
 13 C        4.6210    -0.4650    -0.8980 C.ar  1 <1>  -0.1500 
 14 C        4.0590    -1.6880    -1.2100 C.ar  1 <1>   0.1600 
 15 C       -0.2950    -1.1360     0.1300 C.3   1 <1>   0.2090 
 16 C        0.8540    -3.2220     0.8520 C.3   1 <1>   0.2090 
 17 C       -1.0440    -1.9280    -0.9630 C.3   1 <1>   0.2090 
 18 C        0.1180    -4.0110    -0.2490 C.3   1 <1>   0.2090 
 19 N       -1.1930    -3.3750    -0.6130 N.pl3 1 <1>  -0.8380 
 20 C       -2.3650    -3.8170    -0.0410 C.ar  1 <1>   0.4100 
 21 N       -2.3100    -4.3590     1.1600 N.ar  1 <1>  -0.6200 
 22 C       -3.5700    -3.6890    -0.7050 C.ar  1 <1>  -0.1500 
 23 C       -3.4670    -4.7420     1.6640 C.ar  1 <1>   0.4700 
 24 C       -4.7080    -4.1260    -0.0830 C.ar  1 <1>   0.1670 
 25 N       -4.6700    -4.6590     1.1230 N.ar  1 <1>  -0.6200 
 26 C       -6.0660    -4.0170    -0.7590 C.3   1 <1>  -0.0170 
 27 C       -6.5180    -5.3660    -1.3310 C.3   1 <1>  -0.2400 
 28 H        1.0020     3.2700     2.3490 H     1 <1>   0.0800 
 29 H       -0.4140     2.3290     1.8990 H     1 <1>   0.0800 
 30 H        1.1080     1.4830    -1.3530 H     1 <1>   0.0800 
 31 H        2.1810     2.8240    -0.9600 H     1 <1>   0.0800 
 32 H        4.3310     1.3550     0.1970 H     1 <1>   0.1500 
 33 H        0.6900     4.7880     0.6250 H     1 <1>   0.0800 
 34 H       -0.9910     4.3230     0.7760 H     1 <1>   0.0800 
 35 H       -0.8090     2.7840    -1.0440 H     1 <1>   0.0800 
 36 H        0.2620     4.0510    -1.6060 H     1 <1>   0.0800 
 37 H        5.5850    -0.1950    -1.2930 H     1 <1>   0.1500 
 38 H        4.6030    -2.3570    -1.8550 H     1 <1>   0.1500 
 39 H       -0.1330    -0.1350    -0.2180 H     1 <1>   0.0800 
 40 H       -0.9090    -1.0840     1.0120 H     1 <1>   0.0800 
 41 H        0.2940    -3.2950     1.7670 H     1 <1>   0.0800 
 42 H        1.8210    -3.6620     1.0230 H     1 <1>   0.0800 
 43 H       -0.4940    -1.8490    -1.8850 H     1 <1>   0.0800 
 44 H       -2.0110    -1.4840    -1.1140 H     1 <1>   0.0800 
 45 H       -0.0430    -5.0210     0.0830 H     1 <1>   0.0800 
 46 H        0.7450    -4.0490    -1.1220 H     1 <1>   0.0800 
 47 H       -3.5880    -3.2640    -1.6880 H     1 <1>   0.1500 
 48 H       -3.4260    -5.1810     2.6460 H     1 <1>   0.1500 
 49 H       -6.0200    -3.2920    -1.5510 H     1 <1>   0.0800 
 50 H       -6.7860    -3.6720    -0.0390 H     1 <1>   0.0800 
 51 H       -5.8090    -5.7190    -2.0580 H     1 <1>   0.0800 
 52 H       -7.4800    -5.2670    -1.8010 H     1 <1>   0.0800 
 53 H       -6.5930    -6.0930    -0.5410 H     1 <1>   0.0800 
@<TRIPOS>BOND
  1   1   2  2   
  2   2   3  am  
  3   2   4  1   
  4   3   5  1   
  5   3   6  1   
  6   4   7  ar  
  7   4   8  ar  
  8   5   9  1   
  9   5  28  1   
 10   5  29  1   
 11   6  10  1   
 12   6  30  1   
 13   6  31  1   
 14   7  11  ar  
 15   7  12  1   
 16   8  13  ar  
 17   8  32  1   
 18   9  10  1   
 19   9  33  1   
 20   9  34  1   
 21  10  35  1   
 22  10  36  1   
 23  11  14  ar  
 24  12  15  1   
 25  12  16  1   
 26  13  14  ar  
 27  13  37  1   
 28  14  38  1   
 29  15  17  1   
 30  15  39  1   
 31  15  40  1   
 32  16  18  1   
 33  16  41  1   
 34  16  42  1   
 35  17  19  1   
 36  17  43  1   
 37  17  44  1   
 38  18  19  1   
 39  18  45  1   
 40  18  46  1   
 41  19  20  1   
 42  20  21  ar  
 43  20  22  ar  
 44  21  23  ar  
 45  22  24  ar  
 46  22  47  1   
 47  23  25  ar  
 48  23  48  1   
 49  24  25  ar  
 50  24  26  1   
 51  26  27  1   
 52  26  49  1   
 53  26  50  1   
 54  27  51  1   
 55  27  52  1   
 56  27  53  1   
@<TRIPOS>SUBSTRUCTURE
  1 ****  15 GROUP 4 **** **** 0

# MOE 2024.06 (io_trps.svl 2023.06)
