@<TRIPOS>MOLECULE
NONAME
61 63 1 0 0 
SMALL
USER_CHARGES


@<TRIPOS>ATOM
  1 O       -1.8670    -0.8120     0.6020 O.2   1 <1>  -0.5700 
  2 C       -2.0740     0.0410    -0.2270 C.2   1 <1>   0.5690 
  3 N       -2.7820    -0.2140    -1.3600 N.am  1 <1>  -0.7300 
  4 C       -1.5300     1.4480     0.0100 C.3   1 <1>  -0.0190 
  5 C       -3.2780    -1.5500    -1.7830 C.3   1 <1>   0.1400 
  6 C       -2.6440     2.5160     0.0050 C.3   1 <1>  -0.1600 
  7 C       -0.4040     1.8030    -0.9910 C.3   1 <1>  -0.1600 
  8 C       -4.5450    -1.9450    -1.0020 C.3   1 <1>   0.1100 
  9 C       -2.1120     3.9100     0.4010 C.3   1 <1>   0.2000 
 10 C       -0.1830     3.3190    -1.1640 C.3   1 <1>  -0.1600 
 11 N       -4.4650    -3.3120    -0.4370 N.3   1 <1>  -0.8100 
 12 O       -2.8550     4.8720    -0.3070 O.3   1 <1>  -0.5600 
 13 C       -0.6040     4.0950     0.0850 C.3   1 <1>   0.2000 
 14 C       -3.4810    -3.3720     0.6810 C.3   1 <1>   0.1100 
 15 C       -5.7970    -3.7560     0.0400 C.3   1 <1>   0.1100 
 16 C       -4.0800     5.2110     0.2650 C.3   1 <1>   0.0400 
 17 O       -0.3480     5.4320    -0.1360 O.3   1 <1>  -0.6800 
 18 C       -3.4750    -4.7280     1.4230 C.3   1 <1>   0.3430 
 19 C       -5.7690    -5.1860     0.6340 C.3   1 <1>   0.3430 
 20 N       -4.3660    -5.7120     0.7340 N.4   1 <1>  -0.9590 
 21 C       -4.2710    -7.0950     1.2650 C.3   1 <1>   0.4860 
 22 C       -5.1330    -8.0090     0.4160 C.ar  1 <1>  -0.1440 
 23 C       -4.7360    -8.3550    -0.8690 C.ar  1 <1>  -0.1500 
 24 C       -6.3310    -8.5000     0.9150 C.ar  1 <1>  -0.1500 
 25 C       -5.5340    -9.1740    -1.6480 C.ar  1 <1>  -0.1500 
 26 C       -7.1280    -9.3190     0.1350 C.ar  1 <1>  -0.1500 
 27 C       -6.7310    -9.6540    -1.1470 C.ar  1 <1>  -0.1500 
 28 H       -2.9250     0.5460    -2.0290 H     1 <1>   0.3700 
 29 H       -1.0990     1.4470     0.9970 H     1 <1>   0.0800 
 30 H       -3.5010    -1.5240    -2.8350 H     1 <1>   0.0800 
 31 H       -2.4970    -2.2740    -1.6320 H     1 <1>   0.0800 
 32 H       -3.4190     2.2260     0.6920 H     1 <1>   0.0800 
 33 H       -3.0680     2.5670    -0.9820 H     1 <1>   0.0800 
 34 H        0.5090     1.3480    -0.6430 H     1 <1>   0.0800 
 35 H       -0.6150     1.3830    -1.9590 H     1 <1>   0.0800 
 36 H       -5.3780    -1.8930    -1.6820 H     1 <1>   0.0800 
 37 H       -4.7210    -1.2380    -0.2080 H     1 <1>   0.0800 
 38 H       -2.2460     4.0730     1.4570 H     1 <1>   0.0800 
 39 H       -0.7730     3.6670    -1.9950 H     1 <1>   0.0800 
 40 H        0.8540     3.5100    -1.3820 H     1 <1>   0.0800 
 41 H       -0.0050     3.7780     0.9210 H     1 <1>   0.0800 
 42 H       -2.4900    -3.2060     0.2960 H     1 <1>   0.0800 
 43 H       -3.6780    -2.5860     1.3910 H     1 <1>   0.0800 
 44 H       -6.1600    -3.0720     0.7900 H     1 <1>   0.0800 
 45 H       -6.4970    -3.7380    -0.7780 H     1 <1>   0.0800 
 46 H       -4.5500     5.9480    -0.3630 H     1 <1>   0.0800 
 47 H       -3.9120     5.6270     1.2440 H     1 <1>   0.0800 
 48 H       -4.7050     4.3380     0.3270 H     1 <1>   0.0800 
 49 H       -1.1750     5.8050    -0.5160 H     1 <1>   0.4000 
 50 H       -3.8080    -4.5750     2.4360 H     1 <1>   0.0800 
 51 H       -2.4640    -5.0980     1.4590 H     1 <1>   0.0800 
 52 H       -6.3540    -5.8330    -0.0010 H     1 <1>   0.0800 
 53 H       -6.2340    -5.1760     1.6050 H     1 <1>   0.0800 
 54 H       -4.0480    -5.7080    -0.2460 H     1 <1>   0.4500 
 55 H       -3.2490    -7.4350     1.2320 H     1 <1>   0.0800 
 56 H       -4.6090    -7.1230     2.2880 H     1 <1>   0.0800 
 57 H       -3.8060    -7.9980    -1.2790 H     1 <1>   0.1500 
 58 H       -6.6580    -8.2580     1.9120 H     1 <1>   0.1500 
 59 H       -5.2270    -9.4430    -2.6450 H     1 <1>   0.1500 
 60 H       -8.0580    -9.7010     0.5220 H     1 <1>   0.1500 
 61 H       -7.3510   -10.2920    -1.7540 H     1 <1>   0.1500 
@<TRIPOS>BOND
  1   1   2  2   
  2   2   3  am  
  3   2   4  1   
  4   3   5  1   
  5   3  28  1   
  6   4   6  1   
  7   4   7  1   
  8   4  29  1   
  9   5   8  1   
 10   5  30  1   
 11   5  31  1   
 12   6   9  1   
 13   6  32  1   
 14   6  33  1   
 15   7  10  1   
 16   7  34  1   
 17   7  35  1   
 18   8  11  1   
 19   8  36  1   
 20   8  37  1   
 21   9  12  1   
 22   9  13  1   
 23   9  38  1   
 24  10  13  1   
 25  10  39  1   
 26  10  40  1   
 27  11  14  1   
 28  11  15  1   
 29  12  16  1   
 30  13  17  1   
 31  13  41  1   
 32  14  18  1   
 33  14  42  1   
 34  14  43  1   
 35  15  19  1   
 36  15  44  1   
 37  15  45  1   
 38  16  46  1   
 39  16  47  1   
 40  16  48  1   
 41  17  49  1   
 42  18  20  1   
 43  18  50  1   
 44  18  51  1   
 45  19  20  1   
 46  19  52  1   
 47  19  53  1   
 48  20  21  1   
 49  20  54  1   
 50  21  22  1   
 51  21  55  1   
 52  21  56  1   
 53  22  23  ar  
 54  22  24  ar  
 55  23  25  ar  
 56  23  57  1   
 57  24  26  ar  
 58  24  58  1   
 59  25  27  ar  
 60  25  59  1   
 61  26  27  ar  
 62  26  60  1   
 63  27  61  1   
@<TRIPOS>SUBSTRUCTURE
  1 ****   8 GROUP 4 **** **** 0

# MOE 2024.06 (io_trps.svl 2023.06)
