@<TRIPOS>MOLECULE
NONAME
60 63 1 0 0 
SMALL
USER_CHARGES


@<TRIPOS>ATOM
  1 O       -0.2800    -0.0930     1.2140 O.2   1 <1>  -0.5700 
  2 C       -1.2470     0.5840     0.9180 C.2   1 <1>   0.7150 
  3 N       -2.3550    -0.0470     0.4040 N.am  1 <1>  -0.6600 
  4 C       -1.2150     2.0100     1.0850 C.2   1 <1>  -0.2370 
  5 C       -3.3850     0.6200    -0.4310 C.3   1 <1>   0.1400 
  6 C       -2.4160    -1.5180     0.2360 C.3   1 <1>   0.1400 
  7 N       -0.1140     2.7860     0.8960 N.pl3 1 <1>   0.3140 
  8 C       -2.2030     2.8720     1.4560 C.2   1 <1>  -0.1500 
  9 C       -3.9430    -0.4880    -1.3230 C.3   1 <1>   0.2000 
 10 C       -3.6930    -1.7880    -0.5630 C.3   1 <1>  -0.0800 
 11 N       -0.3770     4.0880     1.1210 N.2   1 <1>  -0.7070 
 12 C        1.2450     2.3120     0.5050 C.3   1 <1>   0.0960 
 13 C       -1.6300     4.1280     1.4520 C.2   1 <1>   0.1080 
 14 O       -5.3000    -0.3250    -1.5510 O.3   1 <1>  -0.6800 
 15 C       -3.5880    -3.0120    -1.4890 C.3   1 <1>  -0.0170 
 16 C        2.1110     3.4000    -0.1500 C.3   1 <1>  -0.2400 
 17 C       -2.3480     5.4210     1.7960 C.3   1 <1>   0.0210 
 18 C       -3.3690    -4.2900    -0.6860 C.ar  1 <1>  -0.1430 
 19 C       -3.4660     5.7660     0.7920 C.3   1 <1>  -0.0800 
 20 C       -4.4230    -4.9490    -0.0090 C.ar  1 <1>   0.0000 
 21 C       -2.1220    -4.8340    -0.5930 C.ar  1 <1>  -0.1500 
 22 C       -2.9110     5.9760    -0.6240 C.3   1 <1>  -0.2400 
 23 C       -4.2200     7.0240     1.2420 C.3   1 <1>  -0.2400 
 24 C       -4.1020    -6.1140     0.7300 C.ar  1 <1>   0.3100 
 25 C       -5.7730    -4.5250    -0.0240 C.ar  1 <1>  -0.1500 
 26 C       -1.9140    -5.9970     0.1590 C.ar  1 <1>   0.1600 
 27 N       -2.8470    -6.6240     0.8030 N.ar  1 <1>  -0.6200 
 28 C       -5.1240    -6.7810     1.4230 C.ar  1 <1>  -0.1500 
 29 C       -6.7460    -5.2010     0.6610 C.ar  1 <1>  -0.1500 
 30 C       -6.4200    -6.3420     1.3970 C.ar  1 <1>  -0.1500 
 31 H       -4.1530     1.0170     0.2080 H     1 <1>   0.0800 
 32 H       -2.9490     1.4060    -1.0230 H     1 <1>   0.0800 
 33 H       -1.5450    -1.8440    -0.3070 H     1 <1>   0.0800 
 34 H       -2.4390    -2.0110     1.1940 H     1 <1>   0.0800 
 35 H       -3.2220     2.6470     1.7110 H     1 <1>   0.1500 
 36 H       -3.4340    -0.4820    -2.2730 H     1 <1>   0.0800 
 37 H       -4.4820    -1.9390     0.1520 H     1 <1>   0.0800 
 38 H        1.7310     1.9420     1.3890 H     1 <1>   0.0800 
 39 H        1.1340     1.4970    -0.1850 H     1 <1>   0.0800 
 40 H       -5.7930    -0.3410    -0.7090 H     1 <1>   0.4000 
 41 H       -2.7700    -2.8710    -2.1740 H     1 <1>   0.0800 
 42 H       -4.4790    -3.1020    -2.0860 H     1 <1>   0.0800 
 43 H        2.2890     4.2020     0.5460 H     1 <1>   0.0800 
 44 H        1.6180     3.7930    -1.0220 H     1 <1>   0.0800 
 45 H        3.0580     2.9870    -0.4440 H     1 <1>   0.0800 
 46 H       -2.7630     5.3210     2.7820 H     1 <1>   0.0800 
 47 H       -1.6270     6.2190     1.8240 H     1 <1>   0.0800 
 48 H       -4.1650     4.9470     0.7650 H     1 <1>   0.0800 
 49 H       -1.2730    -4.3930    -1.0820 H     1 <1>   0.1500 
 50 H       -2.1920     6.7760    -0.6320 H     1 <1>   0.0800 
 51 H       -3.7040     6.2180    -1.3080 H     1 <1>   0.0800 
 52 H       -2.4240     5.0830    -0.9750 H     1 <1>   0.0800 
 53 H       -3.5560     7.8700     1.2790 H     1 <1>   0.0800 
 54 H       -4.6450     6.8780     2.2200 H     1 <1>   0.0800 
 55 H       -5.0190     7.2450     0.5570 H     1 <1>   0.0800 
 56 H       -6.0480    -3.6530    -0.5870 H     1 <1>   0.1500 
 57 H       -0.9140    -6.3930     0.2070 H     1 <1>   0.1500 
 58 H       -4.8510    -7.6580     1.9800 H     1 <1>   0.1500 
 59 H       -7.7700    -4.8670     0.6420 H     1 <1>   0.1500 
 60 H       -7.1930    -6.8650     1.9330 H     1 <1>   0.1500 
@<TRIPOS>BOND
  1   1   2  2   
  2   2   3  am  
  3   2   4  1   
  4   3   5  1   
  5   3   6  1   
  6   4   7  1   
  7   4   8  2   
  8   5   9  1   
  9   5  31  1   
 10   5  32  1   
 11   6  10  1   
 12   6  33  1   
 13   6  34  1   
 14   7  11  1   
 15   7  12  1   
 16   8  13  1   
 17   8  35  1   
 18   9  10  1   
 19   9  14  1   
 20   9  36  1   
 21  10  15  1   
 22  10  37  1   
 23  11  13  2   
 24  12  16  1   
 25  12  38  1   
 26  12  39  1   
 27  13  17  1   
 28  14  40  1   
 29  15  18  1   
 30  15  41  1   
 31  15  42  1   
 32  16  43  1   
 33  16  44  1   
 34  16  45  1   
 35  17  19  1   
 36  17  46  1   
 37  17  47  1   
 38  18  20  ar  
 39  18  21  ar  
 40  19  22  1   
 41  19  23  1   
 42  19  48  1   
 43  20  24  ar  
 44  20  25  ar  
 45  21  26  ar  
 46  21  49  1   
 47  22  50  1   
 48  22  51  1   
 49  22  52  1   
 50  23  53  1   
 51  23  54  1   
 52  23  55  1   
 53  24  27  ar  
 54  24  28  ar  
 55  25  29  ar  
 56  25  56  1   
 57  26  27  ar  
 58  26  57  1   
 59  28  30  ar  
 60  28  58  1   
 61  29  30  ar  
 62  29  59  1   
 63  30  60  1   
@<TRIPOS>SUBSTRUCTURE
  1 ****   3 GROUP 4 **** **** 0

# MOE 2024.06 (io_trps.svl 2023.06)
