@<TRIPOS>MOLECULE
NONAME
41 42 1 0 0 
SMALL
USER_CHARGES


@<TRIPOS>ATOM
  1 O        0.0510    -0.5240    -1.0090 O.3   1 <1>  -0.5600 
  2 C       -0.3070    -1.7280    -0.3870 C.3   1 <1>   0.2000 
  3 C        0.1780     0.5630    -0.1430 C.3   1 <1>   0.1200 
  4 C        0.8210    -2.1380     0.5780 C.3   1 <1>  -0.1600 
  5 C       -0.5690    -2.7680    -1.4900 C.3   1 <1>   0.2090 
  6 C        1.3290     0.3030     0.8360 C.3   1 <1>  -0.1600 
  7 C        1.1210    -1.0190     1.5830 C.3   1 <1>  -0.1600 
  8 N       -0.8830    -4.1260    -0.9340 N.pl3 1 <1>  -0.8210 
  9 C       -2.1500    -4.3280    -0.3810 C.2   1 <1>   0.5990 
 10 C       -0.2490    -5.2560    -1.6600 C.3   1 <1>   0.2090 
 11 N       -3.0730    -3.4480    -0.2890 N.2   1 <1>  -0.4100 
 12 N       -2.4950    -5.5020     0.1330 N.2   1 <1>  -0.5650 
 13 C        1.0980    -5.5540    -1.0130 C.3   1 <1>  -0.2400 
 14 O       -4.0880    -4.0190     0.3020 O.3   1 <1>  -0.0190 
 15 C       -3.6720    -5.2420     0.5270 C.2   1 <1>   0.2980 
 16 C       -4.6080    -6.2260     1.2240 C.3   1 <1>   0.1000 
 17 C       -5.8790    -6.4650     0.3970 C.3   1 <1>  -0.2400 
 18 C       -4.9700    -5.7420     2.6350 C.3   1 <1>  -0.2400 
 19 H       -1.2190    -1.5590     0.1580 H     1 <1>   0.0800 
 20 H       -0.7550     0.7000     0.3770 H     1 <1>   0.0800 
 21 H        0.3790     1.4360    -0.7400 H     1 <1>   0.0800 
 22 H        1.7040    -2.3640     0.0080 H     1 <1>   0.0800 
 23 H        0.5340    -3.0290     1.1080 H     1 <1>   0.0800 
 24 H        0.3090    -2.8270    -2.1080 H     1 <1>   0.0800 
 25 H       -1.3900    -2.4330    -2.0990 H     1 <1>   0.0800 
 26 H        1.3960     1.1140     1.5380 H     1 <1>   0.0800 
 27 H        2.2510     0.2680     0.2820 H     1 <1>   0.0800 
 28 H        1.9950    -1.2630     2.1610 H     1 <1>   0.0800 
 29 H        0.2880    -0.9190     2.2580 H     1 <1>   0.0800 
 30 H       -0.1140    -4.9980    -2.6970 H     1 <1>   0.0800 
 31 H       -0.8680    -6.1360    -1.6210 H     1 <1>   0.0800 
 32 H        1.7480    -4.7010    -1.0890 H     1 <1>   0.0800 
 33 H        1.5620    -6.3870    -1.5070 H     1 <1>   0.0800 
 34 H        0.9540    -5.8030     0.0230 H     1 <1>   0.0800 
 35 H       -4.0840    -7.1620     1.3140 H     1 <1>   0.0800 
 36 H       -6.4400    -5.5530     0.2940 H     1 <1>   0.0800 
 37 H       -6.5000    -7.2040     0.8700 H     1 <1>   0.0800 
 38 H       -5.6150    -6.8170    -0.5850 H     1 <1>   0.0800 
 39 H       -5.5080    -4.8110     2.5900 H     1 <1>   0.0800 
 40 H       -4.0740    -5.5910     3.2110 H     1 <1>   0.0800 
 41 H       -5.5800    -6.4720     3.1360 H     1 <1>   0.0800 
@<TRIPOS>BOND
  1   1   2  1   
  2   1   3  1   
  3   2   4  1   
  4   2   5  1   
  5   2  19  1   
  6   3   6  1   
  7   3  20  1   
  8   3  21  1   
  9   4   7  1   
 10   4  22  1   
 11   4  23  1   
 12   5   8  1   
 13   5  24  1   
 14   5  25  1   
 15   6   7  1   
 16   6  26  1   
 17   6  27  1   
 18   7  28  1   
 19   7  29  1   
 20   8   9  1   
 21   8  10  1   
 22   9  11  2   
 23   9  12  1   
 24  10  13  1   
 25  10  30  1   
 26  10  31  1   
 27  11  14  1   
 28  12  15  2   
 29  13  32  1   
 30  13  33  1   
 31  13  34  1   
 32  14  15  1   
 33  15  16  1   
 34  16  17  1   
 35  16  18  1   
 36  16  35  1   
 37  17  36  1   
 38  17  37  1   
 39  17  38  1   
 40  18  39  1   
 41  18  40  1   
 42  18  41  1   
@<TRIPOS>SUBSTRUCTURE
  1 ****   9 GROUP 4 **** **** 0

# MOE 2024.06 (io_trps.svl 2023.06)
