@<TRIPOS>MOLECULE
NONAME
50 52 1 0 0 
SMALL
USER_CHARGES


@<TRIPOS>ATOM
  1 O       -0.6490     0.9570     0.1070 O.2   1 <1>  -0.5700 
  2 C       -1.8060     1.2090     0.3890 C.2   1 <1>   0.7150 
  3 N       -2.7190     0.1720     0.3930 N.am  1 <1>  -0.6600 
  4 C       -2.1740     2.5640     0.7260 C.2   1 <1>  -0.2370 
  5 C       -4.0810     0.1600    -0.2290 C.3   1 <1>   0.2200 
  6 C       -2.2320    -1.1950     0.7380 C.3   1 <1>   0.0600 
  7 N       -1.6200     3.6830     0.1530 N.pl3 1 <1>   0.0480 
  8 C       -3.1190     2.9940     1.6180 C.2   1 <1>  -0.1500 
  9 C       -4.4050     1.2680    -1.2350 C.3   1 <1>  -0.1600 
 10 C       -5.1850     0.2010     0.8270 C.3   1 <1>  -0.1600 
 11 C       -2.2670     4.7680     0.6400 C.2   1 <1>  -0.3020 
 12 C       -0.5180     3.7250    -0.8320 C.3   1 <1>   0.0160 
 13 C       -3.2170     4.3830     1.5410 C.2   1 <1>   0.0190 
 14 C       -5.9320     1.4260    -1.1830 C.3   1 <1>  -0.0800 
 15 C       -6.3440     1.0250     0.2390 C.3   1 <1>  -0.0800 
 16 C       -4.2040     5.1680     2.2200 C.1   1 <1>   0.5380 
 17 C       -6.3970     2.8740    -1.3560 C.3   1 <1>  -0.1600 
 18 C       -6.6510     2.3380     0.9880 C.3   1 <1>  -0.1600 
 19 N       -5.1410     5.7060     2.5900 N.1   1 <1>  -0.5570 
 20 C       -6.2320     3.4620     0.0410 C.3   1 <1>   0.4230 
 21 N       -6.9500     4.7530     0.2770 N.4   1 <1>  -0.9590 
 22 C       -8.4400     4.6970     0.1410 C.3   1 <1>   0.2630 
 23 C       -6.3960     5.8390    -0.5850 C.3   1 <1>   0.2630 
 24 H       -4.1920    -0.7680    -0.7670 H     1 <1>   0.0800 
 25 H       -2.9700    -1.7170     1.3210 H     1 <1>   0.0800 
 26 H       -1.3230    -1.1350     1.3140 H     1 <1>   0.0800 
 27 H       -2.0300    -1.7480    -0.1630 H     1 <1>   0.0800 
 28 H       -3.7040     2.3760     2.2740 H     1 <1>   0.1500 
 29 H       -3.9400     2.1940    -0.9750 H     1 <1>   0.0800 
 30 H       -4.0800     0.9890    -2.2230 H     1 <1>   0.0800 
 31 H       -5.5190    -0.8040     1.0210 H     1 <1>   0.0800 
 32 H       -4.8270     0.6080     1.7510 H     1 <1>   0.0800 
 33 H       -2.0270     5.7680     0.3230 H     1 <1>   0.1500 
 34 H       -0.3700     4.7310    -1.1760 H     1 <1>   0.0800 
 35 H       -0.7570     3.0900    -1.6660 H     1 <1>   0.0800 
 36 H        0.3840     3.3700    -0.3660 H     1 <1>   0.0800 
 37 H       -6.3890     0.7710    -1.9080 H     1 <1>   0.0800 
 38 H       -7.2350     0.4190     0.2030 H     1 <1>   0.0800 
 39 H       -7.4300     2.8690    -1.6530 H     1 <1>   0.0800 
 40 H       -5.8070     3.3910    -2.0920 H     1 <1>   0.0800 
 41 H       -6.1270     2.4130     1.9230 H     1 <1>   0.0800 
 42 H       -7.7050     2.3610     1.1860 H     1 <1>   0.0800 
 43 H       -5.1770     3.6230     0.1840 H     1 <1>   0.0800 
 44 H       -6.7330     5.0260     1.2570 H     1 <1>   0.4500 
 45 H       -8.7160     4.4040    -0.8580 H     1 <1>   0.0800 
 46 H       -8.8670     5.6650     0.3450 H     1 <1>   0.0800 
 47 H       -8.8590     3.9910     0.8380 H     1 <1>   0.0800 
 48 H       -6.5980     5.6340    -1.6240 H     1 <1>   0.0800 
 49 H       -5.3300     5.9180    -0.4480 H     1 <1>   0.0800 
 50 H       -6.8430     6.7850    -0.3260 H     1 <1>   0.0800 
@<TRIPOS>BOND
  1   1   2  2   
  2   2   3  am  
  3   2   4  1   
  4   3   5  1   
  5   3   6  1   
  6   4   7  1   
  7   4   8  2   
  8   5   9  1   
  9   5  10  1   
 10   5  24  1   
 11   6  25  1   
 12   6  26  1   
 13   6  27  1   
 14   7  11  1   
 15   7  12  1   
 16   8  13  1   
 17   8  28  1   
 18   9  14  1   
 19   9  29  1   
 20   9  30  1   
 21  10  15  1   
 22  10  31  1   
 23  10  32  1   
 24  11  13  2   
 25  11  33  1   
 26  12  34  1   
 27  12  35  1   
 28  12  36  1   
 29  13  16  1   
 30  14  15  1   
 31  14  17  1   
 32  14  37  1   
 33  15  18  1   
 34  15  38  1   
 35  16  19  3   
 36  17  20  1   
 37  17  39  1   
 38  17  40  1   
 39  18  20  1   
 40  18  41  1   
 41  18  42  1   
 42  20  21  1   
 43  20  43  1   
 44  21  22  1   
 45  21  23  1   
 46  21  44  1   
 47  22  45  1   
 48  22  46  1   
 49  22  47  1   
 50  23  48  1   
 51  23  49  1   
 52  23  50  1   
@<TRIPOS>SUBSTRUCTURE
  1 ****   8 GROUP 4 **** **** 0

# MOE 2024.06 (io_trps.svl 2023.06)
