@<TRIPOS>MOLECULE
NONAME
44 46 1 0 0 
SMALL
USER_CHARGES


@<TRIPOS>ATOM
  1 CL      -2.8780    -0.9760    -2.1440 Cl    1 <1>  -0.1770 
  2 C       -2.7990     0.3780    -1.0420 C.ar  1 <1>   0.1770 
  3 C       -3.0870     0.1950     0.3080 C.ar  1 <1>   0.0860 
  4 C       -2.4600     1.6160    -1.5570 C.ar  1 <1>  -0.1500 
  5 C       -3.4380    -1.1040     0.8290 C.2   1 <1>   0.5440 
  6 C       -3.0270     1.3160     1.1350 C.ar  1 <1>  -0.1500 
  7 C       -2.4050     2.7140    -0.7160 C.ar  1 <1>  -0.1500 
  8 O       -2.5600    -1.9090     1.0750 O.2   1 <1>  -0.5700 
  9 N       -4.7490    -1.4680     1.0430 N.am  1 <1>  -0.6600 
 10 C       -2.6900     2.5610     0.6310 C.ar  1 <1>  -0.1500 
 11 C       -5.0950    -2.8340     1.5340 C.3   1 <1>   0.1400 
 12 C       -5.9110    -0.7670     0.4270 C.3   1 <1>   0.1400 
 13 C       -5.5090    -3.6890     0.3150 C.3   1 <1>   0.4230 
 14 C       -6.4090    -1.6010    -0.7640 C.3   1 <1>  -0.1600 
 15 N       -5.7500    -5.1400     0.6220 N.4   1 <1>  -0.9590 
 16 C       -6.7520    -3.0660    -0.3610 C.3   1 <1>  -0.1060 
 17 C       -6.0160    -5.9270    -0.6080 C.3   1 <1>   0.3430 
 18 C       -4.7270    -5.7760     1.4950 C.3   1 <1>   0.2630 
 19 C       -7.9220    -3.0980     0.6410 C.2   1 <1>   0.9060 
 20 C       -7.0990    -3.8650    -1.6410 C.3   1 <1>  -0.1600 
 21 C       -7.2320    -5.3670    -1.3500 C.3   1 <1>  -0.1600 
 22 O       -8.0000    -4.0440     1.4430 O.co2 1 <1>  -0.9000 
 23 O       -8.7460    -2.1850     0.6430 O.co2 1 <1>  -0.9000 
 24 H       -2.2430     1.7170    -2.6050 H     1 <1>   0.1500 
 25 H       -3.2450     1.2020     2.1830 H     1 <1>   0.1500 
 26 H       -2.1410     3.6830    -1.1060 H     1 <1>   0.1500 
 27 H       -2.6480     3.4140     1.2870 H     1 <1>   0.1500 
 28 H       -4.2440    -3.2630     2.0290 H     1 <1>   0.0800 
 29 H       -5.8970    -2.7620     2.2490 H     1 <1>   0.0800 
 30 H       -6.6960    -0.6620     1.1590 H     1 <1>   0.0800 
 31 H       -5.6410     0.2200     0.0950 H     1 <1>   0.0800 
 32 H       -4.6910    -3.6350    -0.3830 H     1 <1>   0.0800 
 33 H       -7.2860    -1.1260    -1.1720 H     1 <1>   0.0800 
 34 H       -5.6560    -1.5890    -1.5310 H     1 <1>   0.0800 
 35 H       -6.6690    -5.0800     1.1400 H     1 <1>   0.4500 
 36 H       -5.1530    -5.8910    -1.2520 H     1 <1>   0.0800 
 37 H       -6.2060    -6.9560    -0.3470 H     1 <1>   0.0800 
 38 H       -3.7570    -5.7280     1.0280 H     1 <1>   0.0800 
 39 H       -4.9830    -6.8080     1.6720 H     1 <1>   0.0800 
 40 H       -4.6830    -5.2700     2.4450 H     1 <1>   0.0800 
 41 H       -8.0250    -3.4950    -2.0500 H     1 <1>   0.0800 
 42 H       -6.3310    -3.7190    -2.3810 H     1 <1>   0.0800 
 43 H       -7.3580    -5.9000    -2.2750 H     1 <1>   0.0800 
 44 H       -8.1150    -5.5470    -0.7590 H     1 <1>   0.0800 
@<TRIPOS>BOND
  1   1   2  1   
  2   2   3  ar  
  3   2   4  ar  
  4   3   5  1   
  5   3   6  ar  
  6   4   7  ar  
  7   4  24  1   
  8   5   8  2   
  9   5   9  am  
 10   6  10  ar  
 11   6  25  1   
 12   7  10  ar  
 13   7  26  1   
 14   9  11  1   
 15   9  12  1   
 16  10  27  1   
 17  11  13  1   
 18  11  28  1   
 19  11  29  1   
 20  12  14  1   
 21  12  30  1   
 22  12  31  1   
 23  13  15  1   
 24  13  16  1   
 25  13  32  1   
 26  14  16  1   
 27  14  33  1   
 28  14  34  1   
 29  15  17  1   
 30  15  18  1   
 31  15  35  1   
 32  16  19  1   
 33  16  20  1   
 34  17  21  1   
 35  17  36  1   
 36  17  37  1   
 37  18  38  1   
 38  18  39  1   
 39  18  40  1   
 40  19  22  ar  
 41  19  23  ar  
 42  20  21  1   
 43  20  41  1   
 44  20  42  1   
 45  21  43  1   
 46  21  44  1   
@<TRIPOS>SUBSTRUCTURE
  1 ****   9 GROUP 4 **** **** 0

# MOE 2024.06 (io_trps.svl 2023.06)
