@<TRIPOS>MOLECULE
NONAME
46 49 1 0 0 
SMALL
USER_CHARGES


@<TRIPOS>ATOM
  1 CL      -0.0640    -0.2320     0.0060 Cl    1 <1>  -0.1770 
  2 C       -1.6350    -0.9860    -0.0110 C.ar  1 <1>   0.1770 
  3 C       -2.7640    -0.2100    -0.0850 C.ar  1 <1>  -0.1500 
  4 C       -1.7120    -2.3730     0.0510 C.ar  1 <1>  -0.1500 
  5 C       -4.0390    -0.8020    -0.1010 C.ar  1 <1>   0.0000 
  6 C       -2.9470    -2.9770     0.0380 C.ar  1 <1>  -0.1500 
  7 C       -4.1170    -2.2080    -0.0360 C.ar  1 <1>   0.3610 
  8 C       -5.2630    -0.0680    -0.1790 C.ar  1 <1>  -0.1440 
  9 N       -5.3630    -2.8090    -0.0490 N.ar  1 <1>  -0.1790 
 10 C       -6.4500    -0.7370    -0.1900 C.ar  1 <1>  -0.1500 
 11 C       -5.2390     1.4550    -0.2520 C.3   1 <1>  -0.0970 
 12 C       -6.5220    -2.1520    -0.1240 C.ar  1 <1>   0.4610 
 13 N       -7.6830    -2.8390    -0.1390 N.pl3 1 <1>  -0.8380 
 14 C       -9.0410    -2.2200    -0.3240 C.3   1 <1>   0.2090 
 15 C       -7.8470    -4.3260    -0.0990 C.3   1 <1>   0.2090 
 16 C      -10.0500    -3.3470    -0.0860 C.3   1 <1>   0.2000 
 17 C       -9.2910    -4.5980    -0.5250 C.3   1 <1>  -0.0800 
 18 O      -10.3220    -3.4160     1.2740 O.3   1 <1>  -0.6800 
 19 C       -9.8550    -5.9480    -0.0340 C.3   1 <1>   0.0200 
 20 C       -8.8600    -7.0720    -0.2650 C.2   1 <1>  -0.0400 
 21 O       -8.2280    -7.1690    -1.4050 O.3   1 <1>  -0.0190 
 22 C       -8.4320    -8.0650     0.5280 C.2   1 <1>  -0.1500 
 23 N       -7.3850    -8.1580    -1.4080 N.2   1 <1>  -0.4100 
 24 C       -7.4960    -8.7270    -0.2620 C.2   1 <1>   0.1080 
 25 C       -6.7130    -9.9500     0.1620 C.3   1 <1>  -0.0590 
 26 H       -2.6510     0.8590    -0.1320 H     1 <1>   0.1500 
 27 H       -0.7990    -2.9440     0.1070 H     1 <1>   0.1500 
 28 H       -3.0050    -4.0500     0.0850 H     1 <1>   0.1500 
 29 H       -5.4130    -3.8210    -0.0140 H     1 <1>   0.4570 
 30 H       -7.3730    -0.1900    -0.2510 H     1 <1>   0.1500 
 31 H       -6.2350     1.8580    -0.3060 H     1 <1>   0.0800 
 32 H       -4.7010     1.7790    -1.1250 H     1 <1>   0.0800 
 33 H       -4.7630     1.8630     0.6230 H     1 <1>   0.0800 
 34 H       -9.2120    -1.4010     0.3540 H     1 <1>   0.0800 
 35 H       -9.1320    -1.8700    -1.3390 H     1 <1>   0.0800 
 36 H       -7.1630    -4.8200    -0.7680 H     1 <1>   0.0800 
 37 H       -7.6910    -4.6790     0.9080 H     1 <1>   0.0800 
 38 H      -10.9780    -3.2020    -0.6120 H     1 <1>   0.0800 
 39 H       -9.2970    -4.6200    -1.6020 H     1 <1>   0.0800 
 40 H       -9.4950    -3.3300     1.7880 H     1 <1>   0.4000 
 41 H      -10.7660    -6.1670    -0.5630 H     1 <1>   0.0800 
 42 H      -10.0870    -5.9150     1.0160 H     1 <1>   0.0800 
 43 H       -8.7160    -8.3210     1.5330 H     1 <1>   0.1500 
 44 H       -6.1540    -9.7400     1.0550 H     1 <1>   0.0800 
 45 H       -6.0310   -10.2390    -0.6170 H     1 <1>   0.0800 
 46 H       -7.3870   -10.7660     0.3500 H     1 <1>   0.0800 
@<TRIPOS>BOND
  1   1   2  1   
  2   2   3  ar  
  3   2   4  ar  
  4   3   5  ar  
  5   3  26  1   
  6   4   6  ar  
  7   4  27  1   
  8   5   7  ar  
  9   5   8  ar  
 10   6   7  ar  
 11   6  28  1   
 12   7   9  ar  
 13   8  10  ar  
 14   8  11  1   
 15   9  12  ar  
 16   9  29  1   
 17  10  12  ar  
 18  10  30  1   
 19  11  31  1   
 20  11  32  1   
 21  11  33  1   
 22  12  13  1   
 23  13  14  1   
 24  13  15  1   
 25  14  16  1   
 26  14  34  1   
 27  14  35  1   
 28  15  17  1   
 29  15  36  1   
 30  15  37  1   
 31  16  17  1   
 32  16  18  1   
 33  16  38  1   
 34  17  19  1   
 35  17  39  1   
 36  18  40  1   
 37  19  20  1   
 38  19  41  1   
 39  19  42  1   
 40  20  21  1   
 41  20  22  2   
 42  21  23  1   
 43  22  24  1   
 44  22  43  1   
 45  23  24  2   
 46  24  25  1   
 47  25  44  1   
 48  25  45  1   
 49  25  46  1   
@<TRIPOS>SUBSTRUCTURE
  1 ****   9 GROUP 4 **** **** 0

# MOE 2024.06 (io_trps.svl 2023.06)
