@<TRIPOS>MOLECULE
NONAME
50 52 1 0 0 
SMALL
USER_CHARGES


@<TRIPOS>ATOM
  1 F       -3.4150     0.8710    -2.0810 F     1 <1>  -0.1900 
  2 C       -2.9180     1.1590    -0.9080 C.ar  1 <1>   0.1900 
  3 C       -2.7080     0.1290     0.0020 C.ar  1 <1>  -0.1440 
  4 C       -2.6400     2.4810    -0.6250 C.ar  1 <1>  -0.1500 
  5 C       -2.1740     0.4470     1.2480 C.ar  1 <1>  -0.1500 
  6 C       -3.0320    -1.3040    -0.3930 C.3   1 <1>   0.4870 
  7 C       -2.1270     2.7570     0.6260 C.ar  1 <1>   0.1900 
  8 C       -1.8870     1.7680     1.5650 C.ar  1 <1>  -0.1500 
  9 N       -4.3790    -1.7610     0.0950 N.4   1 <1>  -0.9590 
 10 F       -1.8590     3.9950     0.9360 F     1 <1>  -0.1900 
 11 C       -5.4950    -0.9450    -0.4790 C.3   1 <1>   0.4230 
 12 C       -4.4000    -1.9340     1.5840 C.3   1 <1>   0.2630 
 13 C       -5.9940     0.2420     0.3570 C.3   1 <1>  -0.1600 
 14 C       -6.7510    -1.7910    -0.6650 C.3   1 <1>  -0.1600 
 15 C       -7.3870     0.5400    -0.2180 C.3   1 <1>  -0.0800 
 16 C       -7.8770    -0.7630    -0.8540 C.3   1 <1>  -0.0800 
 17 C       -8.4610     0.9420     0.8070 C.3   1 <1>  -0.1600 
 18 C       -9.2090    -1.0920    -0.1610 C.3   1 <1>  -0.1600 
 19 C       -9.7510     0.2500     0.3500 C.3   1 <1>   0.4230 
 20 N      -10.4130     1.0220    -0.7520 N.4   1 <1>  -0.9590 
 21 C      -10.8600     2.3850    -0.3100 C.3   1 <1>   0.2630 
 22 C      -11.6030     0.3100    -1.3240 C.3   1 <1>   0.2630 
 23 H       -2.8100     3.2640    -1.3410 H     1 <1>   0.1500 
 24 H       -1.9680    -0.3160     1.9790 H     1 <1>   0.1500 
 25 H       -2.2670    -1.9530     0.0010 H     1 <1>   0.0800 
 26 H       -2.9960    -1.3820    -1.4680 H     1 <1>   0.0800 
 27 H       -1.4750     2.0350     2.5230 H     1 <1>   0.1500 
 28 H       -4.5010    -2.6990    -0.3090 H     1 <1>   0.4500 
 29 H       -5.2080    -0.5760    -1.4520 H     1 <1>   0.0800 
 30 H       -4.2460    -0.9860     2.0730 H     1 <1>   0.0800 
 31 H       -3.6220    -2.6120     1.8950 H     1 <1>   0.0800 
 32 H       -5.3490    -2.3340     1.9010 H     1 <1>   0.0800 
 33 H       -6.0880    -0.0220     1.3930 H     1 <1>   0.0800 
 34 H       -5.3580     1.1030     0.2680 H     1 <1>   0.0800 
 35 H       -6.6710    -2.4360    -1.5230 H     1 <1>   0.0800 
 36 H       -6.9290    -2.3830     0.2160 H     1 <1>   0.0800 
 37 H       -7.3080     1.2940    -0.9860 H     1 <1>   0.0800 
 38 H       -8.0430    -0.5960    -1.9070 H     1 <1>   0.0800 
 39 H       -8.5370     2.0070     0.9210 H     1 <1>   0.0800 
 40 H       -8.2120     0.5370     1.7730 H     1 <1>   0.0800 
 41 H       -9.0250    -1.7070     0.7030 H     1 <1>   0.0800 
 42 H       -9.8800    -1.6360    -0.7990 H     1 <1>   0.0800 
 43 H      -10.4370     0.1100     1.1720 H     1 <1>   0.0800 
 44 H       -9.7160     1.1380    -1.5000 H     1 <1>   0.4500 
 45 H      -11.5340     2.3060     0.5270 H     1 <1>   0.0800 
 46 H      -11.3700     2.8880    -1.1150 H     1 <1>   0.0800 
 47 H      -10.0170     2.9900    -0.0200 H     1 <1>   0.0800 
 48 H      -12.3230     0.0990    -0.5490 H     1 <1>   0.0800 
 49 H      -11.3110    -0.6180    -1.7860 H     1 <1>   0.0800 
 50 H      -12.0770     0.9210    -2.0760 H     1 <1>   0.0800 
@<TRIPOS>BOND
  1   1   2  1   
  2   2   3  ar  
  3   2   4  ar  
  4   3   5  ar  
  5   3   6  1   
  6   4   7  ar  
  7   4  23  1   
  8   5   8  ar  
  9   5  24  1   
 10   6   9  1   
 11   6  25  1   
 12   6  26  1   
 13   7   8  ar  
 14   7  10  1   
 15   8  27  1   
 16   9  11  1   
 17   9  12  1   
 18   9  28  1   
 19  11  13  1   
 20  11  14  1   
 21  11  29  1   
 22  12  30  1   
 23  12  31  1   
 24  12  32  1   
 25  13  15  1   
 26  13  33  1   
 27  13  34  1   
 28  14  16  1   
 29  14  35  1   
 30  14  36  1   
 31  15  16  1   
 32  15  17  1   
 33  15  37  1   
 34  16  18  1   
 35  16  38  1   
 36  17  19  1   
 37  17  39  1   
 38  17  40  1   
 39  18  19  1   
 40  18  41  1   
 41  18  42  1   
 42  19  20  1   
 43  19  43  1   
 44  20  21  1   
 45  20  22  1   
 46  20  44  1   
 47  21  45  1   
 48  21  46  1   
 49  21  47  1   
 50  22  48  1   
 51  22  49  1   
 52  22  50  1   
@<TRIPOS>SUBSTRUCTURE
  1 ****  13 GROUP 4 **** **** 0

# MOE 2024.06 (io_trps.svl 2023.06)
