@<TRIPOS>MOLECULE
Untitled Document
36 38 1 0 0 
SMALL
USER_CHARGES


@<TRIPOS>ATOM
  1 CL      -0.0850    -0.3450     0.8770 Cl    1 <1>  -0.1770 
  2 C        1.5300    -1.0040     0.9520 C.ar  1 <1>   0.1770 
  3 C        2.5590    -0.3560     0.2960 C.ar  1 <1>  -0.1500 
  4 C        1.7560    -2.1640     1.6680 C.ar  1 <1>  -0.1500 
  5 C        3.8470    -0.8720     0.3490 C.ar  1 <1>  -0.0090 
  6 C        3.0380    -2.6820     1.7220 C.ar  1 <1>  -0.1500 
  7 S        5.2520    -0.0700    -0.4370 S.o2  1 <1>   1.4970 
  8 C        4.0810    -2.0390     1.0600 C.ar  1 <1>   0.1000 
  9 O        5.6510     1.0480     0.3920 O.2   1 <1>  -0.6500 
 10 O        4.9080     0.1680    -1.8240 O.2   1 <1>  -0.6500 
 11 N        6.5150    -1.1680    -0.4170 N.2   1 <1>  -0.6380 
 12 N        5.3700    -2.5580     1.0910 N.pl3 1 <1>  -0.5500 
 13 C        6.4390    -2.1730     0.3390 C.2   1 <1>   0.5500 
 14 N        7.5130    -3.0080     0.4460 N.pl3 1 <1>  -0.7880 
 15 C        8.6800    -2.3920     1.1590 C.3   1 <1>   0.2090 
 16 C        7.8860    -3.6950    -0.8340 C.3   1 <1>   0.2090 
 17 C        9.8690    -3.3660     1.3010 C.3   1 <1>   0.3430 
 18 C        9.0860    -4.6520    -0.6640 C.3   1 <1>   0.3430 
 19 N       10.2700    -3.9800    -0.0170 N.4   1 <1>  -0.9590 
 20 C       11.4120    -4.9310     0.1500 C.3   1 <1>   0.2630 
 21 H        2.3560     0.5490    -0.2510 H     1 <1>   0.1500 
 22 H        0.9380    -2.6480     2.1720 H     1 <1>   0.1500 
 23 H        3.2230    -3.5850     2.2760 H     1 <1>   0.1500 
 24 H        5.5350    -3.4080     1.6290 H     1 <1>   0.4000 
 25 H        8.3660    -2.0760     2.1400 H     1 <1>   0.0800 
 26 H        9.0020    -1.5120     0.6270 H     1 <1>   0.0800 
 27 H        8.1250    -2.9570    -1.5820 H     1 <1>   0.0800 
 28 H        7.0380    -4.2540    -1.1930 H     1 <1>   0.0800 
 29 H        9.5880    -4.1440     1.9910 H     1 <1>   0.0800 
 30 H       10.7050    -2.8360     1.7270 H     1 <1>   0.0800 
 31 H        9.3660    -5.0350    -1.6320 H     1 <1>   0.0800 
 32 H        8.7690    -5.4860    -0.0600 H     1 <1>   0.0800 
 33 H       10.5660    -3.2110    -0.6380 H     1 <1>   0.4500 
 34 H       11.1310    -5.7470     0.7970 H     1 <1>   0.0800 
 35 H       12.2610    -4.4260     0.5830 H     1 <1>   0.0800 
 36 H       11.7070    -5.3350    -0.8050 H     1 <1>   0.0800 
@<TRIPOS>BOND
  1   1   2  1   
  2   2   3  ar  
  3   2   4  ar  
  4   3   5  ar  
  5   3  21  1   
  6   4   6  ar  
  7   4  22  1   
  8   5   7  1   
  9   5   8  ar  
 10   6   8  ar  
 11   6  23  1   
 12   7   9  2   
 13   7  10  2   
 14   7  11  1   
 15   8  12  1   
 16  11  13  2   
 17  12  13  1   
 18  12  24  1   
 19  13  14  1   
 20  14  15  1   
 21  14  16  1   
 22  15  17  1   
 23  15  25  1   
 24  15  26  1   
 25  16  18  1   
 26  16  27  1   
 27  16  28  1   
 28  17  19  1   
 29  17  29  1   
 30  17  30  1   
 31  18  19  1   
 32  18  31  1   
 33  18  32  1   
 34  19  20  1   
 35  19  33  1   
 36  20  34  1   
 37  20  35  1   
 38  20  36  1   
@<TRIPOS>SUBSTRUCTURE
  1 ****  13 GROUP 4 **** **** 0

# MOE 2024.06 (io_trps.svl 2023.06)
