@<TRIPOS>MOLECULE
NONAME
49 51 1 0 0 
SMALL
USER_CHARGES


@<TRIPOS>ATOM
  1 O        2.3040     0.2880     2.1430 O.co2 1 <1>  -0.9000 
  2 C        2.0690     1.0300     1.1820 C.2   1 <1>   0.9060 
  3 O        1.8940     2.2360     1.3160 O.co2 1 <1>  -0.9000 
  4 C        2.2280     0.4350    -0.2280 C.3   1 <1>  -0.1060 
  5 C        3.5050    -0.4240    -0.1880 C.3   1 <1>   0.4230 
  6 C        2.4810     1.5480    -1.2820 C.3   1 <1>  -0.1600 
  7 C        0.9730    -0.4030    -0.6070 C.3   1 <1>  -0.1600 
  8 N        3.2520    -1.6540     0.6470 N.4   1 <1>  -0.9590 
  9 C        4.6890     0.4840     0.2670 C.3   1 <1>   0.3430 
 10 C        3.6560     2.4610    -0.8930 C.3   1 <1>   0.3430 
 11 C        1.3220    -1.8560    -0.9680 C.3   1 <1>  -0.1600 
 12 C        2.1670    -2.5410     0.1160 C.3   1 <1>   0.3430 
 13 C        4.4350    -2.4350     1.1060 C.3   1 <1>   0.2630 
 14 N        4.9160     1.6750    -0.6460 N.4   1 <1>  -0.9590 
 15 C        5.9490     2.5620    -0.0190 C.3   1 <1>   0.3430 
 16 C        6.4180     3.6760    -0.9590 C.3   1 <1>  -0.0170 
 17 C        7.6170     4.3610    -0.3340 C.ar  1 <1>  -0.1430 
 18 C        7.4340     5.3210     0.6510 C.ar  1 <1>  -0.1500 
 19 C        8.9030     4.0290    -0.7310 C.ar  1 <1>  -0.1500 
 20 C        8.5270     5.9370     1.2360 C.ar  1 <1>  -0.1500 
 21 C        9.9960     4.6460    -0.1460 C.ar  1 <1>  -0.1500 
 22 C        9.8080     5.5990     0.8380 C.ar  1 <1>  -0.1500 
 23 H        3.7240    -0.7550    -1.1880 H     1 <1>   0.0800 
 24 H        1.6020     2.1680    -1.3490 H     1 <1>   0.0800 
 25 H        2.6510     1.1260    -2.2560 H     1 <1>   0.0800 
 26 H        0.2930    -0.4180     0.2310 H     1 <1>   0.0800 
 27 H        0.4370     0.0510    -1.4240 H     1 <1>   0.0800 
 28 H        2.8250    -1.2080     1.5080 H     1 <1>   0.4500 
 29 H        5.5890    -0.1050     0.3060 H     1 <1>   0.0800 
 30 H        4.4810     0.8420     1.2640 H     1 <1>   0.0800 
 31 H        3.3980     3.0150    -0.0030 H     1 <1>   0.0800 
 32 H        3.8170     3.1820    -1.6780 H     1 <1>   0.0800 
 33 H        1.8510    -1.8840    -1.9040 H     1 <1>   0.0800 
 34 H        0.4140    -2.4170    -1.1050 H     1 <1>   0.0800 
 35 H        2.5930    -3.4420    -0.2940 H     1 <1>   0.0800 
 36 H        1.5230    -2.8230     0.9340 H     1 <1>   0.0800 
 37 H        4.9510    -2.8680     0.2660 H     1 <1>   0.0800 
 38 H        4.1170    -3.2290     1.7630 H     1 <1>   0.0800 
 39 H        5.1140    -1.8020     1.6540 H     1 <1>   0.0800 
 40 H        5.2740     1.3540    -1.5540 H     1 <1>   0.4500 
 41 H        5.5540     3.0040     0.8840 H     1 <1>   0.0800 
 42 H        6.8100     1.9740     0.2550 H     1 <1>   0.0800 
 43 H        6.6980     3.2680    -1.9140 H     1 <1>   0.0800 
 44 H        5.6390     4.4030    -1.1060 H     1 <1>   0.0800 
 45 H        6.4460     5.6020     0.9720 H     1 <1>   0.1500 
 46 H        9.0730     3.2940    -1.4980 H     1 <1>   0.1500 
 47 H        8.3820     6.6820     1.9990 H     1 <1>   0.1500 
 48 H       10.9940     4.3880    -0.4570 H     1 <1>   0.1500 
 49 H       10.6580     6.0790     1.2930 H     1 <1>   0.1500 
@<TRIPOS>BOND
  1   1   2  ar  
  2   2   3  ar  
  3   2   4  1   
  4   4   5  1   
  5   4   6  1   
  6   4   7  1   
  7   5   8  1   
  8   5   9  1   
  9   5  23  1   
 10   6  10  1   
 11   6  24  1   
 12   6  25  1   
 13   7  11  1   
 14   7  26  1   
 15   7  27  1   
 16   8  12  1   
 17   8  13  1   
 18   8  28  1   
 19   9  14  1   
 20   9  29  1   
 21   9  30  1   
 22  10  14  1   
 23  10  31  1   
 24  10  32  1   
 25  11  12  1   
 26  11  33  1   
 27  11  34  1   
 28  12  35  1   
 29  12  36  1   
 30  13  37  1   
 31  13  38  1   
 32  13  39  1   
 33  14  15  1   
 34  14  40  1   
 35  15  16  1   
 36  15  41  1   
 37  15  42  1   
 38  16  17  1   
 39  16  43  1   
 40  16  44  1   
 41  17  18  ar  
 42  17  19  ar  
 43  18  20  ar  
 44  18  45  1   
 45  19  21  ar  
 46  19  46  1   
 47  20  22  ar  
 48  20  47  1   
 49  21  22  ar  
 50  21  48  1   
 51  22  49  1   
@<TRIPOS>SUBSTRUCTURE
  1 ****  14 GROUP 4 **** **** 0

# MOE 2024.06 (io_trps.svl 2023.06)
