@<TRIPOS>MOLECULE
NONAME
33 34 1 0 0 
SMALL
USER_CHARGES


@<TRIPOS>ATOM
  1 O       -0.7010     1.2550     1.7050 O.2   1 <1>  -0.5700 
  2 C       -0.3140     2.2130     1.0550 C.2   1 <1>   0.7670 
  3 N       -1.2000     2.8530     0.2290 N.2   1 <1>  -0.6610 
  4 C        1.0320     2.6530     1.1550 C.2   1 <1>  -0.1360 
  5 C       -0.7700     3.8570    -0.4410 C.2   1 <1>   0.4390 
  6 C        1.4490     3.7130     0.4280 C.2   1 <1>  -0.0380 
  7 N        0.5130     4.3100    -0.3750 N.pl3 1 <1>  -0.5500 
  8 C       -1.7050     4.6040    -1.3580 C.3   1 <1>  -0.1790 
  9 C        2.8600     4.2880     0.4360 C.3   1 <1>   0.3470 
 10 N        2.7720     5.7580     0.5260 N.pl3 1 <1>  -0.8690 
 11 C        3.8220     6.5720     0.2930 C.ar  1 <1>   0.7200 
 12 N        4.8130     6.1160    -0.4630 N.ar  1 <1>  -0.6200 
 13 N        3.7260     7.7550     0.8750 N.ar  1 <1>  -0.6200 
 14 C        5.8040     6.9490    -0.6570 C.ar  1 <1>   0.1670 
 15 C        4.7290     8.5710     0.6680 C.ar  1 <1>   0.1670 
 16 C        5.8090     8.2080    -0.1040 C.ar  1 <1>  -0.1500 
 17 C        6.9500     6.4660    -1.5200 C.3   1 <1>  -0.0970 
 18 C        4.6500     9.9360     1.3170 C.3   1 <1>  -0.0970 
 19 H        1.6660     2.1040     1.8220 H     1 <1>   0.1500 
 20 H        0.7890     5.1500    -0.8980 H     1 <1>   0.4000 
 21 H       -1.7850     5.6280    -1.0430 H     1 <1>   0.0800 
 22 H       -2.6820     4.1570    -1.3320 H     1 <1>   0.0800 
 23 H       -1.3350     4.5660    -2.3660 H     1 <1>   0.0800 
 24 H        3.3600     4.0080    -0.4770 H     1 <1>   0.0800 
 25 H        3.4240     3.9050     1.2690 H     1 <1>   0.0800 
 26 H        2.1770     6.1130     1.2720 H     1 <1>   0.4000 
 27 H        6.6260     8.8840    -0.2680 H     1 <1>   0.1500 
 28 H        7.3970     5.5970    -1.0720 H     1 <1>   0.0800 
 29 H        7.7010     7.2260    -1.6280 H     1 <1>   0.0800 
 30 H        6.5800     6.2020    -2.4940 H     1 <1>   0.0800 
 31 H        4.5880     9.8240     2.3840 H     1 <1>   0.0800 
 32 H        3.7690    10.4470     0.9720 H     1 <1>   0.0800 
 33 H        5.5120    10.5300     1.0780 H     1 <1>   0.0800 
@<TRIPOS>BOND
  1   1   2  2   
  2   2   3  1   
  3   2   4  1   
  4   3   5  2   
  5   4   6  2   
  6   4  19  1   
  7   5   7  1   
  8   5   8  1   
  9   6   7  1   
 10   6   9  1   
 11   7  20  1   
 12   8  21  1   
 13   8  22  1   
 14   8  23  1   
 15   9  10  1   
 16   9  24  1   
 17   9  25  1   
 18  10  11  1   
 19  10  26  1   
 20  11  12  ar  
 21  11  13  ar  
 22  12  14  ar  
 23  13  15  ar  
 24  14  16  ar  
 25  14  17  1   
 26  15  16  ar  
 27  15  18  1   
 28  16  27  1   
 29  17  28  1   
 30  17  29  1   
 31  17  30  1   
 32  18  31  1   
 33  18  32  1   
 34  18  33  1   
@<TRIPOS>SUBSTRUCTURE
  1 ****  10 GROUP 4 **** **** 0

# MOE 2024.06 (io_trps.svl 2023.06)
