@<TRIPOS>MOLECULE
NONAME
48 50 1 0 0 
SMALL
USER_CHARGES


@<TRIPOS>ATOM
  1 S        0.6700     0.2600    -0.1470 S.o2  1 <1>   1.2040 
  2 O        1.3990     0.5350    -1.3640 O.2   1 <1>  -0.6500 
  3 O        1.1560     0.7500     1.1230 O.2   1 <1>  -0.6500 
  4 C        0.3710    -1.5230    -0.0230 C.ar  1 <1>  -0.0090 
  5 C       -0.9770     0.9060    -0.3640 C.3   1 <1>  -0.1350 
  6 C        0.3620    -2.3310    -1.1530 C.ar  1 <1>  -0.1500 
  7 C        0.1320    -2.1290     1.2040 C.ar  1 <1>  -0.1500 
  8 C        0.1290    -3.6930    -1.0650 C.ar  1 <1>  -0.1500 
  9 C       -0.1020    -3.4900     1.3040 C.ar  1 <1>  -0.1500 
 10 C       -0.1070    -4.2830     0.1670 C.ar  1 <1>  -0.1430 
 11 C       -0.3470    -5.7780     0.2700 C.3   1 <1>   0.4860 
 12 N       -1.7270    -6.1240    -0.1870 N.4   1 <1>  -0.9590 
 13 C       -2.7660    -5.6260     0.7790 C.3   1 <1>   0.4230 
 14 C       -1.7710    -7.5870    -0.5120 C.3   1 <1>   0.2630 
 15 C       -4.0190    -6.5060     0.8820 C.3   1 <1>  -0.1600 
 16 C       -3.3570    -4.3230     0.2330 C.3   1 <1>  -0.1600 
 17 C       -4.8710    -6.1610    -0.3490 C.3   1 <1>  -0.0800 
 18 C       -4.4460    -4.7490    -0.7640 C.3   1 <1>  -0.0800 
 19 C       -6.3860    -6.1180    -0.1100 C.3   1 <1>  -0.1600 
 20 C       -5.7160    -3.8860    -0.7600 C.3   1 <1>  -0.1600 
 21 C       -6.8540    -4.8920    -0.8840 C.3   1 <1>   0.2000 
 22 O       -8.0040    -4.3850    -0.3260 O.3   1 <1>  -0.6800 
 23 H       -1.4230     0.5060    -1.2530 H     1 <1>   0.0800 
 24 H       -0.9400     1.9740    -0.4530 H     1 <1>   0.0800 
 25 H       -1.5920     0.6570     0.4790 H     1 <1>   0.0800 
 26 H        0.5550    -1.8860    -2.1170 H     1 <1>   0.1500 
 27 H        0.1440    -1.5250     2.0980 H     1 <1>   0.1500 
 28 H        0.1480    -4.2800    -1.9690 H     1 <1>   0.1500 
 29 H       -0.2690    -3.9160     2.2800 H     1 <1>   0.1500 
 30 H       -0.2010    -6.1040     1.2870 H     1 <1>   0.0800 
 31 H        0.3790    -6.2810    -0.3470 H     1 <1>   0.0800 
 32 H       -1.8880    -5.5970    -1.0540 H     1 <1>   0.4500 
 33 H       -2.3290    -5.4780     1.7540 H     1 <1>   0.0800 
 34 H       -1.6340    -8.1750     0.3810 H     1 <1>   0.0800 
 35 H       -0.9940    -7.8410    -1.2150 H     1 <1>   0.0800 
 36 H       -2.7200    -7.8460    -0.9530 H     1 <1>   0.0800 
 37 H       -3.8340    -7.5590     0.9920 H     1 <1>   0.0800 
 38 H       -4.5440    -6.1940     1.7690 H     1 <1>   0.0800 
 39 H       -3.8060    -3.8020     1.0600 H     1 <1>   0.0800 
 40 H       -2.6390    -3.6630    -0.2160 H     1 <1>   0.0800 
 41 H       -4.6580    -6.8390    -1.1590 H     1 <1>   0.0800 
 42 H       -4.0450    -4.7880    -1.7640 H     1 <1>   0.0800 
 43 H       -6.6070    -5.9910     0.9360 H     1 <1>   0.0800 
 44 H       -6.8690    -7.0090    -0.4710 H     1 <1>   0.0800 
 45 H       -5.7250    -3.1910    -1.5810 H     1 <1>   0.0800 
 46 H       -5.8100    -3.3480     0.1670 H     1 <1>   0.0800 
 47 H       -7.0450    -5.1360    -1.9170 H     1 <1>   0.0800 
 48 H       -7.8580    -4.1490     0.6080 H     1 <1>   0.4000 
@<TRIPOS>BOND
  1   1   2  2   
  2   1   3  2   
  3   1   4  1   
  4   1   5  1   
  5   4   6  ar  
  6   4   7  ar  
  7   5  23  1   
  8   5  24  1   
  9   5  25  1   
 10   6   8  ar  
 11   6  26  1   
 12   7   9  ar  
 13   7  27  1   
 14   8  10  ar  
 15   8  28  1   
 16   9  10  ar  
 17   9  29  1   
 18  10  11  1   
 19  11  12  1   
 20  11  30  1   
 21  11  31  1   
 22  12  13  1   
 23  12  14  1   
 24  12  32  1   
 25  13  15  1   
 26  13  16  1   
 27  13  33  1   
 28  14  34  1   
 29  14  35  1   
 30  14  36  1   
 31  15  17  1   
 32  15  37  1   
 33  15  38  1   
 34  16  18  1   
 35  16  39  1   
 36  16  40  1   
 37  17  18  1   
 38  17  19  1   
 39  17  41  1   
 40  18  20  1   
 41  18  42  1   
 42  19  21  1   
 43  19  43  1   
 44  19  44  1   
 45  20  21  1   
 46  20  45  1   
 47  20  46  1   
 48  21  22  1   
 49  21  47  1   
 50  22  48  1   
@<TRIPOS>SUBSTRUCTURE
  1 ****  16 GROUP 4 **** **** 0

# MOE 2024.06 (io_trps.svl 2023.06)
