@<TRIPOS>MOLECULE
NONAME
39 41 1 0 0 
SMALL
USER_CHARGES


@<TRIPOS>ATOM
  1 F        0.4560     0.0510     1.0530 F     1 <1>  -0.3400 
  2 C        1.1570    -1.0730     1.1310 C.3   1 <1>   1.1640 
  3 F        2.4130    -0.7500     0.8560 F     1 <1>  -0.3400 
  4 F        1.1340    -1.4390     2.4080 F     1 <1>  -0.3400 
  5 C        0.6240    -2.1560     0.1860 C.ar  1 <1>  -0.1440 
  6 C        0.4420    -3.4700     0.5730 C.ar  1 <1>  -0.1500 
  7 C        0.2970    -1.8700    -1.1310 C.ar  1 <1>  -0.1500 
  8 C       -0.0430    -4.4130    -0.3270 C.ar  1 <1>   0.4100 
  9 C       -0.1790    -2.8750    -1.9530 C.ar  1 <1>   0.1600 
 10 N       -0.3560    -4.1290    -1.5820 N.ar  1 <1>  -0.6200 
 11 N       -0.2270    -5.7070     0.0920 N.pl3 1 <1>  -0.8690 
 12 C       -0.7000    -6.8250    -0.7650 C.3   1 <1>   0.2890 
 13 C       -2.1770    -7.1130    -0.5370 C.3   1 <1>  -0.0800 
 14 C       -0.0850    -8.1260    -0.2650 C.3   1 <1>   0.1200 
 15 C       -2.1630    -8.0090     0.7040 C.3   1 <1>   0.1200 
 16 C       -3.0940    -5.8820    -0.4190 C.3   1 <1>  -0.0160 
 17 O       -0.8690    -8.5280     0.8190 O.3   1 <1>  -0.5600 
 18 C       -4.5470    -6.2980    -0.2450 C.ar  1 <1>  -0.1430 
 19 C       -5.1620    -6.3090     0.9900 C.ar  1 <1>  -0.1500 
 20 C       -5.3240    -6.6860    -1.3170 C.ar  1 <1>  -0.1500 
 21 C       -6.4860    -6.7030     1.0910 C.ar  1 <1>   0.1600 
 22 C       -6.6400    -7.0630    -1.1080 C.ar  1 <1>   0.1600 
 23 N       -7.2400    -7.0830     0.0710 N.ar  1 <1>  -0.6200 
 24 H        0.6710    -3.7920     1.5710 H     1 <1>   0.1500 
 25 H        0.4090    -0.8730    -1.5230 H     1 <1>   0.1500 
 26 H       -0.4270    -2.6330    -2.9730 H     1 <1>   0.1500 
 27 H       -0.0980    -5.9570     1.0750 H     1 <1>   0.4000 
 28 H       -0.4650    -6.6440    -1.8000 H     1 <1>   0.0800 
 29 H       -2.5240    -7.7110    -1.3610 H     1 <1>   0.0800 
 30 H        0.9370    -8.0070     0.0470 H     1 <1>   0.0800 
 31 H       -0.1520    -8.8900    -1.0200 H     1 <1>   0.0800 
 32 H       -2.8640    -8.8220     0.6200 H     1 <1>   0.0800 
 33 H       -2.3650    -7.4460     1.5980 H     1 <1>   0.0800 
 34 H       -2.9980    -5.2800    -1.3060 H     1 <1>   0.0800 
 35 H       -2.7970    -5.2700     0.4150 H     1 <1>   0.0800 
 36 H       -4.6270    -6.0160     1.8740 H     1 <1>   0.1500 
 37 H       -4.9180    -6.6990    -2.3120 H     1 <1>   0.1500 
 38 H       -6.9500    -6.7060     2.0620 H     1 <1>   0.1500 
 39 H       -7.2310    -7.3630    -1.9560 H     1 <1>   0.1500 
@<TRIPOS>BOND
  1   1   2  1   
  2   2   3  1   
  3   2   4  1   
  4   2   5  1   
  5   5   6  ar  
  6   5   7  ar  
  7   6   8  ar  
  8   6  24  1   
  9   7   9  ar  
 10   7  25  1   
 11   8  10  ar  
 12   8  11  1   
 13   9  10  ar  
 14   9  26  1   
 15  11  12  1   
 16  11  27  1   
 17  12  13  1   
 18  12  14  1   
 19  12  28  1   
 20  13  15  1   
 21  13  16  1   
 22  13  29  1   
 23  14  17  1   
 24  14  30  1   
 25  14  31  1   
 26  15  17  1   
 27  15  32  1   
 28  15  33  1   
 29  16  18  1   
 30  16  34  1   
 31  16  35  1   
 32  18  19  ar  
 33  18  20  ar  
 34  19  21  ar  
 35  19  36  1   
 36  20  22  ar  
 37  20  37  1   
 38  21  23  ar  
 39  21  38  1   
 40  22  23  ar  
 41  22  39  1   
@<TRIPOS>SUBSTRUCTURE
  1 ****  11 GROUP 4 **** **** 0

# MOE 2024.06 (io_trps.svl 2023.06)
