@<TRIPOS>MOLECULE
NONAME
58 59 1 0 0 
SMALL
USER_CHARGES


@<TRIPOS>ATOM
  1 O       -0.6430     1.1420    -1.0510 O.2   1 <1>  -0.5700 
  2 C       -0.6500     2.3390    -0.8840 C.2   1 <1>   0.5690 
  3 N       -1.3640     2.9690     0.1040 N.am  1 <1>  -0.6600 
  4 C        0.1830     3.1860    -1.8420 C.3   1 <1>   0.1810 
  5 C       -1.3180     4.4630     0.2460 C.3   1 <1>   0.3640 
  6 C       -2.1500     2.2690     1.1590 C.3   1 <1>   0.2200 
  7 O        0.6990     4.3290    -1.2090 O.3   1 <1>  -0.5600 
  8 C       -2.7150     5.0390     0.0030 C.ar  1 <1>  -0.1440 
  9 C       -0.2980     5.1890    -0.6770 C.3   1 <1>   0.2610 
 10 C       -1.2190     1.4420     2.0450 C.3   1 <1>  -0.2400 
 11 C       -3.2680     1.4200     0.5530 C.3   1 <1>  -0.2400 
 12 C       -3.4700     4.6540    -1.0980 C.ar  1 <1>  -0.1500 
 13 C       -3.2420     5.9720     0.8840 C.ar  1 <1>  -0.1500 
 14 C        0.3710     6.3380     0.0870 C.2   1 <1>   0.5690 
 15 C       -4.7270     5.1910    -1.3120 C.ar  1 <1>  -0.1500 
 16 C       -4.5000     6.5100     0.6710 C.ar  1 <1>  -0.1500 
 17 O       -0.2950     7.1680     0.6590 O.2   1 <1>  -0.5700 
 18 N        1.7300     6.4170     0.1080 N.am  1 <1>  -0.7300 
 19 C       -5.2430     6.1200    -0.4280 C.ar  1 <1>  -0.1500 
 20 C        2.5120     7.4470     0.8490 C.3   1 <1>   0.1400 
 21 C        2.9460     8.6660    -0.0250 C.3   1 <1>   0.5030 
 22 N        3.5820     9.7510     0.7990 N.4   1 <1>  -0.9590 
 23 C        1.7520     9.2910    -0.7640 C.3   1 <1>  -0.2400 
 24 C        3.9620     8.2190    -1.0850 C.3   1 <1>  -0.2400 
 25 C        4.8490     9.3490     1.4980 C.3   1 <1>   0.2630 
 26 C        2.6520    10.3840     1.7980 C.3   1 <1>   0.2630 
 27 H       -0.4170     3.4900    -2.6800 H     1 <1>   0.0800 
 28 H        1.0130     2.6040    -2.1980 H     1 <1>   0.0800 
 29 H       -1.0410     4.6730     1.2650 H     1 <1>   0.0800 
 30 H       -2.6200     3.0080     1.7860 H     1 <1>   0.0800 
 31 H       -0.8220     5.6180    -1.5120 H     1 <1>   0.0800 
 32 H       -0.7760     0.6360     1.4880 H     1 <1>   0.0800 
 33 H       -1.7750     1.0180     2.8610 H     1 <1>   0.0800 
 34 H       -0.4410     2.0630     2.4500 H     1 <1>   0.0800 
 35 H       -2.8720     0.6020    -0.0190 H     1 <1>   0.0800 
 36 H       -3.8940     2.0250    -0.0770 H     1 <1>   0.0800 
 37 H       -3.8770     1.0120     1.3380 H     1 <1>   0.0800 
 38 H       -3.0880     3.9270    -1.7930 H     1 <1>   0.1500 
 39 H       -2.6760     6.2950     1.7420 H     1 <1>   0.1500 
 40 H       -5.3050     4.8850    -2.1670 H     1 <1>   0.1500 
 41 H       -4.8980     7.2340     1.3600 H     1 <1>   0.1500 
 42 H        2.2350     5.6610    -0.3750 H     1 <1>   0.3700 
 43 H       -6.2200     6.5390    -0.5930 H     1 <1>   0.1500 
 44 H        1.9050     7.7960     1.6650 H     1 <1>   0.0800 
 45 H        3.3800     6.9700     1.2670 H     1 <1>   0.0800 
 46 H        3.8290    10.4830     0.1180 H     1 <1>   0.4500 
 47 H        1.3770     8.6090    -1.5060 H     1 <1>   0.0800 
 48 H        2.0340    10.1960    -1.2710 H     1 <1>   0.0800 
 49 H        0.9360     9.4930    -0.0940 H     1 <1>   0.0800 
 50 H        3.4910     7.5470    -1.7810 H     1 <1>   0.0800 
 51 H        4.7870     7.6870    -0.6480 H     1 <1>   0.0800 
 52 H        4.3320     9.0580    -1.6460 H     1 <1>   0.0800 
 53 H        4.6560     8.5580     2.2040 H     1 <1>   0.0800 
 54 H        5.2630    10.1890     2.0310 H     1 <1>   0.0800 
 55 H        5.5840     9.0080     0.7870 H     1 <1>   0.0800 
 56 H        2.3260     9.6590     2.5260 H     1 <1>   0.0800 
 57 H        1.7830    10.7900     1.3060 H     1 <1>   0.0800 
 58 H        3.1500    11.1870     2.3150 H     1 <1>   0.0800 
@<TRIPOS>BOND
  1   1   2  2   
  2   2   3  am  
  3   2   4  1   
  4   3   5  1   
  5   3   6  1   
  6   4   7  1   
  7   4  27  1   
  8   4  28  1   
  9   5   8  1   
 10   5   9  1   
 11   5  29  1   
 12   6  10  1   
 13   6  11  1   
 14   6  30  1   
 15   7   9  1   
 16   8  12  ar  
 17   8  13  ar  
 18   9  14  1   
 19   9  31  1   
 20  10  32  1   
 21  10  33  1   
 22  10  34  1   
 23  11  35  1   
 24  11  36  1   
 25  11  37  1   
 26  12  15  ar  
 27  12  38  1   
 28  13  16  ar  
 29  13  39  1   
 30  14  17  2   
 31  14  18  am  
 32  15  19  ar  
 33  15  40  1   
 34  16  19  ar  
 35  16  41  1   
 36  18  20  1   
 37  18  42  1   
 38  19  43  1   
 39  20  21  1   
 40  20  44  1   
 41  20  45  1   
 42  21  22  1   
 43  21  23  1   
 44  21  24  1   
 45  22  25  1   
 46  22  26  1   
 47  22  46  1   
 48  23  47  1   
 49  23  48  1   
 50  23  49  1   
 51  24  50  1   
 52  24  51  1   
 53  24  52  1   
 54  25  53  1   
 55  25  54  1   
 56  25  55  1   
 57  26  56  1   
 58  26  57  1   
 59  26  58  1   
@<TRIPOS>SUBSTRUCTURE
  1 ****   9 GROUP 4 **** **** 0

# MOE 2024.06 (io_trps.svl 2023.06)
