@<TRIPOS>MOLECULE
NONAME
47 49 1 0 0 
SMALL
USER_CHARGES


@<TRIPOS>ATOM
  1 O       -0.8280    -1.3590     1.3640 O.3   1 <1>  -0.3630 
  2 C       -0.6160    -2.3830     0.5140 C.ar  1 <1>   0.7020 
  3 C        0.1720    -0.4000     1.6470 C.3   1 <1>   0.0400 
  4 N        0.5810    -2.4750    -0.0530 N.ar  1 <1>  -0.6200 
  5 N       -1.6580    -3.1760     0.3600 N.ar  1 <1>  -0.6200 
  6 C        0.7180    -3.5000    -0.8740 C.ar  1 <1>   0.3930 
  7 C       -1.4860    -4.1840    -0.4680 C.ar  1 <1>   0.4100 
  8 O        1.8960    -3.6910    -1.5030 O.3   1 <1>  -0.3630 
  9 C       -0.2930    -4.3870    -1.1150 C.ar  1 <1>  -0.1500 
 10 N       -2.5360    -5.0500    -0.6600 N.pl3 1 <1>  -0.8380 
 11 C        2.9840    -2.8100    -1.3000 C.3   1 <1>   0.0400 
 12 C       -3.8440    -4.4650    -1.0520 C.3   1 <1>   0.2090 
 13 C       -2.7680    -6.0600     0.4020 C.3   1 <1>   0.2090 
 14 C       -4.7690    -4.6970     0.1460 C.3   1 <1>  -0.0800 
 15 C       -4.2600    -6.0160     0.7490 C.3   1 <1>  -0.0800 
 16 C       -6.2990    -4.6430    -0.1430 C.3   1 <1>   0.2800 
 17 C       -5.0390    -7.2160     0.1870 C.3   1 <1>  -0.1600 
 18 O       -6.5550    -4.9810    -1.4590 O.3   1 <1>  -0.6800 
 19 C       -7.0380    -5.6790     0.7250 C.3   1 <1>  -0.1600 
 20 C       -6.9020    -3.2390     0.0880 C.3   1 <1>  -0.1600 
 21 C       -6.5400    -7.1270     0.5190 C.3   1 <1>  -0.1600 
 22 C       -6.3070    -2.1100    -0.7710 C.3   1 <1>  -0.2400 
 23 H       -0.2320     0.3120     2.3440 H     1 <1>   0.0800 
 24 H        0.4490     0.0940     0.7320 H     1 <1>   0.0800 
 25 H        1.0210    -0.8990     2.0790 H     1 <1>   0.0800 
 26 H       -0.1710    -5.2130    -1.7850 H     1 <1>   0.1500 
 27 H        3.8100    -3.1510    -1.8970 H     1 <1>   0.0800 
 28 H        3.2500    -2.8210    -0.2580 H     1 <1>   0.0800 
 29 H        2.6910    -1.8210    -1.6040 H     1 <1>   0.0800 
 30 H       -3.7530    -3.4190    -1.2860 H     1 <1>   0.0800 
 31 H       -4.1920    -4.9880    -1.9250 H     1 <1>   0.0800 
 32 H       -2.4740    -7.0340     0.0510 H     1 <1>   0.0800 
 33 H       -2.1830    -5.8110     1.2730 H     1 <1>   0.0800 
 34 H       -4.5370    -3.9320     0.8650 H     1 <1>   0.0800 
 35 H       -4.3720    -6.0050     1.8190 H     1 <1>   0.0800 
 36 H       -4.9190    -7.2320    -0.8830 H     1 <1>   0.0800 
 37 H       -4.6380    -8.1380     0.5720 H     1 <1>   0.0800 
 38 H       -7.5170    -4.9790    -1.6090 H     1 <1>   0.4000 
 39 H       -6.8800    -5.4150     1.7570 H     1 <1>   0.0800 
 40 H       -8.0980    -5.6330     0.5520 H     1 <1>   0.0800 
 41 H       -7.9620    -3.2810    -0.0880 H     1 <1>   0.0800 
 42 H       -6.7700    -2.9760     1.1230 H     1 <1>   0.0800 
 43 H       -6.7460    -7.6910     1.4120 H     1 <1>   0.0800 
 44 H       -7.0920    -7.5840    -0.2850 H     1 <1>   0.0800 
 45 H       -6.3560    -2.3570    -1.8170 H     1 <1>   0.0800 
 46 H       -5.2810    -1.9280    -0.5050 H     1 <1>   0.0800 
 47 H       -6.8570    -1.2000    -0.6100 H     1 <1>   0.0800 
@<TRIPOS>BOND
  1   1   2  1   
  2   1   3  1   
  3   2   4  ar  
  4   2   5  ar  
  5   3  23  1   
  6   3  24  1   
  7   3  25  1   
  8   4   6  ar  
  9   5   7  ar  
 10   6   8  1   
 11   6   9  ar  
 12   7   9  ar  
 13   7  10  1   
 14   8  11  1   
 15   9  26  1   
 16  10  12  1   
 17  10  13  1   
 18  11  27  1   
 19  11  28  1   
 20  11  29  1   
 21  12  14  1   
 22  12  30  1   
 23  12  31  1   
 24  13  15  1   
 25  13  32  1   
 26  13  33  1   
 27  14  15  1   
 28  14  16  1   
 29  14  34  1   
 30  15  17  1   
 31  15  35  1   
 32  16  18  1   
 33  16  19  1   
 34  16  20  1   
 35  17  21  1   
 36  17  36  1   
 37  17  37  1   
 38  18  38  1   
 39  19  21  1   
 40  19  39  1   
 41  19  40  1   
 42  20  22  1   
 43  20  41  1   
 44  20  42  1   
 45  21  43  1   
 46  21  44  1   
 47  22  45  1   
 48  22  46  1   
 49  22  47  1   
@<TRIPOS>SUBSTRUCTURE
  1 ****  10 GROUP 4 **** **** 0

# MOE 2024.06 (io_trps.svl 2023.06)
