@<TRIPOS>MOLECULE
NONAME
48 51 1 0 0 
SMALL
USER_CHARGES


@<TRIPOS>ATOM
  1 F       -1.5200     2.9090     1.0720 F     1 <1>  -0.1900 
  2 C       -1.7060     3.0950    -0.2070 C.ar  1 <1>   0.1900 
  3 C       -2.4860     2.1930    -0.9440 C.ar  1 <1>   0.3960 
  4 C       -1.1270     4.2120    -0.7680 C.ar  1 <1>  -0.1500 
  5 N       -2.7270     2.4030    -2.2590 N.ar  1 <1>  -0.6200 
  6 C       -3.0530     1.0290    -0.2760 C.2   1 <1>   0.5440 
  7 C       -1.3860     4.3780    -2.1080 C.ar  1 <1>   0.1900 
  8 C       -2.1740     3.4750    -2.8070 C.ar  1 <1>   0.1600 
  9 O       -2.3060     0.1620     0.1460 O.2   1 <1>  -0.5700 
 10 N       -4.4170     0.8770    -0.0820 N.am  1 <1>  -0.6600 
 11 F       -0.8840     5.4080    -2.7280 F     1 <1>  -0.1900 
 12 C       -5.4330     1.9050    -0.4750 C.3   1 <1>   0.1400 
 13 C       -5.0070    -0.3420     0.5430 C.3   1 <1>   0.1400 
 14 C       -6.2590     2.3510     0.7450 C.3   1 <1>   0.1440 
 15 C       -5.8560     0.0490     1.7600 C.3   1 <1>  -0.1600 
 16 C       -7.2780     3.3710     0.2750 C.ar  1 <1>   0.1670 
 17 C       -6.9090     1.1170     1.4080 C.3   1 <1>  -0.1600 
 18 C       -5.4070     3.1700     1.7540 C.3   1 <1>  -0.1600 
 19 N       -8.3410     3.1050    -0.4420 N.ar  1 <1>  -0.6200 
 20 C       -6.9430     4.6320     0.6660 C.ar  1 <1>  -0.1430 
 21 C       -5.6580     4.6580     1.4550 C.3   1 <1>  -0.0170 
 22 C       -9.0940     4.1610    -0.7590 C.ar  1 <1>   0.7200 
 23 C       -7.7770     5.6560     0.2960 C.ar  1 <1>   0.1600 
 24 N       -8.8560     5.4310    -0.4160 N.ar  1 <1>  -0.6200 
 25 N      -10.2220     3.9170    -1.5180 N.pl3 1 <1>  -0.8380 
 26 C      -10.4580     2.6120    -2.1940 C.3   1 <1>   0.1290 
 27 C      -11.2830     4.9450    -1.7050 C.3   1 <1>   0.1290 
 28 H       -0.5230     4.9000    -0.2050 H     1 <1>   0.1500 
 29 H       -2.3490     3.6520    -3.8550 H     1 <1>   0.1500 
 30 H       -6.0920     1.4750    -1.2100 H     1 <1>   0.0800 
 31 H       -4.9700     2.7650    -0.9220 H     1 <1>   0.0800 
 32 H       -4.2360    -1.0290     0.8480 H     1 <1>   0.0800 
 33 H       -5.6230    -0.8400    -0.1860 H     1 <1>   0.0800 
 34 H       -5.2030     0.4130     2.5330 H     1 <1>   0.0800 
 35 H       -6.3490    -0.8280     2.1400 H     1 <1>   0.0800 
 36 H       -7.6200     0.6900     0.7220 H     1 <1>   0.0800 
 37 H       -7.4510     1.4110     2.2890 H     1 <1>   0.0800 
 38 H       -4.3610     2.9250     1.7110 H     1 <1>   0.0800 
 39 H       -5.7530     2.9720     2.7540 H     1 <1>   0.0800 
 40 H       -4.8680     5.0630     0.8470 H     1 <1>   0.0800 
 41 H       -5.7580     5.2320     2.3600 H     1 <1>   0.0800 
 42 H       -7.5570     6.6690     0.5830 H     1 <1>   0.1500 
 43 H       -9.5230     2.1450    -2.4510 H     1 <1>   0.0800 
 44 H      -11.0210     2.7600    -3.0990 H     1 <1>   0.0800 
 45 H      -11.0060     1.9600    -1.5360 H     1 <1>   0.0800 
 46 H      -11.3380     5.5910    -0.8460 H     1 <1>   0.0800 
 47 H      -12.2410     4.4720    -1.8320 H     1 <1>   0.0800 
 48 H      -11.0590     5.5370    -2.5750 H     1 <1>   0.0800 
@<TRIPOS>BOND
  1   1   2  1   
  2   2   3  ar  
  3   2   4  ar  
  4   3   5  ar  
  5   3   6  1   
  6   4   7  ar  
  7   4  28  1   
  8   5   8  ar  
  9   6   9  2   
 10   6  10  am  
 11   7   8  ar  
 12   7  11  1   
 13   8  29  1   
 14  10  12  1   
 15  10  13  1   
 16  12  14  1   
 17  12  30  1   
 18  12  31  1   
 19  13  15  1   
 20  13  32  1   
 21  13  33  1   
 22  14  16  1   
 23  14  17  1   
 24  14  18  1   
 25  15  17  1   
 26  15  34  1   
 27  15  35  1   
 28  16  19  ar  
 29  16  20  ar  
 30  17  36  1   
 31  17  37  1   
 32  18  21  1   
 33  18  38  1   
 34  18  39  1   
 35  19  22  ar  
 36  20  21  1   
 37  20  23  ar  
 38  21  40  1   
 39  21  41  1   
 40  22  24  ar  
 41  22  25  1   
 42  23  24  ar  
 43  23  42  1   
 44  25  26  1   
 45  25  27  1   
 46  26  43  1   
 47  26  44  1   
 48  26  45  1   
 49  27  46  1   
 50  27  47  1   
 51  27  48  1   
@<TRIPOS>SUBSTRUCTURE
  1 ****  12 GROUP 4 **** **** 0

# MOE 2024.06 (io_trps.svl 2023.06)
