@<TRIPOS>MOLECULE
NONAME
53 56 1 0 0 
SMALL
USER_CHARGES


@<TRIPOS>ATOM
  1 O        2.1110    -1.4950    -2.7130 O.2   1 <1>  -0.5700 
  2 C        1.8800    -1.8320    -1.5630 C.2   1 <1>   0.5440 
  3 N        1.5100    -0.8320    -0.6790 N.am  1 <1>  -0.6600 
  4 C        2.0390    -3.2430    -1.1980 C.ar  1 <1>   0.3960 
  5 C        1.4710     0.5980    -1.0590 C.3   1 <1>   0.1400 
  6 C        1.2820    -0.9930     0.7760 C.3   1 <1>   0.1400 
  7 N        1.3050    -3.8030    -0.2200 N.ar  1 <1>  -0.6200 
  8 C        2.9830    -3.9920    -1.9100 C.ar  1 <1>   0.1600 
  9 C        1.5930     1.3510     0.2590 C.3   1 <1>  -0.1600 
 10 C        0.9830     0.4100     1.2940 C.3   1 <1>  -0.1600 
 11 C        1.5710    -5.0740    -0.0150 C.ar  1 <1>   0.4100 
 12 N        3.2710    -5.2720    -1.7120 N.ar  1 <1>  -0.6200 
 13 N        0.8060    -5.6270     0.9790 N.pl3 1 <1>  -0.8690 
 14 C        2.5390    -5.7830    -0.7440 C.ar  1 <1>   0.1600 
 15 C        0.2090    -6.9840     0.8680 C.3   1 <1>   0.2090 
 16 C       -0.8550    -7.0190    -0.2250 C.3   1 <1>  -0.0170 
 17 C       -1.4760    -8.3950    -0.2600 C.ar  1 <1>   0.4770 
 18 N       -2.6190    -8.5350     0.3830 N.ar  1 <1>  -0.6200 
 19 N       -0.8000    -9.3200    -0.9160 N.ar  1 <1>  -0.6200 
 20 C       -3.1480    -9.7380     0.3550 C.ar  1 <1>   0.1670 
 21 C       -1.3410   -10.5170    -0.9400 C.ar  1 <1>   0.1670 
 22 C       -2.5360   -10.7910    -0.3000 C.ar  1 <1>  -0.1430 
 23 C       -4.4640    -9.8970     1.1020 C.3   1 <1>  -0.0170 
 24 C       -0.5640   -11.5680    -1.7120 C.3   1 <1>  -0.0970 
 25 C       -3.1620   -12.1880    -0.3220 C.3   1 <1>  -0.0170 
 26 C       -5.2080   -11.1920     0.7500 C.3   1 <1>  -0.1600 
 27 C       -4.2400   -12.3770     0.7510 C.3   1 <1>  -0.1600 
 28 H        0.5260     0.8060    -1.5310 H     1 <1>   0.0800 
 29 H        2.2740     0.8450    -1.7330 H     1 <1>   0.0800 
 30 H        2.1720    -1.3880     1.2360 H     1 <1>   0.0800 
 31 H        0.4520    -1.6530     0.9630 H     1 <1>   0.0800 
 32 H        3.5340    -3.4950    -2.6900 H     1 <1>   0.1500 
 33 H        1.0940     2.3030     0.2220 H     1 <1>   0.0800 
 34 H        2.6350     1.5080     0.4750 H     1 <1>   0.0800 
 35 H        1.3870     0.5670     2.2790 H     1 <1>   0.0800 
 36 H       -0.0830     0.5490     1.3280 H     1 <1>   0.0800 
 37 H        0.1570    -4.9330     1.3630 H     1 <1>   0.4000 
 38 H        2.6990    -6.8160    -0.4970 H     1 <1>   0.1500 
 39 H       -0.2410    -7.2460     1.8120 H     1 <1>   0.0800 
 40 H        0.9750    -7.7100     0.6560 H     1 <1>   0.0800 
 41 H       -0.4140    -6.8100    -1.1820 H     1 <1>   0.0800 
 42 H       -1.6150    -6.2870    -0.0240 H     1 <1>   0.0800 
 43 H       -5.0980    -9.0550     0.8870 H     1 <1>   0.0800 
 44 H       -4.2490    -9.8840     2.1550 H     1 <1>   0.0800 
 45 H        0.1040   -11.0960    -2.4100 H     1 <1>   0.0800 
 46 H       -1.2260   -12.2060    -2.2660 H     1 <1>   0.0800 
 47 H        0.0180   -12.1600    -1.0290 H     1 <1>   0.0800 
 48 H       -2.4030   -12.9360    -0.1760 H     1 <1>   0.0800 
 49 H       -3.6030   -12.3450    -1.2910 H     1 <1>   0.0800 
 50 H       -5.6530   -11.0930    -0.2250 H     1 <1>   0.0800 
 51 H       -5.9980   -11.3570     1.4620 H     1 <1>   0.0800 
 52 H       -3.7730   -12.4570     1.7180 H     1 <1>   0.0800 
 53 H       -4.7780   -13.2900     0.5650 H     1 <1>   0.0800 
@<TRIPOS>BOND
  1   1   2  2   
  2   2   3  am  
  3   2   4  1   
  4   3   5  1   
  5   3   6  1   
  6   4   7  ar  
  7   4   8  ar  
  8   5   9  1   
  9   5  28  1   
 10   5  29  1   
 11   6  10  1   
 12   6  30  1   
 13   6  31  1   
 14   7  11  ar  
 15   8  12  ar  
 16   8  32  1   
 17   9  10  1   
 18   9  33  1   
 19   9  34  1   
 20  10  35  1   
 21  10  36  1   
 22  11  13  1   
 23  11  14  ar  
 24  12  14  ar  
 25  13  15  1   
 26  13  37  1   
 27  14  38  1   
 28  15  16  1   
 29  15  39  1   
 30  15  40  1   
 31  16  17  1   
 32  16  41  1   
 33  16  42  1   
 34  17  18  ar  
 35  17  19  ar  
 36  18  20  ar  
 37  19  21  ar  
 38  20  22  ar  
 39  20  23  1   
 40  21  22  ar  
 41  21  24  1   
 42  22  25  1   
 43  23  26  1   
 44  23  43  1   
 45  23  44  1   
 46  24  45  1   
 47  24  46  1   
 48  24  47  1   
 49  25  27  1   
 50  25  48  1   
 51  25  49  1   
 52  26  27  1   
 53  26  50  1   
 54  26  51  1   
 55  27  52  1   
 56  27  53  1   
@<TRIPOS>SUBSTRUCTURE
  1 ****  16 GROUP 4 **** **** 0

# MOE 2024.06 (io_trps.svl 2023.06)
