@<TRIPOS>MOLECULE
NONAME
52 53 1 0 0 
SMALL
USER_CHARGES


@<TRIPOS>ATOM
  1 F       -0.3950     0.6040     0.0150 F     1 <1>  -0.1900 
  2 C       -1.6770     0.8690     0.0180 C.ar  1 <1>   0.1900 
  3 C       -2.1730     2.1400     0.3260 C.ar  1 <1>   0.0830 
  4 C       -2.5210    -0.1760    -0.3040 C.ar  1 <1>  -0.1500 
  5 O       -1.4470     3.2460     0.6580 O.3   1 <1>  -0.3630 
  6 C       -3.5460     2.3170     0.2990 C.ar  1 <1>  -0.1500 
  7 C       -3.8870     0.0360    -0.3230 C.ar  1 <1>  -0.1500 
  8 C       -0.0420     3.2360     0.7810 C.3   1 <1>   0.0400 
  9 C       -4.4340     1.2860    -0.0200 C.ar  1 <1>   0.0530 
 10 C       -5.8590     1.5220    -0.0380 C.2   1 <1>   0.0870 
 11 O       -6.3220     2.7370    -0.1970 O.3   1 <1>  -0.0190 
 12 C       -6.9410     0.7060     0.0720 C.2   1 <1>  -0.0860 
 13 N       -7.6270     2.7930    -0.1960 N.2   1 <1>  -0.4100 
 14 C       -8.0280     1.5820    -0.0240 C.2   1 <1>   0.3720 
 15 C       -7.0130    -0.7090     0.2590 C.2   1 <1>   0.7160 
 16 N       -9.3820     1.2140     0.0600 N.pl3 1 <1>  -0.8210 
 17 O       -6.5160    -1.1940     1.2600 O.2   1 <1>  -0.5700 
 18 N       -7.5980    -1.5480    -0.6710 N.am  1 <1>  -0.6600 
 19 C      -10.3570     2.1940    -0.4960 C.3   1 <1>   0.1290 
 20 C       -9.8050     0.6930     1.3890 C.3   1 <1>   0.1290 
 21 C       -7.8120    -2.9930    -0.3890 C.3   1 <1>   0.1400 
 22 C       -8.1880    -1.0530    -1.9480 C.3   1 <1>   0.0600 
 23 C       -9.2150    -3.2020     0.1920 C.3   1 <1>  -0.1600 
 24 C       -9.4760    -4.6550     0.6270 C.3   1 <1>  -0.0800 
 25 C       -9.4440    -5.6280    -0.5600 C.3   1 <1>  -0.2400 
 26 C      -10.8370    -4.7490     1.3260 C.3   1 <1>  -0.2400 
 27 H       -2.1110    -1.1430    -0.5350 H     1 <1>   0.1500 
 28 H       -3.9340     3.2920     0.5380 H     1 <1>   0.1500 
 29 H       -4.5300    -0.7860    -0.5790 H     1 <1>   0.1500 
 30 H        0.2750     4.2210     1.0750 H     1 <1>   0.0800 
 31 H        0.3920     2.9840    -0.1700 H     1 <1>   0.0800 
 32 H        0.2390     2.5230     1.5360 H     1 <1>   0.0800 
 33 H      -10.0400     2.5090    -1.4750 H     1 <1>   0.0800 
 34 H      -10.4170     3.0590     0.1430 H     1 <1>   0.0800 
 35 H      -11.3290     1.7410    -0.5770 H     1 <1>   0.0800 
 36 H       -9.0330     0.0840     1.8250 H     1 <1>   0.0800 
 37 H      -10.6900     0.0920     1.2770 H     1 <1>   0.0800 
 38 H      -10.0130     1.5110     2.0560 H     1 <1>   0.0800 
 39 H       -7.0750    -3.3440     0.3130 H     1 <1>   0.0800 
 40 H       -7.6910    -3.5540    -1.2990 H     1 <1>   0.0800 
 41 H       -7.7180    -0.1360    -2.2570 H     1 <1>   0.0800 
 42 H       -9.2400    -0.8730    -1.8120 H     1 <1>   0.0800 
 43 H       -8.0520    -1.7830    -2.7270 H     1 <1>   0.0800 
 44 H       -9.9520    -2.9070    -0.5340 H     1 <1>   0.0800 
 45 H       -9.3160    -2.5640     1.0520 H     1 <1>   0.0800 
 46 H       -8.7160    -4.9470     1.3340 H     1 <1>   0.0800 
 47 H      -10.1560    -5.3340    -1.3110 H     1 <1>   0.0800 
 48 H       -9.6890    -6.6230    -0.2300 H     1 <1>   0.0800 
 49 H       -8.4660    -5.6630    -1.0030 H     1 <1>   0.0800 
 50 H      -11.6290    -4.4660     0.6560 H     1 <1>   0.0800 
 51 H      -10.8630    -4.0990     2.1830 H     1 <1>   0.0800 
 52 H      -11.0160    -5.7550     1.6640 H     1 <1>   0.0800 
@<TRIPOS>BOND
  1   1   2  1   
  2   2   3  ar  
  3   2   4  ar  
  4   3   5  1   
  5   3   6  ar  
  6   4   7  ar  
  7   4  27  1   
  8   5   8  1   
  9   6   9  ar  
 10   6  28  1   
 11   7   9  ar  
 12   7  29  1   
 13   8  30  1   
 14   8  31  1   
 15   8  32  1   
 16   9  10  1   
 17  10  11  1   
 18  10  12  2   
 19  11  13  1   
 20  12  14  1   
 21  12  15  1   
 22  13  14  2   
 23  14  16  1   
 24  15  17  2   
 25  15  18  am  
 26  16  19  1   
 27  16  20  1   
 28  18  21  1   
 29  18  22  1   
 30  19  33  1   
 31  19  34  1   
 32  19  35  1   
 33  20  36  1   
 34  20  37  1   
 35  20  38  1   
 36  21  23  1   
 37  21  39  1   
 38  21  40  1   
 39  22  41  1   
 40  22  42  1   
 41  22  43  1   
 42  23  24  1   
 43  23  44  1   
 44  23  45  1   
 45  24  25  1   
 46  24  26  1   
 47  24  46  1   
 48  25  47  1   
 49  25  48  1   
 50  25  49  1   
 51  26  50  1   
 52  26  51  1   
 53  26  52  1   
@<TRIPOS>SUBSTRUCTURE
  1 ****  12 GROUP 4 **** **** 0

# MOE 2024.06 (io_trps.svl 2023.06)
