@<TRIPOS>MOLECULE
NONAME
41 42 1 0 0 
SMALL
USER_CHARGES


@<TRIPOS>ATOM
  1 CL      -0.9680    -1.3650     0.1720 Cl    1 <1>  -0.1770 
  2 C       -1.9050     0.1040     0.0270 C.ar  1 <1>   0.1770 
  3 C       -3.2470     0.0810    -0.3810 C.ar  1 <1>   0.0860 
  4 C       -1.2380     1.2820     0.3270 C.ar  1 <1>  -0.1500 
  5 C       -3.9860    -1.1290    -0.6920 C.2   1 <1>   0.5440 
  6 C       -3.8900     1.3170    -0.4890 C.ar  1 <1>  -0.1500 
  7 C       -1.8970     2.4940     0.2210 C.ar  1 <1>  -0.1500 
  8 O       -4.8460    -1.1130    -1.5500 O.2   1 <1>  -0.5700 
  9 N       -3.7930    -2.2940    -0.0110 N.am  1 <1>  -0.7300 
 10 C       -3.2150     2.4830    -0.1890 C.ar  1 <1>   0.1900 
 11 C       -4.4790    -3.5720    -0.3060 C.3   1 <1>   0.2200 
 12 F       -3.8460     3.6200    -0.2950 F     1 <1>  -0.1900 
 13 C       -5.7950    -3.6290     0.4730 C.3   1 <1>  -0.0800 
 14 C       -3.6880    -4.7500     0.2580 C.3   1 <1>   0.1200 
 15 C       -5.5950    -4.7940     1.4500 C.3   1 <1>   0.1200 
 16 C       -7.0440    -3.6800    -0.4370 C.3   1 <1>  -0.0550 
 17 O       -4.2190    -4.9680     1.5250 O.3   1 <1>  -0.5600 
 18 S       -7.3060    -5.1680    -1.4160 S.o2  1 <1>   1.3330 
 19 O       -6.0250    -5.7030    -1.8230 O.2   1 <1>  -0.6500 
 20 O       -8.3150    -4.9000    -2.4150 O.2   1 <1>  -0.6500 
 21 N       -7.9950    -6.2540    -0.3040 N.am  1 <1>  -0.8490 
 22 C       -9.4430    -6.0820    -0.1390 C.3   1 <1>   0.1160 
 23 C       -7.6990    -7.6510    -0.6360 C.3   1 <1>   0.1160 
 24 H       -0.2090     1.2480     0.6380 H     1 <1>   0.1500 
 25 H       -4.9160     1.3650    -0.8090 H     1 <1>   0.1500 
 26 H       -1.4060     3.4250     0.4470 H     1 <1>   0.1500 
 27 H       -3.1070    -2.3450     0.7470 H     1 <1>   0.3700 
 28 H       -4.6060    -3.6750    -1.3710 H     1 <1>   0.0800 
 29 H       -5.8860    -2.7380     1.0690 H     1 <1>   0.0800 
 30 H       -2.6330    -4.5540     0.3320 H     1 <1>   0.0800 
 31 H       -3.8580    -5.6370    -0.3290 H     1 <1>   0.0800 
 32 H       -6.0090    -5.7190     1.0940 H     1 <1>   0.0800 
 33 H       -5.9760    -4.5780     2.4320 H     1 <1>   0.0800 
 34 H       -6.9720    -2.8490    -1.1130 H     1 <1>   0.0800 
 35 H       -7.9130    -3.5090     0.1660 H     1 <1>   0.0800 
 36 H       -9.8050    -6.7260     0.6440 H     1 <1>   0.0800 
 37 H       -9.9580    -6.3210    -1.0550 H     1 <1>   0.0800 
 38 H       -9.6700    -5.0640     0.1270 H     1 <1>   0.0800 
 39 H       -8.1420    -8.3110     0.0900 H     1 <1>   0.0800 
 40 H       -6.6340    -7.8140    -0.6310 H     1 <1>   0.0800 
 41 H       -8.0800    -7.8920    -1.6150 H     1 <1>   0.0800 
@<TRIPOS>BOND
  1   1   2  1   
  2   2   3  ar  
  3   2   4  ar  
  4   3   5  1   
  5   3   6  ar  
  6   4   7  ar  
  7   4  24  1   
  8   5   8  2   
  9   5   9  am  
 10   6  10  ar  
 11   6  25  1   
 12   7  10  ar  
 13   7  26  1   
 14   9  11  1   
 15   9  27  1   
 16  10  12  1   
 17  11  13  1   
 18  11  14  1   
 19  11  28  1   
 20  13  15  1   
 21  13  16  1   
 22  13  29  1   
 23  14  17  1   
 24  14  30  1   
 25  14  31  1   
 26  15  17  1   
 27  15  32  1   
 28  15  33  1   
 29  16  18  1   
 30  16  34  1   
 31  16  35  1   
 32  18  19  2   
 33  18  20  2   
 34  18  21  am  
 35  21  22  1   
 36  21  23  1   
 37  22  36  1   
 38  22  37  1   
 39  22  38  1   
 40  23  39  1   
 41  23  40  1   
 42  23  41  1   
@<TRIPOS>SUBSTRUCTURE
  1 ****   9 GROUP 4 **** **** 0

# MOE 2024.06 (io_trps.svl 2023.06)
