@<TRIPOS>MOLECULE
NONAME
43 45 1 0 0 
SMALL
USER_CHARGES


@<TRIPOS>ATOM
  1 CL      -1.2800    -1.5680     3.0640 Cl    1 <1>  -0.1770 
  2 C       -1.7670    -1.4740     1.3850 C.ar  1 <1>   0.1770 
  3 C       -2.3180    -2.5840     0.7490 C.ar  1 <1>   0.0820 
  4 C       -1.5850    -0.2760     0.7270 C.ar  1 <1>  -0.1500 
  5 O       -2.4730    -3.7270     1.4560 O.3   1 <1>  -0.3630 
  6 C       -2.7210    -2.5030    -0.5970 C.ar  1 <1>   0.0860 
  7 C       -1.9690    -0.2000    -0.5960 C.ar  1 <1>   0.1770 
  8 C       -1.3880    -4.6310     1.4710 C.3   1 <1>   0.0400 
  9 C       -3.3120    -3.6110    -1.3280 C.2   1 <1>   0.5440 
 10 C       -2.5240    -1.2810    -1.2490 C.ar  1 <1>  -0.1500 
 11 CL      -1.7480     1.3020    -1.4570 Cl    1 <1>  -0.1770 
 12 O       -3.2480    -3.6610    -2.5410 O.2   1 <1>  -0.5700 
 13 N       -3.9380    -4.6330    -0.6830 N.am  1 <1>  -0.7300 
 14 C       -4.2830    -5.9340    -1.2930 C.3   1 <1>   0.2200 
 15 C       -5.3190    -6.6280    -0.4260 C.3   1 <1>  -0.0800 
 16 C       -3.0940    -6.8810    -1.1670 C.3   1 <1>   0.1200 
 17 C       -4.4490    -7.2880     0.6520 C.3   1 <1>   0.1200 
 18 C       -6.1310    -7.6600    -1.2320 C.3   1 <1>  -0.0160 
 19 O       -3.1600    -7.4160     0.1220 O.3   1 <1>  -0.5600 
 20 C       -7.1840    -8.3360    -0.3690 C.ar  1 <1>  -0.1430 
 21 C       -8.3380    -7.6830     0.0130 C.ar  1 <1>  -0.1500 
 22 C       -7.0440    -9.6350     0.0780 C.ar  1 <1>  -0.1500 
 23 C       -9.2670    -8.3380     0.8050 C.ar  1 <1>   0.1600 
 24 C       -8.0330   -10.1980     0.8670 C.ar  1 <1>   0.1600 
 25 N       -9.1410    -9.5800     1.2420 N.ar  1 <1>  -0.6200 
 26 H       -1.1570     0.5730     1.2270 H     1 <1>   0.1500 
 27 H       -1.6900    -5.5150     2.0050 H     1 <1>   0.0800 
 28 H       -0.5520    -4.1700     1.9670 H     1 <1>   0.0800 
 29 H       -1.1290    -4.8900     0.4590 H     1 <1>   0.0800 
 30 H       -2.8090    -1.1770    -2.2820 H     1 <1>   0.1500 
 31 H       -3.8080    -4.6690     0.3340 H     1 <1>   0.3700 
 32 H       -4.5950    -5.7970    -2.3160 H     1 <1>   0.0800 
 33 H       -6.0000    -5.9180     0.0090 H     1 <1>   0.0800 
 34 H       -2.1520    -6.3830    -1.3090 H     1 <1>   0.0800 
 35 H       -3.1810    -7.6950    -1.8650 H     1 <1>   0.0800 
 36 H       -4.8040    -8.2590     0.9470 H     1 <1>   0.0800 
 37 H       -4.3790    -6.6570     1.5220 H     1 <1>   0.0800 
 38 H       -5.4770    -8.4050    -1.6530 H     1 <1>   0.0800 
 39 H       -6.6250    -7.1650    -2.0510 H     1 <1>   0.0800 
 40 H       -8.5260    -6.6710    -0.2970 H     1 <1>   0.1500 
 41 H       -6.1750   -10.2150    -0.1770 H     1 <1>   0.1500 
 42 H      -10.1610    -7.8120     1.0930 H     1 <1>   0.1500 
 43 H       -7.9060   -11.2120     1.2070 H     1 <1>   0.1500 
@<TRIPOS>BOND
  1   1   2  1   
  2   2   3  ar  
  3   2   4  ar  
  4   3   5  1   
  5   3   6  ar  
  6   4   7  ar  
  7   4  26  1   
  8   5   8  1   
  9   6   9  1   
 10   6  10  ar  
 11   7  10  ar  
 12   7  11  1   
 13   8  27  1   
 14   8  28  1   
 15   8  29  1   
 16   9  12  2   
 17   9  13  am  
 18  10  30  1   
 19  13  14  1   
 20  13  31  1   
 21  14  15  1   
 22  14  16  1   
 23  14  32  1   
 24  15  17  1   
 25  15  18  1   
 26  15  33  1   
 27  16  19  1   
 28  16  34  1   
 29  16  35  1   
 30  17  19  1   
 31  17  36  1   
 32  17  37  1   
 33  18  20  1   
 34  18  38  1   
 35  18  39  1   
 36  20  21  ar  
 37  20  22  ar  
 38  21  23  ar  
 39  21  40  1   
 40  22  24  ar  
 41  22  41  1   
 42  23  25  ar  
 43  23  42  1   
 44  24  25  ar  
 45  24  43  1   
@<TRIPOS>SUBSTRUCTURE
  1 ****  13 GROUP 4 **** **** 0

# MOE 2024.06 (io_trps.svl 2023.06)
