@<TRIPOS>MOLECULE
NONAME
41 43 1 0 0 
SMALL
USER_CHARGES


@<TRIPOS>ATOM
  1 O       -0.6390     0.8340    -0.8100 O.2   1 <1>  -0.5700 
  2 C       -0.3700     2.0010    -0.5770 C.2   1 <1>   0.7150 
  3 N       -1.3100     2.9670    -0.8860 N.am  1 <1>  -0.6600 
  4 C        0.9120     2.3510     0.0000 C.2   1 <1>   0.0550 
  5 C       -2.4930     2.6700    -1.7360 C.3   1 <1>   0.1400 
  6 C       -1.3920     4.2860    -0.2060 C.3   1 <1>   0.1400 
  7 O        1.4470     1.6280     0.9810 O.3   1 <1>  -0.2800 
  8 C        1.7680     3.3730    -0.2890 C.2   1 <1>  -0.1500 
  9 C       -3.7540     2.6780    -0.8690 C.3   1 <1>  -0.1600 
 10 C       -2.6410     4.3140     0.6790 C.3   1 <1>  -0.1600 
 11 C        2.6010     2.1550     1.3210 C.2   1 <1>  -0.0100 
 12 C        2.8600     3.2450     0.5690 C.2   1 <1>  -0.1500 
 13 C       -3.9290     4.0020    -0.1020 C.3   1 <1>   0.2800 
 14 O       -4.0670     5.0230    -1.0600 O.3   1 <1>  -0.5600 
 15 C       -5.1260     3.9490     0.8750 C.3   1 <1>  -0.1600 
 16 C       -5.2760     5.7110    -1.1970 C.3   1 <1>   0.1200 
 17 C       -6.5050     4.0180     0.1940 C.3   1 <1>   0.2800 
 18 C       -6.4430     4.7260    -1.1630 C.3   1 <1>  -0.1600 
 19 O       -7.3100     4.7790     1.0100 O.3   1 <1>  -0.6800 
 20 C       -7.1970     2.6590     0.0920 C.3   1 <1>  -0.2400 
 21 H       -2.3860     1.7130    -2.2180 H     1 <1>   0.0800 
 22 H       -2.5720     3.4210    -2.5030 H     1 <1>   0.0800 
 23 H       -1.4500     5.0630    -0.9500 H     1 <1>   0.0800 
 24 H       -0.5250     4.4650     0.4040 H     1 <1>   0.0800 
 25 H        1.6460     4.1370    -1.0370 H     1 <1>   0.1500 
 26 H       -3.6860     1.8610    -0.1730 H     1 <1>   0.0800 
 27 H       -4.6010     2.4950    -1.4990 H     1 <1>   0.0800 
 28 H       -2.7250     5.2820     1.1380 H     1 <1>   0.0800 
 29 H       -2.5140     3.5920     1.4660 H     1 <1>   0.0800 
 30 H        3.1740     1.6930     2.1050 H     1 <1>   0.1500 
 31 H        3.7180     3.8940     0.6010 H     1 <1>   0.1500 
 32 H       -5.0210     4.7750     1.5550 H     1 <1>   0.0800 
 33 H       -5.0570     3.0560     1.4700 H     1 <1>   0.0800 
 34 H       -5.2470     6.2340    -2.1370 H     1 <1>   0.0800 
 35 H       -5.3480     6.4320    -0.4010 H     1 <1>   0.0800 
 36 H       -6.2950     4.0130    -1.9530 H     1 <1>   0.0800 
 37 H       -7.3710     5.2320    -1.3660 H     1 <1>   0.0800 
 38 H       -6.9320     5.6710     1.1090 H     1 <1>   0.4000 
 39 H       -6.6270     1.9840    -0.5160 H     1 <1>   0.0800 
 40 H       -8.1710     2.7720    -0.3500 H     1 <1>   0.0800 
 41 H       -7.3070     2.2230     1.0690 H     1 <1>   0.0800 
@<TRIPOS>BOND
  1   1   2  2   
  2   2   3  am  
  3   2   4  1   
  4   3   5  1   
  5   3   6  1   
  6   4   7  1   
  7   4   8  2   
  8   5   9  1   
  9   5  21  1   
 10   5  22  1   
 11   6  10  1   
 12   6  23  1   
 13   6  24  1   
 14   7  11  1   
 15   8  12  1   
 16   8  25  1   
 17   9  13  1   
 18   9  26  1   
 19   9  27  1   
 20  10  13  1   
 21  10  28  1   
 22  10  29  1   
 23  11  12  2   
 24  11  30  1   
 25  12  31  1   
 26  13  14  1   
 27  13  15  1   
 28  14  16  1   
 29  15  17  1   
 30  15  32  1   
 31  15  33  1   
 32  16  18  1   
 33  16  34  1   
 34  16  35  1   
 35  17  18  1   
 36  17  19  1   
 37  17  20  1   
 38  18  36  1   
 39  18  37  1   
 40  19  38  1   
 41  20  39  1   
 42  20  40  1   
 43  20  41  1   
@<TRIPOS>SUBSTRUCTURE
  1 ****  10 GROUP 4 **** **** 0

# MOE 2024.06 (io_trps.svl 2023.06)
