@<TRIPOS>MOLECULE
NONAME
40 41 1 0 0 
SMALL
USER_CHARGES


@<TRIPOS>ATOM
  1 S        1.5230    -0.3580    -1.2220 S.3   1 <1>  -0.0800 
  2 C        3.1770     0.1470    -0.9630 C.2   1 <1>   0.1980 
  3 C        1.0750     0.4490     0.2510 C.2   1 <1>  -0.1100 
  4 N        3.3580     0.8350     0.0920 N.2   1 <1>  -0.5650 
  5 C        4.1990    -0.2730    -1.9940 C.3   1 <1>  -0.0600 
  6 C        2.1680     1.0110     0.7900 C.2   1 <1>   0.0460 
  7 C        2.2120     1.8090     2.0850 C.3   1 <1>   0.0820 
  8 C        2.5020     3.2860     1.8760 C.2   1 <1>   0.5690 
  9 O        2.0630     4.0650     2.6880 O.2   1 <1>  -0.5700 
 10 N        3.2560     3.6510     0.8030 N.am  1 <1>  -0.4930 
 11 C        3.7710     4.9030     0.3830 C.2   1 <1>   0.0630 
 12 C        3.2240     6.1890     0.4590 C.2   1 <1>   0.1080 
 13 C        4.9600     5.0730    -0.2360 C.2   1 <1>  -0.3320 
 14 N        4.0050     7.0840    -0.0610 N.2   1 <1>  -0.7070 
 15 C        1.8810     6.5670     1.0420 C.3   1 <1>  -0.0590 
 16 N        5.0810     6.4010    -0.4860 N.pl3 1 <1>   0.3140 
 17 C        6.0060     4.0290    -0.6030 C.3   1 <1>  -0.0600 
 18 C        6.2100     7.0970    -1.1380 C.3   1 <1>   0.0960 
 19 C        7.2700     7.5120    -0.1070 C.3   1 <1>  -0.1600 
 20 C        8.4520     8.2240    -0.7750 C.3   1 <1>  -0.2400 
 21 H        0.0430     0.4150     0.5500 H     1 <1>   0.1500 
 22 H        4.2330    -1.3450    -2.0560 H     1 <1>   0.0800 
 23 H        5.1700     0.0920    -1.7140 H     1 <1>   0.0800 
 24 H        3.9350     0.1300    -2.9540 H     1 <1>   0.0800 
 25 H        2.9690     1.4010     2.7270 H     1 <1>   0.0800 
 26 H        1.2680     1.7200     2.5890 H     1 <1>   0.0800 
 27 H        3.5740     2.8540     0.2380 H     1 <1>   0.3700 
 28 H        1.1560     5.8070     0.8230 H     1 <1>   0.0800 
 29 H        1.5490     7.4980     0.6220 H     1 <1>   0.0800 
 30 H        1.9720     6.6760     2.1070 H     1 <1>   0.0800 
 31 H        5.7000     3.0520    -0.2760 H     1 <1>   0.0800 
 32 H        6.9440     4.2630    -0.1320 H     1 <1>   0.0800 
 33 H        6.1440     4.0020    -1.6690 H     1 <1>   0.0800 
 34 H        5.8200     7.9690    -1.6320 H     1 <1>   0.0800 
 35 H        6.6360     6.4470    -1.8780 H     1 <1>   0.0800 
 36 H        7.6280     6.6410     0.4130 H     1 <1>   0.0800 
 37 H        6.8170     8.1730     0.6120 H     1 <1>   0.0800 
 38 H        8.9320     7.5760    -1.4870 H     1 <1>   0.0800 
 39 H        9.1750     8.5090    -0.0310 H     1 <1>   0.0800 
 40 H        8.1180     9.1120    -1.2820 H     1 <1>   0.0800 
@<TRIPOS>BOND
  1   1   2  1   
  2   1   3  1   
  3   2   4  2   
  4   2   5  1   
  5   3   6  2   
  6   3  21  1   
  7   4   6  1   
  8   5  22  1   
  9   5  23  1   
 10   5  24  1   
 11   6   7  1   
 12   7   8  1   
 13   7  25  1   
 14   7  26  1   
 15   8   9  2   
 16   8  10  am  
 17  10  11  1   
 18  10  27  1   
 19  11  12  1   
 20  11  13  2   
 21  12  14  2   
 22  12  15  1   
 23  13  16  1   
 24  13  17  1   
 25  14  16  1   
 26  15  28  1   
 27  15  29  1   
 28  15  30  1   
 29  16  18  1   
 30  17  31  1   
 31  17  32  1   
 32  17  33  1   
 33  18  19  1   
 34  18  34  1   
 35  18  35  1   
 36  19  20  1   
 37  19  36  1   
 38  19  37  1   
 39  20  38  1   
 40  20  39  1   
 41  20  40  1   
@<TRIPOS>SUBSTRUCTURE
  1 ****  10 GROUP 4 **** **** 0

# MOE 2024.06 (io_trps.svl 2023.06)
