@<TRIPOS>MOLECULE
NONAME
45 47 1 0 0 
SMALL
USER_CHARGES


@<TRIPOS>ATOM
  1 O       -0.3730    -1.2740     0.0100 O.2   1 <1>  -0.5700 
  2 C        0.7700    -1.6640     0.1230 C.2   1 <1>   0.6900 
  3 N        1.3260    -2.5870    -0.7460 N.am  1 <1>  -0.4690 
  4 N        1.5320    -1.1960     1.1440 N.am  1 <1>  -0.4900 
  5 C        2.6240    -3.0460    -0.5510 C.2   1 <1>  -0.0410 
  6 C        0.5320    -3.1160    -1.8990 C.3   1 <1>   0.2010 
  7 C        2.8080    -1.6070     1.3710 C.2   1 <1>   0.6160 
  8 C        3.3690    -2.5800     0.4800 C.2   1 <1>  -0.1240 
  9 C        0.1880    -4.5960    -1.7430 C.2   1 <1>   0.5690 
 10 O        3.4010    -1.1310     2.3180 O.2   1 <1>  -0.5700 
 11 C        4.7930    -3.0620     0.7250 C.3   1 <1>  -0.1020 
 12 O        0.8630    -5.3960    -2.3490 O.2   1 <1>  -0.5700 
 13 N       -0.8520    -5.0050    -0.9500 N.am  1 <1>  -0.6600 
 14 C       -1.7440    -4.1360    -0.1380 C.3   1 <1>   0.1400 
 15 C       -1.2030    -6.4330    -0.7720 C.3   1 <1>   0.1400 
 16 C       -2.8090    -5.0830     0.4150 C.3   1 <1>   0.2000 
 17 C       -2.1610    -6.4660     0.4200 C.3   1 <1>  -0.0800 
 18 O       -3.1930    -4.7310     1.6990 O.3   1 <1>  -0.6800 
 19 C       -3.1860    -7.6090     0.3580 C.3   1 <1>  -0.0170 
 20 C       -2.4960    -8.9630     0.3550 C.ar  1 <1>  -0.1430 
 21 C       -2.2740    -9.6730    -0.8080 C.ar  1 <1>  -0.1500 
 22 C       -2.0520    -9.5520     1.5220 C.ar  1 <1>  -0.1500 
 23 C       -1.6330   -10.9000    -0.7490 C.ar  1 <1>   0.1600 
 24 C       -1.4230   -10.7840     1.4710 C.ar  1 <1>   0.1600 
 25 N       -1.2010   -11.4720     0.3630 N.ar  1 <1>  -0.6200 
 26 H        1.1320    -0.5070     1.7690 H     1 <1>   0.3700 
 27 H        2.9960    -3.7820    -1.2480 H     1 <1>   0.1500 
 28 H       -0.3740    -2.5550    -2.0280 H     1 <1>   0.0800 
 29 H        1.1110    -2.9970    -2.7960 H     1 <1>   0.0800 
 30 H        4.8650    -3.5060     1.7020 H     1 <1>   0.0800 
 31 H        5.4740    -2.2310     0.6760 H     1 <1>   0.0800 
 32 H        5.0860    -3.7920    -0.0090 H     1 <1>   0.0800 
 33 H       -1.1760    -3.6970     0.6630 H     1 <1>   0.0800 
 34 H       -2.1900    -3.3680    -0.7450 H     1 <1>   0.0800 
 35 H       -1.6870    -6.7840    -1.6670 H     1 <1>   0.0800 
 36 H       -0.3230    -7.0270    -0.5880 H     1 <1>   0.0800 
 37 H       -3.6800    -5.0610    -0.2180 H     1 <1>   0.0800 
 38 H       -1.5590    -6.5750     1.3060 H     1 <1>   0.0800 
 39 H       -2.4200    -4.7120     2.2950 H     1 <1>   0.4000 
 40 H       -3.7960    -7.5090    -0.5230 H     1 <1>   0.0800 
 41 H       -3.8400    -7.5460     1.2110 H     1 <1>   0.0800 
 42 H       -2.5900    -9.2880    -1.7600 H     1 <1>   0.1500 
 43 H       -2.1900    -9.0640     2.4690 H     1 <1>   0.1500 
 44 H       -1.4660   -11.4390    -1.6660 H     1 <1>   0.1500 
 45 H       -1.0830   -11.2280     2.3920 H     1 <1>   0.1500 
@<TRIPOS>BOND
  1   1   2  2   
  2   2   3  am  
  3   2   4  am  
  4   3   5  1   
  5   3   6  1   
  6   4   7  am  
  7   4  26  1   
  8   5   8  2   
  9   5  27  1   
 10   6   9  1   
 11   6  28  1   
 12   6  29  1   
 13   7   8  1   
 14   7  10  2   
 15   8  11  1   
 16   9  12  2   
 17   9  13  am  
 18  11  30  1   
 19  11  31  1   
 20  11  32  1   
 21  13  14  1   
 22  13  15  1   
 23  14  16  1   
 24  14  33  1   
 25  14  34  1   
 26  15  17  1   
 27  15  35  1   
 28  15  36  1   
 29  16  17  1   
 30  16  18  1   
 31  16  37  1   
 32  17  19  1   
 33  17  38  1   
 34  18  39  1   
 35  19  20  1   
 36  19  40  1   
 37  19  41  1   
 38  20  21  ar  
 39  20  22  ar  
 40  21  23  ar  
 41  21  42  1   
 42  22  24  ar  
 43  22  43  1   
 44  23  25  ar  
 45  23  44  1   
 46  24  25  ar  
 47  24  45  1   
@<TRIPOS>SUBSTRUCTURE
  1 ****  13 GROUP 4 **** **** 0

# MOE 2024.06 (io_trps.svl 2023.06)
