@<TRIPOS>MOLECULE
NONAME
46 49 1 0 0 
SMALL
USER_CHARGES


@<TRIPOS>ATOM
  1 O        4.4070    -1.6340    -1.8800 O.2   1 <1>  -0.5700 
  2 C        3.4300    -1.6210    -1.1540 C.2   1 <1>   0.5440 
  3 N        3.1930    -0.4430    -0.4930 N.am  1 <1>  -0.6600 
  4 C        2.6070    -2.8010    -0.9420 C.ar  1 <1>   0.0860 
  5 C        3.7500    -0.3180     0.9000 C.3   1 <1>   0.2200 
  6 C        2.9930     0.7940    -1.3120 C.3   1 <1>   0.1400 
  7 C        1.3850    -2.7310    -0.2770 C.ar  1 <1>  -0.1500 
  8 C        3.0330    -4.0620    -1.4090 C.ar  1 <1>  -0.1500 
  9 C        3.0500     0.7680     1.7310 C.3   1 <1>   0.1200 
 10 C        5.2850    -0.0890     0.8740 C.3   1 <1>   0.3430 
 11 C        3.8350     2.0100    -0.8810 C.3   1 <1>  -0.0800 
 12 C        0.6220    -3.8770    -0.0700 C.ar  1 <1>   0.0000 
 13 C        2.2860    -5.2050    -1.2120 C.ar  1 <1>  -0.1500 
 14 O        3.6560     2.0100     1.5300 O.3   1 <1>  -0.5600 
 15 N        5.7860     0.3930    -0.4600 N.4   1 <1>  -0.9590 
 16 C        3.2760     2.6880     0.3800 C.3   1 <1>   0.1200 
 17 C        5.3610     1.7860    -0.8040 C.3   1 <1>   0.3430 
 18 C        1.0800    -5.0950    -0.5370 C.ar  1 <1>   0.1400 
 19 C       -0.6130    -4.1720     0.5420 C.2   1 <1>  -0.1500 
 20 C        7.2570     0.2140    -0.5960 C.3   1 <1>   0.2630 
 21 O        0.2150    -6.0620    -0.2410 O.3   1 <1>  -0.2800 
 22 C       -0.7990    -5.4980     0.4060 C.2   1 <1>  -0.0400 
 23 C       -1.9340    -6.3910     0.8570 C.3   1 <1>  -0.0600 
 24 H        3.5680    -1.2500     1.4070 H     1 <1>   0.0800 
 25 H        3.2180     0.5690    -2.3430 H     1 <1>   0.0800 
 26 H        1.9490     1.0560    -1.2760 H     1 <1>   0.0800 
 27 H        1.0050    -1.7930     0.0860 H     1 <1>   0.1500 
 28 H        3.9690    -4.1330    -1.9360 H     1 <1>   0.1500 
 29 H        3.1660     0.5410     2.7770 H     1 <1>   0.0800 
 30 H        1.9960     0.8260     1.5150 H     1 <1>   0.0800 
 31 H        5.7580    -1.0280     1.1040 H     1 <1>   0.0800 
 32 H        5.5600     0.6090     1.6490 H     1 <1>   0.0800 
 33 H        3.6910     2.7420    -1.6560 H     1 <1>   0.0800 
 34 H        2.6070    -6.1680    -1.5660 H     1 <1>   0.1500 
 35 H        5.3150    -0.2410    -1.1470 H     1 <1>   0.4500 
 36 H        2.2010     2.7620     0.3530 H     1 <1>   0.0800 
 37 H        3.6750     3.6850     0.4640 H     1 <1>   0.0800 
 38 H        5.7770     2.4760    -0.0870 H     1 <1>   0.0800 
 39 H        5.7770     2.0330    -1.7670 H     1 <1>   0.0800 
 40 H       -1.2500    -3.4460     1.0130 H     1 <1>   0.1500 
 41 H        7.7780     0.8320     0.1170 H     1 <1>   0.0800 
 42 H        7.5750     0.4850    -1.5890 H     1 <1>   0.0800 
 43 H        7.5230    -0.8170    -0.4240 H     1 <1>   0.0800 
 44 H       -2.6840    -5.8130     1.3650 H     1 <1>   0.0800 
 45 H       -1.5580    -7.1440     1.5260 H     1 <1>   0.0800 
 46 H       -2.3770    -6.8710     0.0050 H     1 <1>   0.0800 
@<TRIPOS>BOND
  1   1   2  2   
  2   2   3  am  
  3   2   4  1   
  4   3   5  1   
  5   3   6  1   
  6   4   7  ar  
  7   4   8  ar  
  8   5   9  1   
  9   5  10  1   
 10   5  24  1   
 11   6  11  1   
 12   6  25  1   
 13   6  26  1   
 14   7  12  ar  
 15   7  27  1   
 16   8  13  ar  
 17   8  28  1   
 18   9  14  1   
 19   9  29  1   
 20   9  30  1   
 21  10  15  1   
 22  10  31  1   
 23  10  32  1   
 24  11  16  1   
 25  11  17  1   
 26  11  33  1   
 27  12  18  ar  
 28  12  19  1   
 29  13  18  ar  
 30  13  34  1   
 31  14  16  1   
 32  15  17  1   
 33  15  20  1   
 34  15  35  1   
 35  16  36  1   
 36  16  37  1   
 37  17  38  1   
 38  17  39  1   
 39  18  21  1   
 40  19  22  2   
 41  19  40  1   
 42  20  41  1   
 43  20  42  1   
 44  20  43  1   
 45  21  22  1   
 46  22  23  1   
 47  23  44  1   
 48  23  45  1   
 49  23  46  1   
@<TRIPOS>SUBSTRUCTURE
  1 ****   2 GROUP 4 **** **** 0

# MOE 2024.06 (io_trps.svl 2023.06)
