@<TRIPOS>MOLECULE
NONAME
53 55 1 0 0 
SMALL
USER_CHARGES


@<TRIPOS>ATOM
  1 O       -1.5520     0.9810     1.2540 O.2   1 <1>  -0.5700 
  2 C       -2.5260     1.7120     1.1560 C.2   1 <1>   0.7150 
  3 N       -3.7670     1.1100     1.1470 N.am  1 <1>  -0.6600 
  4 C       -2.3820     3.1470     1.0390 C.2   1 <1>   0.0550 
  5 C       -3.9100    -0.3060     1.5960 C.3   1 <1>   0.1400 
  6 C       -4.8210     1.5210     0.1770 C.3   1 <1>   0.1400 
  7 O       -1.2940     3.6870     0.4970 O.3   1 <1>  -0.2800 
  8 C       -3.2200     4.1570     1.4060 C.2   1 <1>  -0.1500 
  9 C       -3.7580    -1.2310     0.3650 C.3   1 <1>   0.4230 
 10 C       -4.7480     0.5960    -1.0490 C.3   1 <1>  -0.1600 
 11 C       -1.4060     5.0000     0.4980 C.2   1 <1>   0.1600 
 12 C       -2.5890     5.3490     1.0550 C.2   1 <1>  -0.1500 
 13 N       -3.7510    -2.6980     0.6850 N.4   1 <1>  -0.9590 
 14 C       -4.8630    -0.9080    -0.6660 C.3   1 <1>  -0.1060 
 15 C       -0.3600     5.8070    -0.0430 C.1   1 <1>  -0.0200 
 16 C       -3.4810    -3.5250    -0.5180 C.3   1 <1>   0.3430 
 17 C       -2.9000    -3.0880     1.8410 C.3   1 <1>   0.2630 
 18 C       -6.2330    -1.2040    -0.0230 C.2   1 <1>   0.9060 
 19 C       -4.6540    -1.7640    -1.9380 C.3   1 <1>  -0.1600 
 20 C        0.5100     6.4810    -0.4980 C.1   1 <1>  -0.2000 
 21 C       -4.5320    -3.2570    -1.5990 C.3   1 <1>  -0.1600 
 22 O       -6.3230    -2.1390     0.7910 O.co2 1 <1>  -0.9000 
 23 O       -7.2000    -0.4980    -0.3030 O.co2 1 <1>  -0.9000 
 24 C        1.6060     7.3080    -1.0700 C.3   1 <1>   0.4800 
 25 O        1.1610     8.6010    -1.1340 O.3   1 <1>  -0.6800 
 26 C        2.8330     7.2940    -0.1660 C.3   1 <1>  -0.2400 
 27 C        1.9380     6.8720    -2.4920 C.3   1 <1>  -0.2400 
 28 H       -3.1510    -0.5180     2.3260 H     1 <1>   0.0800 
 29 H       -4.8720    -0.4350     2.0630 H     1 <1>   0.0800 
 30 H       -5.7910     1.4460     0.6440 H     1 <1>   0.0800 
 31 H       -4.6830     2.5400    -0.1380 H     1 <1>   0.0800 
 32 H       -4.1830     4.0730     1.8780 H     1 <1>   0.1500 
 33 H       -2.8080    -0.9890    -0.0800 H     1 <1>   0.0800 
 34 H       -5.5480     0.8580    -1.7220 H     1 <1>   0.0800 
 35 H       -3.8230     0.7840    -1.5650 H     1 <1>   0.0800 
 36 H       -2.9760     6.3410     1.2030 H     1 <1>   0.1500 
 37 H       -4.7680    -2.8520     0.9270 H     1 <1>   0.4500 
 38 H       -2.5020    -3.2920    -0.9030 H     1 <1>   0.0800 
 39 H       -3.5060    -4.5700    -0.2550 H     1 <1>   0.0800 
 40 H       -1.8730    -2.8200     1.6540 H     1 <1>   0.0800 
 41 H       -2.9620    -4.1510     2.0040 H     1 <1>   0.0800 
 42 H       -3.2360    -2.5890     2.7340 H     1 <1>   0.0800 
 43 H       -5.4850    -1.6150    -2.6080 H     1 <1>   0.0800 
 44 H       -3.7600    -1.4470    -2.4470 H     1 <1>   0.0800 
 45 H       -4.2720    -3.8050    -2.4870 H     1 <1>   0.0800 
 46 H       -5.4840    -3.6330    -1.2620 H     1 <1>   0.0800 
 47 H        1.8640     9.1590    -1.5080 H     1 <1>   0.4000 
 48 H        3.2010     6.2880    -0.0730 H     1 <1>   0.0800 
 49 H        2.5720     7.6480     0.8150 H     1 <1>   0.0800 
 50 H        3.6170     7.9060    -0.5720 H     1 <1>   0.0800 
 51 H        2.2720     5.8500    -2.4880 H     1 <1>   0.0800 
 52 H        2.7160     7.4830    -2.9100 H     1 <1>   0.0800 
 53 H        1.0600     6.9340    -3.1100 H     1 <1>   0.0800 
@<TRIPOS>BOND
  1   1   2  2   
  2   2   3  am  
  3   2   4  1   
  4   3   5  1   
  5   3   6  1   
  6   4   7  1   
  7   4   8  2   
  8   5   9  1   
  9   5  28  1   
 10   5  29  1   
 11   6  10  1   
 12   6  30  1   
 13   6  31  1   
 14   7  11  1   
 15   8  12  1   
 16   8  32  1   
 17   9  13  1   
 18   9  14  1   
 19   9  33  1   
 20  10  14  1   
 21  10  34  1   
 22  10  35  1   
 23  11  12  2   
 24  11  15  1   
 25  12  36  1   
 26  13  16  1   
 27  13  17  1   
 28  13  37  1   
 29  14  18  1   
 30  14  19  1   
 31  15  20  3   
 32  16  21  1   
 33  16  38  1   
 34  16  39  1   
 35  17  40  1   
 36  17  41  1   
 37  17  42  1   
 38  18  22  ar  
 39  18  23  ar  
 40  19  21  1   
 41  19  43  1   
 42  19  44  1   
 43  20  24  1   
 44  21  45  1   
 45  21  46  1   
 46  24  25  1   
 47  24  26  1   
 48  24  27  1   
 49  25  47  1   
 50  26  48  1   
 51  26  49  1   
 52  26  50  1   
 53  27  51  1   
 54  27  52  1   
 55  27  53  1   
@<TRIPOS>SUBSTRUCTURE
  1 ****   2 GROUP 4 **** **** 0

# MOE 2024.06 (io_trps.svl 2023.06)
