@<TRIPOS>MOLECULE
NONAME
48 51 1 0 0 
SMALL
USER_CHARGES


@<TRIPOS>ATOM
  1 F        1.2840     0.8730    -0.6890 F     1 <1>  -0.1900 
  2 C        2.1150    -0.0630    -0.3210 C.ar  1 <1>   0.1900 
  3 C        1.6750    -1.0490     0.5570 C.ar  1 <1>   0.0860 
  4 C        3.3960    -0.0250    -0.8390 C.ar  1 <1>  -0.1500 
  5 C        2.6210    -2.0180     0.8800 C.ar  1 <1>   0.1900 
  6 C        0.3410    -1.0640     1.0900 C.2   1 <1>   0.5440 
  7 C        4.3070    -1.0090    -0.4850 C.ar  1 <1>   0.0830 
  8 F        2.2810    -2.9900     1.6820 F     1 <1>  -0.1900 
  9 C        3.9120    -2.0200     0.3870 C.ar  1 <1>  -0.1500 
 10 O        0.1280    -0.5110     2.1530 O.2   1 <1>  -0.5700 
 11 N       -0.7040    -1.6700     0.4220 N.am  1 <1>  -0.6600 
 12 O        5.5430    -0.9210    -1.0220 O.3   1 <1>  -0.3630 
 13 C       -2.1000    -1.6570     0.9650 C.3   1 <1>   0.1400 
 14 C       -0.6070    -2.2390    -0.9490 C.3   1 <1>   0.1400 
 15 C        6.5620    -1.8440    -0.7040 C.3   1 <1>   0.0400 
 16 C       -3.0300    -0.8310     0.0550 C.3   1 <1>   0.1430 
 17 C       -1.4970    -1.4280    -1.9000 C.3   1 <1>  -0.1600 
 18 C       -4.4370    -0.8950     0.6200 C.ar  1 <1>   0.1670 
 19 C       -2.9500    -1.3590    -1.3950 C.3   1 <1>  -0.1600 
 20 C       -2.7080     0.6860     0.1450 C.3   1 <1>  -0.1600 
 21 N       -5.2460    -1.9310     0.5480 N.ar  1 <1>  -0.6200 
 22 C       -4.7800     0.2680     1.2430 C.ar  1 <1>  -0.1430 
 23 C       -3.6630     1.2810     1.1930 C.3   1 <1>  -0.0170 
 24 C       -6.4250    -1.7450     1.1240 C.ar  1 <1>   0.4770 
 25 C       -6.0280     0.3500     1.8070 C.ar  1 <1>   0.1600 
 26 N       -6.8690    -0.6630     1.7500 N.ar  1 <1>  -0.6200 
 27 C       -7.3860    -2.9070     1.0580 C.3   1 <1>  -0.0970 
 28 H        3.6890     0.7600    -1.5120 H     1 <1>   0.1500 
 29 H        4.5800    -2.8040     0.6890 H     1 <1>   0.1500 
 30 H       -2.1220    -1.2570     1.9640 H     1 <1>   0.0800 
 31 H       -2.4620    -2.6700     1.0160 H     1 <1>   0.0800 
 32 H       -0.9400    -3.2630    -0.9240 H     1 <1>   0.0800 
 33 H        0.4080    -2.2300    -1.3060 H     1 <1>   0.0800 
 34 H        7.4500    -1.5580    -1.2380 H     1 <1>   0.0800 
 35 H        6.2520    -2.8270    -1.0110 H     1 <1>   0.0800 
 36 H        6.7470    -1.8110     0.3550 H     1 <1>   0.0800 
 37 H       -1.4780    -1.8830    -2.8750 H     1 <1>   0.0800 
 38 H       -1.0920    -0.4360    -1.9960 H     1 <1>   0.0800 
 39 H       -3.5420    -0.7410    -2.0470 H     1 <1>   0.0800 
 40 H       -3.3710    -2.3490    -1.4250 H     1 <1>   0.0800 
 41 H       -2.9170     1.1530    -0.8010 H     1 <1>   0.0800 
 42 H       -1.6800     0.8790     0.3950 H     1 <1>   0.0800 
 43 H       -4.0150     2.2550     0.9010 H     1 <1>   0.0800 
 44 H       -3.1800     1.3360     2.1530 H     1 <1>   0.0800 
 45 H       -6.3430     1.2480     2.3090 H     1 <1>   0.1500 
 46 H       -6.8510    -3.8260     0.9060 H     1 <1>   0.0800 
 47 H       -8.0660    -2.7560     0.2420 H     1 <1>   0.0800 
 48 H       -7.9420    -2.9740     1.9740 H     1 <1>   0.0800 
@<TRIPOS>BOND
  1   1   2  1   
  2   2   3  ar  
  3   2   4  ar  
  4   3   5  ar  
  5   3   6  1   
  6   4   7  ar  
  7   4  28  1   
  8   5   8  1   
  9   5   9  ar  
 10   6  10  2   
 11   6  11  am  
 12   7   9  ar  
 13   7  12  1   
 14   9  29  1   
 15  11  13  1   
 16  11  14  1   
 17  12  15  1   
 18  13  16  1   
 19  13  30  1   
 20  13  31  1   
 21  14  17  1   
 22  14  32  1   
 23  14  33  1   
 24  15  34  1   
 25  15  35  1   
 26  15  36  1   
 27  16  18  1   
 28  16  19  1   
 29  16  20  1   
 30  17  19  1   
 31  17  37  1   
 32  17  38  1   
 33  18  21  ar  
 34  18  22  ar  
 35  19  39  1   
 36  19  40  1   
 37  20  23  1   
 38  20  41  1   
 39  20  42  1   
 40  21  24  ar  
 41  22  23  1   
 42  22  25  ar  
 43  23  43  1   
 44  23  44  1   
 45  24  26  ar  
 46  24  27  1   
 47  25  26  ar  
 48  25  45  1   
 49  27  46  1   
 50  27  47  1   
 51  27  48  1   
@<TRIPOS>SUBSTRUCTURE
  1 ****  11 GROUP 4 **** **** 0

# MOE 2024.06 (io_trps.svl 2023.06)
