@<TRIPOS>MOLECULE
NONAME
49 51 1 0 0 
SMALL
USER_CHARGES


@<TRIPOS>ATOM
  1 O        1.7820     0.5740     2.0410 O.3   1 <1>  -0.6800 
  2 C        1.7750     0.1110     0.7280 C.3   1 <1>   0.2000 
  3 C        2.4560    -1.2570     0.7030 C.3   1 <1>  -0.0800 
  4 C        2.7190     0.9870    -0.0990 C.3   1 <1>   0.3430 
  5 C        3.9550    -0.9090     0.7320 C.3   1 <1>   0.3430 
  6 C        2.0650    -2.0610    -0.5570 C.3   1 <1>  -0.0160 
  7 N        4.0850     0.4820     0.2110 N.4   1 <1>  -0.9590 
  8 C        2.6260    -3.4760    -0.5330 C.ar  1 <1>   0.1670 
  9 C        4.7670     1.3950     1.1690 C.3   1 <1>   0.5240 
 10 N        3.9300    -3.5930    -0.7300 N.ar  1 <1>  -0.6200 
 11 C        1.7800    -4.5630    -0.3170 C.ar  1 <1>   0.1600 
 12 C        5.2830     2.5900     0.3760 C.2   1 <1>   0.1080 
 13 C        4.3250    -4.8580    -0.7080 C.ar  1 <1>   0.1600 
 14 N        2.1760    -5.8230    -0.2830 N.ar  1 <1>  -0.6200 
 15 N        5.5600     2.5240    -0.8960 N.2   1 <1>  -0.7070 
 16 C        5.5080     3.8590     0.8970 C.2   1 <1>  -0.1500 
 17 C        3.4760    -5.9360    -0.4900 C.ar  1 <1>   0.1600 
 18 N        5.9830     3.7680    -1.2120 N.pl3 1 <1>   0.3000 
 19 C        5.9560     4.5950    -0.1460 C.2   1 <1>  -0.3320 
 20 C        6.3780     6.0590    -0.2230 C.3   1 <1>   0.1800 
 21 C        5.4840     6.7930    -1.2280 C.3   1 <1>  -0.2400 
 22 C        7.8410     6.1450    -0.6680 C.3   1 <1>  -0.2400 
 23 C        6.2360     6.7290     1.1490 C.3   1 <1>  -0.2400 
 24 H        1.0660     0.1600     2.5690 H     1 <1>   0.4000 
 25 H        0.7630     0.1210     0.3590 H     1 <1>   0.0800 
 26 H        2.1900    -1.8380     1.5690 H     1 <1>   0.0800 
 27 H        2.6030     2.0320     0.1400 H     1 <1>   0.0800 
 28 H        2.5160     0.8410    -1.1460 H     1 <1>   0.0800 
 29 H        4.5400    -1.5910     0.1410 H     1 <1>   0.0800 
 30 H        4.3040    -0.9510     1.7510 H     1 <1>   0.0800 
 31 H        2.4200    -1.5700    -1.4470 H     1 <1>   0.0800 
 32 H        0.9930    -2.1150    -0.6260 H     1 <1>   0.0800 
 33 H        4.6730     0.5590    -0.6400 H     1 <1>   0.4500 
 34 H        4.0870     1.7130     1.9410 H     1 <1>   0.0800 
 35 H        5.6070     0.8950     1.6210 H     1 <1>   0.0800 
 36 H        0.7290    -4.3890    -0.1660 H     1 <1>   0.1500 
 37 H        5.3700    -5.0540    -0.8690 H     1 <1>   0.1500 
 38 H        5.3520     4.1680     1.9160 H     1 <1>   0.1500 
 39 H        3.8890    -6.9300    -0.4880 H     1 <1>   0.1500 
 40 H        6.2880     4.0290    -2.1590 H     1 <1>   0.2700 
 41 H        5.7420     7.8370    -1.2680 H     1 <1>   0.0800 
 42 H        4.4520     6.7100    -0.9370 H     1 <1>   0.0800 
 43 H        5.5940     6.3830    -2.2150 H     1 <1>   0.0800 
 44 H        8.1680     7.1700    -0.6900 H     1 <1>   0.0800 
 45 H        7.9720     5.7300    -1.6510 H     1 <1>   0.0800 
 46 H        8.4680     5.6020     0.0160 H     1 <1>   0.0800 
 47 H        6.5310     7.7620     1.0980 H     1 <1>   0.0800 
 48 H        6.8580     6.2360     1.8740 H     1 <1>   0.0800 
 49 H        5.2150     6.6860     1.4850 H     1 <1>   0.0800 
@<TRIPOS>BOND
  1   1   2  1   
  2   1  24  1   
  3   2   3  1   
  4   2   4  1   
  5   2  25  1   
  6   3   5  1   
  7   3   6  1   
  8   3  26  1   
  9   4   7  1   
 10   4  27  1   
 11   4  28  1   
 12   5   7  1   
 13   5  29  1   
 14   5  30  1   
 15   6   8  1   
 16   6  31  1   
 17   6  32  1   
 18   7   9  1   
 19   7  33  1   
 20   8  10  ar  
 21   8  11  ar  
 22   9  12  1   
 23   9  34  1   
 24   9  35  1   
 25  10  13  ar  
 26  11  14  ar  
 27  11  36  1   
 28  12  15  2   
 29  12  16  1   
 30  13  17  ar  
 31  13  37  1   
 32  14  17  ar  
 33  15  18  1   
 34  16  19  2   
 35  16  38  1   
 36  17  39  1   
 37  18  19  1   
 38  18  40  1   
 39  19  20  1   
 40  20  21  1   
 41  20  22  1   
 42  20  23  1   
 43  21  41  1   
 44  21  42  1   
 45  21  43  1   
 46  22  44  1   
 47  22  45  1   
 48  22  46  1   
 49  23  47  1   
 50  23  48  1   
 51  23  49  1   
@<TRIPOS>SUBSTRUCTURE
  1 ****   7 GROUP 4 **** **** 0

# MOE 2024.06 (io_trps.svl 2023.06)
