@<TRIPOS>MOLECULE
NONAME
51 53 1 0 0 
SMALL
USER_CHARGES


@<TRIPOS>ATOM
  1 O       -0.7990     0.7600    -0.8470 O.2   1 <1>  -0.5700 
  2 C       -1.8970     1.0910    -0.4430 C.2   1 <1>   0.5440 
  3 N       -2.8940     0.1310    -0.3880 N.am  1 <1>  -0.6600 
  4 C       -2.0940     2.4620    -0.0290 C.ar  1 <1>   0.0860 
  5 C       -4.3230     0.2730    -0.8190 C.3   1 <1>   0.2200 
  6 C       -2.4890    -1.2940    -0.2070 C.3   1 <1>   0.0600 
  7 C       -2.7750     2.7730     1.1420 C.ar  1 <1>   0.1600 
  8 C       -1.6100     3.5320    -0.7730 C.ar  1 <1>  -0.1500 
  9 C       -4.6350     1.4260    -1.7830 C.3   1 <1>  -0.1600 
 10 C       -5.2590     0.3980     0.3860 C.3   1 <1>  -0.1600 
 11 N       -3.0840     3.9880     1.5680 N.ar  1 <1>  -0.6200 
 12 C       -1.8800     4.8080    -0.3330 C.ar  1 <1>  -0.1500 
 13 C       -5.8640     2.1690    -1.2370 C.3   1 <1>  -0.0800 
 14 C       -6.2740     1.5090     0.0790 C.3   1 <1>  -0.0800 
 15 C       -2.6300     4.9900     0.8280 C.ar  1 <1>   0.3930 
 16 C       -5.6180     3.6470    -0.9120 C.3   1 <1>  -0.1600 
 17 C       -6.3260     2.6280     1.1320 C.3   1 <1>  -0.1600 
 18 O       -2.9680     6.2090     1.2800 O.3   1 <1>  -0.3630 
 19 C       -6.4000     3.9550     0.3690 C.3   1 <1>   0.4230 
 20 C       -2.2360     7.3670     0.9400 C.3   1 <1>   0.0400 
 21 N       -7.8260     4.3070     0.0670 N.4   1 <1>  -0.9590 
 22 C       -7.9500     5.5070    -0.8210 C.3   1 <1>   0.2630 
 23 C       -8.6140     4.5720     1.3140 C.3   1 <1>   0.2630 
 24 H       -4.5970    -0.6310    -1.3400 H     1 <1>   0.0800 
 25 H       -3.1990    -1.8070     0.4170 H     1 <1>   0.0800 
 26 H       -1.5190    -1.3530     0.2590 H     1 <1>   0.0800 
 27 H       -2.4380    -1.7810    -1.1660 H     1 <1>   0.0800 
 28 H       -3.0840     1.9520     1.7630 H     1 <1>   0.1500 
 29 H       -1.0390     3.3500    -1.6680 H     1 <1>   0.1500 
 30 H       -3.8050     2.0830    -1.9450 H     1 <1>   0.0800 
 31 H       -4.8850     1.0040    -2.7410 H     1 <1>   0.0800 
 32 H       -5.7800    -0.5330     0.5250 H     1 <1>   0.0800 
 33 H       -4.7060     0.5920     1.2840 H     1 <1>   0.0800 
 34 H       -1.5170     5.6460    -0.8950 H     1 <1>   0.1500 
 35 H       -6.6770     2.0880    -1.9400 H     1 <1>   0.0800 
 36 H       -7.2530     1.0750    -0.0400 H     1 <1>   0.0800 
 37 H       -5.8330     4.2850    -1.7470 H     1 <1>   0.0800 
 38 H       -4.5810     3.7840    -0.6850 H     1 <1>   0.0800 
 39 H       -5.4130     2.6430     1.6950 H     1 <1>   0.0800 
 40 H       -7.1160     2.4670     1.8390 H     1 <1>   0.0800 
 41 H       -5.9270     4.7490     0.9280 H     1 <1>   0.0800 
 42 H       -2.5820     8.1750     1.5600 H     1 <1>   0.0800 
 43 H       -2.4060     7.6040    -0.0950 H     1 <1>   0.0800 
 44 H       -1.1910     7.1890     1.1280 H     1 <1>   0.0800 
 45 H       -8.2290     3.4920    -0.4170 H     1 <1>   0.4500 
 46 H       -7.4260     6.3460    -0.3900 H     1 <1>   0.0800 
 47 H       -8.9870     5.7750    -0.9440 H     1 <1>   0.0800 
 48 H       -7.5390     5.3070    -1.7960 H     1 <1>   0.0800 
 49 H       -8.1510     5.3580     1.8880 H     1 <1>   0.0800 
 50 H       -8.6730     3.6880     1.9270 H     1 <1>   0.0800 
 51 H       -9.6180     4.8730     1.0640 H     1 <1>   0.0800 
@<TRIPOS>BOND
  1   1   2  2   
  2   2   3  am  
  3   2   4  1   
  4   3   5  1   
  5   3   6  1   
  6   4   7  ar  
  7   4   8  ar  
  8   5   9  1   
  9   5  10  1   
 10   5  24  1   
 11   6  25  1   
 12   6  26  1   
 13   6  27  1   
 14   7  11  ar  
 15   7  28  1   
 16   8  12  ar  
 17   8  29  1   
 18   9  13  1   
 19   9  30  1   
 20   9  31  1   
 21  10  14  1   
 22  10  32  1   
 23  10  33  1   
 24  11  15  ar  
 25  12  15  ar  
 26  12  34  1   
 27  13  14  1   
 28  13  16  1   
 29  13  35  1   
 30  14  17  1   
 31  14  36  1   
 32  15  18  1   
 33  16  19  1   
 34  16  37  1   
 35  16  38  1   
 36  17  19  1   
 37  17  39  1   
 38  17  40  1   
 39  18  20  1   
 40  19  21  1   
 41  19  41  1   
 42  20  42  1   
 43  20  43  1   
 44  20  44  1   
 45  21  22  1   
 46  21  23  1   
 47  21  45  1   
 48  22  46  1   
 49  22  47  1   
 50  22  48  1   
 51  23  49  1   
 52  23  50  1   
 53  23  51  1   
@<TRIPOS>SUBSTRUCTURE
  1 ****   7 GROUP 4 **** **** 0

# MOE 2024.06 (io_trps.svl 2023.06)
