@<TRIPOS>MOLECULE
NONAME
41 43 1 0 0 
SMALL
USER_CHARGES


@<TRIPOS>ATOM
  1 O        4.2420     2.1590     3.4870 O.co2 1 <1>  -0.9000 
  2 C        3.2740     1.9360     2.7480 C.2   1 <1>   0.9470 
  3 O        2.1160     2.1420     3.1360 O.co2 1 <1>  -0.9000 
  4 C        3.5280     1.6260     1.2710 C.3   1 <1>  -0.2420 
  5 C        3.7310     0.3420     0.5000 C.3   1 <1>  -0.2420 
  6 C        4.4590     2.6640     0.6740 C.3   1 <1>   0.2350 
  7 C        2.3950     1.0400     0.4630 C.3   1 <1>  -0.2000 
  8 C        3.8050    -1.1100     0.9760 C.2   1 <1>   0.9470 
  9 C        4.7610     0.6110    -0.5860 C.3   1 <1>   0.2350 
 10 N        4.8900     2.0940    -0.6340 N.am  1 <1>  -0.6600 
 11 O        2.8040    -1.8350     0.8840 O.co2 1 <1>  -0.9000 
 12 O        4.9050    -1.5790     1.2990 O.co2 1 <1>  -0.9000 
 13 C        5.1990     2.7870    -1.7680 C.2   1 <1>   0.5690 
 14 O        5.5110     2.2290    -2.7980 O.2   1 <1>  -0.5700 
 15 C        5.1400     4.3080    -1.7910 C.3   1 <1>   0.0440 
 16 C        6.3280     4.9590    -1.0920 C.ar  1 <1>  -0.1440 
 17 C        6.1570     5.6990     0.0680 C.ar  1 <1>  -0.1500 
 18 C        7.6010     4.8140    -1.6230 C.ar  1 <1>  -0.1500 
 19 C        7.2460     6.2900     0.6840 C.ar  1 <1>  -0.1500 
 20 C        8.6920     5.4050    -1.0100 C.ar  1 <1>  -0.1500 
 21 C        8.5180     6.1510     0.1530 C.ar  1 <1>   0.0820 
 22 O        9.5290     6.7630     0.8180 O.3   1 <1>  -0.3630 
 23 C       10.8690     6.6030     0.4160 C.3   1 <1>   0.1200 
 24 C       11.7510     7.3650     1.3990 C.3   1 <1>  -0.2400 
 25 H        5.3210     2.7940     1.3070 H     1 <1>   0.0800 
 26 H        3.9430     3.5990     0.5670 H     1 <1>   0.0800 
 27 H        2.0750     1.5270    -0.4380 H     1 <1>   0.1000 
 28 H        1.5790     0.5830     0.9980 H     1 <1>   0.1000 
 29 H        4.4380     0.2130    -1.5320 H     1 <1>   0.0800 
 30 H        5.7100     0.1800    -0.3160 H     1 <1>   0.0800 
 31 H        5.1300     4.6280    -2.8160 H     1 <1>   0.0800 
 32 H        4.2150     4.6330    -1.3560 H     1 <1>   0.0800 
 33 H        5.1800     5.8160     0.5040 H     1 <1>   0.1500 
 34 H        7.7420     4.2310    -2.5170 H     1 <1>   0.1500 
 35 H        7.1160     6.8590     1.5870 H     1 <1>   0.1500 
 36 H        9.6610     5.2710    -1.4490 H     1 <1>   0.1500 
 37 H       11.1040     5.5520     0.4270 H     1 <1>   0.0800 
 38 H       10.9750     7.0000    -0.5790 H     1 <1>   0.0800 
 39 H       11.6200     6.9720     2.3920 H     1 <1>   0.0800 
 40 H       11.4960     8.4100     1.3910 H     1 <1>   0.0800 
 41 H       12.7830     7.2600     1.1200 H     1 <1>   0.0800 
@<TRIPOS>BOND
  1   1   2  ar  
  2   2   3  ar  
  3   2   4  1   
  4   4   5  1   
  5   4   6  1   
  6   4   7  1   
  7   5   7  1   
  8   5   8  1   
  9   5   9  1   
 10   6  10  1   
 11   6  25  1   
 12   6  26  1   
 13   7  27  1   
 14   7  28  1   
 15   8  11  ar  
 16   8  12  ar  
 17   9  10  1   
 18   9  29  1   
 19   9  30  1   
 20  10  13  am  
 21  13  14  2   
 22  13  15  1   
 23  15  16  1   
 24  15  31  1   
 25  15  32  1   
 26  16  17  ar  
 27  16  18  ar  
 28  17  19  ar  
 29  17  33  1   
 30  18  20  ar  
 31  18  34  1   
 32  19  21  ar  
 33  19  35  1   
 34  20  21  ar  
 35  20  36  1   
 36  21  22  1   
 37  22  23  1   
 38  23  24  1   
 39  23  37  1   
 40  23  38  1   
 41  24  39  1   
 42  24  40  1   
 43  24  41  1   
@<TRIPOS>SUBSTRUCTURE
  1 ****   6 GROUP 4 **** **** 0

# MOE 2024.06 (io_trps.svl 2023.06)
