@<TRIPOS>MOLECULE
NONAME
50 52 1 0 0 
SMALL
USER_CHARGES


@<TRIPOS>ATOM
  1 F       -0.2010     1.6490     1.7990 F     1 <1>  -0.3400 
  2 C       -0.6380     2.0920     0.6230 C.3   1 <1>   1.1640 
  3 F        0.0360     1.4140    -0.3030 F     1 <1>  -0.3400 
  4 F       -1.8970     1.6690     0.5290 F     1 <1>  -0.3400 
  5 C       -0.5000     3.6280     0.4620 C.ar  1 <1>   0.1660 
  6 N        0.6910     4.2000     0.5970 N.ar  1 <1>  -0.6200 
  7 C       -1.6000     4.3990     0.1770 C.ar  1 <1>  -0.1500 
  8 C        0.7480     5.5190     0.4430 C.ar  1 <1>   0.7200 
  9 C       -1.4420     5.7610     0.0410 C.ar  1 <1>   0.4100 
 10 N       -0.2650     6.3240     0.1690 N.ar  1 <1>  -0.6200 
 11 N        1.9940     6.1040     0.5840 N.pl3 1 <1>  -0.8380 
 12 N       -2.5250     6.5670    -0.2440 N.pl3 1 <1>  -0.8380 
 13 C        3.2540     5.3120     0.5490 C.3   1 <1>   0.1290 
 14 C        2.1510     7.5700     0.7950 C.3   1 <1>   0.1290 
 15 C       -3.7580     6.5160     0.6000 C.3   1 <1>   0.2090 
 16 C       -2.3370     7.8660    -0.9400 C.3   1 <1>   0.2090 
 17 C       -5.0200     6.7460    -0.2680 C.3   1 <1>   0.0000 
 18 C       -3.5600     8.1590    -1.8160 C.3   1 <1>  -0.1600 
 19 C       -6.3010     6.7080     0.5830 C.3   1 <1>   0.2000 
 20 C       -4.8770     8.0880    -1.0210 C.3   1 <1>  -0.1600 
 21 C       -5.2420     5.5600    -1.2250 C.3   1 <1>  -0.1600 
 22 O       -6.1150     7.3250     1.8210 O.3   1 <1>  -0.5600 
 23 C       -6.6480     5.2250     0.7550 C.3   1 <1>  -0.1600 
 24 C       -5.9560     4.4870    -0.3980 C.3   1 <1>  -0.1600 
 25 C       -7.2880     7.6480     2.4980 C.3   1 <1>   0.0400 
 26 H       -2.5790     3.9810     0.0460 H     1 <1>   0.1500 
 27 H        4.0470     5.8970     0.1180 H     1 <1>   0.0800 
 28 H        3.1270     4.4250    -0.0480 H     1 <1>   0.0800 
 29 H        3.5260     5.0240     1.5490 H     1 <1>   0.0800 
 30 H        3.0120     7.7660     1.4080 H     1 <1>   0.0800 
 31 H        1.2840     7.9750     1.2880 H     1 <1>   0.0800 
 32 H        2.2710     8.0580    -0.1560 H     1 <1>   0.0800 
 33 H       -3.8250     5.5770     1.1180 H     1 <1>   0.0800 
 34 H       -3.6880     7.2900     1.3450 H     1 <1>   0.0800 
 35 H       -2.2090     8.6430    -0.2050 H     1 <1>   0.0800 
 36 H       -1.4530     7.8310    -1.5540 H     1 <1>   0.0800 
 37 H       -3.4540     9.1370    -2.2500 H     1 <1>   0.0800 
 38 H       -3.5800     7.4470    -2.6220 H     1 <1>   0.0800 
 39 H       -7.0920     7.2110     0.0510 H     1 <1>   0.0800 
 40 H       -5.7090     8.2350    -1.6860 H     1 <1>   0.0800 
 41 H       -4.8890     8.8890    -0.3000 H     1 <1>   0.0800 
 42 H       -5.8890     5.8640    -2.0290 H     1 <1>   0.0800 
 43 H       -4.3240     5.1930    -1.6510 H     1 <1>   0.0800 
 44 H       -6.2700     4.8600     1.6940 H     1 <1>   0.0800 
 45 H       -7.7130     5.0820     0.7150 H     1 <1>   0.0800 
 46 H       -5.2350     3.7920    -0.0010 H     1 <1>   0.0800 
 47 H       -6.6620     3.9430    -1.0020 H     1 <1>   0.0800 
 48 H       -7.0190     8.1210     3.4260 H     1 <1>   0.0800 
 49 H       -7.8470     6.7500     2.7000 H     1 <1>   0.0800 
 50 H       -7.8680     8.3300     1.9000 H     1 <1>   0.0800 
@<TRIPOS>BOND
  1   1   2  1   
  2   2   3  1   
  3   2   4  1   
  4   2   5  1   
  5   5   6  ar  
  6   5   7  ar  
  7   6   8  ar  
  8   7   9  ar  
  9   7  26  1   
 10   8  10  ar  
 11   8  11  1   
 12   9  10  ar  
 13   9  12  1   
 14  11  13  1   
 15  11  14  1   
 16  12  15  1   
 17  12  16  1   
 18  13  27  1   
 19  13  28  1   
 20  13  29  1   
 21  14  30  1   
 22  14  31  1   
 23  14  32  1   
 24  15  17  1   
 25  15  33  1   
 26  15  34  1   
 27  16  18  1   
 28  16  35  1   
 29  16  36  1   
 30  17  19  1   
 31  17  20  1   
 32  17  21  1   
 33  18  20  1   
 34  18  37  1   
 35  18  38  1   
 36  19  22  1   
 37  19  23  1   
 38  19  39  1   
 39  20  40  1   
 40  20  41  1   
 41  21  24  1   
 42  21  42  1   
 43  21  43  1   
 44  22  25  1   
 45  23  24  1   
 46  23  44  1   
 47  23  45  1   
 48  24  46  1   
 49  24  47  1   
 50  25  48  1   
 51  25  49  1   
 52  25  50  1   
@<TRIPOS>SUBSTRUCTURE
  1 ****   9 GROUP 4 **** **** 0

# MOE 2024.06 (io_trps.svl 2023.06)
