@<TRIPOS>MOLECULE
NONAME
42 44 1 0 0 
SMALL
USER_CHARGES


@<TRIPOS>ATOM
  1 CL      -0.1570     0.2170     0.4850 Cl    1 <1>  -0.1770 
  2 C       -1.2590     1.3960    -0.1820 C.ar  1 <1>   0.1770 
  3 C       -1.2230     2.7320     0.1990 C.ar  1 <1>  -0.0090 
  4 C       -2.1570     0.9210    -1.1210 C.ar  1 <1>  -0.1500 
  5 S       -0.0580     3.4000     1.4210 S.o2  1 <1>   1.4470 
  6 C       -2.1360     3.5800    -0.4220 C.ar  1 <1>  -0.1500 
  7 C       -3.0650     1.7760    -1.7310 C.ar  1 <1>   0.0730 
  8 O        0.4120     2.4220     2.3710 O.2   1 <1>  -0.6500 
  9 O       -0.6140     4.6380     1.9200 O.2   1 <1>  -0.6500 
 10 N        1.3120     3.8890     0.5370 N.am  1 <1>  -0.8490 
 11 C       -3.0380     3.1150    -1.3650 C.ar  1 <1>  -0.1500 
 12 C       -3.9980     1.2920    -2.7080 C.1   1 <1>   0.4840 
 13 C        2.2170     4.6480     1.4430 C.3   1 <1>   0.1960 
 14 C        2.0320     2.7550    -0.0660 C.3   1 <1>   0.1960 
 15 N       -4.7320     0.9080    -3.4910 N.1   1 <1>  -0.5570 
 16 C        3.4010     5.4040     0.7720 C.3   1 <1>   0.4230 
 17 C        3.1010     3.2070    -1.0850 C.3   1 <1>  -0.0800 
 18 N        3.1920     5.7610    -0.6880 N.4   1 <1>  -0.9590 
 19 C        4.7490     4.6900     1.0040 C.3   1 <1>   0.1200 
 20 C        4.5440     2.9670    -0.6150 C.3   1 <1>   0.1200 
 21 C        2.8510     4.6260    -1.6160 C.3   1 <1>   0.3430 
 22 C        2.1280     6.8080    -0.7990 C.3   1 <1>   0.2630 
 23 O        4.6970     3.3290     0.7150 O.3   1 <1>  -0.5600 
 24 H       -2.1470    -0.1250    -1.3780 H     1 <1>   0.1500 
 25 H       -2.1520     4.6260    -0.1570 H     1 <1>   0.1500 
 26 H       -3.7340     3.8030    -1.8190 H     1 <1>   0.1500 
 27 H        1.6440     5.4010     1.9570 H     1 <1>   0.0800 
 28 H        2.5970     3.9910     2.2100 H     1 <1>   0.0800 
 29 H        2.4630     2.1270     0.7000 H     1 <1>   0.0800 
 30 H        1.3270     2.1510    -0.6070 H     1 <1>   0.0800 
 31 H        3.4950     6.3330     1.3090 H     1 <1>   0.0800 
 32 H        2.9810     2.5610    -1.9370 H     1 <1>   0.0800 
 33 H        4.0740     6.1690    -1.0210 H     1 <1>   0.4500 
 34 H        5.0050     4.7630     2.0470 H     1 <1>   0.0800 
 35 H        5.5440     5.1420     0.4370 H     1 <1>   0.0800 
 36 H        5.2670     3.4920    -1.2170 H     1 <1>   0.0800 
 37 H        4.7660     1.9140    -0.6680 H     1 <1>   0.0800 
 38 H        1.8050     4.6870    -1.8700 H     1 <1>   0.0800 
 39 H        3.4040     4.7520    -2.5330 H     1 <1>   0.0800 
 40 H        1.1830     6.4120    -0.4600 H     1 <1>   0.0800 
 41 H        2.0200     7.1280    -1.8230 H     1 <1>   0.0800 
 42 H        2.3780     7.6660    -0.1970 H     1 <1>   0.0800 
@<TRIPOS>BOND
  1   1   2  1   
  2   2   3  ar  
  3   2   4  ar  
  4   3   5  1   
  5   3   6  ar  
  6   4   7  ar  
  7   4  24  1   
  8   5   8  2   
  9   5   9  2   
 10   5  10  am  
 11   6  11  ar  
 12   6  25  1   
 13   7  11  ar  
 14   7  12  1   
 15  10  13  1   
 16  10  14  1   
 17  11  26  1   
 18  12  15  3   
 19  13  16  1   
 20  13  27  1   
 21  13  28  1   
 22  14  17  1   
 23  14  29  1   
 24  14  30  1   
 25  16  18  1   
 26  16  19  1   
 27  16  31  1   
 28  17  20  1   
 29  17  21  1   
 30  17  32  1   
 31  18  21  1   
 32  18  22  1   
 33  18  33  1   
 34  19  23  1   
 35  19  34  1   
 36  19  35  1   
 37  20  23  1   
 38  20  36  1   
 39  20  37  1   
 40  21  38  1   
 41  21  39  1   
 42  22  40  1   
 43  22  41  1   
 44  22  42  1   
@<TRIPOS>SUBSTRUCTURE
  1 ****  10 GROUP 4 **** **** 0

# MOE 2024.06 (io_trps.svl 2023.06)
