@<TRIPOS>MOLECULE
NONAME
49 52 1 0 0 
SMALL
USER_CHARGES


@<TRIPOS>ATOM
  1 S        0.3190    -0.0090     1.7370 S.3   1 <1>  -0.0800 
  2 C        1.4130    -1.0760     0.8580 C.ar  1 <1>   0.2970 
  3 C        1.0370     1.4070     0.9750 C.2   1 <1>  -0.1400 
  4 N        1.3790    -2.3870     0.9900 N.ar  1 <1>  -0.5670 
  5 C        2.2590    -0.3580     0.0450 C.ar  1 <1>   0.0000 
  6 C        2.0320     1.0680     0.1420 C.2   1 <1>  -0.1810 
  7 C        0.5110     2.7870     1.3010 C.3   1 <1>   0.0200 
  8 C        2.2750    -2.9980     0.2350 C.ar  1 <1>   0.4770 
  9 C        3.1370    -1.1480    -0.7010 C.ar  1 <1>   0.4100 
 10 C        2.8150     2.1330    -0.6130 C.3   1 <1>   0.0210 
 11 C        1.0610     3.7870     0.2690 C.3   1 <1>  -0.1600 
 12 N        3.1460    -2.4610    -0.6060 N.ar  1 <1>  -0.6200 
 13 C        2.2770    -4.5280     0.3260 C.3   1 <1>   0.4870 
 14 N        4.0400    -0.6510    -1.5800 N.pl3 1 <1>  -0.9000 
 15 C        2.5530     3.5380    -0.0330 C.3   1 <1>  -0.1600 
 16 N        0.8790    -5.0880     0.3780 N.4   1 <1>  -0.9590 
 17 C        0.8340    -6.4920     0.9280 C.3   1 <1>   0.3430 
 18 C        0.2030    -4.9600    -0.9440 C.3   1 <1>   0.3430 
 19 C       -0.3810    -7.3190     0.4370 C.3   1 <1>   0.2000 
 20 C       -1.2900    -5.2760    -0.7910 C.3   1 <1>  -0.1600 
 21 O       -0.0350    -7.9150    -0.7710 O.3   1 <1>  -0.6800 
 22 C       -1.6050    -6.4070     0.2260 C.3   1 <1>  -0.0800 
 23 C       -2.8620    -7.2020    -0.1670 C.3   1 <1>   0.1200 
 24 O       -3.9250    -6.3290    -0.3070 O.3   1 <1>  -0.6800 
 25 H       -0.5640     2.7910     1.2780 H     1 <1>   0.0800 
 26 H        0.8340     3.0580     2.2910 H     1 <1>   0.0800 
 27 H        3.8680     1.9290    -0.5490 H     1 <1>   0.0800 
 28 H        2.5210     2.1080    -1.6480 H     1 <1>   0.0800 
 29 H        0.5020     3.6870    -0.6450 H     1 <1>   0.0800 
 30 H        0.9210     4.7900     0.6330 H     1 <1>   0.0800 
 31 H        2.8110    -4.7990     1.2200 H     1 <1>   0.0800 
 32 H        2.8070    -4.9300    -0.5200 H     1 <1>   0.0800 
 33 H        4.7100    -1.2860    -2.0180 H     1 <1>   0.4000 
 34 H        4.2410     0.3450    -1.6590 H     1 <1>   0.4000 
 35 H        3.1110     3.6450     0.8820 H     1 <1>   0.0800 
 36 H        2.9130     4.2820    -0.7230 H     1 <1>   0.0800 
 37 H        0.3690    -4.4500     1.0120 H     1 <1>   0.4500 
 38 H        1.7280    -7.0280     0.6530 H     1 <1>   0.0800 
 39 H        0.8010    -6.4370     2.0030 H     1 <1>   0.0800 
 40 H        0.3230    -3.9640    -1.3430 H     1 <1>   0.0800 
 41 H        0.6430    -5.6600    -1.6370 H     1 <1>   0.0800 
 42 H       -0.5920    -8.1070     1.1400 H     1 <1>   0.0800 
 43 H       -1.8190    -4.3830    -0.5080 H     1 <1>   0.0800 
 44 H       -1.6560    -5.5520    -1.7650 H     1 <1>   0.0800 
 45 H       -0.7220    -8.5470    -1.0700 H     1 <1>   0.4000 
 46 H       -1.8100    -5.9480     1.1780 H     1 <1>   0.0800 
 47 H       -3.1210    -7.9360     0.5780 H     1 <1>   0.0800 
 48 H       -2.7250    -7.6930    -1.1150 H     1 <1>   0.0800 
 49 H       -4.2860    -6.0530     0.5590 H     1 <1>   0.4000 
@<TRIPOS>BOND
  1   1   2  1   
  2   1   3  1   
  3   2   4  ar  
  4   2   5  ar  
  5   3   6  2   
  6   3   7  1   
  7   4   8  ar  
  8   5   6  1   
  9   5   9  ar  
 10   6  10  1   
 11   7  11  1   
 12   7  25  1   
 13   7  26  1   
 14   8  12  ar  
 15   8  13  1   
 16   9  12  ar  
 17   9  14  1   
 18  10  15  1   
 19  10  27  1   
 20  10  28  1   
 21  11  15  1   
 22  11  29  1   
 23  11  30  1   
 24  13  16  1   
 25  13  31  1   
 26  13  32  1   
 27  14  33  1   
 28  14  34  1   
 29  15  35  1   
 30  15  36  1   
 31  16  17  1   
 32  16  18  1   
 33  16  37  1   
 34  17  19  1   
 35  17  38  1   
 36  17  39  1   
 37  18  20  1   
 38  18  40  1   
 39  18  41  1   
 40  19  21  1   
 41  19  22  1   
 42  19  42  1   
 43  20  22  1   
 44  20  43  1   
 45  20  44  1   
 46  21  45  1   
 47  22  23  1   
 48  22  46  1   
 49  23  24  1   
 50  23  47  1   
 51  23  48  1   
 52  24  49  1   
@<TRIPOS>SUBSTRUCTURE
  1 ****   4 GROUP 4 **** **** 0

# MOE 2024.06 (io_trps.svl 2023.06)
