@<TRIPOS>MOLECULE
NONAME
45 48 1 0 0 
SMALL
USER_CHARGES


@<TRIPOS>ATOM
  1 CL       0.4390     3.4210    -4.8210 Cl    1 <1>  -0.1770 
  2 C        0.4890     4.0920    -3.2170 C.ar  1 <1>   0.1770 
  3 C        1.6900     4.4760    -2.6790 C.ar  1 <1>  -0.1500 
  4 C       -0.6970     4.2280    -2.5060 C.ar  1 <1>  -0.1500 
  5 C        1.7280     5.0110    -1.3900 C.ar  1 <1>   0.3610 
  6 C       -0.6700     4.7610    -1.2390 C.ar  1 <1>  -0.1500 
  7 N        2.9240     5.4030    -0.8250 N.ar  1 <1>  -0.1790 
  8 C        0.5390     5.1720    -0.6470 C.ar  1 <1>   0.0000 
  9 C        3.0460     5.9350     0.3930 C.ar  1 <1>   0.4610 
 10 C        0.6380     5.7500     0.6570 C.ar  1 <1>  -0.1430 
 11 N        4.2550     6.3280     0.8370 N.pl3 1 <1>  -0.8380 
 12 C        1.8590     6.1160     1.1410 C.ar  1 <1>  -0.1500 
 13 C       -0.6120     5.9550     1.5050 C.3   1 <1>  -0.0970 
 14 C        4.4700     7.7330     1.3490 C.3   1 <1>   0.2090 
 15 C        5.5300     5.5580     0.6060 C.3   1 <1>   0.2090 
 16 C        5.1890     8.6780     0.3330 C.3   1 <1>   0.2200 
 17 C        6.3790     6.1360    -0.5420 C.3   1 <1>  -0.0190 
 18 N        5.0900     8.2070    -1.0970 N.am  1 <1>  -0.6600 
 19 C        6.6580     8.9230     0.7230 C.3   1 <1>   0.1200 
 20 C        5.4910     6.9500    -1.4580 C.2   1 <1>   0.5690 
 21 C        7.6190     6.9140    -0.0730 C.3   1 <1>   0.1200 
 22 C        4.3580     9.1040    -2.0350 C.3   1 <1>   0.0600 
 23 O        7.3270     7.7320     1.0140 O.3   1 <1>  -0.5600 
 24 O        5.0140     6.3720    -2.4110 O.2   1 <1>  -0.5700 
 25 H        2.5900     4.3620    -3.2570 H     1 <1>   0.1500 
 26 H       -1.6200     3.9120    -2.9620 H     1 <1>   0.1500 
 27 H       -1.5960     4.8620    -0.7000 H     1 <1>   0.1500 
 28 H        3.7480     5.4630    -1.4360 H     1 <1>   0.4570 
 29 H        1.9630     6.5420     2.1220 H     1 <1>   0.1500 
 30 H       -0.3690     6.3980     2.4550 H     1 <1>   0.0800 
 31 H       -1.0940     5.0110     1.6920 H     1 <1>   0.0800 
 32 H       -1.3030     6.6070     1.0000 H     1 <1>   0.0800 
 33 H        3.5190     8.1770     1.5840 H     1 <1>   0.0800 
 34 H        5.0260     7.6970     2.2720 H     1 <1>   0.0800 
 35 H        6.1050     5.5360     1.5180 H     1 <1>   0.0800 
 36 H        5.2820     4.5360     0.3720 H     1 <1>   0.0800 
 37 H        4.7060     9.6370     0.3990 H     1 <1>   0.0800 
 38 H        6.7570     5.3110    -1.1180 H     1 <1>   0.0800 
 39 H        6.6920     9.5190     1.6180 H     1 <1>   0.0800 
 40 H        7.1860     9.4520    -0.0520 H     1 <1>   0.0800 
 41 H        8.0410     7.5070    -0.8670 H     1 <1>   0.0800 
 42 H        8.3700     6.2190     0.2620 H     1 <1>   0.0800 
 43 H        4.8230    10.0750    -2.0510 H     1 <1>   0.0800 
 44 H        3.3330     9.2070    -1.7230 H     1 <1>   0.0800 
 45 H        4.3780     8.7040    -3.0350 H     1 <1>   0.0800 
@<TRIPOS>BOND
  1   1   2  1   
  2   2   3  ar  
  3   2   4  ar  
  4   3   5  ar  
  5   3  25  1   
  6   4   6  ar  
  7   4  26  1   
  8   5   7  ar  
  9   5   8  ar  
 10   6   8  ar  
 11   6  27  1   
 12   7   9  ar  
 13   7  28  1   
 14   8  10  ar  
 15   9  11  1   
 16   9  12  ar  
 17  10  12  ar  
 18  10  13  1   
 19  11  14  1   
 20  11  15  1   
 21  12  29  1   
 22  13  30  1   
 23  13  31  1   
 24  13  32  1   
 25  14  16  1   
 26  14  33  1   
 27  14  34  1   
 28  15  17  1   
 29  15  35  1   
 30  15  36  1   
 31  16  18  1   
 32  16  19  1   
 33  16  37  1   
 34  17  20  1   
 35  17  21  1   
 36  17  38  1   
 37  18  20  am  
 38  18  22  1   
 39  19  23  1   
 40  19  39  1   
 41  19  40  1   
 42  20  24  2   
 43  21  23  1   
 44  21  41  1   
 45  21  42  1   
 46  22  43  1   
 47  22  44  1   
 48  22  45  1   
@<TRIPOS>SUBSTRUCTURE
  1 ****   7 GROUP 4 **** **** 0

# MOE 2024.06 (io_trps.svl 2023.06)
