@<TRIPOS>MOLECULE
NONAME
30 30 1 0 0 
SMALL
USER_CHARGES


@<TRIPOS>ATOM
  1 O       -0.0750     0.1940    -0.2310 O.3   1 <1>  -0.5600 
  2 C       -1.1760     0.9430     0.1570 C.3   1 <1>   0.5600 
  3 C        0.0210    -0.9550     0.5420 C.3   1 <1>   0.2000 
  4 O       -1.7310     0.3050     1.2530 O.3   1 <1>  -0.5600 
  5 C       -0.7030     2.3210     0.5850 C.3   1 <1>  -0.2400 
  6 C       -2.1870     0.9760    -0.9800 C.3   1 <1>  -0.2400 
  7 C        0.4510    -2.1790    -0.3220 C.3   1 <1>   0.0000 
  8 C       -1.3240    -1.0120     1.2460 C.3   1 <1>   0.1200 
  9 C        0.6750    -3.4260     0.5660 C.3   1 <1>   0.1200 
 10 C        1.8020    -1.8590    -0.9960 C.3   1 <1>  -0.2400 
 11 C       -0.5590    -2.4960    -1.4470 C.3   1 <1>  -0.2400 
 12 O       -0.4970    -3.8380     1.1890 O.3   1 <1>  -0.6800 
 13 H        0.7760    -0.7650     1.2850 H     1 <1>   0.0800 
 14 H        0.0050     2.2310     1.3870 H     1 <1>   0.0800 
 15 H       -1.5410     2.9060     0.9150 H     1 <1>   0.0800 
 16 H       -0.2390     2.8200    -0.2450 H     1 <1>   0.0800 
 17 H       -2.4900    -0.0200    -1.2400 H     1 <1>   0.0800 
 18 H       -1.7480     1.4480    -1.8390 H     1 <1>   0.0800 
 19 H       -3.0490     1.5410    -0.6800 H     1 <1>   0.0800 
 20 H       -1.2440    -1.3750     2.2540 H     1 <1>   0.0800 
 21 H       -2.0470    -1.5920     0.7030 H     1 <1>   0.0800 
 22 H        1.4010    -3.2160     1.3330 H     1 <1>   0.0800 
 23 H        1.0310    -4.2460    -0.0340 H     1 <1>   0.0800 
 24 H        2.5460    -1.6130    -0.2590 H     1 <1>   0.0800 
 25 H        1.7020    -1.0190    -1.6610 H     1 <1>   0.0800 
 26 H        2.1530    -2.6980    -1.5700 H     1 <1>   0.0800 
 27 H       -1.5140    -2.7830    -1.0460 H     1 <1>   0.0800 
 28 H       -0.2020    -3.3070    -2.0560 H     1 <1>   0.0800 
 29 H       -0.7000    -1.6370    -2.0780 H     1 <1>   0.0800 
 30 H       -0.3560    -4.6770     1.6690 H     1 <1>   0.4000 
@<TRIPOS>BOND
  1   1   2  1   
  2   1   3  1   
  3   2   4  1   
  4   2   5  1   
  5   2   6  1   
  6   3   7  1   
  7   3   8  1   
  8   3  13  1   
  9   4   8  1   
 10   5  14  1   
 11   5  15  1   
 12   5  16  1   
 13   6  17  1   
 14   6  18  1   
 15   6  19  1   
 16   7   9  1   
 17   7  10  1   
 18   7  11  1   
 19   8  20  1   
 20   8  21  1   
 21   9  12  1   
 22   9  22  1   
 23   9  23  1   
 24  10  24  1   
 25  10  25  1   
 26  10  26  1   
 27  11  27  1   
 28  11  28  1   
 29  11  29  1   
 30  12  30  1   
@<TRIPOS>SUBSTRUCTURE
  1 ****   3 GROUP 4 **** **** 0

# MOE 2024.06 (io_trps.svl 2023.06)
