@<TRIPOS>MOLECULE
NONAME
44 47 1 0 0 
SMALL
USER_CHARGES


@<TRIPOS>ATOM
  1 O        0.4940     0.6430     0.4410 O.3   1 <1>  -0.0190 
  2 N        1.4390    -0.2460     0.3300 N.2   1 <1>  -0.4100 
  3 C        0.8800     1.8210     0.0290 C.2   1 <1>  -0.0400 
  4 C        2.4510     0.3700    -0.1630 C.2   1 <1>   0.1080 
  5 C        2.1540     1.7120    -0.3830 C.2   1 <1>  -0.1500 
  6 C       -0.1070     2.9760     0.0880 C.3   1 <1>   0.0200 
  7 C        3.7820    -0.2840    -0.4630 C.3   1 <1>  -0.0590 
  8 C        0.5440     4.3390    -0.2090 C.3   1 <1>  -0.0800 
  9 C       -0.4370     5.5080    -0.3210 C.3   1 <1>   0.2000 
 10 C        1.5260     4.7920     0.8720 C.3   1 <1>   0.2090 
 11 O       -1.4030     5.3800     0.6870 O.3   1 <1>  -0.5600 
 12 C        0.4500     6.7400    -0.0820 C.3   1 <1>   0.2090 
 13 N        1.6230     6.2620     0.7090 N.pl3 1 <1>  -0.8380 
 14 C       -2.5470     6.1560     0.5170 C.3   1 <1>   0.0400 
 15 C        2.8390     6.9300     0.7110 C.ar  1 <1>   0.4100 
 16 N        3.0050     7.8950    -0.1510 N.ar  1 <1>  -0.6200 
 17 C        3.8610     6.5590     1.6340 C.ar  1 <1>   0.1600 
 18 C        4.2250     8.4860    -0.1060 C.ar  1 <1>   0.3100 
 19 N        5.0400     7.0890     1.7050 N.ar  1 <1>  -0.6200 
 20 C        5.2370     8.0890     0.8050 C.ar  1 <1>   0.3100 
 21 C        4.5040     9.5320    -0.9990 C.ar  1 <1>  -0.1500 
 22 C        6.4730     8.7500     0.7760 C.ar  1 <1>  -0.1500 
 23 C        5.7220    10.1640    -1.0070 C.ar  1 <1>  -0.1500 
 24 C        6.7170     9.7680    -0.1100 C.ar  1 <1>  -0.1500 
 25 H        2.8200     2.4470    -0.7930 H     1 <1>   0.1500 
 26 H       -0.8910     2.7890    -0.6240 H     1 <1>   0.0800 
 27 H       -0.5560     2.9930     1.0670 H     1 <1>   0.0800 
 28 H        3.9920    -0.2160    -1.5140 H     1 <1>   0.0800 
 29 H        3.7530    -1.3200    -0.1800 H     1 <1>   0.0800 
 30 H        4.5620     0.2060     0.0890 H     1 <1>   0.0800 
 31 H        1.0820     4.2750    -1.1380 H     1 <1>   0.0800 
 32 H       -0.9260     5.5320    -1.2800 H     1 <1>   0.0800 
 33 H        2.4840     4.3170     0.7560 H     1 <1>   0.0800 
 34 H        1.1300     4.5780     1.8510 H     1 <1>   0.0800 
 35 H       -0.0700     7.5170     0.4490 H     1 <1>   0.0800 
 36 H        0.7860     7.1200    -1.0300 H     1 <1>   0.0800 
 37 H       -3.2060     5.9630     1.3450 H     1 <1>   0.0800 
 38 H       -3.0330     5.8770    -0.4020 H     1 <1>   0.0800 
 39 H       -2.2810     7.1980     0.5050 H     1 <1>   0.0800 
 40 H        3.6140     5.7780     2.3270 H     1 <1>   0.1500 
 41 H        3.7270     9.8240    -1.6820 H     1 <1>   0.1500 
 42 H        7.2250     8.4320     1.4750 H     1 <1>   0.1500 
 43 H        5.9230    10.9650    -1.6980 H     1 <1>   0.1500 
 44 H        7.6700    10.2690    -0.1240 H     1 <1>   0.1500 
@<TRIPOS>BOND
  1   1   2  1   
  2   1   3  1   
  3   2   4  2   
  4   3   5  2   
  5   3   6  1   
  6   4   5  1   
  7   4   7  1   
  8   5  25  1   
  9   6   8  1   
 10   6  26  1   
 11   6  27  1   
 12   7  28  1   
 13   7  29  1   
 14   7  30  1   
 15   8   9  1   
 16   8  10  1   
 17   8  31  1   
 18   9  11  1   
 19   9  12  1   
 20   9  32  1   
 21  10  13  1   
 22  10  33  1   
 23  10  34  1   
 24  11  14  1   
 25  12  13  1   
 26  12  35  1   
 27  12  36  1   
 28  13  15  1   
 29  14  37  1   
 30  14  38  1   
 31  14  39  1   
 32  15  16  ar  
 33  15  17  ar  
 34  16  18  ar  
 35  17  19  ar  
 36  17  40  1   
 37  18  20  ar  
 38  18  21  ar  
 39  19  20  ar  
 40  20  22  ar  
 41  21  23  ar  
 42  21  41  1   
 43  22  24  ar  
 44  22  42  1   
 45  23  24  ar  
 46  23  43  1   
 47  24  44  1   
@<TRIPOS>SUBSTRUCTURE
  1 ****  10 GROUP 4 **** **** 0

# MOE 2024.06 (io_trps.svl 2023.06)
