@<TRIPOS>MOLECULE
NONAME
51 54 1 0 0 
SMALL
USER_CHARGES


@<TRIPOS>ATOM
  1 CL      -1.0180     1.5250     0.0270 Cl    1 <1>  -0.1770 
  2 C       -2.6550     1.8590     0.5340 C.ar  1 <1>   0.1770 
  3 C       -3.6520     0.9490     0.2370 C.ar  1 <1>  -0.1500 
  4 C       -2.9230     3.0290     1.2220 C.ar  1 <1>  -0.1500 
  5 C       -4.9600     1.2020     0.6350 C.ar  1 <1>   0.0280 
  6 C       -4.2220     3.2890     1.6220 C.ar  1 <1>  -0.1500 
  7 C       -5.2310     2.3830     1.3350 C.ar  1 <1>   0.0830 
  8 C       -6.0490     0.3130     0.3480 C.2   1 <1>  -0.1780 
  9 O       -6.4910     2.6830     1.7380 O.3   1 <1>  -0.3630 
 10 C       -7.2620     0.5220     0.8800 C.2   1 <1>  -0.2760 
 11 C       -7.5020     1.6910     1.8370 C.3   1 <1>   0.2580 
 12 C       -8.4670    -0.3540     0.6230 C.3   1 <1>   0.4810 
 13 N       -9.4000     0.3940    -0.2450 N.4   1 <1>  -0.9590 
 14 C      -10.7390    -0.2360    -0.3530 C.3   1 <1>   0.3430 
 15 C       -8.8160     0.7690    -1.5700 C.3   1 <1>   0.3430 
 16 C      -11.7470     0.8380    -0.8280 C.3   1 <1>   0.0000 
 17 C       -9.9110     1.0730    -2.6060 C.3   1 <1>  -0.1600 
 18 C      -12.1950     1.7070     0.3620 C.3   1 <1>   0.2000 
 19 C      -11.1610     1.7090    -1.9750 C.3   1 <1>  -0.1600 
 20 C      -13.0560     0.1400    -1.2190 C.3   1 <1>  -0.1600 
 21 O      -11.1030     2.0360     1.1790 O.3   1 <1>  -0.5600 
 22 C      -13.2330     0.8700     1.1170 C.3   1 <1>  -0.1600 
 23 C      -13.7630    -0.1610     0.1080 C.3   1 <1>  -0.1600 
 24 C      -11.3580     3.0720     2.0810 C.3   1 <1>   0.0400 
 25 H       -3.4040     0.0520    -0.3000 H     1 <1>   0.1500 
 26 H       -2.1280     3.7190     1.4370 H     1 <1>   0.1500 
 27 H       -4.4580     4.1930     2.1570 H     1 <1>   0.1500 
 28 H       -5.8250    -0.5110    -0.3080 H     1 <1>   0.1500 
 29 H       -7.5160     1.3440     2.8560 H     1 <1>   0.0800 
 30 H       -8.4340     2.1840     1.6270 H     1 <1>   0.0800 
 31 H       -8.9420    -0.6100     1.5560 H     1 <1>   0.0800 
 32 H       -8.1620    -1.2630     0.1300 H     1 <1>   0.0800 
 33 H       -9.6270     1.2780     0.2490 H     1 <1>   0.4500 
 34 H      -10.7040    -1.0490    -1.0590 H     1 <1>   0.0800 
 35 H      -11.0540    -0.6200     0.6030 H     1 <1>   0.0800 
 36 H       -8.1910     1.6400    -1.4400 H     1 <1>   0.0800 
 37 H       -8.1930    -0.0290    -1.9410 H     1 <1>   0.0800 
 38 H       -9.5070     1.7280    -3.3590 H     1 <1>   0.0800 
 39 H      -10.1870     0.1590    -3.1040 H     1 <1>   0.0800 
 40 H      -12.6520     2.6120    -0.0070 H     1 <1>   0.0800 
 41 H      -11.8990     1.8900    -2.7380 H     1 <1>   0.0800 
 42 H      -10.8760     2.6720    -1.5850 H     1 <1>   0.0800 
 43 H      -13.6780     0.8140    -1.7850 H     1 <1>   0.0800 
 44 H      -12.9010    -0.7500    -1.8060 H     1 <1>   0.0800 
 45 H      -12.7860     0.3650     1.9550 H     1 <1>   0.0800 
 46 H      -14.0340     1.4990     1.4660 H     1 <1>   0.0800 
 47 H      -13.5220    -1.1560     0.4430 H     1 <1>   0.0800 
 48 H      -14.8320    -0.0890    -0.0020 H     1 <1>   0.0800 
 49 H      -10.4660     3.2560     2.6540 H     1 <1>   0.0800 
 50 H      -12.1560     2.7870     2.7450 H     1 <1>   0.0800 
 51 H      -11.6250     3.9630     1.5380 H     1 <1>   0.0800 
@<TRIPOS>BOND
  1   1   2  1   
  2   2   3  ar  
  3   2   4  ar  
  4   3   5  ar  
  5   3  25  1   
  6   4   6  ar  
  7   4  26  1   
  8   5   7  ar  
  9   5   8  1   
 10   6   7  ar  
 11   6  27  1   
 12   7   9  1   
 13   8  10  2   
 14   8  28  1   
 15   9  11  1   
 16  10  11  1   
 17  10  12  1   
 18  11  29  1   
 19  11  30  1   
 20  12  13  1   
 21  12  31  1   
 22  12  32  1   
 23  13  14  1   
 24  13  15  1   
 25  13  33  1   
 26  14  16  1   
 27  14  34  1   
 28  14  35  1   
 29  15  17  1   
 30  15  36  1   
 31  15  37  1   
 32  16  18  1   
 33  16  19  1   
 34  16  20  1   
 35  17  19  1   
 36  17  38  1   
 37  17  39  1   
 38  18  21  1   
 39  18  22  1   
 40  18  40  1   
 41  19  41  1   
 42  19  42  1   
 43  20  23  1   
 44  20  43  1   
 45  20  44  1   
 46  21  24  1   
 47  22  23  1   
 48  22  45  1   
 49  22  46  1   
 50  23  47  1   
 51  23  48  1   
 52  24  49  1   
 53  24  50  1   
 54  24  51  1   
@<TRIPOS>SUBSTRUCTURE
  1 ****  10 GROUP 4 **** **** 0

# MOE 2024.06 (io_trps.svl 2023.06)
