@<TRIPOS>MOLECULE
NONAME
53 56 1 0 0 
SMALL
USER_CHARGES


@<TRIPOS>ATOM
  1 O        1.6410    -0.0940     2.2120 O.3   1 <1>  -0.6800 
  2 C        1.3820    -0.2010     0.8470 C.3   1 <1>   0.2000 
  3 C        1.9540    -1.5140     0.3140 C.3   1 <1>  -0.0800 
  4 C        2.2360     0.8370     0.1130 C.3   1 <1>   0.3430 
  5 C        3.4550    -1.2370     0.1690 C.3   1 <1>   0.3430 
  6 C        1.6470    -2.7850     1.1350 C.3   1 <1>  -0.0170 
  7 N        3.6120     0.2450     0.0420 N.4   1 <1>  -0.9590 
  8 C        2.4480    -3.9660     0.5980 C.ar  1 <1>  -0.1440 
  9 C        4.4670     0.7870     1.1290 C.3   1 <1>   0.5240 
 10 C        2.1360    -4.6060    -0.6260 C.ar  1 <1>   0.0000 
 11 C        3.5270    -4.4300     1.2950 C.ar  1 <1>  -0.1500 
 12 C        4.7190     2.2440     0.8260 C.2   1 <1>  -0.1810 
 13 C        3.0080    -5.6290    -1.0730 C.ar  1 <1>   0.3100 
 14 C        1.0130    -4.2980    -1.4300 C.ar  1 <1>  -0.1500 
 15 C        4.3070    -5.4700     0.7770 C.ar  1 <1>   0.1600 
 16 C        4.1890     3.3140     1.5350 C.2   1 <1>   0.1390 
 17 C        5.4610     2.8120    -0.1510 C.2   1 <1>  -0.3020 
 18 N        4.0860    -6.0420    -0.3630 N.ar  1 <1>  -0.6200 
 19 C        2.7520    -6.2530    -2.3040 C.ar  1 <1>  -0.1500 
 20 C        0.7890    -4.9290    -2.6230 C.ar  1 <1>  -0.1500 
 21 N        4.5540     4.4510     1.0370 N.2   1 <1>  -0.7070 
 22 N        5.3540     4.1510    -0.0040 N.pl3 1 <1>   0.3140 
 23 C        1.6710    -5.9140    -3.0710 C.ar  1 <1>  -0.1500 
 24 C        5.9980     5.2150    -0.8260 C.3   1 <1>   0.1760 
 25 C        5.5210     5.1430    -2.2830 C.3   1 <1>  -0.2400 
 26 C        7.5280     5.1160    -0.7420 C.3   1 <1>  -0.2400 
 27 H        0.9230    -0.5040     2.7410 H     1 <1>   0.4000 
 28 H        0.3270    -0.0710     0.6720 H     1 <1>   0.0800 
 29 H        1.5710    -1.6550    -0.6810 H     1 <1>   0.0800 
 30 H        2.2180     1.7890     0.6190 H     1 <1>   0.0800 
 31 H        1.8500     0.9660    -0.8850 H     1 <1>   0.0800 
 32 H        3.8530    -1.7520    -0.6910 H     1 <1>   0.0800 
 33 H        3.9660    -1.5870     1.0510 H     1 <1>   0.0800 
 34 H        0.5950    -3.0090     1.1080 H     1 <1>   0.0800 
 35 H        1.9100    -2.6330     2.1670 H     1 <1>   0.0800 
 36 H        4.0580     0.5120    -0.8450 H     1 <1>   0.4500 
 37 H        3.9770     0.6810     2.0840 H     1 <1>   0.0800 
 38 H        5.4080     0.2620     1.1600 H     1 <1>   0.0800 
 39 H        3.8130    -4.0190     2.2460 H     1 <1>   0.1500 
 40 H        0.3070    -3.5610    -1.1000 H     1 <1>   0.1500 
 41 H        5.1480    -5.8120     1.3570 H     1 <1>   0.1500 
 42 H        3.5470     3.2370     2.3980 H     1 <1>   0.1500 
 43 H        6.0570     2.3680    -0.9280 H     1 <1>   0.1500 
 44 H        3.4380    -7.0160    -2.6240 H     1 <1>   0.1500 
 45 H       -0.0680    -4.6860    -3.2290 H     1 <1>   0.1500 
 46 H        1.4860    -6.4020    -4.0130 H     1 <1>   0.1500 
 47 H        5.6950     6.1610    -0.4130 H     1 <1>   0.0800 
 48 H        5.8230     4.2190    -2.7430 H     1 <1>   0.0800 
 49 H        5.9440     5.9560    -2.8460 H     1 <1>   0.0800 
 50 H        4.4500     5.2300    -2.3230 H     1 <1>   0.0800 
 51 H        7.8790     4.1910    -1.1650 H     1 <1>   0.0800 
 52 H        7.8430     5.1800     0.2840 H     1 <1>   0.0800 
 53 H        7.9780     5.9290    -1.2830 H     1 <1>   0.0800 
@<TRIPOS>BOND
  1   1   2  1   
  2   1  27  1   
  3   2   3  1   
  4   2   4  1   
  5   2  28  1   
  6   3   5  1   
  7   3   6  1   
  8   3  29  1   
  9   4   7  1   
 10   4  30  1   
 11   4  31  1   
 12   5   7  1   
 13   5  32  1   
 14   5  33  1   
 15   6   8  1   
 16   6  34  1   
 17   6  35  1   
 18   7   9  1   
 19   7  36  1   
 20   8  10  ar  
 21   8  11  ar  
 22   9  12  1   
 23   9  37  1   
 24   9  38  1   
 25  10  13  ar  
 26  10  14  ar  
 27  11  15  ar  
 28  11  39  1   
 29  12  16  1   
 30  12  17  2   
 31  13  18  ar  
 32  13  19  ar  
 33  14  20  ar  
 34  14  40  1   
 35  15  18  ar  
 36  15  41  1   
 37  16  21  2   
 38  16  42  1   
 39  17  22  1   
 40  17  43  1   
 41  19  23  ar  
 42  19  44  1   
 43  20  23  ar  
 44  20  45  1   
 45  21  22  1   
 46  22  24  1   
 47  23  46  1   
 48  24  25  1   
 49  24  26  1   
 50  24  47  1   
 51  25  48  1   
 52  25  49  1   
 53  25  50  1   
 54  26  51  1   
 55  26  52  1   
 56  26  53  1   
@<TRIPOS>SUBSTRUCTURE
  1 ****   5 GROUP 4 **** **** 0

# MOE 2024.06 (io_trps.svl 2023.06)
