@<TRIPOS>MOLECULE
NONAME
52 54 1 0 0 
SMALL
USER_CHARGES


@<TRIPOS>ATOM
  1 O        0.2600     1.1740    -0.3450 O.2   1 <1>  -0.5700 
  2 C       -0.0620     2.3390    -0.3590 C.2   1 <1>   0.5690 
  3 N       -1.1470     2.8390     0.3170 N.am  1 <1>  -0.6600 
  4 C        0.7880     3.2940    -1.1900 C.3   1 <1>   0.1810 
  5 C       -1.5000     4.2970     0.2230 C.3   1 <1>   0.3640 
  6 C       -2.0030     2.0510     1.2490 C.3   1 <1>   0.2200 
  7 O        0.8160     4.5810    -0.6330 O.3   1 <1>  -0.5600 
  8 C       -2.8660     4.4380    -0.4540 C.ar  1 <1>  -0.1440 
  9 C       -0.4610     5.1890    -0.5150 C.3   1 <1>   0.2610 
 10 C       -1.1790     1.5750     2.4440 C.3   1 <1>  -0.2400 
 11 C       -2.6910     0.8900     0.5300 C.3   1 <1>  -0.2400 
 12 C       -3.8320     5.2660     0.1010 C.ar  1 <1>  -0.1500 
 13 C       -3.1620     3.7560    -1.6280 C.ar  1 <1>  -0.1500 
 14 C       -0.3420     6.5410     0.2010 C.2   1 <1>   0.5690 
 15 C       -5.0700     5.4060    -0.5010 C.ar  1 <1>  -0.1500 
 16 C       -4.4000     3.8950    -2.2310 C.ar  1 <1>  -0.1500 
 17 O       -1.3350     7.1950     0.4220 O.2   1 <1>  -0.5700 
 18 N        0.8810     6.9850     0.5820 N.am  1 <1>  -0.7300 
 19 C       -5.3550     4.7210    -1.6670 C.ar  1 <1>  -0.1500 
 20 C        1.1960     8.3070     1.1650 C.3   1 <1>   0.2840 
 21 C        2.3420     8.9470     0.3930 C.ar  1 <1>   0.1670 
 22 N        3.5350     8.3790     0.5200 N.ar  1 <1>  -0.6200 
 23 C        2.0960    10.0600    -0.3970 C.ar  1 <1>  -0.1500 
 24 C        4.5210     8.9390    -0.1600 C.ar  1 <1>   0.1670 
 25 C        3.1310    10.6370    -1.1000 C.ar  1 <1>  -0.1500 
 26 C        4.3720    10.0530    -0.9710 C.ar  1 <1>  -0.1500 
 27 C        5.8780     8.2850    -0.0080 C.3   1 <1>  -0.0970 
 28 H        0.4020     3.3550    -2.1910 H     1 <1>   0.0800 
 29 H        1.7990     2.9310    -1.2260 H     1 <1>   0.0800 
 30 H       -1.5830     4.6660     1.2310 H     1 <1>   0.0800 
 31 H       -2.7800     2.6940     1.6280 H     1 <1>   0.0800 
 32 H       -0.8090     5.3850    -1.5120 H     1 <1>   0.0800 
 33 H       -0.4280     0.8700     2.1350 H     1 <1>   0.0800 
 34 H       -1.8200     1.0900     3.1580 H     1 <1>   0.0800 
 35 H       -0.7040     2.4110     2.9250 H     1 <1>   0.0800 
 36 H       -1.9780     0.1600     0.1950 H     1 <1>   0.0800 
 37 H       -3.2510     1.2540    -0.3120 H     1 <1>   0.0800 
 38 H       -3.3740     0.4040     1.2010 H     1 <1>   0.0800 
 39 H       -3.6250     5.8160     1.0040 H     1 <1>   0.1500 
 40 H       -2.4330     3.1040    -2.0760 H     1 <1>   0.1500 
 41 H       -5.8110     6.0520    -0.0620 H     1 <1>   0.1500 
 42 H       -4.6200     3.3600    -3.1380 H     1 <1>   0.1500 
 43 H        1.7080     6.4300     0.3300 H     1 <1>   0.3700 
 44 H       -6.3180     4.8300    -2.1350 H     1 <1>   0.1500 
 45 H        0.3260     8.9390     1.1390 H     1 <1>   0.0800 
 46 H        1.4920     8.1780     2.1910 H     1 <1>   0.0800 
 47 H        1.1050    10.4710    -0.4650 H     1 <1>   0.1500 
 48 H        2.9770    11.5020    -1.7220 H     1 <1>   0.1500 
 49 H        5.2140    10.4610    -1.4970 H     1 <1>   0.1500 
 50 H        6.6190     8.7820    -0.6070 H     1 <1>   0.0800 
 51 H        5.8160     7.2560    -0.3140 H     1 <1>   0.0800 
 52 H        6.1800     8.3220     1.0220 H     1 <1>   0.0800 
@<TRIPOS>BOND
  1   1   2  2   
  2   2   3  am  
  3   2   4  1   
  4   3   5  1   
  5   3   6  1   
  6   4   7  1   
  7   4  28  1   
  8   4  29  1   
  9   5   8  1   
 10   5   9  1   
 11   5  30  1   
 12   6  10  1   
 13   6  11  1   
 14   6  31  1   
 15   7   9  1   
 16   8  12  ar  
 17   8  13  ar  
 18   9  14  1   
 19   9  32  1   
 20  10  33  1   
 21  10  34  1   
 22  10  35  1   
 23  11  36  1   
 24  11  37  1   
 25  11  38  1   
 26  12  15  ar  
 27  12  39  1   
 28  13  16  ar  
 29  13  40  1   
 30  14  17  2   
 31  14  18  am  
 32  15  19  ar  
 33  15  41  1   
 34  16  19  ar  
 35  16  42  1   
 36  18  20  1   
 37  18  43  1   
 38  19  44  1   
 39  20  21  1   
 40  20  45  1   
 41  20  46  1   
 42  21  22  ar  
 43  21  23  ar  
 44  22  24  ar  
 45  23  25  ar  
 46  23  47  1   
 47  24  26  ar  
 48  24  27  1   
 49  25  26  ar  
 50  25  48  1   
 51  26  49  1   
 52  27  50  1   
 53  27  51  1   
 54  27  52  1   
@<TRIPOS>SUBSTRUCTURE
  1 ****   9 GROUP 4 **** **** 0

# MOE 2024.06 (io_trps.svl 2023.06)
