@<TRIPOS>MOLECULE
NONAME
49 52 1 0 0 
SMALL
USER_CHARGES


@<TRIPOS>ATOM
  1 CL      -0.4810    -1.2070     1.1590 Cl    1 <1>  -0.1230 
  2 C       -1.8380    -0.1060     0.9860 C.2   1 <1>   0.1230 
  3 C       -2.9110    -0.2350     0.0980 C.2   1 <1>   0.2030 
  4 C       -2.0350     1.0090     1.7060 C.2   1 <1>  -0.3020 
  5 N       -3.7480     0.7800     0.2890 N.2   1 <1>  -0.7070 
  6 C       -3.0330    -1.3180    -0.8700 C.2   1 <1>   0.7160 
  7 N       -3.1950     1.5290     1.2610 N.pl3 1 <1>   0.3000 
  8 O       -2.0500    -1.6590    -1.5080 O.2   1 <1>  -0.5700 
  9 N       -4.2230    -1.9950    -1.1030 N.am  1 <1>  -0.6600 
 10 C       -4.3900    -2.9380    -2.2450 C.3   1 <1>   0.1400 
 11 C       -5.4460    -1.8470    -0.2670 C.3   1 <1>   0.1400 
 12 C       -4.7840    -4.3170    -1.7130 C.3   1 <1>  -0.1600 
 13 C       -5.8500    -3.2180     0.2820 C.3   1 <1>  -0.1600 
 14 C       -6.0450    -4.2540    -0.8390 C.3   1 <1>   0.4240 
 15 O       -7.0660    -3.7910    -1.6920 O.3   1 <1>  -0.5600 
 16 C       -6.3730    -5.6470    -0.2600 C.ar  1 <1>  -0.1430 
 17 C       -8.3840    -4.0480    -1.3200 C.3   1 <1>   0.1200 
 18 C       -7.5920    -6.2640    -0.5080 C.ar  1 <1>  -0.1430 
 19 C       -5.4500    -6.3140     0.5350 C.ar  1 <1>  -0.1500 
 20 C       -8.6230    -5.5550    -1.3650 C.3   1 <1>  -0.0170 
 21 C       -7.8720    -7.5140     0.0210 C.ar  1 <1>  -0.1500 
 22 C       -5.7100    -7.5650     1.0670 C.ar  1 <1>   0.0820 
 23 C       -6.9470    -8.1800     0.8190 C.ar  1 <1>   0.0820 
 24 O       -4.6970    -8.0910     1.8130 O.3   1 <1>  -0.3630 
 25 O       -7.2280    -9.3970     1.3720 O.3   1 <1>  -0.3630 
 26 C       -4.4560    -9.4800     1.8370 C.3   1 <1>   0.0400 
 27 C       -8.5110    -9.9780     1.2950 C.3   1 <1>   0.0400 
 28 H       -1.4360     1.4460     2.4830 H     1 <1>   0.1500 
 29 H       -3.6320     2.3960     1.6020 H     1 <1>   0.2700 
 30 H       -3.4820    -3.0190    -2.8180 H     1 <1>   0.0800 
 31 H       -5.1590    -2.5630    -2.8990 H     1 <1>   0.0800 
 32 H       -6.2380    -1.4400    -0.8720 H     1 <1>   0.0800 
 33 H       -5.2790    -1.1800     0.5580 H     1 <1>   0.0800 
 34 H       -3.9570    -4.7040    -1.1490 H     1 <1>   0.0800 
 35 H       -4.9590    -4.9880    -2.5330 H     1 <1>   0.0800 
 36 H       -6.7470    -3.1310     0.8640 H     1 <1>   0.0800 
 37 H       -5.0760    -3.5520     0.9470 H     1 <1>   0.0800 
 38 H       -9.0280    -3.5440    -2.0180 H     1 <1>   0.0800 
 39 H       -8.5580    -3.6570    -0.3330 H     1 <1>   0.0800 
 40 H       -4.4970    -5.8690     0.7570 H     1 <1>   0.1500 
 41 H       -8.5480    -5.8980    -2.3810 H     1 <1>   0.0800 
 42 H       -9.6140    -5.7650    -1.0070 H     1 <1>   0.0800 
 43 H       -8.8240    -7.9540    -0.2020 H     1 <1>   0.1500 
 44 H       -3.4400    -9.6380     2.1510 H     1 <1>   0.0800 
 45 H       -4.6050    -9.8800     0.8490 H     1 <1>   0.0800 
 46 H       -5.1280    -9.9370     2.5400 H     1 <1>   0.0800 
 47 H       -8.4970   -10.8910     1.8630 H     1 <1>   0.0800 
 48 H       -8.7370   -10.1930     0.2660 H     1 <1>   0.0800 
 49 H       -9.2290    -9.2970     1.7170 H     1 <1>   0.0800 
@<TRIPOS>BOND
  1   1   2  1   
  2   2   3  1   
  3   2   4  2   
  4   3   5  2   
  5   3   6  1   
  6   4   7  1   
  7   4  28  1   
  8   5   7  1   
  9   6   8  2   
 10   6   9  am  
 11   7  29  1   
 12   9  10  1   
 13   9  11  1   
 14  10  12  1   
 15  10  30  1   
 16  10  31  1   
 17  11  13  1   
 18  11  32  1   
 19  11  33  1   
 20  12  14  1   
 21  12  34  1   
 22  12  35  1   
 23  13  14  1   
 24  13  36  1   
 25  13  37  1   
 26  14  15  1   
 27  14  16  1   
 28  15  17  1   
 29  16  18  ar  
 30  16  19  ar  
 31  17  20  1   
 32  17  38  1   
 33  17  39  1   
 34  18  20  1   
 35  18  21  ar  
 36  19  22  ar  
 37  19  40  1   
 38  20  41  1   
 39  20  42  1   
 40  21  23  ar  
 41  21  43  1   
 42  22  23  ar  
 43  22  24  1   
 44  23  25  1   
 45  24  26  1   
 46  25  27  1   
 47  26  44  1   
 48  26  45  1   
 49  26  46  1   
 50  27  47  1   
 51  27  48  1   
 52  27  49  1   
@<TRIPOS>SUBSTRUCTURE
  1 ****  13 GROUP 4 **** **** 0

# MOE 2024.06 (io_trps.svl 2023.06)
