@<TRIPOS>MOLECULE
NONAME
43 45 1 0 0 
SMALL
USER_CHARGES


@<TRIPOS>ATOM
  1 S       -0.8050     0.6060     1.9380 S.3   1 <1>  -0.0800 
  2 C       -1.7720     0.6750     0.4790 C.2   1 <1>   0.1980 
  3 C        0.4460     1.4910     1.1160 C.2   1 <1>  -0.1100 
  4 N       -1.2110     1.2860    -0.4890 N.2   1 <1>  -0.5650 
  5 C       -3.1420     0.0140     0.5230 C.3   1 <1>   0.3890 
  6 C        0.0470     1.7530    -0.1390 C.2   1 <1>   0.0460 
  7 N       -3.0230    -1.4690     0.4990 N.pl3 1 <1>  -0.8690 
  8 C        0.8090     2.5010    -1.2210 C.3   1 <1>   0.0210 
  9 C       -4.1280    -2.2800     0.5060 C.ar  1 <1>   0.4100 
 10 C        2.1910     2.9910    -0.7710 C.3   1 <1>  -0.2400 
 11 N       -5.2930    -1.7300     0.7870 N.ar  1 <1>  -0.6200 
 12 C       -4.0200    -3.6200     0.2310 C.ar  1 <1>  -0.1500 
 13 C       -6.3200    -2.5570     0.7760 C.ar  1 <1>   0.4700 
 14 C       -5.1590    -4.3880     0.2540 C.ar  1 <1>   0.4100 
 15 N       -6.3350    -3.8510     0.5250 N.ar  1 <1>  -0.6200 
 16 N       -5.1110    -5.7450     0.0030 N.pl3 1 <1>  -0.8380 
 17 C       -6.3000    -6.4160    -0.5900 C.3   1 <1>   0.2090 
 18 C       -4.3190    -6.6010     0.9230 C.3   1 <1>   0.2090 
 19 C       -5.8500    -7.6600    -1.3570 C.3   1 <1>  -0.1600 
 20 C       -3.8390    -7.8410     0.1690 C.3   1 <1>  -0.1600 
 21 C       -5.0280    -8.5750    -0.4500 C.3   1 <1>   0.2000 
 22 O       -4.5490    -9.6230    -1.2050 O.3   1 <1>  -0.6800 
 23 H        1.3430     1.7180     1.6630 H     1 <1>   0.1500 
 24 H       -3.7140     0.3360    -0.3300 H     1 <1>   0.0800 
 25 H       -3.6600     0.3200     1.4150 H     1 <1>   0.0800 
 26 H       -2.2150    -1.7880    -0.0380 H     1 <1>   0.4000 
 27 H        0.2180     3.3450    -1.5320 H     1 <1>   0.0800 
 28 H        0.9220     1.8500    -2.0700 H     1 <1>   0.0800 
 29 H        2.0960     3.6660     0.0610 H     1 <1>   0.0800 
 30 H        2.6760     3.5090    -1.5790 H     1 <1>   0.0800 
 31 H        2.8060     2.1570    -0.4810 H     1 <1>   0.0800 
 32 H       -3.0740    -4.0620     0.0000 H     1 <1>   0.1500 
 33 H       -7.2760    -2.1160     1.0030 H     1 <1>   0.1500 
 34 H       -6.8050    -5.7400    -1.2610 H     1 <1>   0.0800 
 35 H       -6.9850    -6.6870     0.1960 H     1 <1>   0.0800 
 36 H       -4.9400    -6.8910     1.7540 H     1 <1>   0.0800 
 37 H       -3.4750    -6.0560     1.3080 H     1 <1>   0.0800 
 38 H       -5.2640    -7.3430    -2.2000 H     1 <1>   0.0800 
 39 H       -6.7170    -8.1860    -1.7130 H     1 <1>   0.0800 
 40 H       -3.3280    -8.4940     0.8530 H     1 <1>   0.0800 
 41 H       -3.1510    -7.5300    -0.5950 H     1 <1>   0.0800 
 42 H       -5.6530    -8.9880     0.3250 H     1 <1>   0.0800 
 43 H       -3.9930    -9.2780    -1.9280 H     1 <1>   0.4000 
@<TRIPOS>BOND
  1   1   2  1   
  2   1   3  1   
  3   2   4  2   
  4   2   5  1   
  5   3   6  2   
  6   3  23  1   
  7   4   6  1   
  8   5   7  1   
  9   5  24  1   
 10   5  25  1   
 11   6   8  1   
 12   7   9  1   
 13   7  26  1   
 14   8  10  1   
 15   8  27  1   
 16   8  28  1   
 17   9  11  ar  
 18   9  12  ar  
 19  10  29  1   
 20  10  30  1   
 21  10  31  1   
 22  11  13  ar  
 23  12  14  ar  
 24  12  32  1   
 25  13  15  ar  
 26  13  33  1   
 27  14  15  ar  
 28  14  16  1   
 29  16  17  1   
 30  16  18  1   
 31  17  19  1   
 32  17  34  1   
 33  17  35  1   
 34  18  20  1   
 35  18  36  1   
 36  18  37  1   
 37  19  21  1   
 38  19  38  1   
 39  19  39  1   
 40  20  21  1   
 41  20  40  1   
 42  20  41  1   
 43  21  22  1   
 44  21  42  1   
 45  22  43  1   
@<TRIPOS>SUBSTRUCTURE
  1 ****   9 GROUP 4 **** **** 0

# MOE 2024.06 (io_trps.svl 2023.06)
