@<TRIPOS>MOLECULE
NONAME
39 41 1 0 0 
SMALL
USER_CHARGES


@<TRIPOS>ATOM
  1 CL       0.1690    -1.7540    -2.4340 Cl    1 <1>  -0.1230 
  2 C       -0.9130    -2.8330    -1.5730 C.2   1 <1>   0.1230 
  3 C       -0.6920    -4.1790    -1.3270 C.2   1 <1>   0.1390 
  4 C       -2.1040    -2.5340    -1.0250 C.2   1 <1>  -0.3020 
  5 N       -1.6860    -4.7010    -0.6640 N.2   1 <1>  -0.7070 
  6 N       -2.5560    -3.6820    -0.4780 N.pl3 1 <1>   0.3140 
  7 C       -3.8240    -3.8710     0.2440 C.3   1 <1>   0.0960 
  8 C       -4.1890    -5.3620     0.2320 C.3   1 <1>   0.3430 
  9 N       -5.4360    -5.6840     1.0010 N.4   1 <1>  -0.9590 
 10 C       -5.5890    -7.1870     1.0690 C.3   1 <1>   0.3430 
 11 C       -6.6750    -5.0800     0.3730 C.3   1 <1>   0.3430 
 12 C       -6.8800    -7.6330     1.7940 C.3   1 <1>   0.2090 
 13 C       -7.9800    -5.4980     1.0900 C.3   1 <1>   0.2090 
 14 N       -8.0860    -6.9810     1.2050 N.pl3 1 <1>  -0.8380 
 15 C       -8.6180    -7.6200     0.1050 C.ar  1 <1>   0.4100 
 16 N       -7.8880    -7.5790    -1.0050 N.ar  1 <1>  -0.6200 
 17 C       -9.8500    -8.2560     0.2010 C.ar  1 <1>  -0.1500 
 18 C       -8.4140    -8.2000    -2.0520 C.ar  1 <1>   0.1600 
 19 C      -10.3800    -8.8940    -0.8940 C.ar  1 <1>  -0.1500 
 20 C       -9.6310    -8.8590    -2.0520 C.ar  1 <1>  -0.1500 
 21 H        0.1840    -4.7200    -1.6420 H     1 <1>   0.1500 
 22 H       -2.6250    -1.5950    -1.0000 H     1 <1>   0.1500 
 23 H       -4.5790    -3.2870    -0.2460 H     1 <1>   0.0800 
 24 H       -3.6850    -3.5260     1.2520 H     1 <1>   0.0800 
 25 H       -3.3630    -5.9100     0.6570 H     1 <1>   0.0800 
 26 H       -4.3030    -5.6840    -0.7910 H     1 <1>   0.0800 
 27 H       -5.3570    -5.3430     1.9680 H     1 <1>   0.4500 
 28 H       -4.7400    -7.6210     1.5690 H     1 <1>   0.0800 
 29 H       -5.6210    -7.5890     0.0690 H     1 <1>   0.0800 
 30 H       -6.7480    -5.4030    -0.6530 H     1 <1>   0.0800 
 31 H       -6.6080    -4.0060     0.3770 H     1 <1>   0.0800 
 32 H       -6.8180    -7.3930     2.8410 H     1 <1>   0.0800 
 33 H       -6.9780    -8.7020     1.7100 H     1 <1>   0.0800 
 34 H       -8.8220    -5.1260     0.5310 H     1 <1>   0.0800 
 35 H       -8.0200    -5.0600     2.0710 H     1 <1>   0.0800 
 36 H      -10.3720    -8.2390     1.1390 H     1 <1>   0.1500 
 37 H       -7.8450    -8.1850    -2.9660 H     1 <1>   0.1500 
 38 H      -11.3320    -9.3960    -0.8530 H     1 <1>   0.1500 
 39 H       -9.9880    -9.3390    -2.9460 H     1 <1>   0.1500 
@<TRIPOS>BOND
  1   1   2  1   
  2   2   3  1   
  3   2   4  2   
  4   3   5  2   
  5   3  21  1   
  6   4   6  1   
  7   4  22  1   
  8   5   6  1   
  9   6   7  1   
 10   7   8  1   
 11   7  23  1   
 12   7  24  1   
 13   8   9  1   
 14   8  25  1   
 15   8  26  1   
 16   9  10  1   
 17   9  11  1   
 18   9  27  1   
 19  10  12  1   
 20  10  28  1   
 21  10  29  1   
 22  11  13  1   
 23  11  30  1   
 24  11  31  1   
 25  12  14  1   
 26  12  32  1   
 27  12  33  1   
 28  13  14  1   
 29  13  34  1   
 30  13  35  1   
 31  14  15  1   
 32  15  16  ar  
 33  15  17  ar  
 34  16  18  ar  
 35  17  19  ar  
 36  17  36  1   
 37  18  20  ar  
 38  18  37  1   
 39  19  20  ar  
 40  19  38  1   
 41  20  39  1   
@<TRIPOS>SUBSTRUCTURE
  1 ****   9 GROUP 4 **** **** 0

# MOE 2024.06 (io_trps.svl 2023.06)
