@<TRIPOS>MOLECULE
NONAME
46 48 1 0 0 
SMALL
USER_CHARGES


@<TRIPOS>ATOM
  1 O        0.1550     1.2340     0.7560 O.3   1 <1>  -0.0190 
  2 N        0.5020     0.3190     1.6140 N.2   1 <1>  -0.4100 
  3 C        1.1440     1.5580    -0.0340 C.2   1 <1>  -0.0400 
  4 C        1.7330     0.0460     1.3680 C.2   1 <1>   0.1080 
  5 C        2.2080     0.8170     0.3100 C.2   1 <1>  -0.1500 
  6 C        0.9510     2.6190    -1.0990 C.3   1 <1>   0.0200 
  7 C        2.5480    -0.9730     2.1320 C.3   1 <1>  -0.0590 
  8 C        0.5880     3.9740    -0.4730 C.3   1 <1>  -0.0800 
  9 C        0.5040     5.0920    -1.5040 C.3   1 <1>   0.2000 
 10 C        1.6170     4.4730     0.5420 C.3   1 <1>   0.2090 
 11 O       -0.7500     5.1020    -2.1000 O.3   1 <1>  -0.6800 
 12 C        0.7810     6.3700    -0.7170 C.3   1 <1>   0.2090 
 13 N        1.6610     5.9570     0.4120 N.pl3 1 <1>  -0.8380 
 14 C        2.9130     6.5390     0.4610 C.ar  1 <1>   0.4100 
 15 N        3.6990     6.2760    -0.5790 N.ar  1 <1>  -0.6200 
 16 C        3.2950     7.3410     1.5440 C.ar  1 <1>   0.0730 
 17 C        4.9060     6.8150    -0.5720 C.ar  1 <1>   0.1670 
 18 C        2.3990     7.5840     2.6310 C.1   1 <1>   0.4840 
 19 C        4.5610     7.8940     1.5340 C.ar  1 <1>  -0.1500 
 20 C        5.3730     7.6220     0.4540 C.ar  1 <1>  -0.1500 
 21 C        5.7940     6.5050    -1.7780 C.3   1 <1>   0.0630 
 22 N        1.7280     7.8150     3.5260 N.1   1 <1>  -0.5570 
 23 C        7.0570     5.7380    -1.3650 C.3   1 <1>  -0.2400 
 24 C        6.1620     7.7800    -2.5500 C.3   1 <1>  -0.2400 
 25 H        3.1990     0.7960    -0.1040 H     1 <1>   0.1500 
 26 H        1.8580     2.7130    -1.6710 H     1 <1>   0.0800 
 27 H        0.1670     2.3100    -1.7680 H     1 <1>   0.0800 
 28 H        2.9770    -1.6840     1.4500 H     1 <1>   0.0800 
 29 H        1.9190    -1.4960     2.8300 H     1 <1>   0.0800 
 30 H        3.3340    -0.4800     2.6730 H     1 <1>   0.0800 
 31 H       -0.3520     3.8900     0.0450 H     1 <1>   0.0800 
 32 H        1.2510     4.9790    -2.2710 H     1 <1>   0.0800 
 33 H        2.5890     4.0590     0.3290 H     1 <1>   0.0800 
 34 H        1.3330     4.1940     1.5430 H     1 <1>   0.0800 
 35 H       -1.4480     5.1650    -1.4200 H     1 <1>   0.4000 
 36 H       -0.1300     6.7760    -0.3140 H     1 <1>   0.0800 
 37 H        1.2620     7.1040    -1.3410 H     1 <1>   0.0800 
 38 H        4.9030     8.5180     2.3420 H     1 <1>   0.1500 
 39 H        6.3640     8.0360     0.4120 H     1 <1>   0.1500 
 40 H        5.2340     5.8720    -2.4470 H     1 <1>   0.0800 
 41 H        7.6850     6.3400    -0.7330 H     1 <1>   0.0800 
 42 H        7.6200     5.4530    -2.2360 H     1 <1>   0.0800 
 43 H        6.7830     4.8460    -0.8300 H     1 <1>   0.0800 
 44 H        6.7650     8.4360    -1.9500 H     1 <1>   0.0800 
 45 H        5.2660     8.3020    -2.8370 H     1 <1>   0.0800 
 46 H        6.7090     7.5290    -3.4420 H     1 <1>   0.0800 
@<TRIPOS>BOND
  1   1   2  1   
  2   1   3  1   
  3   2   4  2   
  4   3   5  2   
  5   3   6  1   
  6   4   5  1   
  7   4   7  1   
  8   5  25  1   
  9   6   8  1   
 10   6  26  1   
 11   6  27  1   
 12   7  28  1   
 13   7  29  1   
 14   7  30  1   
 15   8   9  1   
 16   8  10  1   
 17   8  31  1   
 18   9  11  1   
 19   9  12  1   
 20   9  32  1   
 21  10  13  1   
 22  10  33  1   
 23  10  34  1   
 24  11  35  1   
 25  12  13  1   
 26  12  36  1   
 27  12  37  1   
 28  13  14  1   
 29  14  15  ar  
 30  14  16  ar  
 31  15  17  ar  
 32  16  18  1   
 33  16  19  ar  
 34  17  20  ar  
 35  17  21  1   
 36  18  22  3   
 37  19  20  ar  
 38  19  38  1   
 39  20  39  1   
 40  21  23  1   
 41  21  24  1   
 42  21  40  1   
 43  23  41  1   
 44  23  42  1   
 45  23  43  1   
 46  24  44  1   
 47  24  45  1   
 48  24  46  1   
@<TRIPOS>SUBSTRUCTURE
  1 ****  10 GROUP 4 **** **** 0

# MOE 2024.06 (io_trps.svl 2023.06)
