@<TRIPOS>MOLECULE
NONAME
50 53 1 0 0 
SMALL
USER_CHARGES


@<TRIPOS>ATOM
  1 S       -0.0110    -0.1060    -0.5980 S.3   1 <1>  -0.0800 
  2 C       -0.6870     1.3730     0.0830 C.2   1 <1>   0.4620 
  3 C       -1.3040    -1.0250     0.1210 C.2   1 <1>  -0.1400 
  4 N       -1.7550     1.1620     0.7660 N.2   1 <1>  -0.5650 
  5 N       -0.0760     2.5840    -0.1500 N.pl3 1 <1>  -0.8220 
  6 C       -2.0930    -0.1720     0.7920 C.2   1 <1>   0.0770 
  7 C       -1.2900    -2.5150    -0.1330 C.3   1 <1>   0.5230 
  8 C       -0.6660     3.8560     0.3670 C.3   1 <1>   0.2090 
  9 C        1.2070     2.7850    -0.8910 C.3   1 <1>   0.2090 
 10 N       -2.6320    -3.0950     0.1330 N.4   1 <1>  -0.9590 
 11 C        0.3990     4.7040     1.0830 C.3   1 <1>   0.1200 
 12 C        2.1590     3.7000    -0.0970 C.3   1 <1>   0.1200 
 13 C       -3.7230    -2.5840    -0.7460 C.3   1 <1>   0.3430 
 14 C       -2.7030    -4.5840     0.0510 C.3   1 <1>   0.3430 
 15 O        1.5240     4.8940     0.2690 O.3   1 <1>  -0.5600 
 16 C       -4.8490    -3.5910    -0.5230 C.3   1 <1>   0.2000 
 17 C       -4.0910    -4.9230    -0.5160 C.3   1 <1>  -0.0800 
 18 O       -5.3790    -3.3460     0.7410 O.3   1 <1>  -0.6800 
 19 C       -4.7690    -6.0980     0.2140 C.3   1 <1>  -0.0170 
 20 C       -3.8490    -7.3080     0.2200 C.ar  1 <1>  -0.1440 
 21 C       -3.6100    -8.0480    -0.9210 C.ar  1 <1>  -0.1500 
 22 C       -3.2010    -7.7270     1.3660 C.ar  1 <1>  -0.1500 
 23 C       -2.7410    -9.1260    -0.8690 C.ar  1 <1>   0.1600 
 24 C       -2.3520    -8.8200     1.3110 C.ar  1 <1>   0.1600 
 25 N       -2.0990    -9.5180     0.2170 N.ar  1 <1>  -0.6200 
 26 H       -2.9760    -0.4290     1.3550 H     1 <1>   0.1500 
 27 H       -0.5500    -2.9760     0.5020 H     1 <1>   0.0800 
 28 H       -1.0150    -2.6960    -1.1590 H     1 <1>   0.0800 
 29 H       -1.0700     4.4180    -0.4570 H     1 <1>   0.0800 
 30 H       -1.4710     3.6510     1.0510 H     1 <1>   0.0800 
 31 H        1.7030     1.8500    -1.0730 H     1 <1>   0.0800 
 32 H        0.9970     3.2420    -1.8420 H     1 <1>   0.0800 
 33 H       -2.9240    -2.8430     1.0890 H     1 <1>   0.4500 
 34 H        0.7100     4.2210     1.9930 H     1 <1>   0.0800 
 35 H        0.0000     5.6720     1.3250 H     1 <1>   0.0800 
 36 H        3.0140     3.9540    -0.6960 H     1 <1>   0.0800 
 37 H        2.4970     3.2040     0.7960 H     1 <1>   0.0800 
 38 H       -4.0310    -1.5860    -0.4800 H     1 <1>   0.0800 
 39 H       -3.4130    -2.6050    -1.7780 H     1 <1>   0.0800 
 40 H       -1.9390    -4.9770    -0.6000 H     1 <1>   0.0800 
 41 H       -2.5810    -5.0150     1.0320 H     1 <1>   0.0800 
 42 H       -5.6310    -3.5230    -1.2610 H     1 <1>   0.0800 
 43 H       -3.9420    -5.2160    -1.5410 H     1 <1>   0.0800 
 44 H       -6.2640    -3.7560     0.8430 H     1 <1>   0.4000 
 45 H       -5.6920    -6.3550    -0.2790 H     1 <1>   0.0800 
 46 H       -5.0050    -5.8340     1.2300 H     1 <1>   0.0800 
 47 H       -4.0900    -7.8080    -1.8520 H     1 <1>   0.1500 
 48 H       -3.3460    -7.2240     2.3050 H     1 <1>   0.1500 
 49 H       -2.5650    -9.6950    -1.7670 H     1 <1>   0.1500 
 50 H       -1.8550    -9.1380     2.2120 H     1 <1>   0.1500 
@<TRIPOS>BOND
  1   1   2  1   
  2   1   3  1   
  3   2   4  2   
  4   2   5  1   
  5   3   6  2   
  6   3   7  1   
  7   4   6  1   
  8   5   8  1   
  9   5   9  1   
 10   6  26  1   
 11   7  10  1   
 12   7  27  1   
 13   7  28  1   
 14   8  11  1   
 15   8  29  1   
 16   8  30  1   
 17   9  12  1   
 18   9  31  1   
 19   9  32  1   
 20  10  13  1   
 21  10  14  1   
 22  10  33  1   
 23  11  15  1   
 24  11  34  1   
 25  11  35  1   
 26  12  15  1   
 27  12  36  1   
 28  12  37  1   
 29  13  16  1   
 30  13  38  1   
 31  13  39  1   
 32  14  17  1   
 33  14  40  1   
 34  14  41  1   
 35  16  17  1   
 36  16  18  1   
 37  16  42  1   
 38  17  19  1   
 39  17  43  1   
 40  18  44  1   
 41  19  20  1   
 42  19  45  1   
 43  19  46  1   
 44  20  21  ar  
 45  20  22  ar  
 46  21  23  ar  
 47  21  47  1   
 48  22  24  ar  
 49  22  48  1   
 50  23  25  ar  
 51  23  49  1   
 52  24  25  ar  
 53  24  50  1   
@<TRIPOS>SUBSTRUCTURE
  1 ****   7 GROUP 4 **** **** 0

# MOE 2024.06 (io_trps.svl 2023.06)
