@<TRIPOS>MOLECULE
NONAME
43 45 1 0 0 
SMALL
USER_CHARGES


@<TRIPOS>ATOM
  1 F       -1.1770    -0.8480    -1.0730 F     1 <1>  -0.1900 
  2 C       -1.7800     0.2830    -0.8260 C.ar  1 <1>   0.1900 
  3 C       -2.8530     0.3240     0.0760 C.ar  1 <1>   0.3960 
  4 C       -1.3300     1.3960    -1.5010 C.ar  1 <1>  -0.1500 
  5 N       -3.5210     1.4790     0.3020 N.ar  1 <1>  -0.6200 
  6 C       -3.2480    -0.8960     0.7690 C.2   1 <1>   0.5440 
  7 C       -2.0250     2.5500    -1.2270 C.ar  1 <1>   0.1900 
  8 C       -3.0930     2.5550    -0.3420 C.ar  1 <1>   0.1600 
  9 O       -2.4580    -1.4390     1.5230 O.2   1 <1>  -0.5700 
 10 N       -4.4830    -1.4990     0.5770 N.am  1 <1>  -0.6600 
 11 F       -1.6750     3.6580    -1.8180 F     1 <1>  -0.1900 
 12 C       -4.8630    -2.7440     1.3300 C.3   1 <1>   0.1400 
 13 C       -5.4090    -1.0720    -0.5250 C.3   1 <1>   0.1400 
 14 C       -5.4390    -3.7370     0.3080 C.3   1 <1>   0.4230 
 15 C       -6.8040    -1.7080    -0.3990 C.3   1 <1>  -0.1600 
 16 N       -5.4790    -5.1860     0.6880 N.4   1 <1>  -0.9590 
 17 C       -6.8270    -3.2490    -0.1430 C.3   1 <1>  -0.1060 
 18 C       -5.8410    -6.0320    -0.4830 C.3   1 <1>   0.3430 
 19 C       -4.2840    -5.6880     1.4160 C.3   1 <1>   0.2630 
 20 C       -7.8820    -3.5410     0.9420 C.2   1 <1>   0.9060 
 21 C       -7.1700    -4.0370    -1.4280 C.3   1 <1>  -0.1600 
 22 C       -7.1390    -5.5540    -1.1500 C.3   1 <1>  -0.1600 
 23 O       -9.0350    -3.1550     0.7610 O.co2 1 <1>  -0.9000 
 24 O       -7.5660    -4.2050     1.9420 O.co2 1 <1>  -0.9000 
 25 H       -0.5040     1.3660    -2.1880 H     1 <1>   0.1500 
 26 H       -3.6070     3.4850    -0.1650 H     1 <1>   0.1500 
 27 H       -4.0020    -3.1580     1.8160 H     1 <1>   0.0800 
 28 H       -5.5950    -2.5010     2.0810 H     1 <1>   0.0800 
 29 H       -5.5210    -0.0010    -0.5110 H     1 <1>   0.0800 
 30 H       -4.9760    -1.3510    -1.4710 H     1 <1>   0.0800 
 31 H       -4.7840    -3.6660    -0.5430 H     1 <1>   0.0800 
 32 H       -7.2880    -1.2100     0.4250 H     1 <1>   0.0800 
 33 H       -7.3920    -1.4680    -1.2670 H     1 <1>   0.0800 
 34 H       -6.3010    -5.1900     1.3520 H     1 <1>   0.4500 
 35 H       -5.0420    -5.9960    -1.2050 H     1 <1>   0.0800 
 36 H       -5.9640    -7.0550    -0.1670 H     1 <1>   0.0800 
 37 H       -3.3990    -5.5700     0.8130 H     1 <1>   0.0800 
 38 H       -4.4100    -6.7300     1.6590 H     1 <1>   0.0800 
 39 H       -4.1550    -5.1420     2.3370 H     1 <1>   0.0800 
 40 H       -8.1560    -3.7610    -1.7660 H     1 <1>   0.0800 
 41 H       -6.4710    -3.7930    -2.2090 H     1 <1>   0.0800 
 42 H       -7.2760    -6.0870    -2.0740 H     1 <1>   0.0800 
 43 H       -7.9670    -5.8170    -0.5140 H     1 <1>   0.0800 
@<TRIPOS>BOND
  1   1   2  1   
  2   2   3  ar  
  3   2   4  ar  
  4   3   5  ar  
  5   3   6  1   
  6   4   7  ar  
  7   4  25  1   
  8   5   8  ar  
  9   6   9  2   
 10   6  10  am  
 11   7   8  ar  
 12   7  11  1   
 13   8  26  1   
 14  10  12  1   
 15  10  13  1   
 16  12  14  1   
 17  12  27  1   
 18  12  28  1   
 19  13  15  1   
 20  13  29  1   
 21  13  30  1   
 22  14  16  1   
 23  14  17  1   
 24  14  31  1   
 25  15  17  1   
 26  15  32  1   
 27  15  33  1   
 28  16  18  1   
 29  16  19  1   
 30  16  34  1   
 31  17  20  1   
 32  17  21  1   
 33  18  22  1   
 34  18  35  1   
 35  18  36  1   
 36  19  37  1   
 37  19  38  1   
 38  19  39  1   
 39  20  23  ar  
 40  20  24  ar  
 41  21  22  1   
 42  21  40  1   
 43  21  41  1   
 44  22  42  1   
 45  22  43  1   
@<TRIPOS>SUBSTRUCTURE
  1 ****  10 GROUP 4 **** **** 0

# MOE 2024.06 (io_trps.svl 2023.06)
