@<TRIPOS>MOLECULE
NONAME
51 53 1 0 0 
SMALL
USER_CHARGES


@<TRIPOS>ATOM
  1 S       -0.1520    -0.0200    -1.6770 S.3   1 <1>  -0.0800 
  2 C        0.8540    -0.6260    -0.3800 C.2   1 <1>  -0.1400 
  3 C       -0.4180    -1.6480    -2.2630 C.2   1 <1>  -0.1100 
  4 C        0.9370    -1.9640    -0.4140 C.2   1 <1>  -0.1810 
  5 C        1.5300     0.3280     0.5820 C.3   1 <1>   0.0200 
  6 C        0.1900    -2.5780    -1.4850 C.2   1 <1>  -0.0860 
  7 C        1.8010    -2.7300     0.5800 C.3   1 <1>   0.0210 
  8 C        2.6170    -0.4310     1.3660 C.3   1 <1>  -0.1600 
  9 C        0.0970    -4.0090    -1.6770 C.2   1 <1>   0.7160 
 10 C        2.1580    -1.8420     1.7900 C.3   1 <1>  -0.1600 
 11 O        0.7560    -4.5560    -2.5370 O.2   1 <1>  -0.5700 
 12 N       -0.7810    -4.7560    -0.9260 N.am  1 <1>  -0.6600 
 13 C       -1.0370    -6.1800    -1.3400 C.3   1 <1>   0.3210 
 14 C       -1.6130    -4.1480     0.1580 C.3   1 <1>   0.1400 
 15 C       -2.0760    -6.9250    -0.4980 C.2   1 <1>   0.0460 
 16 C       -2.8950    -3.5370    -0.4340 C.3   1 <1>   0.3430 
 17 N       -3.3910    -6.6120    -0.5630 N.2   1 <1>  -0.5650 
 18 C       -1.8720    -7.9510     0.3640 C.2   1 <1>  -0.3320 
 19 N       -3.4880    -2.4710     0.4410 N.4   1 <1>  -0.9590 
 20 C       -3.9530    -7.4610     0.2360 C.2   1 <1>   0.0360 
 21 N       -3.0840    -8.3000     0.8340 N.pl3 1 <1>   0.0330 
 22 C       -0.6000    -8.6670     0.7910 C.3   1 <1>  -0.0600 
 23 C       -4.8810    -2.1730    -0.0090 C.3   1 <1>   0.2630 
 24 C       -2.6560    -1.2230     0.4330 C.3   1 <1>   0.2630 
 25 H       -1.0150    -1.7620    -3.1510 H     1 <1>   0.1500 
 26 H        0.7950     0.7260     1.2580 H     1 <1>   0.0800 
 27 H        1.9760     1.1440     0.0410 H     1 <1>   0.0800 
 28 H        2.7040    -3.0350     0.0790 H     1 <1>   0.0800 
 29 H        1.2990    -3.6160     0.9240 H     1 <1>   0.0800 
 30 H        2.9000     0.1420     2.2310 H     1 <1>   0.0800 
 31 H        3.4870    -0.5280     0.7390 H     1 <1>   0.0800 
 32 H        2.9370    -2.3180     2.3600 H     1 <1>   0.0800 
 33 H        1.2960    -1.7500     2.4270 H     1 <1>   0.0800 
 34 H       -0.1060    -6.7160    -1.3060 H     1 <1>   0.0800 
 35 H       -1.3680    -6.1880    -2.3640 H     1 <1>   0.0800 
 36 H       -1.0380    -3.3880     0.6500 H     1 <1>   0.0800 
 37 H       -1.8610    -4.8840     0.9020 H     1 <1>   0.0800 
 38 H       -3.6150    -4.3220    -0.5850 H     1 <1>   0.0800 
 39 H       -2.6630    -3.1120    -1.3960 H     1 <1>   0.0800 
 40 H       -3.5370    -2.8420     1.4020 H     1 <1>   0.4500 
 41 H       -5.0120    -7.5170     0.4200 H     1 <1>   0.1500 
 42 H       -3.3060    -9.0550     1.4900 H     1 <1>   0.2700 
 43 H        0.2660    -8.2230     0.3360 H     1 <1>   0.0800 
 44 H       -0.6430    -9.7020     0.4990 H     1 <1>   0.0800 
 45 H       -0.4850    -8.6140     1.8590 H     1 <1>   0.0800 
 46 H       -4.8750    -1.7900    -1.0170 H     1 <1>   0.0800 
 47 H       -5.3350    -1.4380     0.6370 H     1 <1>   0.0800 
 48 H       -5.4810    -3.0680     0.0140 H     1 <1>   0.0800 
 49 H       -2.6040    -0.8160    -0.5630 H     1 <1>   0.0800 
 50 H       -1.6520    -1.4300     0.7650 H     1 <1>   0.0800 
 51 H       -3.0860    -0.4810     1.0860 H     1 <1>   0.0800 
@<TRIPOS>BOND
  1   1   2  1   
  2   1   3  1   
  3   2   4  2   
  4   2   5  1   
  5   3   6  2   
  6   3  25  1   
  7   4   6  1   
  8   4   7  1   
  9   5   8  1   
 10   5  26  1   
 11   5  27  1   
 12   6   9  1   
 13   7  10  1   
 14   7  28  1   
 15   7  29  1   
 16   8  10  1   
 17   8  30  1   
 18   8  31  1   
 19   9  11  2   
 20   9  12  am  
 21  10  32  1   
 22  10  33  1   
 23  12  13  1   
 24  12  14  1   
 25  13  15  1   
 26  13  34  1   
 27  13  35  1   
 28  14  16  1   
 29  14  36  1   
 30  14  37  1   
 31  15  17  1   
 32  15  18  2   
 33  16  19  1   
 34  16  38  1   
 35  16  39  1   
 36  17  20  2   
 37  18  21  1   
 38  18  22  1   
 39  19  23  1   
 40  19  24  1   
 41  19  40  1   
 42  20  21  1   
 43  20  41  1   
 44  21  42  1   
 45  22  43  1   
 46  22  44  1   
 47  22  45  1   
 48  23  46  1   
 49  23  47  1   
 50  23  48  1   
 51  24  49  1   
 52  24  50  1   
 53  24  51  1   
@<TRIPOS>SUBSTRUCTURE
  1 ****  14 GROUP 4 **** **** 0

# MOE 2024.06 (io_trps.svl 2023.06)
