@<TRIPOS>MOLECULE
NONAME
46 48 1 0 0 
SMALL
USER_CHARGES


@<TRIPOS>ATOM
  1 CL      -3.0900     2.6650     2.4850 Cl    1 <1>  -0.1770 
  2 C       -1.7750     3.1260     1.4320 C.ar  1 <1>   0.1770 
  3 C       -1.6550     2.5340     0.1800 C.ar  1 <1>  -0.1440 
  4 C       -0.8820     4.0830     1.8710 C.ar  1 <1>  -0.1500 
  5 C       -0.6050     2.9160    -0.6460 C.ar  1 <1>  -0.1500 
  6 C       -2.6580     1.4870    -0.2690 C.3   1 <1>   0.4870 
  7 C        0.1510     4.4500     1.0320 C.ar  1 <1>   0.1770 
  8 C        0.2990     3.8770    -0.2190 C.ar  1 <1>  -0.1500 
  9 N       -3.9650     2.1410    -0.5360 N.4   1 <1>  -0.9590 
 10 CL       1.2900     5.6600     1.5570 Cl    1 <1>  -0.1770 
 11 C       -5.0820     1.1890    -0.7440 C.3   1 <1>   0.3430 
 12 C       -3.9210     3.2090    -1.5770 C.3   1 <1>   0.3430 
 13 C       -6.4230     1.9270    -0.6320 C.3   1 <1>  -0.1600 
 14 C       -5.3090     3.8300    -1.7880 C.3   1 <1>  -0.1600 
 15 C       -6.3140     3.4670    -0.6800 C.3   1 <1>   0.2800 
 16 O       -5.7690     3.8550     0.5610 O.3   1 <1>  -0.5600 
 17 C       -7.7010     4.1240    -0.9010 C.3   1 <1>  -0.1600 
 18 C       -5.9340     5.1920     0.9510 C.3   1 <1>   0.1200 
 19 C       -8.3590     4.5750     0.4060 C.3   1 <1>   0.2800 
 20 C       -7.4200     5.5250     1.1570 C.3   1 <1>  -0.1600 
 21 O       -8.5300     3.4690     1.1950 O.3   1 <1>  -0.6800 
 22 C       -9.7450     5.1750     0.1870 C.3   1 <1>  -0.2400 
 23 H       -0.9840     4.5340     2.8420 H     1 <1>   0.1500 
 24 H       -0.4730     2.4730    -1.6210 H     1 <1>   0.1500 
 25 H       -2.7710     0.7500     0.5090 H     1 <1>   0.0800 
 26 H       -2.3030     0.9930    -1.1580 H     1 <1>   0.0800 
 27 H        1.1190     4.1830    -0.8460 H     1 <1>   0.1500 
 28 H       -4.2340     2.6530     0.3300 H     1 <1>   0.4500 
 29 H       -5.0480     0.4060    -0.0040 H     1 <1>   0.0800 
 30 H       -4.9960     0.7390    -1.7200 H     1 <1>   0.0800 
 31 H       -3.5580     2.8080    -2.5100 H     1 <1>   0.0800 
 32 H       -3.2400     3.9820    -1.2570 H     1 <1>   0.0800 
 33 H       -6.9160     1.6250     0.2730 H     1 <1>   0.0800 
 34 H       -7.0420     1.5840    -1.4410 H     1 <1>   0.0800 
 35 H       -5.6950     3.4820    -2.7310 H     1 <1>   0.0800 
 36 H       -5.2100     4.8960    -1.8790 H     1 <1>   0.0800 
 37 H       -8.3620     3.4640    -1.4330 H     1 <1>   0.0800 
 38 H       -7.5850     4.9920    -1.5240 H     1 <1>   0.0800 
 39 H       -5.5060     5.8260     0.1930 H     1 <1>   0.0800 
 40 H       -5.3890     5.3420     1.8680 H     1 <1>   0.0800 
 41 H       -7.5750     6.5290     0.8070 H     1 <1>   0.0800 
 42 H       -7.6610     5.5280     2.2060 H     1 <1>   0.0800 
 43 H       -7.6500     3.2170     1.5390 H     1 <1>   0.4000 
 44 H       -9.6820     6.0470    -0.4380 H     1 <1>   0.0800 
 45 H      -10.1770     5.4620     1.1290 H     1 <1>   0.0800 
 46 H      -10.3910     4.4600    -0.2900 H     1 <1>   0.0800 
@<TRIPOS>BOND
  1   1   2  1   
  2   2   3  ar  
  3   2   4  ar  
  4   3   5  ar  
  5   3   6  1   
  6   4   7  ar  
  7   4  23  1   
  8   5   8  ar  
  9   5  24  1   
 10   6   9  1   
 11   6  25  1   
 12   6  26  1   
 13   7   8  ar  
 14   7  10  1   
 15   8  27  1   
 16   9  11  1   
 17   9  12  1   
 18   9  28  1   
 19  11  13  1   
 20  11  29  1   
 21  11  30  1   
 22  12  14  1   
 23  12  31  1   
 24  12  32  1   
 25  13  15  1   
 26  13  33  1   
 27  13  34  1   
 28  14  15  1   
 29  14  35  1   
 30  14  36  1   
 31  15  16  1   
 32  15  17  1   
 33  16  18  1   
 34  17  19  1   
 35  17  37  1   
 36  17  38  1   
 37  18  20  1   
 38  18  39  1   
 39  18  40  1   
 40  19  20  1   
 41  19  21  1   
 42  19  22  1   
 43  20  41  1   
 44  20  42  1   
 45  21  43  1   
 46  22  44  1   
 47  22  45  1   
 48  22  46  1   
@<TRIPOS>SUBSTRUCTURE
  1 ****  16 GROUP 4 **** **** 0

# MOE 2024.06 (io_trps.svl 2023.06)
