@<TRIPOS>MOLECULE
NONAME
58 60 1 0 0 
SMALL
USER_CHARGES


@<TRIPOS>ATOM
  1 O       -1.9940     0.2370    -1.3340 O.3   1 <1>  -0.3630 
  2 C       -2.4440     1.3060    -0.6220 C.ar  1 <1>   0.0830 
  3 C       -0.9740     0.3850    -2.3040 C.3   1 <1>   0.0400 
  4 C       -3.2620     1.0550     0.4740 C.ar  1 <1>  -0.1440 
  5 C       -2.1240     2.6200    -0.9540 C.ar  1 <1>  -0.1500 
  6 C       -3.7550     2.1090     1.2330 C.ar  1 <1>   0.0830 
  7 C       -3.6120    -0.3670     0.8590 C.3   1 <1>   0.4870 
  8 C       -2.6170     3.6670    -0.1980 C.ar  1 <1>  -0.1500 
  9 O       -4.5490     1.8080     2.2930 O.3   1 <1>  -0.3630 
 10 C       -3.4290     3.4180     0.8930 C.ar  1 <1>  -0.1500 
 11 N       -4.2740    -1.0820    -0.2790 N.4   1 <1>  -0.9590 
 12 C       -4.6810     2.7150     3.3690 C.3   1 <1>   0.0400 
 13 C       -5.6960    -0.7510    -0.6010 C.3   1 <1>   0.4230 
 14 C       -4.1010    -2.5530    -0.1120 C.3   1 <1>   0.2630 
 15 C       -5.8730     0.5310    -1.4110 C.3   1 <1>  -0.1600 
 16 C       -6.6270    -0.5930     0.6030 C.3   1 <1>  -0.1600 
 17 C       -7.3390     0.9350    -1.1930 C.3   1 <1>  -0.0800 
 18 C       -7.8220     0.2080     0.0660 C.3   1 <1>  -0.0800 
 19 C       -7.5700     2.4310    -0.9260 C.3   1 <1>  -0.1600 
 20 C       -8.3520     1.3040     1.0070 C.3   1 <1>  -0.1600 
 21 C       -8.7000     2.4960     0.1070 C.3   1 <1>   0.4230 
 22 N      -10.0390     2.3080    -0.5410 N.4   1 <1>  -0.9590 
 23 C      -10.3520     3.3800    -1.5420 C.3   1 <1>   0.2630 
 24 C      -11.1590     2.2600     0.4550 C.3   1 <1>   0.2630 
 25 H       -0.7040    -0.5920    -2.6650 H     1 <1>   0.0800 
 26 H       -0.1180     0.8510    -1.8470 H     1 <1>   0.0800 
 27 H       -1.3440     0.9820    -3.1190 H     1 <1>   0.0800 
 28 H       -1.4980     2.8530    -1.7950 H     1 <1>   0.1500 
 29 H       -4.2340    -0.3860     1.7370 H     1 <1>   0.0800 
 30 H       -2.6910    -0.8680     1.1040 H     1 <1>   0.0800 
 31 H       -2.3640     4.6820    -0.4580 H     1 <1>   0.1500 
 32 H       -3.7960     4.2530     1.4600 H     1 <1>   0.1500 
 33 H       -3.7030    -0.7820    -1.0890 H     1 <1>   0.4500 
 34 H       -5.1910     2.2150     4.1730 H     1 <1>   0.0800 
 35 H       -5.2550     3.5660     3.0480 H     1 <1>   0.0800 
 36 H       -3.7010     3.0190     3.6960 H     1 <1>   0.0800 
 37 H       -6.0980    -1.5460    -1.2080 H     1 <1>   0.0800 
 38 H       -4.6480    -2.9000     0.7490 H     1 <1>   0.0800 
 39 H       -3.0580    -2.7940     0.0190 H     1 <1>   0.0800 
 40 H       -4.4630    -3.0740    -0.9840 H     1 <1>   0.0800 
 41 H       -5.2310     1.3100    -1.0590 H     1 <1>   0.0800 
 42 H       -5.6720     0.3590    -2.4540 H     1 <1>   0.0800 
 43 H       -6.9410    -1.5480     0.9840 H     1 <1>   0.0800 
 44 H       -6.1540    -0.0380     1.3880 H     1 <1>   0.0800 
 45 H       -7.9330     0.6140    -2.0340 H     1 <1>   0.0800 
 46 H       -8.6200    -0.4660    -0.2040 H     1 <1>   0.0800 
 47 H       -7.7460     2.9870    -1.8270 H     1 <1>   0.0800 
 48 H       -6.6960     2.8530    -0.4600 H     1 <1>   0.0800 
 49 H       -7.5650     1.6300     1.6640 H     1 <1>   0.0800 
 50 H       -9.1580     0.9570     1.6260 H     1 <1>   0.0800 
 51 H       -8.6770     3.4240     0.6560 H     1 <1>   0.0800 
 52 H      -10.0050     1.4050    -1.0340 H     1 <1>   0.4500 
 53 H      -10.3120     4.3510    -1.0770 H     1 <1>   0.0800 
 54 H      -11.3410     3.2340    -1.9470 H     1 <1>   0.0800 
 55 H       -9.6510     3.3580    -2.3590 H     1 <1>   0.0800 
 56 H      -11.1750     3.1630     1.0450 H     1 <1>   0.0800 
 57 H      -11.0490     1.4180     1.1170 H     1 <1>   0.0800 
 58 H      -12.1050     2.1650    -0.0520 H     1 <1>   0.0800 
@<TRIPOS>BOND
  1   1   2  1   
  2   1   3  1   
  3   2   4  ar  
  4   2   5  ar  
  5   3  25  1   
  6   3  26  1   
  7   3  27  1   
  8   4   6  ar  
  9   4   7  1   
 10   5   8  ar  
 11   5  28  1   
 12   6   9  1   
 13   6  10  ar  
 14   7  11  1   
 15   7  29  1   
 16   7  30  1   
 17   8  10  ar  
 18   8  31  1   
 19   9  12  1   
 20  10  32  1   
 21  11  13  1   
 22  11  14  1   
 23  11  33  1   
 24  12  34  1   
 25  12  35  1   
 26  12  36  1   
 27  13  15  1   
 28  13  16  1   
 29  13  37  1   
 30  14  38  1   
 31  14  39  1   
 32  14  40  1   
 33  15  17  1   
 34  15  41  1   
 35  15  42  1   
 36  16  18  1   
 37  16  43  1   
 38  16  44  1   
 39  17  18  1   
 40  17  19  1   
 41  17  45  1   
 42  18  20  1   
 43  18  46  1   
 44  19  21  1   
 45  19  47  1   
 46  19  48  1   
 47  20  21  1   
 48  20  49  1   
 49  20  50  1   
 50  21  22  1   
 51  21  51  1   
 52  22  23  1   
 53  22  24  1   
 54  22  52  1   
 55  23  53  1   
 56  23  54  1   
 57  23  55  1   
 58  24  56  1   
 59  24  57  1   
 60  24  58  1   
@<TRIPOS>SUBSTRUCTURE
  1 ****  15 GROUP 4 **** **** 0

# MOE 2024.06 (io_trps.svl 2023.06)
