@<TRIPOS>MOLECULE
NONAME
48 49 1 0 0 
SMALL
USER_CHARGES


@<TRIPOS>ATOM
  1 O       -0.6060     0.2500    -1.3580 O.2   1 <1>  -0.5700 
  2 C       -1.4360     0.7300    -0.6130 C.2   1 <1>   0.5440 
  3 N       -2.3390    -0.1100     0.0060 N.am  1 <1>  -0.6600 
  4 C       -1.4720     2.1670    -0.4240 C.ar  1 <1>   0.0860 
  5 C       -2.0730    -1.5870     0.0060 C.3   1 <1>   0.3200 
  6 C       -3.5150     0.4170     0.7850 C.3   1 <1>   0.1400 
  7 C       -1.8300     3.0150    -1.4700 C.ar  1 <1>  -0.1500 
  8 C       -1.1590     2.7500     0.8020 C.ar  1 <1>  -0.1500 
  9 C       -3.3100    -2.4390     0.2350 C.2   1 <1>  -0.3320 
 10 C       -4.5730     1.0620    -0.1330 C.3   1 <1>   0.1200 
 11 C       -1.8980     4.3850    -1.2930 C.ar  1 <1>  -0.1500 
 12 C       -1.2250     4.1200     0.9840 C.ar  1 <1>  -0.1500 
 13 N       -4.4540    -2.3310    -0.4670 N.pl3 1 <1>   0.0330 
 14 C       -3.5140    -3.4300     1.1310 C.2   1 <1>   0.0770 
 15 O       -4.6330     0.3970    -1.3540 O.3   1 <1>  -0.6800 
 16 C       -1.6000     4.9460    -0.0620 C.ar  1 <1>  -0.1430 
 17 C       -5.2830    -3.2590     0.0540 C.2   1 <1>   0.0060 
 18 N       -4.7540    -3.9420     1.0140 N.2   1 <1>  -0.5650 
 19 C       -1.6720     6.4530     0.1330 C.3   1 <1>  -0.0170 
 20 C       -6.6980    -3.4570    -0.4450 C.3   1 <1>  -0.0600 
 21 C       -0.3220     7.1020    -0.1950 C.3   1 <1>  -0.1600 
 22 C       -0.3670     8.6240    -0.0060 C.3   1 <1>  -0.1600 
 23 C        0.9860     9.2580    -0.3370 C.3   1 <1>  -0.2400 
 24 H       -1.3470    -1.8030     0.7700 H     1 <1>   0.0800 
 25 H       -1.6410    -1.8750    -0.9380 H     1 <1>   0.0800 
 26 H       -3.1820     1.1470     1.5010 H     1 <1>   0.0800 
 27 H       -3.9790    -0.3650     1.3590 H     1 <1>   0.0800 
 28 H       -2.0540     2.5900    -2.4330 H     1 <1>   0.1500 
 29 H       -0.8570     2.1180     1.6190 H     1 <1>   0.1500 
 30 H       -4.3160     2.0890    -0.3300 H     1 <1>   0.0800 
 31 H       -5.5470     1.0330     0.3230 H     1 <1>   0.0800 
 32 H       -2.1790     5.0150    -2.1190 H     1 <1>   0.1500 
 33 H       -0.9770     4.5440     1.9420 H     1 <1>   0.1500 
 34 H       -4.6760    -1.6300    -1.1860 H     1 <1>   0.2700 
 35 H       -2.8260    -3.8120     1.8670 H     1 <1>   0.1500 
 36 H       -3.7110     0.2750    -1.6710 H     1 <1>   0.4000 
 37 H       -1.9430     6.6720     1.1510 H     1 <1>   0.0800 
 38 H       -2.4360     6.8630    -0.5030 H     1 <1>   0.0800 
 39 H       -7.2550    -2.5440    -0.3440 H     1 <1>   0.0800 
 40 H       -7.1820    -4.2250     0.1310 H     1 <1>   0.0800 
 41 H       -6.6850    -3.7550    -1.4770 H     1 <1>   0.0800 
 42 H       -0.0600     6.8730    -1.2130 H     1 <1>   0.0800 
 43 H        0.4360     6.6820     0.4440 H     1 <1>   0.0800 
 44 H       -0.6260     8.8560     1.0140 H     1 <1>   0.0800 
 45 H       -1.1220     9.0470    -0.6470 H     1 <1>   0.0800 
 46 H        1.7530     8.8660     0.3070 H     1 <1>   0.0800 
 47 H        0.9360    10.3240    -0.2000 H     1 <1>   0.0800 
 48 H        1.2560     9.0580    -1.3590 H     1 <1>   0.0800 
@<TRIPOS>BOND
  1   1   2  2   
  2   2   3  am  
  3   2   4  1   
  4   3   5  1   
  5   3   6  1   
  6   4   7  ar  
  7   4   8  ar  
  8   5   9  1   
  9   5  24  1   
 10   5  25  1   
 11   6  10  1   
 12   6  26  1   
 13   6  27  1   
 14   7  11  ar  
 15   7  28  1   
 16   8  12  ar  
 17   8  29  1   
 18   9  13  1   
 19   9  14  2   
 20  10  15  1   
 21  10  30  1   
 22  10  31  1   
 23  11  16  ar  
 24  11  32  1   
 25  12  16  ar  
 26  12  33  1   
 27  13  17  1   
 28  13  34  1   
 29  14  18  1   
 30  14  35  1   
 31  15  36  1   
 32  16  19  1   
 33  17  18  2   
 34  17  20  1   
 35  19  21  1   
 36  19  37  1   
 37  19  38  1   
 38  20  39  1   
 39  20  40  1   
 40  20  41  1   
 41  21  22  1   
 42  21  42  1   
 43  21  43  1   
 44  22  23  1   
 45  22  44  1   
 46  22  45  1   
 47  23  46  1   
 48  23  47  1   
 49  23  48  1   
@<TRIPOS>SUBSTRUCTURE
  1 ****   4 GROUP 4 **** **** 0

# MOE 2024.06 (io_trps.svl 2023.06)
