@<TRIPOS>MOLECULE
NONAME
54 56 1 0 0 
SMALL
USER_CHARGES


@<TRIPOS>ATOM
  1 O       -2.5480     0.8170    -2.2590 O.2   1 <1>  -0.5700 
  2 C       -2.2260     1.2820    -1.1830 C.2   1 <1>   0.5440 
  3 N       -2.3620     0.4580    -0.0890 N.am  1 <1>  -0.6600 
  4 C       -1.7940     2.6640    -1.0590 C.ar  1 <1>   0.0860 
  5 C       -3.2630     0.8520     1.0340 C.3   1 <1>   0.1400 
  6 C       -2.2480    -1.0170    -0.2720 C.3   1 <1>   0.1400 
  7 C       -0.9930     3.0870     0.0040 C.ar  1 <1>  -0.1500 
  8 C       -2.1640     3.6240    -2.0020 C.ar  1 <1>  -0.1500 
  9 C       -4.6650     0.2080     0.8850 C.3   1 <1>   0.4230 
 10 C       -3.6430    -1.6280    -0.4840 C.3   1 <1>   0.3430 
 11 C       -0.5970     4.4040     0.1370 C.ar  1 <1>   0.0830 
 12 C       -1.7850     4.9480    -1.8750 C.ar  1 <1>  -0.1500 
 13 N       -4.5890    -1.2950     0.6520 N.4   1 <1>  -0.9590 
 14 C       -5.4770     0.8980    -0.2370 C.3   1 <1>   0.1200 
 15 O        0.2040     4.7060     1.1870 O.3   1 <1>  -0.3630 
 16 C       -1.0190     5.3570    -0.7970 C.ar  1 <1>   0.0830 
 17 C       -5.9790    -1.8370     0.4470 C.3   1 <1>   0.4230 
 18 O       -6.7470     0.3190    -0.3380 O.3   1 <1>  -0.5600 
 19 C        1.5250     5.0940     0.8720 C.3   1 <1>   0.0400 
 20 O       -0.7200     6.6740    -0.7110 O.3   1 <1>  -0.3630 
 21 C       -6.7440    -1.0460    -0.6430 C.3   1 <1>   0.1200 
 22 C       -5.9380    -3.3490     0.1710 C.3   1 <1>  -0.1600 
 23 C       -1.1650     7.3730     0.4320 C.3   1 <1>   0.0400 
 24 C       -7.3130    -4.0140     0.3380 C.3   1 <1>  -0.1600 
 25 C       -7.2150    -5.5280     0.1360 C.3   1 <1>  -0.2400 
 26 H       -2.8210     0.5420     1.9650 H     1 <1>   0.0800 
 27 H       -3.3650     1.9240     1.0690 H     1 <1>   0.0800 
 28 H       -1.6310    -1.2300    -1.1300 H     1 <1>   0.0800 
 29 H       -1.7720    -1.4550     0.5880 H     1 <1>   0.0800 
 30 H       -0.6560     2.3780     0.7370 H     1 <1>   0.1500 
 31 H       -2.7590     3.3260    -2.8490 H     1 <1>   0.1500 
 32 H       -5.2000     0.3900     1.8020 H     1 <1>   0.0800 
 33 H       -3.5420    -2.6960    -0.5820 H     1 <1>   0.0800 
 34 H       -4.0360    -1.2460    -1.4130 H     1 <1>   0.0800 
 35 H       -2.0850     5.6750    -2.6090 H     1 <1>   0.1500 
 36 H       -4.2140    -1.7220     1.5060 H     1 <1>   0.4500 
 37 H       -4.9860     0.8210    -1.1920 H     1 <1>   0.0800 
 38 H       -5.6150     1.9410    -0.0100 H     1 <1>   0.0800 
 39 H       -6.5280    -1.7000     1.3650 H     1 <1>   0.0800 
 40 H        2.0630     5.2370     1.7910 H     1 <1>   0.0800 
 41 H        1.5050     6.0120     0.3130 H     1 <1>   0.0800 
 42 H        1.9870     4.3150     0.2920 H     1 <1>   0.0800 
 43 H       -7.7710    -1.3630    -0.6860 H     1 <1>   0.0800 
 44 H       -6.3040    -1.1850    -1.6150 H     1 <1>   0.0800 
 45 H       -5.5890    -3.5360    -0.8300 H     1 <1>   0.0800 
 46 H       -5.2600    -3.8150     0.8650 H     1 <1>   0.0800 
 47 H       -1.0120     8.4230     0.2630 H     1 <1>   0.0800 
 48 H       -0.6010     7.0560     1.2890 H     1 <1>   0.0800 
 49 H       -2.2120     7.1720     0.5770 H     1 <1>   0.0800 
 50 H       -7.7010    -3.8200     1.3250 H     1 <1>   0.0800 
 51 H       -8.0150    -3.6200    -0.3790 H     1 <1>   0.0800 
 52 H       -6.5500    -5.9690     0.8580 H     1 <1>   0.0800 
 53 H       -6.8560    -5.7600    -0.8520 H     1 <1>   0.0800 
 54 H       -8.1850    -5.9780     0.2550 H     1 <1>   0.0800 
@<TRIPOS>BOND
  1   1   2  2   
  2   2   3  am  
  3   2   4  1   
  4   3   5  1   
  5   3   6  1   
  6   4   7  ar  
  7   4   8  ar  
  8   5   9  1   
  9   5  26  1   
 10   5  27  1   
 11   6  10  1   
 12   6  28  1   
 13   6  29  1   
 14   7  11  ar  
 15   7  30  1   
 16   8  12  ar  
 17   8  31  1   
 18   9  13  1   
 19   9  14  1   
 20   9  32  1   
 21  10  13  1   
 22  10  33  1   
 23  10  34  1   
 24  11  15  1   
 25  11  16  ar  
 26  12  16  ar  
 27  12  35  1   
 28  13  17  1   
 29  13  36  1   
 30  14  18  1   
 31  14  37  1   
 32  14  38  1   
 33  15  19  1   
 34  16  20  1   
 35  17  21  1   
 36  17  22  1   
 37  17  39  1   
 38  18  21  1   
 39  19  40  1   
 40  19  41  1   
 41  19  42  1   
 42  20  23  1   
 43  21  43  1   
 44  21  44  1   
 45  22  24  1   
 46  22  45  1   
 47  22  46  1   
 48  23  47  1   
 49  23  48  1   
 50  23  49  1   
 51  24  25  1   
 52  24  50  1   
 53  24  51  1   
 54  25  52  1   
 55  25  53  1   
 56  25  54  1   
@<TRIPOS>SUBSTRUCTURE
  1 ****   3 GROUP 4 **** **** 0

# MOE 2024.06 (io_trps.svl 2023.06)
