@<TRIPOS>MOLECULE
NONAME
38 40 1 0 0 
SMALL
USER_CHARGES


@<TRIPOS>ATOM
  1 O        0.6410    -0.4860     1.4360 O.co2 1 <1>  -0.9000 
  2 C       -0.2270    -0.9100     0.6780 C.2   1 <1>   0.9060 
  3 O       -0.4670    -0.4410    -0.4480 O.co2 1 <1>  -0.9000 
  4 C       -1.1330    -2.0650     1.1160 C.3   1 <1>   0.2370 
  5 N       -2.3300    -2.1550     0.1930 N.4   1 <1>  -0.9590 
  6 C       -3.3910    -1.1760     0.5840 C.3   1 <1>   0.3430 
  7 C       -2.8290    -3.5190    -0.0870 C.3   1 <1>   0.3430 
  8 C       -4.4570    -1.0550    -0.5150 C.3   1 <1>   0.1440 
  9 C       -3.8830    -3.4490    -1.1990 C.3   1 <1>  -0.1600 
 10 C       -5.5250    -0.1190     0.0030 C.ar  1 <1>   0.1670 
 11 C       -5.0120    -2.4540    -0.8680 C.3   1 <1>  -0.1600 
 12 C       -3.9140    -0.2980    -1.7590 C.3   1 <1>  -0.1600 
 13 N       -6.3960    -0.4140     0.9410 N.ar  1 <1>  -0.6200 
 14 C       -5.4660     1.1000    -0.6030 C.ar  1 <1>  -0.1430 
 15 C       -4.3490     1.1720    -1.6150 C.3   1 <1>  -0.0170 
 16 C       -7.2350     0.5710     1.2350 C.ar  1 <1>   0.4770 
 17 C       -6.3800     2.0490    -0.2180 C.ar  1 <1>   0.1600 
 18 N       -7.2790     1.7880     0.7090 N.ar  1 <1>  -0.6200 
 19 C       -8.2640     0.2650     2.2960 C.3   1 <1>  -0.0970 
 20 H       -1.4370    -1.9020     2.1330 H     1 <1>   0.0800 
 21 H       -0.5490    -2.9640     1.0620 H     1 <1>   0.0800 
 22 H       -1.9070    -1.7390    -0.6700 H     1 <1>   0.4500 
 23 H       -2.9480    -0.2070     0.7510 H     1 <1>   0.0800 
 24 H       -3.8630    -1.4960     1.4980 H     1 <1>   0.0800 
 25 H       -3.2670    -3.9340     0.8060 H     1 <1>   0.0800 
 26 H       -2.0130    -4.1520    -0.3970 H     1 <1>   0.0800 
 27 H       -4.3030    -4.4290    -1.3420 H     1 <1>   0.0800 
 28 H       -3.4030    -3.1680    -2.1200 H     1 <1>   0.0800 
 29 H       -5.7010    -2.3820    -1.6920 H     1 <1>   0.0800 
 30 H       -5.5660    -2.8320    -0.0250 H     1 <1>   0.0800 
 31 H       -4.3700    -0.6920    -2.6510 H     1 <1>   0.0800 
 32 H       -2.8450    -0.3720    -1.8660 H     1 <1>   0.0800 
 33 H       -4.6840     1.5800    -2.5520 H     1 <1>   0.0800 
 34 H       -3.5410     1.7690    -1.2250 H     1 <1>   0.0800 
 35 H       -6.3760     3.0270    -0.6670 H     1 <1>   0.1500 
 36 H       -7.7890    -0.2030     3.1380 H     1 <1>   0.0800 
 37 H       -9.0030    -0.4000     1.8920 H     1 <1>   0.0800 
 38 H       -8.7460     1.1670     2.6240 H     1 <1>   0.0800 
@<TRIPOS>BOND
  1   1   2  ar  
  2   2   3  ar  
  3   2   4  1   
  4   4   5  1   
  5   4  20  1   
  6   4  21  1   
  7   5   6  1   
  8   5   7  1   
  9   5  22  1   
 10   6   8  1   
 11   6  23  1   
 12   6  24  1   
 13   7   9  1   
 14   7  25  1   
 15   7  26  1   
 16   8  10  1   
 17   8  11  1   
 18   8  12  1   
 19   9  11  1   
 20   9  27  1   
 21   9  28  1   
 22  10  13  ar  
 23  10  14  ar  
 24  11  29  1   
 25  11  30  1   
 26  12  15  1   
 27  12  31  1   
 28  12  32  1   
 29  13  16  ar  
 30  14  15  1   
 31  14  17  ar  
 32  15  33  1   
 33  15  34  1   
 34  16  18  ar  
 35  16  19  1   
 36  17  18  ar  
 37  17  35  1   
 38  19  36  1   
 39  19  37  1   
 40  19  38  1   
@<TRIPOS>SUBSTRUCTURE
  1 ****   8 GROUP 4 **** **** 0

# MOE 2024.06 (io_trps.svl 2023.06)
