@<TRIPOS>MOLECULE
NONAME
43 46 1 0 0 
SMALL
USER_CHARGES


@<TRIPOS>ATOM
  1 O       -0.6630     0.1310     0.9890 O.2   1 <1>  -0.5700 
  2 C       -1.5040     0.8770     0.5230 C.2   1 <1>   0.5440 
  3 N       -2.6040     0.3340    -0.1150 N.am  1 <1>  -0.6600 
  4 C       -1.3300     2.3090     0.6720 C.ar  1 <1>   0.0860 
  5 C       -3.8500     1.1270    -0.3460 C.3   1 <1>   0.2200 
  6 C       -2.6290    -1.1280    -0.4270 C.3   1 <1>   0.0600 
  7 C       -1.3100     3.1530    -0.4440 C.ar  1 <1>  -0.1500 
  8 C       -1.1860     2.8830     1.9440 C.ar  1 <1>  -0.1500 
  9 C       -5.1180     0.4920     0.2190 C.3   1 <1>  -0.1600 
 10 C       -4.1630     1.3400    -1.8240 C.3   1 <1>  -0.1600 
 11 C       -1.1830     4.5120    -0.2520 C.ar  1 <1>   0.0830 
 12 C       -1.0520     4.2530     2.1210 C.ar  1 <1>  -0.1500 
 13 C       -6.2560     1.1910    -0.5350 C.3   1 <1>  -0.0800 
 14 C       -5.6470     1.7240    -1.8450 C.3   1 <1>  -0.0800 
 15 O       -1.1610     5.4790    -1.1750 O.3   1 <1>  -0.3630 
 16 C       -1.0600     5.0510     0.9950 C.ar  1 <1>   0.0830 
 17 C       -6.8210     2.4110     0.2080 C.3   1 <1>  -0.1600 
 18 C       -5.8800     3.2430    -1.8460 C.3   1 <1>  -0.1600 
 19 C       -0.9970     6.7110    -0.4730 C.3   1 <1>   0.4000 
 20 O       -0.9540     6.3770     0.9130 O.3   1 <1>  -0.3630 
 21 C       -7.0290     3.4580    -0.8740 C.3   1 <1>   0.2000 
 22 O       -6.9620     4.7220    -0.3320 O.3   1 <1>  -0.6800 
 23 H       -3.7580     2.0960     0.1130 H     1 <1>   0.0800 
 24 H       -3.2200    -1.3250    -1.3020 H     1 <1>   0.0800 
 25 H       -3.0380    -1.6670     0.4090 H     1 <1>   0.0800 
 26 H       -1.6290    -1.4850    -0.6070 H     1 <1>   0.0800 
 27 H       -1.3900     2.7500    -1.4360 H     1 <1>   0.1500 
 28 H       -1.1790     2.2310     2.8010 H     1 <1>   0.1500 
 29 H       -5.1570    -0.5560    -0.0160 H     1 <1>   0.0800 
 30 H       -5.1870     0.6190     1.2850 H     1 <1>   0.0800 
 31 H       -3.5380     2.0950    -2.2650 H     1 <1>   0.0800 
 32 H       -4.0370     0.4210    -2.3670 H     1 <1>   0.0800 
 33 H       -0.9440     4.6910     3.0970 H     1 <1>   0.1500 
 34 H       -7.0530     0.4980    -0.7500 H     1 <1>   0.0800 
 35 H       -6.1430     1.2810    -2.6940 H     1 <1>   0.0800 
 36 H       -6.1080     2.7710     0.9300 H     1 <1>   0.0800 
 37 H       -7.7460     2.1750     0.7040 H     1 <1>   0.0800 
 38 H       -6.1300     3.6010    -2.8290 H     1 <1>   0.0800 
 39 H       -5.0020     3.7550    -1.4900 H     1 <1>   0.0800 
 40 H       -0.0690     7.1710    -0.7620 H     1 <1>   0.0800 
 41 H       -1.8380     7.3530    -0.6650 H     1 <1>   0.0800 
 42 H       -7.9810     3.3320    -1.3620 H     1 <1>   0.0800 
 43 H       -6.1030     4.8480     0.1110 H     1 <1>   0.4000 
@<TRIPOS>BOND
  1   1   2  2   
  2   2   3  am  
  3   2   4  1   
  4   3   5  1   
  5   3   6  1   
  6   4   7  ar  
  7   4   8  ar  
  8   5   9  1   
  9   5  10  1   
 10   5  23  1   
 11   6  24  1   
 12   6  25  1   
 13   6  26  1   
 14   7  11  ar  
 15   7  27  1   
 16   8  12  ar  
 17   8  28  1   
 18   9  13  1   
 19   9  29  1   
 20   9  30  1   
 21  10  14  1   
 22  10  31  1   
 23  10  32  1   
 24  11  15  1   
 25  11  16  ar  
 26  12  16  ar  
 27  12  33  1   
 28  13  14  1   
 29  13  17  1   
 30  13  34  1   
 31  14  18  1   
 32  14  35  1   
 33  15  19  1   
 34  16  20  1   
 35  17  21  1   
 36  17  36  1   
 37  17  37  1   
 38  18  21  1   
 39  18  38  1   
 40  18  39  1   
 41  19  20  1   
 42  19  40  1   
 43  19  41  1   
 44  21  22  1   
 45  21  42  1   
 46  22  43  1   
@<TRIPOS>SUBSTRUCTURE
  1 ****   5 GROUP 4 **** **** 0

# MOE 2024.06 (io_trps.svl 2023.06)
