@<TRIPOS>MOLECULE
NONAME
52 54 1 0 0 
SMALL
USER_CHARGES


@<TRIPOS>ATOM
  1 F       -1.0850    -0.6130     0.1920 F     1 <1>  -0.1900 
  2 C       -2.0860    -1.4440     0.0730 C.ar  1 <1>   0.1900 
  3 C       -2.6850    -1.9340     1.2180 C.ar  1 <1>  -0.1500 
  4 C       -2.5080    -1.8030    -1.1920 C.ar  1 <1>  -0.1500 
  5 C       -3.7460    -2.8140     1.0850 C.ar  1 <1>  -0.1500 
  6 C       -3.5690    -2.6840    -1.3110 C.ar  1 <1>  -0.1500 
  7 C       -4.1920    -3.1910    -0.1760 C.ar  1 <1>  -0.1430 
  8 C       -5.3600    -4.1560    -0.3230 C.3   1 <1>  -0.0160 
  9 C       -6.6800    -3.4020    -0.5680 C.3   1 <1>  -0.0800 
 10 C       -7.8870    -4.2910    -0.8810 C.3   1 <1>   0.2200 
 11 C       -7.1380    -2.5200     0.6030 C.3   1 <1>  -0.1600 
 12 N       -7.9970    -5.3950     0.0920 N.am  1 <1>  -0.7300 
 13 C       -9.0690    -3.3520    -0.6700 C.3   1 <1>  -0.1600 
 14 C       -8.6650    -2.4160     0.4780 C.3   1 <1>  -0.1600 
 15 C       -7.8050    -6.7100    -0.1910 C.2   1 <1>   0.5690 
 16 O       -7.4630    -7.0780    -1.2900 O.2   1 <1>  -0.5700 
 17 C       -8.0250    -7.7540     0.9140 C.3   1 <1>   0.1710 
 18 N       -9.4120    -8.2840     1.0440 N.3   1 <1>  -0.8100 
 19 C       -9.8250    -8.9750    -0.1940 C.3   1 <1>   0.2530 
 20 C      -10.3740    -7.2430     1.4380 C.3   1 <1>   0.0300 
 21 C      -11.1300    -9.7310     0.0030 C.ar  1 <1>  -0.1430 
 22 C      -11.3000   -10.5650     1.0990 C.ar  1 <1>   0.1600 
 23 C      -12.1640    -9.6080    -0.9040 C.ar  1 <1>  -0.1500 
 24 N      -12.3920   -11.2720     1.3560 N.ar  1 <1>  -0.6200 
 25 C      -13.3080   -10.3340    -0.6520 C.ar  1 <1>  -0.1500 
 26 C      -13.3680   -11.1380     0.4730 C.ar  1 <1>   0.1600 
 27 H       -2.3270    -1.6310     2.1850 H     1 <1>   0.1500 
 28 H       -2.0160    -1.4020    -2.0590 H     1 <1>   0.1500 
 29 H       -4.2230    -3.2040     1.9670 H     1 <1>   0.1500 
 30 H       -3.9110    -2.9750    -2.2890 H     1 <1>   0.1500 
 31 H       -5.1720    -4.8170    -1.1510 H     1 <1>   0.0800 
 32 H       -5.4350    -4.7660     0.5600 H     1 <1>   0.0800 
 33 H       -6.5410    -2.7600    -1.4210 H     1 <1>   0.0800 
 34 H       -7.8520    -4.6760    -1.8880 H     1 <1>   0.0800 
 35 H       -6.8870    -2.9870     1.5400 H     1 <1>   0.0800 
 36 H       -6.6680    -1.5520     0.5630 H     1 <1>   0.0800 
 37 H       -8.2780    -5.1050     1.0280 H     1 <1>   0.3700 
 38 H       -9.1990    -2.7660    -1.5630 H     1 <1>   0.0800 
 39 H       -9.9850    -3.8820    -0.4750 H     1 <1>   0.0800 
 40 H       -8.9670    -1.4050     0.2630 H     1 <1>   0.0800 
 41 H       -9.1290    -2.7270     1.3980 H     1 <1>   0.0800 
 42 H       -7.7290    -7.3250     1.8540 H     1 <1>   0.0800 
 43 H       -7.3600    -8.5770     0.7230 H     1 <1>   0.0800 
 44 H       -9.9300    -8.2620    -0.9940 H     1 <1>   0.0800 
 45 H       -9.0640    -9.6820    -0.4790 H     1 <1>   0.0800 
 46 H      -11.3310    -7.6880     1.6550 H     1 <1>   0.0800 
 47 H      -10.5000    -6.5210     0.6490 H     1 <1>   0.0800 
 48 H      -10.0320    -6.7430     2.3280 H     1 <1>   0.0800 
 49 H      -10.4900   -10.6490     1.8040 H     1 <1>   0.1500 
 50 H      -12.0850    -8.9750    -1.7710 H     1 <1>   0.1500 
 51 H      -14.1470   -10.2810    -1.3210 H     1 <1>   0.1500 
 52 H      -14.2670   -11.7010     0.6580 H     1 <1>   0.1500 
@<TRIPOS>BOND
  1   1   2  1   
  2   2   3  ar  
  3   2   4  ar  
  4   3   5  ar  
  5   3  27  1   
  6   4   6  ar  
  7   4  28  1   
  8   5   7  ar  
  9   5  29  1   
 10   6   7  ar  
 11   6  30  1   
 12   7   8  1   
 13   8   9  1   
 14   8  31  1   
 15   8  32  1   
 16   9  10  1   
 17   9  11  1   
 18   9  33  1   
 19  10  12  1   
 20  10  13  1   
 21  10  34  1   
 22  11  14  1   
 23  11  35  1   
 24  11  36  1   
 25  12  15  am  
 26  12  37  1   
 27  13  14  1   
 28  13  38  1   
 29  13  39  1   
 30  14  40  1   
 31  14  41  1   
 32  15  16  2   
 33  15  17  1   
 34  17  18  1   
 35  17  42  1   
 36  17  43  1   
 37  18  19  1   
 38  18  20  1   
 39  19  21  1   
 40  19  44  1   
 41  19  45  1   
 42  20  46  1   
 43  20  47  1   
 44  20  48  1   
 45  21  22  ar  
 46  21  23  ar  
 47  22  24  ar  
 48  22  49  1   
 49  23  25  ar  
 50  23  50  1   
 51  24  26  ar  
 52  25  26  ar  
 53  25  51  1   
 54  26  52  1   
@<TRIPOS>SUBSTRUCTURE
  1 ****  12 GROUP 4 **** **** 0

# MOE 2024.06 (io_trps.svl 2023.06)
