@<TRIPOS>MOLECULE
NONAME
38 38 1 0 0 
SMALL
USER_CHARGES


@<TRIPOS>ATOM
  1 O        0.6940     0.3590    -0.8440 O.2   1 <1>  -0.5700 
  2 C        0.9710     0.5350     0.3240 C.2   1 <1>   0.7800 
  3 O        0.8230     1.7240     0.9070 O.3   1 <1>  -0.4300 
  4 N        1.4610    -0.4330     1.1450 N.am  1 <1>  -0.5470 
  5 C        0.3460     2.9130     0.3130 C.3   1 <1>   0.2800 
  6 C        1.7470    -1.7930     0.9420 C.ar  1 <1>   0.1170 
  7 C       -1.1010     2.7290    -0.1590 C.3   1 <1>  -0.2400 
  8 C        1.2800     3.3520    -0.8210 C.3   1 <1>  -0.2400 
  9 C        0.3820     3.9590     1.4290 C.3   1 <1>  -0.2400 
 10 C        2.5500    -2.4500     1.8670 C.ar  1 <1>  -0.1500 
 11 C        1.2560    -2.5260    -0.1330 C.ar  1 <1>  -0.1500 
 12 C        2.8540    -3.7920     1.7230 C.ar  1 <1>  -0.1500 
 13 C        1.5590    -3.8690    -0.2780 C.ar  1 <1>  -0.1500 
 14 C        2.3600    -4.5200     0.6490 C.ar  1 <1>  -0.1430 
 15 C        2.6820    -6.0040     0.4630 C.3   1 <1>   0.3430 
 16 O        2.7080    -6.6390     1.6880 O.3   1 <1>  -0.6800 
 17 C        4.0320    -6.2210    -0.1990 C.3   1 <1>  -0.2660 
 18 C        4.2290    -7.6830    -0.4720 C.2   1 <1>   0.9060 
 19 O        4.4030    -8.0530    -1.6330 O.co2 1 <1>  -0.9000 
 20 O        4.1710    -8.4660     0.4850 O.co2 1 <1>  -0.9000 
 21 H        1.6790    -0.0700     2.0680 H     1 <1>   0.3700 
 22 H       -1.5040     3.6710    -0.4810 H     1 <1>   0.0800 
 23 H       -1.7110     2.3530     0.6420 H     1 <1>   0.0800 
 24 H       -1.1550     2.0520    -0.9920 H     1 <1>   0.0800 
 25 H        0.9930     4.3250    -1.1760 H     1 <1>   0.0800 
 26 H        1.2260     2.6750    -1.6530 H     1 <1>   0.0800 
 27 H        2.2960     3.4030    -0.4720 H     1 <1>   0.0800 
 28 H        0.0320     4.9070     1.0630 H     1 <1>   0.0800 
 29 H        1.3870     4.0860     1.7900 H     1 <1>   0.0800 
 30 H       -0.2490     3.6570     2.2450 H     1 <1>   0.0800 
 31 H        2.9470    -1.9140     2.7080 H     1 <1>   0.1500 
 32 H        0.6280    -2.0570    -0.8670 H     1 <1>   0.1500 
 33 H        3.4770    -4.2860     2.4490 H     1 <1>   0.1500 
 34 H        1.1690    -4.4120    -1.1200 H     1 <1>   0.1500 
 35 H        1.9130    -6.4790    -0.1240 H     1 <1>   0.0800 
 36 H        3.1990    -7.4970     1.5240 H     1 <1>   0.4000 
 37 H        4.8250    -5.8630     0.4270 H     1 <1>   0.0800 
 38 H        4.0650    -5.6950    -1.1330 H     1 <1>   0.0800 
@<TRIPOS>BOND
  1   1   2  2   
  2   2   3  1   
  3   2   4  am  
  4   3   5  1   
  5   4   6  1   
  6   4  21  1   
  7   5   7  1   
  8   5   8  1   
  9   5   9  1   
 10   6  10  ar  
 11   6  11  ar  
 12   7  22  1   
 13   7  23  1   
 14   7  24  1   
 15   8  25  1   
 16   8  26  1   
 17   8  27  1   
 18   9  28  1   
 19   9  29  1   
 20   9  30  1   
 21  10  12  ar  
 22  10  31  1   
 23  11  13  ar  
 24  11  32  1   
 25  12  14  ar  
 26  12  33  1   
 27  13  14  ar  
 28  13  34  1   
 29  14  15  1   
 30  15  16  1   
 31  15  17  1   
 32  15  35  1   
 33  16  36  1   
 34  17  18  1   
 35  17  37  1   
 36  17  38  1   
 37  18  19  ar  
 38  18  20  ar  
@<TRIPOS>SUBSTRUCTURE
  1 ****   6 GROUP 4 **** **** 0

# MOE 2024.06 (io_trps.svl 2023.06)
