@<TRIPOS>MOLECULE
NONAME
52 54 1 0 0 
SMALL
USER_CHARGES


@<TRIPOS>ATOM
  1 S        0.1860     0.1000     1.5490 S.o2  1 <1>   1.4470 
  2 O       -0.2920    -0.8310     2.5510 O.2   1 <1>  -0.6500 
  3 O        0.5300     1.4350     1.9960 O.2   1 <1>  -0.6500 
  4 N       -1.0620     0.2600     0.4120 N.am  1 <1>  -0.8490 
  5 C        1.5290    -0.7100     0.6350 C.ar  1 <1>  -0.0090 
  6 C       -2.3390     0.5700     1.0760 C.3   1 <1>   0.1960 
  7 C       -0.7640     1.2770    -0.6010 C.3   1 <1>   0.1960 
  8 C        2.5020    -0.0010    -0.0660 C.ar  1 <1>   0.0820 
  9 C        1.5990    -2.0980     0.5960 C.ar  1 <1>  -0.1500 
 10 C       -3.5200     0.5230     0.0880 C.3   1 <1>   0.0000 
 11 C       -1.8500     1.2990    -1.6810 C.3   1 <1>  -0.1600 
 12 O        2.4820     1.3470    -0.1100 O.3   1 <1>  -0.3630 
 13 C        3.5040    -0.6550    -0.7700 C.ar  1 <1>  -0.1500 
 14 C        2.5950    -2.7650    -0.0970 C.ar  1 <1>   0.0820 
 15 C       -4.8410     0.8110     0.8230 C.3   1 <1>   0.2000 
 16 C       -3.2480     1.5090    -1.0780 C.3   1 <1>  -0.1600 
 17 C       -3.7790    -0.8990    -0.4440 C.3   1 <1>  -0.1600 
 18 C        3.3760     2.0150     0.7520 C.3   1 <1>   0.0400 
 19 C        3.5570    -2.0350    -0.7860 C.ar  1 <1>  -0.1500 
 20 O        2.5600    -4.1220    -0.0580 O.3   1 <1>  -0.3630 
 21 O       -5.0400     2.1780     1.0200 O.3   1 <1>  -0.5600 
 22 C       -5.9380     0.2010    -0.0540 C.3   1 <1>  -0.1600 
 23 C       -5.2620    -0.9350    -0.8340 C.3   1 <1>  -0.1600 
 24 C        3.5200    -4.8980    -0.7390 C.3   1 <1>   0.0400 
 25 C       -6.0400     2.5030     1.9340 C.3   1 <1>   0.0400 
 26 H       -2.5220    -0.1440     1.8610 H     1 <1>   0.0800 
 27 H       -2.2850     1.5470     1.5270 H     1 <1>   0.0800 
 28 H       -0.6890     2.2480    -0.1370 H     1 <1>   0.0800 
 29 H        0.1760     1.0580    -1.0750 H     1 <1>   0.0800 
 30 H        0.8610    -2.6820     1.1190 H     1 <1>   0.1500 
 31 H       -1.6390     2.0930    -2.3750 H     1 <1>   0.0800 
 32 H       -1.8120     0.3760    -2.2300 H     1 <1>   0.0800 
 33 H        4.2340    -0.0790    -1.3080 H     1 <1>   0.1500 
 34 H       -4.8270     0.3170     1.7810 H     1 <1>   0.0800 
 35 H       -3.9960     1.4130    -1.8450 H     1 <1>   0.0800 
 36 H       -3.2950     2.5180    -0.7070 H     1 <1>   0.0800 
 37 H       -3.1410    -1.1680    -1.2660 H     1 <1>   0.0800 
 38 H       -3.6130    -1.6100     0.3470 H     1 <1>   0.0800 
 39 H        3.2140     3.0730     0.6500 H     1 <1>   0.0800 
 40 H        4.3860     1.7660     0.4770 H     1 <1>   0.0800 
 41 H        3.1760     1.7130     1.7660 H     1 <1>   0.0800 
 42 H        4.3410    -2.5190    -1.3360 H     1 <1>   0.1500 
 43 H       -6.7460    -0.1720     0.5490 H     1 <1>   0.0800 
 44 H       -6.3080     0.9400    -0.7440 H     1 <1>   0.0800 
 45 H       -5.6950    -1.8910    -0.5950 H     1 <1>   0.0800 
 46 H       -5.3680    -0.7610    -1.8910 H     1 <1>   0.0800 
 47 H        3.2920    -5.9350    -0.5690 H     1 <1>   0.0800 
 48 H        4.4960    -4.6700    -0.3480 H     1 <1>   0.0800 
 49 H        3.4640    -4.6800    -1.7910 H     1 <1>   0.0800 
 50 H       -6.0810     3.5750     2.0150 H     1 <1>   0.0800 
 51 H       -5.7980     2.0770     2.8920 H     1 <1>   0.0800 
 52 H       -6.9850     2.1320     1.5790 H     1 <1>   0.0800 
@<TRIPOS>BOND
  1   1   2  2   
  2   1   3  2   
  3   1   4  am  
  4   1   5  1   
  5   4   6  1   
  6   4   7  1   
  7   5   8  ar  
  8   5   9  ar  
  9   6  10  1   
 10   6  26  1   
 11   6  27  1   
 12   7  11  1   
 13   7  28  1   
 14   7  29  1   
 15   8  12  1   
 16   8  13  ar  
 17   9  14  ar  
 18   9  30  1   
 19  10  15  1   
 20  10  16  1   
 21  10  17  1   
 22  11  16  1   
 23  11  31  1   
 24  11  32  1   
 25  12  18  1   
 26  13  19  ar  
 27  13  33  1   
 28  14  19  ar  
 29  14  20  1   
 30  15  21  1   
 31  15  22  1   
 32  15  34  1   
 33  16  35  1   
 34  16  36  1   
 35  17  23  1   
 36  17  37  1   
 37  17  38  1   
 38  18  39  1   
 39  18  40  1   
 40  18  41  1   
 41  19  42  1   
 42  20  24  1   
 43  21  25  1   
 44  22  23  1   
 45  22  43  1   
 46  22  44  1   
 47  23  45  1   
 48  23  46  1   
 49  24  47  1   
 50  24  48  1   
 51  24  49  1   
 52  25  50  1   
 53  25  51  1   
 54  25  52  1   
@<TRIPOS>SUBSTRUCTURE
  1 ****   4 GROUP 4 **** **** 0

# MOE 2024.06 (io_trps.svl 2023.06)
