@<TRIPOS>MOLECULE
NONAME
53 56 1 0 0 
SMALL
USER_CHARGES


@<TRIPOS>ATOM
  1 O       -2.2990     0.9590     0.4580 O.3   1 <1>  -0.5600 
  2 C       -2.6920     0.1180     1.5120 C.3   1 <1>   0.1200 
  3 C       -1.3460     1.9210     0.7930 C.3   1 <1>   0.1200 
  4 C       -3.5990    -0.9910     0.9500 C.3   1 <1>   0.3430 
  5 C        0.0480     1.3130     0.6540 C.3   1 <1>  -0.2400 
  6 N       -4.3800    -0.4580    -0.2020 N.4   1 <1>  -0.9590 
  7 C       -5.5230     0.4100     0.2350 C.3   1 <1>   0.3430 
  8 C       -4.8090    -1.5120    -1.1610 C.3   1 <1>   0.3430 
  9 C       -6.1730     1.1260    -0.9600 C.3   1 <1>   0.1430 
 10 C       -5.4360    -0.8590    -2.3970 C.3   1 <1>  -0.1600 
 11 C       -7.3810     1.8890    -0.4700 C.ar  1 <1>   0.1670 
 12 C       -6.5890     0.0970    -2.0340 C.3   1 <1>  -0.1600 
 13 C       -5.2770     2.2530    -1.5440 C.3   1 <1>  -0.1600 
 14 N       -8.3040     1.3950     0.3170 N.ar  1 <1>  -0.6200 
 15 C       -7.3960     3.1660    -0.9350 C.ar  1 <1>  -0.1440 
 16 C       -6.1990     3.4590    -1.8060 C.3   1 <1>  -0.0170 
 17 C       -9.3060     2.2330     0.6290 C.ar  1 <1>   0.6200 
 18 C       -8.4450     3.9640    -0.5620 C.ar  1 <1>   0.1600 
 19 N       -9.3990     3.5050     0.2160 N.ar  1 <1>  -0.6200 
 20 C      -10.3720     1.7230     1.4800 C.ar  1 <1>   0.0000 
 21 C      -11.6820     2.2010     1.3750 C.ar  1 <1>  -0.1500 
 22 C      -10.1390     0.7320     2.4390 C.ar  1 <1>  -0.1500 
 23 C      -12.7000     1.7200     2.1770 C.ar  1 <1>  -0.1500 
 24 C      -11.1530     0.2460     3.2450 C.ar  1 <1>  -0.1500 
 25 C      -12.4380     0.7400     3.1160 C.ar  1 <1>  -0.1500 
 26 H       -3.2240     0.7070     2.2390 H     1 <1>   0.0800 
 27 H       -1.8230    -0.3160     1.9770 H     1 <1>   0.0800 
 28 H       -1.5250     2.2880     1.7900 H     1 <1>   0.0800 
 29 H       -1.4530     2.7390     0.1000 H     1 <1>   0.0800 
 30 H       -4.2490    -1.3780     1.7170 H     1 <1>   0.0800 
 31 H       -2.9670    -1.7950     0.6110 H     1 <1>   0.0800 
 32 H        0.2050     0.5280     1.3710 H     1 <1>   0.0800 
 33 H        0.7880     2.0730     0.8280 H     1 <1>   0.0800 
 34 H        0.1890     0.9290    -0.3410 H     1 <1>   0.0800 
 35 H       -3.6960     0.1690    -0.6680 H     1 <1>   0.4500 
 36 H       -5.1810     1.1500     0.9380 H     1 <1>   0.0800 
 37 H       -6.2720    -0.1940     0.7220 H     1 <1>   0.0800 
 38 H       -5.5320    -2.1590    -0.6900 H     1 <1>   0.0800 
 39 H       -3.9610    -2.1080    -1.4600 H     1 <1>   0.0800 
 40 H       -5.8120    -1.6330    -3.0440 H     1 <1>   0.0800 
 41 H       -4.6730    -0.3360    -2.9450 H     1 <1>   0.0800 
 42 H       -6.9400     0.6050    -2.9170 H     1 <1>   0.0800 
 43 H       -7.4130    -0.4850    -1.6550 H     1 <1>   0.0800 
 44 H       -4.7610     1.9610    -2.4410 H     1 <1>   0.0800 
 45 H       -4.5430     2.5480    -0.8130 H     1 <1>   0.0800 
 46 H       -6.5040     3.4920    -2.8380 H     1 <1>   0.0800 
 47 H       -5.7270     4.3890    -1.5360 H     1 <1>   0.0800 
 48 H       -8.5070     4.9840    -0.9010 H     1 <1>   0.1500 
 49 H      -11.9060     2.9650     0.6500 H     1 <1>   0.1500 
 50 H       -9.1470     0.3360     2.5570 H     1 <1>   0.1500 
 51 H      -13.6980     2.1100     2.0720 H     1 <1>   0.1500 
 52 H      -10.9440    -0.5170     3.9750 H     1 <1>   0.1500 
 53 H      -13.2290     0.3640     3.7420 H     1 <1>   0.1500 
@<TRIPOS>BOND
  1   1   2  1   
  2   1   3  1   
  3   2   4  1   
  4   2  26  1   
  5   2  27  1   
  6   3   5  1   
  7   3  28  1   
  8   3  29  1   
  9   4   6  1   
 10   4  30  1   
 11   4  31  1   
 12   5  32  1   
 13   5  33  1   
 14   5  34  1   
 15   6   7  1   
 16   6   8  1   
 17   6  35  1   
 18   7   9  1   
 19   7  36  1   
 20   7  37  1   
 21   8  10  1   
 22   8  38  1   
 23   8  39  1   
 24   9  11  1   
 25   9  12  1   
 26   9  13  1   
 27  10  12  1   
 28  10  40  1   
 29  10  41  1   
 30  11  14  ar  
 31  11  15  ar  
 32  12  42  1   
 33  12  43  1   
 34  13  16  1   
 35  13  44  1   
 36  13  45  1   
 37  14  17  ar  
 38  15  16  1   
 39  15  18  ar  
 40  16  46  1   
 41  16  47  1   
 42  17  19  ar  
 43  17  20  1   
 44  18  19  ar  
 45  18  48  1   
 46  20  21  ar  
 47  20  22  ar  
 48  21  23  ar  
 49  21  49  1   
 50  22  24  ar  
 51  22  50  1   
 52  23  25  ar  
 53  23  51  1   
 54  24  25  ar  
 55  24  52  1   
 56  25  53  1   
@<TRIPOS>SUBSTRUCTURE
  1 ****  11 GROUP 4 **** **** 0

# MOE 2024.06 (io_trps.svl 2023.06)
