@<TRIPOS>MOLECULE
NONAME
39 40 1 0 0 
SMALL
USER_CHARGES


@<TRIPOS>ATOM
  1 O        2.2320    -0.7620    -2.7790 O.2   1 <1>  -0.5700 
  2 C        2.0340    -1.0120    -1.6030 C.2   1 <1>   0.5440 
  3 N        2.2160    -0.0110    -0.6850 N.am  1 <1>  -0.4930 
  4 C        1.6340    -2.3550    -1.2160 C.ar  1 <1>   0.0860 
  5 C        2.6390     1.3310    -0.8610 C.2   1 <1>   0.0630 
  6 C        1.1210    -2.7040     0.0500 C.ar  1 <1>   0.3920 
  7 C        1.7550    -3.3930    -2.1380 C.ar  1 <1>  -0.1500 
  8 C        3.0260     2.0040    -2.0210 C.2   1 <1>   0.1390 
  9 C        2.7520     2.2540     0.1150 C.2   1 <1>  -0.3020 
 10 O        0.9720    -1.7350     0.9830 O.3   1 <1>  -0.3630 
 11 N        0.7590    -3.9290     0.4220 N.ar  1 <1>  -0.6200 
 12 C        1.3810    -4.6610    -1.7650 C.ar  1 <1>  -0.1500 
 13 N        3.3540     3.2410    -1.7900 N.2   1 <1>  -0.7070 
 14 N        3.1840     3.3990    -0.4630 N.pl3 1 <1>   0.3140 
 15 C        0.4260    -1.9930     2.2660 C.3   1 <1>   0.0400 
 16 C        0.8950    -4.8810    -0.4890 C.ar  1 <1>   0.3930 
 17 C        3.4560     4.6990     0.2090 C.3   1 <1>   0.1760 
 18 O        0.5450    -6.1420    -0.1760 O.3   1 <1>  -0.3630 
 19 C        4.5760     4.5490     1.2490 C.3   1 <1>  -0.2400 
 20 C        2.1790     5.2570     0.8510 C.3   1 <1>  -0.2400 
 21 C        0.0350    -6.4700     1.1010 C.3   1 <1>   0.0400 
 22 H        1.9600    -0.2570     0.2730 H     1 <1>   0.3700 
 23 H        2.1360    -3.2060    -3.1290 H     1 <1>   0.1500 
 24 H        3.0520     1.5540    -2.9990 H     1 <1>   0.1500 
 25 H        2.5550     2.1670     1.1650 H     1 <1>   0.1500 
 26 H        1.4590    -5.4880    -2.4460 H     1 <1>   0.1500 
 27 H        0.3980    -1.0710     2.8170 H     1 <1>   0.0800 
 28 H        1.0490    -2.7080     2.7730 H     1 <1>   0.0800 
 29 H       -0.5710    -2.3830     2.1480 H     1 <1>   0.0800 
 30 H        3.7850     5.3850    -0.5530 H     1 <1>   0.0800 
 31 H        4.2800     3.8800     2.0370 H     1 <1>   0.0800 
 32 H        4.8070     5.5070     1.6800 H     1 <1>   0.0800 
 33 H        5.4640     4.1690     0.7750 H     1 <1>   0.0800 
 34 H        1.8250     4.6060     1.6300 H     1 <1>   0.0800 
 35 H        1.4120     5.3660     0.1040 H     1 <1>   0.0800 
 36 H        2.3740     6.2250     1.2770 H     1 <1>   0.0800 
 37 H       -0.1740    -7.5240     1.1220 H     1 <1>   0.0800 
 38 H       -0.8690    -5.9100     1.2680 H     1 <1>   0.0800 
 39 H        0.7720    -6.2230     1.8450 H     1 <1>   0.0800 
@<TRIPOS>BOND
  1   1   2  2   
  2   2   3  am  
  3   2   4  1   
  4   3   5  1   
  5   3  22  1   
  6   4   6  ar  
  7   4   7  ar  
  8   5   8  1   
  9   5   9  2   
 10   6  10  1   
 11   6  11  ar  
 12   7  12  ar  
 13   7  23  1   
 14   8  13  2   
 15   8  24  1   
 16   9  14  1   
 17   9  25  1   
 18  10  15  1   
 19  11  16  ar  
 20  12  16  ar  
 21  12  26  1   
 22  13  14  1   
 23  14  17  1   
 24  15  27  1   
 25  15  28  1   
 26  15  29  1   
 27  16  18  1   
 28  17  19  1   
 29  17  20  1   
 30  17  30  1   
 31  18  21  1   
 32  19  31  1   
 33  19  32  1   
 34  19  33  1   
 35  20  34  1   
 36  20  35  1   
 37  20  36  1   
 38  21  37  1   
 39  21  38  1   
 40  21  39  1   
@<TRIPOS>SUBSTRUCTURE
  1 ****   3 GROUP 4 **** **** 0

# MOE 2024.06 (io_trps.svl 2023.06)
