@<TRIPOS>MOLECULE
NONAME
56 58 1 0 0 
SMALL
USER_CHARGES


@<TRIPOS>ATOM
  1 S       -2.6200    -2.3180    -3.4130 S.3   1 <1>  -0.0800 
  2 C       -2.5680    -2.3930    -1.6470 C.2   1 <1>  -0.0450 
  3 C       -3.2220    -0.6760    -3.4020 C.2   1 <1>  -0.1100 
  4 C       -2.1210    -3.6090    -1.0140 C.2   1 <1>   0.7150 
  5 C       -2.9980    -1.2010    -1.1540 C.2   1 <1>  -0.1500 
  6 C       -3.3640    -0.2370    -2.1390 C.2   1 <1>  -0.1500 
  7 O       -1.7840    -4.5810    -1.6610 O.2   1 <1>  -0.5700 
  8 N       -2.0800    -3.6690     0.3500 N.am  1 <1>  -0.7300 
  9 C       -1.7210    -4.8540     1.1750 C.3   1 <1>   0.3610 
 10 C       -2.4720    -6.1730     0.7800 C.2   1 <1>   0.5690 
 11 C       -2.0530    -4.4790     2.6260 C.3   1 <1>  -0.2400 
 12 C       -0.1970    -5.0190     1.0660 C.3   1 <1>  -0.2400 
 13 O       -2.0040    -7.2420     1.1230 O.2   1 <1>  -0.5700 
 14 N       -3.6720    -6.1790     0.1030 N.am  1 <1>  -0.6600 
 15 C       -4.0810    -7.3690    -0.6520 C.3   1 <1>   0.1400 
 16 C       -4.8290    -5.3060     0.4000 C.3   1 <1>   0.1400 
 17 C       -5.0990    -8.0620     0.2670 C.3   1 <1>   0.4230 
 18 C       -5.9580    -6.1420     1.0630 C.3   1 <1>  -0.1600 
 19 N       -4.9910    -9.5680     0.2890 N.4   1 <1>  -0.9590 
 20 C       -6.5310    -7.3510     0.1360 C.3   1 <1>   0.0000 
 21 C       -5.1620   -10.1560    -1.0520 C.3   1 <1>   0.3430 
 22 C       -3.6960    -9.9930     0.9170 C.3   1 <1>   0.2630 
 23 C       -7.1170    -8.4940    -0.8490 C.3   1 <1>  -0.1600 
 24 C       -7.9620    -6.6330     0.0970 C.3   1 <1>   0.1200 
 25 C       -6.2270    -9.3550    -1.7800 C.3   1 <1>  -0.1600 
 26 O       -7.9310    -5.5980    -0.8350 O.3   1 <1>  -0.6800 
 27 H       -3.4070    -0.2080    -4.3530 H     1 <1>   0.1500 
 28 H       -3.0750    -0.9560    -0.1100 H     1 <1>   0.1500 
 29 H       -3.7190     0.7400    -1.8590 H     1 <1>   0.1500 
 30 H       -2.1820    -2.8020     0.8690 H     1 <1>   0.3700 
 31 H       -1.7750    -5.2880     3.2780 H     1 <1>   0.0800 
 32 H       -3.1050    -4.3040     2.7490 H     1 <1>   0.0800 
 33 H       -1.5090    -3.6030     2.9310 H     1 <1>   0.0800 
 34 H        0.1430    -5.7880     1.7370 H     1 <1>   0.0800 
 35 H        0.3110    -4.1040     1.3110 H     1 <1>   0.0800 
 36 H        0.0730    -5.3150     0.0680 H     1 <1>   0.0800 
 37 H       -4.5270    -7.0620    -1.5810 H     1 <1>   0.0800 
 38 H       -3.2250    -7.9860    -0.8600 H     1 <1>   0.0800 
 39 H       -4.5380    -4.5030     1.0530 H     1 <1>   0.0800 
 40 H       -5.1880    -4.8690    -0.5180 H     1 <1>   0.0800 
 41 H       -4.7170    -7.8340     1.2450 H     1 <1>   0.0800 
 42 H       -5.6310    -6.4930     2.0290 H     1 <1>   0.0800 
 43 H       -6.6270    -5.3500     1.3580 H     1 <1>   0.0800 
 44 H       -5.7660    -9.8990     0.8760 H     1 <1>   0.4500 
 45 H       -4.2380   -10.1150    -1.6060 H     1 <1>   0.0800 
 46 H       -5.4650   -11.1870    -0.9620 H     1 <1>   0.0800 
 47 H       -2.8590    -9.6510     0.3300 H     1 <1>   0.0800 
 48 H       -3.6480   -11.0670     0.9940 H     1 <1>   0.0800 
 49 H       -3.6030    -9.5710     1.9050 H     1 <1>   0.0800 
 50 H       -7.7140    -9.1730    -0.2600 H     1 <1>   0.0800 
 51 H       -7.7730    -8.0800    -1.6060 H     1 <1>   0.0800 
 52 H       -8.2880    -6.2370     1.0450 H     1 <1>   0.0800 
 53 H       -8.8140    -7.2490    -0.1510 H     1 <1>   0.0800 
 54 H       -5.7530    -8.7240    -2.5120 H     1 <1>   0.0800 
 55 H       -6.8440   -10.0420    -2.3350 H     1 <1>   0.0800 
 56 H       -8.8020    -5.1570    -0.9060 H     1 <1>   0.4000 
@<TRIPOS>BOND
  1   1   2  1   
  2   1   3  1   
  3   2   4  1   
  4   2   5  2   
  5   3   6  2   
  6   3  27  1   
  7   4   7  2   
  8   4   8  am  
  9   5   6  1   
 10   5  28  1   
 11   6  29  1   
 12   8   9  1   
 13   8  30  1   
 14   9  10  1   
 15   9  11  1   
 16   9  12  1   
 17  10  13  2   
 18  10  14  am  
 19  11  31  1   
 20  11  32  1   
 21  11  33  1   
 22  12  34  1   
 23  12  35  1   
 24  12  36  1   
 25  14  15  1   
 26  14  16  1   
 27  15  17  1   
 28  15  37  1   
 29  15  38  1   
 30  16  18  1   
 31  16  39  1   
 32  16  40  1   
 33  17  19  1   
 34  17  20  1   
 35  17  41  1   
 36  18  20  1   
 37  18  42  1   
 38  18  43  1   
 39  19  21  1   
 40  19  22  1   
 41  19  44  1   
 42  20  23  1   
 43  20  24  1   
 44  21  25  1   
 45  21  45  1   
 46  21  46  1   
 47  22  47  1   
 48  22  48  1   
 49  22  49  1   
 50  23  25  1   
 51  23  50  1   
 52  23  51  1   
 53  24  26  1   
 54  24  52  1   
 55  24  53  1   
 56  25  54  1   
 57  25  55  1   
 58  26  56  1   
@<TRIPOS>SUBSTRUCTURE
  1 ****  14 GROUP 4 **** **** 0

# MOE 2024.06 (io_trps.svl 2023.06)
