@<TRIPOS>MOLECULE
NONAME
56 59 1 0 0 
SMALL
USER_CHARGES


@<TRIPOS>ATOM
  1 O        0.7350     1.2530    -1.4750 O.2   1 <1>  -0.5700 
  2 C        1.6280     1.7260    -0.8100 C.2   1 <1>   0.6340 
  3 O        2.6510     0.9280    -0.5100 O.3   1 <1>  -0.4300 
  4 C        1.6420     3.1000    -0.3600 C.ar  1 <1>   0.0860 
  5 C        3.4420     1.1410     0.6360 C.3   1 <1>   0.2640 
  6 C        2.7510     3.5520     0.3960 C.ar  1 <1>   0.0000 
  7 C        0.6350     3.9910    -0.6610 C.ar  1 <1>  -0.1500 
  8 C        3.7050     2.6260     0.8580 C.ar  1 <1>  -0.1440 
  9 C        2.9040     4.9240     0.7040 C.ar  1 <1>   0.0000 
 10 C        0.7130     5.3240    -0.2640 C.ar  1 <1>  -0.1500 
 11 C        4.8210     3.0510     1.5220 C.ar  1 <1>  -0.1500 
 12 C        4.1130     5.3460     1.3170 C.ar  1 <1>  -0.1430 
 13 C        1.8180     5.7770     0.4030 C.ar  1 <1>  -0.1500 
 14 C        5.0270     4.4140     1.7430 C.ar  1 <1>  -0.1500 
 15 C        4.4240     6.8270     1.5270 C.3   1 <1>   0.4860 
 16 N        5.1340     7.4240     0.3450 N.4   1 <1>  -0.9590 
 17 C        4.2290     7.6620    -0.8150 C.3   1 <1>   0.4230 
 18 C        6.3890     6.6830     0.0540 C.3   1 <1>   0.5240 
 19 C        4.9690     7.8910    -2.1340 C.3   1 <1>  -0.2400 
 20 C        3.4030     8.9120    -0.5080 C.3   1 <1>  -0.2400 
 21 C        7.4690     7.7190    -0.1580 C.2   1 <1>  -0.1810 
 22 C        8.3200     7.7740    -1.2590 C.2   1 <1>   0.1080 
 23 C        7.8390     8.7700     0.6180 C.2   1 <1>  -0.3320 
 24 N        9.1240     8.7800    -1.1950 N.2   1 <1>  -0.7070 
 25 C        8.3840     6.8230    -2.4360 C.3   1 <1>  -0.0590 
 26 N        8.8410     9.3980    -0.0430 N.pl3 1 <1>   0.3140 
 27 C        7.3430     9.2460     1.9790 C.3   1 <1>  -0.0600 
 28 C        9.5970    10.5880     0.3720 C.3   1 <1>   0.0160 
 29 H        4.3620     0.6000     0.5020 H     1 <1>   0.0800 
 30 H        2.9120     0.7280     1.4770 H     1 <1>   0.0800 
 31 H       -0.2290     3.6580    -1.2140 H     1 <1>   0.1500 
 32 H       -0.1090     5.9830    -0.4930 H     1 <1>   0.1500 
 33 H        5.5520     2.3480     1.8870 H     1 <1>   0.1500 
 34 H        1.8330     6.8030     0.7100 H     1 <1>   0.1500 
 35 H        5.9290     4.6940     2.2620 H     1 <1>   0.1500 
 36 H        5.0540     6.9170     2.3970 H     1 <1>   0.0800 
 37 H        3.5170     7.3660     1.7350 H     1 <1>   0.0800 
 38 H        5.4940     8.3510     0.6010 H     1 <1>   0.4500 
 39 H        3.5740     6.8150    -0.9450 H     1 <1>   0.0800 
 40 H        6.2720     6.0480    -0.8080 H     1 <1>   0.0800 
 41 H        6.6770     6.0730     0.8910 H     1 <1>   0.0800 
 42 H        5.6820     8.6930    -2.0530 H     1 <1>   0.0800 
 43 H        4.2620     8.1600    -2.8990 H     1 <1>   0.0800 
 44 H        5.4550     6.9950    -2.4700 H     1 <1>   0.0800 
 45 H        4.0360     9.7810    -0.4490 H     1 <1>   0.0800 
 46 H        2.8450     8.8230     0.4040 H     1 <1>   0.0800 
 47 H        2.6950     9.0770    -1.3020 H     1 <1>   0.0800 
 48 H        7.9220     5.8810    -2.2120 H     1 <1>   0.0800 
 49 H        9.4140     6.6450    -2.6900 H     1 <1>   0.0800 
 50 H        7.9020     7.2690    -3.2870 H     1 <1>   0.0800 
 51 H        6.6740     8.5370     2.4260 H     1 <1>   0.0800 
 52 H        6.8420    10.1940     1.8830 H     1 <1>   0.0800 
 53 H        8.1780     9.3700     2.6470 H     1 <1>   0.0800 
 54 H        8.9150    11.3880     0.5890 H     1 <1>   0.0800 
 55 H       10.2530    10.8830    -0.4260 H     1 <1>   0.0800 
 56 H       10.1800    10.3510     1.2420 H     1 <1>   0.0800 
@<TRIPOS>BOND
  1   1   2  2   
  2   2   3  1   
  3   2   4  1   
  4   3   5  1   
  5   4   6  ar  
  6   4   7  ar  
  7   5   8  1   
  8   5  29  1   
  9   5  30  1   
 10   6   8  ar  
 11   6   9  ar  
 12   7  10  ar  
 13   7  31  1   
 14   8  11  ar  
 15   9  12  ar  
 16   9  13  ar  
 17  10  13  ar  
 18  10  32  1   
 19  11  14  ar  
 20  11  33  1   
 21  12  14  ar  
 22  12  15  1   
 23  13  34  1   
 24  14  35  1   
 25  15  16  1   
 26  15  36  1   
 27  15  37  1   
 28  16  17  1   
 29  16  18  1   
 30  16  38  1   
 31  17  19  1   
 32  17  20  1   
 33  17  39  1   
 34  18  21  1   
 35  18  40  1   
 36  18  41  1   
 37  19  42  1   
 38  19  43  1   
 39  19  44  1   
 40  20  45  1   
 41  20  46  1   
 42  20  47  1   
 43  21  22  1   
 44  21  23  2   
 45  22  24  2   
 46  22  25  1   
 47  23  26  1   
 48  23  27  1   
 49  24  26  1   
 50  25  48  1   
 51  25  49  1   
 52  25  50  1   
 53  26  28  1   
 54  27  51  1   
 55  27  52  1   
 56  27  53  1   
 57  28  54  1   
 58  28  55  1   
 59  28  56  1   
@<TRIPOS>SUBSTRUCTURE
  1 ****  12 GROUP 4 **** **** 0

# MOE 2024.06 (io_trps.svl 2023.06)
