@<TRIPOS>MOLECULE
NONAME
46 47 1 0 0 
SMALL
USER_CHARGES


@<TRIPOS>ATOM
  1 F        0.8260    -1.0580     1.1120 F     1 <1>  -0.3400 
  2 C       -0.3890    -1.1280     0.5940 C.3   1 <1>   1.0200 
  3 F       -0.2720    -0.8980    -0.7050 F     1 <1>  -0.3400 
  4 F       -1.0850    -0.1190     1.0960 F     1 <1>  -0.3400 
  5 C       -1.0620    -2.4800     0.8770 C.3   1 <1>  -0.1600 
  6 C       -2.4930    -2.6030     0.3030 C.3   1 <1>  -0.1600 
  7 C       -3.1100    -3.9690     0.6200 C.3   1 <1>   0.3430 
  8 N       -4.4410    -4.0940    -0.0140 N.4   1 <1>  -0.9590 
  9 C       -4.8890    -5.5250    -0.0370 C.3   1 <1>   0.3430 
 10 C       -5.4900    -3.2560     0.6510 C.3   1 <1>   0.3430 
 11 C       -6.1310    -5.6410    -0.9410 C.3   1 <1>   0.2000 
 12 C       -6.8280    -3.3710    -0.0930 C.3   1 <1>  -0.1600 
 13 O       -5.8010    -5.1160    -2.1990 O.3   1 <1>  -0.6800 
 14 C       -7.2890    -4.8460    -0.3070 C.3   1 <1>  -0.1060 
 15 C       -7.5220    -5.5800     1.0180 C.2   1 <1>   0.9060 
 16 C       -8.5710    -4.9040    -1.1820 C.3   1 <1>  -0.0160 
 17 O       -7.1300    -5.0730     2.0730 O.co2 1 <1>  -0.9000 
 18 O       -7.9020    -6.7500     0.9660 O.co2 1 <1>  -0.9000 
 19 C       -9.7020    -4.0210    -0.6660 C.ar  1 <1>  -0.1440 
 20 C      -10.4570    -4.4190     0.4260 C.ar  1 <1>  -0.1500 
 21 C       -9.9890    -2.8110    -1.2820 C.ar  1 <1>  -0.1500 
 22 C      -11.4800    -3.6180     0.9010 C.ar  1 <1>  -0.1500 
 23 C      -11.0130    -2.0090    -0.8090 C.ar  1 <1>  -0.1500 
 24 C      -11.7600    -2.4120     0.2840 C.ar  1 <1>  -0.1500 
 25 H       -0.4360    -3.2480     0.4600 H     1 <1>   0.0800 
 26 H       -1.0870    -2.6130     1.9430 H     1 <1>   0.0800 
 27 H       -2.4570    -2.4720    -0.7650 H     1 <1>   0.0800 
 28 H       -3.1030    -1.8230     0.7250 H     1 <1>   0.0800 
 29 H       -3.2040    -4.0980     1.6870 H     1 <1>   0.0800 
 30 H       -2.4610    -4.7420     0.2420 H     1 <1>   0.0800 
 31 H       -4.4230    -3.8340    -1.0130 H     1 <1>   0.4500 
 32 H       -4.1140    -6.1570    -0.4350 H     1 <1>   0.0800 
 33 H       -5.1230    -5.8620     0.9610 H     1 <1>   0.0800 
 34 H       -5.6150    -3.5770     1.6730 H     1 <1>   0.0800 
 35 H       -5.1890    -2.2230     0.6660 H     1 <1>   0.0800 
 36 H       -6.4010    -6.6780    -1.0650 H     1 <1>   0.0800 
 37 H       -7.5690    -2.8520     0.4910 H     1 <1>   0.0800 
 38 H       -6.7510    -2.8640    -1.0370 H     1 <1>   0.0800 
 39 H       -6.5350    -5.2860    -2.8240 H     1 <1>   0.4000 
 40 H       -8.3450    -4.6000    -2.1870 H     1 <1>   0.0800 
 41 H       -8.9270    -5.9200    -1.2350 H     1 <1>   0.0800 
 42 H      -10.2470    -5.3570     0.9160 H     1 <1>   0.1500 
 43 H       -9.4160    -2.4860    -2.1310 H     1 <1>   0.1500 
 44 H      -12.0530    -3.9380     1.7530 H     1 <1>   0.1500 
 45 H      -11.2300    -1.0720    -1.2910 H     1 <1>   0.1500 
 46 H      -12.5550    -1.7900     0.6560 H     1 <1>   0.1500 
@<TRIPOS>BOND
  1   1   2  1   
  2   2   3  1   
  3   2   4  1   
  4   2   5  1   
  5   5   6  1   
  6   5  25  1   
  7   5  26  1   
  8   6   7  1   
  9   6  27  1   
 10   6  28  1   
 11   7   8  1   
 12   7  29  1   
 13   7  30  1   
 14   8   9  1   
 15   8  10  1   
 16   8  31  1   
 17   9  11  1   
 18   9  32  1   
 19   9  33  1   
 20  10  12  1   
 21  10  34  1   
 22  10  35  1   
 23  11  13  1   
 24  11  14  1   
 25  11  36  1   
 26  12  14  1   
 27  12  37  1   
 28  12  38  1   
 29  13  39  1   
 30  14  15  1   
 31  14  16  1   
 32  15  17  ar  
 33  15  18  ar  
 34  16  19  1   
 35  16  40  1   
 36  16  41  1   
 37  19  20  ar  
 38  19  21  ar  
 39  20  22  ar  
 40  20  42  1   
 41  21  23  ar  
 42  21  43  1   
 43  22  24  ar  
 44  22  44  1   
 45  23  24  ar  
 46  23  45  1   
 47  24  46  1   
@<TRIPOS>SUBSTRUCTURE
  1 ****  10 GROUP 4 **** **** 0

# MOE 2024.06 (io_trps.svl 2023.06)
