@<TRIPOS>MOLECULE
NONAME
49 52 1 0 0 
SMALL
USER_CHARGES


@<TRIPOS>ATOM
  1 O        0.2100     0.7230     0.3440 O.2   1 <1>  -0.5700 
  2 C       -0.3210     1.7410    -0.0360 C.2   1 <1>   0.5690 
  3 N       -1.6770     1.8090    -0.2270 N.am  1 <1>  -0.6600 
  4 C        0.5500     2.9600    -0.3000 C.3   1 <1>  -0.0990 
  5 C       -2.4260     3.0180    -0.6950 C.3   1 <1>   0.1400 
  6 C       -2.5210     0.6000     0.0230 C.3   1 <1>   0.1400 
  7 C        2.0500     2.7230    -0.0760 C.3   1 <1>  -0.0160 
  8 C       -3.5020     3.4430     0.3300 C.3   1 <1>   0.1440 
  9 C       -4.0190     0.9400     0.1250 C.3   1 <1>  -0.1600 
 10 C        2.8200     4.0090    -0.3310 C.ar  1 <1>  -0.1440 
 11 C       -4.4400     4.4020    -0.3830 C.ar  1 <1>   0.1660 
 12 C       -4.2400     2.2210     0.9440 C.3   1 <1>  -0.1600 
 13 C       -2.9020     4.3480     1.4390 C.3   1 <1>  -0.1600 
 14 C        3.1630     4.3840    -1.6220 C.ar  1 <1>   0.1600 
 15 C        3.1820     4.8320     0.7170 C.ar  1 <1>  -0.1500 
 16 N       -5.3560     4.0620    -1.2630 N.ar  1 <1>  -0.6200 
 17 C       -4.2070     5.6950    -0.0220 C.ar  1 <1>  -0.1440 
 18 C       -3.0890     5.8050     0.9840 C.3   1 <1>  -0.0170 
 19 N        3.8130     5.4910    -1.9450 N.ar  1 <1>  -0.6200 
 20 C        3.8650     5.9860     0.4000 C.ar  1 <1>  -0.1500 
 21 C       -6.0460     5.0800    -1.7580 C.ar  1 <1>   0.4770 
 22 C       -4.9790     6.6720    -0.6000 C.ar  1 <1>   0.1600 
 23 C        4.1500     6.2640    -0.9260 C.ar  1 <1>   0.1600 
 24 N       -5.9130     6.3700    -1.4790 N.ar  1 <1>  -0.6200 
 25 C       -7.1180     4.7310    -2.7620 C.3   1 <1>  -0.0970 
 26 H        0.2280     3.7530     0.3480 H     1 <1>   0.0800 
 27 H        0.4000     3.2690    -1.3180 H     1 <1>   0.0800 
 28 H       -2.9090     2.7690    -1.6250 H     1 <1>   0.0800 
 29 H       -1.7720     3.8460    -0.8940 H     1 <1>   0.0800 
 30 H       -2.2020     0.1470     0.9470 H     1 <1>   0.0800 
 31 H       -2.3600    -0.1140    -0.7670 H     1 <1>   0.0800 
 32 H        2.4000     1.9490    -0.7380 H     1 <1>   0.0800 
 33 H        2.2190     2.3880     0.9330 H     1 <1>   0.0800 
 34 H       -4.5370     0.1170     0.5840 H     1 <1>   0.0800 
 35 H       -4.4290     1.0650    -0.8630 H     1 <1>   0.0800 
 36 H       -5.2930     2.4280     1.0250 H     1 <1>   0.0800 
 37 H       -3.8690     2.0330     1.9360 H     1 <1>   0.0800 
 38 H       -1.8730     4.1140     1.6460 H     1 <1>   0.0800 
 39 H       -3.4640     4.2210     2.3480 H     1 <1>   0.0800 
 40 H        2.8850     3.7380    -2.4380 H     1 <1>   0.1500 
 41 H        2.9450     4.5880     1.7380 H     1 <1>   0.1500 
 42 H       -2.2000     6.1730     0.5010 H     1 <1>   0.0800 
 43 H       -3.3530     6.4470     1.8060 H     1 <1>   0.0800 
 44 H        4.1770     6.6660     1.1710 H     1 <1>   0.1500 
 45 H       -4.8340     7.7070    -0.3460 H     1 <1>   0.1500 
 46 H        4.6840     7.1690    -1.1610 H     1 <1>   0.1500 
 47 H       -6.9280     3.7660    -3.1930 H     1 <1>   0.0800 
 48 H       -7.1380     5.4660    -3.5450 H     1 <1>   0.0800 
 49 H       -8.0720     4.7160    -2.2690 H     1 <1>   0.0800 
@<TRIPOS>BOND
  1   1   2  2   
  2   2   3  am  
  3   2   4  1   
  4   3   5  1   
  5   3   6  1   
  6   4   7  1   
  7   4  26  1   
  8   4  27  1   
  9   5   8  1   
 10   5  28  1   
 11   5  29  1   
 12   6   9  1   
 13   6  30  1   
 14   6  31  1   
 15   7  10  1   
 16   7  32  1   
 17   7  33  1   
 18   8  11  1   
 19   8  12  1   
 20   8  13  1   
 21   9  12  1   
 22   9  34  1   
 23   9  35  1   
 24  10  14  ar  
 25  10  15  ar  
 26  11  16  ar  
 27  11  17  ar  
 28  12  36  1   
 29  12  37  1   
 30  13  18  1   
 31  13  38  1   
 32  13  39  1   
 33  14  19  ar  
 34  14  40  1   
 35  15  20  ar  
 36  15  41  1   
 37  16  21  ar  
 38  17  18  1   
 39  17  22  ar  
 40  18  42  1   
 41  18  43  1   
 42  19  23  ar  
 43  20  23  ar  
 44  20  44  1   
 45  21  24  ar  
 46  21  25  1   
 47  22  24  ar  
 48  22  45  1   
 49  23  46  1   
 50  25  47  1   
 51  25  48  1   
 52  25  49  1   
@<TRIPOS>SUBSTRUCTURE
  1 ****   5 GROUP 4 **** **** 0

# MOE 2024.06 (io_trps.svl 2023.06)
