@<TRIPOS>MOLECULE
NONAME
52 55 1 0 0 
SMALL
USER_CHARGES


@<TRIPOS>ATOM
  1 O        2.7770     3.1600    -1.3900 O.3   1 <1>  -0.0190 
  2 N        3.9690     2.6540    -1.4940 N.2   1 <1>  -0.4100 
  3 C        2.0750     2.5690    -0.4600 C.2   1 <1>  -0.0400 
  4 C        4.0330     1.7090    -0.6260 C.2   1 <1>   0.1080 
  5 C        2.8360     1.6050     0.0780 C.2   1 <1>  -0.1500 
  6 C        0.6580     3.0270    -0.1690 C.3   1 <1>   0.0200 
  7 C        5.2470     0.8340    -0.4080 C.3   1 <1>  -0.0590 
  8 C        0.6520     4.4550     0.4020 C.3   1 <1>  -0.0800 
  9 C       -0.7520     4.9660     0.7600 C.3   1 <1>   0.2000 
 10 C        1.2120     5.4870    -0.5870 C.3   1 <1>   0.3430 
 11 O       -0.7650     5.3240     2.1010 O.3   1 <1>  -0.6800 
 12 C       -0.9410     6.2420    -0.0720 C.3   1 <1>   0.3430 
 13 N        0.4330     6.7330    -0.3670 N.4   1 <1>  -0.9590 
 14 C        0.9770     7.5040     0.7900 C.3   1 <1>   0.4860 
 15 C        1.9870     8.5130     0.2640 C.ar  1 <1>  -0.1440 
 16 C        3.3650     8.2680     0.1670 C.ar  1 <1>  -0.0230 
 17 C        1.4810     9.7430    -0.1300 C.ar  1 <1>  -0.1500 
 18 N        3.9680     7.0170     0.5140 N.pl3 1 <1>   0.5930 
 19 C        4.1870     9.2890    -0.3090 C.ar  1 <1>  -0.1500 
 20 C        2.3050    10.7400    -0.6150 C.ar  1 <1>   0.0820 
 21 N        3.5500     6.2190     1.5320 N.2   1 <1>  -0.7070 
 22 C        4.9370     6.3810    -0.1880 C.2   1 <1>  -0.3020 
 23 C        3.6720    10.5100    -0.7000 C.ar  1 <1>  -0.1500 
 24 O        1.7050    11.8980    -0.9810 O.3   1 <1>  -0.3620 
 25 C        4.2760     5.1460     1.4590 C.2   1 <1>   0.1390 
 26 C        5.1610     5.1850     0.3920 C.2   1 <1>  -0.1500 
 27 C        2.4590    13.0070    -1.4220 C.3   1 <1>   0.0400 
 28 H        2.6170     0.9010     0.8610 H     1 <1>   0.1500 
 29 H        0.0780     2.9740    -1.0740 H     1 <1>   0.0800 
 30 H        0.2200     2.3520     0.5460 H     1 <1>   0.0800 
 31 H        4.9900    -0.1950    -0.5780 H     1 <1>   0.0800 
 32 H        5.6070     0.9480     0.5980 H     1 <1>   0.0800 
 33 H        6.0290     1.1120    -1.0910 H     1 <1>   0.0800 
 34 H        1.2820     4.4640     1.2760 H     1 <1>   0.0800 
 35 H       -1.5430     4.2550     0.5860 H     1 <1>   0.0800 
 36 H        1.0490     5.1380    -1.5940 H     1 <1>   0.0800 
 37 H        2.2690     5.6310    -0.4490 H     1 <1>   0.0800 
 38 H       -0.7150     4.5390     2.6870 H     1 <1>   0.4000 
 39 H       -1.5310     6.9710     0.4590 H     1 <1>   0.0800 
 40 H       -1.4340     5.9890    -0.9960 H     1 <1>   0.0800 
 41 H        0.4640     7.3510    -1.1890 H     1 <1>   0.4500 
 42 H        0.1770     8.0460     1.2680 H     1 <1>   0.0800 
 43 H        1.3990     6.8480     1.5300 H     1 <1>   0.0800 
 44 H        0.4290     9.9600    -0.0630 H     1 <1>   0.1500 
 45 H        5.2510     9.1350    -0.3760 H     1 <1>   0.1500 
 46 H        5.4030     6.8080    -1.0560 H     1 <1>   0.1500 
 47 H        4.3430    11.2650    -1.0640 H     1 <1>   0.1500 
 48 H        4.1970     4.3180     2.1450 H     1 <1>   0.1500 
 49 H        5.8550     4.4120     0.1100 H     1 <1>   0.1500 
 50 H        1.7790    13.8130    -1.6290 H     1 <1>   0.0800 
 51 H        2.9880    12.7370    -2.3190 H     1 <1>   0.0800 
 52 H        3.1420    13.2980    -0.6430 H     1 <1>   0.0800 
@<TRIPOS>BOND
  1   1   2  1   
  2   1   3  1   
  3   2   4  2   
  4   3   5  2   
  5   3   6  1   
  6   4   5  1   
  7   4   7  1   
  8   5  28  1   
  9   6   8  1   
 10   6  29  1   
 11   6  30  1   
 12   7  31  1   
 13   7  32  1   
 14   7  33  1   
 15   8   9  1   
 16   8  10  1   
 17   8  34  1   
 18   9  11  1   
 19   9  12  1   
 20   9  35  1   
 21  10  13  1   
 22  10  36  1   
 23  10  37  1   
 24  11  38  1   
 25  12  13  1   
 26  12  39  1   
 27  12  40  1   
 28  13  14  1   
 29  13  41  1   
 30  14  15  1   
 31  14  42  1   
 32  14  43  1   
 33  15  16  ar  
 34  15  17  ar  
 35  16  18  1   
 36  16  19  ar  
 37  17  20  ar  
 38  17  44  1   
 39  18  21  1   
 40  18  22  1   
 41  19  23  ar  
 42  19  45  1   
 43  20  23  ar  
 44  20  24  1   
 45  21  25  2   
 46  22  26  2   
 47  22  46  1   
 48  23  47  1   
 49  24  27  1   
 50  25  26  1   
 51  25  48  1   
 52  26  49  1   
 53  27  50  1   
 54  27  51  1   
 55  27  52  1   
@<TRIPOS>SUBSTRUCTURE
  1 ****  10 GROUP 4 **** **** 0

# MOE 2024.06 (io_trps.svl 2023.06)
