@<TRIPOS>MOLECULE
NONAME
48 51 1 0 0 
SMALL
USER_CHARGES


@<TRIPOS>ATOM
  1 S       -0.5380    -0.1550     1.0530 S.o2  1 <1>   1.0900 
  2 O        0.8000    -0.5350     0.6660 O.2   1 <1>  -0.6500 
  3 O       -0.7860     0.8510     2.0570 O.2   1 <1>  -0.6500 
  4 C       -1.4270    -1.6410     1.4250 C.3   1 <1>  -0.0550 
  5 C       -1.4600     0.2030    -0.4370 C.3   1 <1>  -0.0550 
  6 C       -1.7920    -2.2130     0.0570 C.3   1 <1>   0.1760 
  7 C       -2.2960    -1.0370    -0.8030 C.3   1 <1>  -0.1600 
  8 N       -2.8110    -3.2880     0.1630 N.pl3 1 <1>   0.3140 
  9 N       -3.9250    -3.1260     0.9050 N.2   1 <1>  -0.7070 
 10 C       -2.8040    -4.4920    -0.4640 C.2   1 <1>  -0.3320 
 11 C       -4.6040    -4.2140     0.7270 C.2   1 <1>   0.1080 
 12 C       -3.9570    -5.1100    -0.1250 C.2   1 <1>   0.0630 
 13 C       -1.6800    -4.9910    -1.3640 C.3   1 <1>  -0.0600 
 14 C       -5.9480    -4.4420     1.3830 C.3   1 <1>  -0.0590 
 15 N       -4.4380    -6.3840    -0.5140 N.am  1 <1>  -0.4930 
 16 C       -4.6090    -6.9120    -1.7620 C.2   1 <1>   0.7160 
 17 O       -4.2480    -6.3020    -2.7540 O.2   1 <1>  -0.5700 
 18 C       -5.2450    -8.2150    -1.8750 C.2   1 <1>   0.1410 
 19 N       -5.6780    -8.8880    -0.7230 N.2   1 <1>  -0.5650 
 20 C       -5.4770    -8.8750    -3.0280 C.2   1 <1>  -0.1100 
 21 C       -6.2270   -10.0250    -0.9740 C.2   1 <1>   0.3250 
 22 S       -6.2570   -10.3810    -2.6970 S.3   1 <1>  -0.0800 
 23 C       -6.7790   -10.9840    -0.0370 C.ar  1 <1>   0.0530 
 24 C       -6.5350   -10.8420     1.3310 C.ar  1 <1>  -0.1500 
 25 C       -7.5670   -12.0710    -0.4290 C.ar  1 <1>  -0.1500 
 26 C       -7.0410   -11.7330     2.2590 C.ar  1 <1>  -0.1500 
 27 C       -8.0760   -12.9670     0.4940 C.ar  1 <1>  -0.1500 
 28 C       -7.8140   -12.8010     1.8410 C.ar  1 <1>  -0.1500 
 29 H       -2.3200    -1.3970     1.9700 H     1 <1>   0.0800 
 30 H       -0.8300    -2.3270     1.9930 H     1 <1>   0.0800 
 31 H       -0.7800     0.4420    -1.2330 H     1 <1>   0.0800 
 32 H       -2.1090     1.0440    -0.2810 H     1 <1>   0.0800 
 33 H       -0.9020    -2.6170    -0.3890 H     1 <1>   0.0800 
 34 H       -2.2170    -1.2650    -1.8510 H     1 <1>   0.0800 
 35 H       -3.3290    -0.8380    -0.5660 H     1 <1>   0.0800 
 36 H       -0.7370    -4.9490    -0.8490 H     1 <1>   0.0800 
 37 H       -1.6270    -4.3920    -2.2550 H     1 <1>   0.0800 
 38 H       -1.8530    -6.0110    -1.6540 H     1 <1>   0.0800 
 39 H       -6.3670    -3.5010     1.6880 H     1 <1>   0.0800 
 40 H       -5.8270    -5.0670     2.2470 H     1 <1>   0.0800 
 41 H       -6.6220    -4.9120     0.6910 H     1 <1>   0.0800 
 42 H       -4.8450    -6.9630     0.2220 H     1 <1>   0.3700 
 43 H       -5.2630    -8.6170    -4.0500 H     1 <1>   0.1500 
 44 H       -5.9340   -10.0180     1.6730 H     1 <1>   0.1500 
 45 H       -7.7950   -12.2300    -1.4670 H     1 <1>   0.1500 
 46 H       -6.8340   -11.5980     3.3060 H     1 <1>   0.1500 
 47 H       -8.6790   -13.7960     0.1650 H     1 <1>   0.1500 
 48 H       -8.2100   -13.4970     2.5600 H     1 <1>   0.1500 
@<TRIPOS>BOND
  1   1   2  2   
  2   1   3  2   
  3   1   4  1   
  4   1   5  1   
  5   4   6  1   
  6   4  29  1   
  7   4  30  1   
  8   5   7  1   
  9   5  31  1   
 10   5  32  1   
 11   6   7  1   
 12   6   8  1   
 13   6  33  1   
 14   7  34  1   
 15   7  35  1   
 16   8   9  1   
 17   8  10  1   
 18   9  11  2   
 19  10  12  2   
 20  10  13  1   
 21  11  12  1   
 22  11  14  1   
 23  12  15  1   
 24  13  36  1   
 25  13  37  1   
 26  13  38  1   
 27  14  39  1   
 28  14  40  1   
 29  14  41  1   
 30  15  16  am  
 31  15  42  1   
 32  16  17  2   
 33  16  18  1   
 34  18  19  1   
 35  18  20  2   
 36  19  21  2   
 37  20  22  1   
 38  20  43  1   
 39  21  22  1   
 40  21  23  1   
 41  23  24  ar  
 42  23  25  ar  
 43  24  26  ar  
 44  24  44  1   
 45  25  27  ar  
 46  25  45  1   
 47  26  28  ar  
 48  26  46  1   
 49  27  28  ar  
 50  27  47  1   
 51  28  48  1   
@<TRIPOS>SUBSTRUCTURE
  1 ****  15 GROUP 4 **** **** 0

# MOE 2024.06 (io_trps.svl 2023.06)
