@<TRIPOS>MOLECULE
NONAME
55 58 1 0 0 
SMALL
USER_CHARGES


@<TRIPOS>ATOM
  1 O        0.0470     0.4680     0.3000 O.2   1 <1>  -0.5700 
  2 C       -0.6220     1.4010    -0.0780 C.2   1 <1>   0.5690 
  3 N       -1.9940     1.3550    -0.0550 N.am  1 <1>  -0.6600 
  4 C        0.0940     2.6500    -0.5860 C.3   1 <1>  -0.0990 
  5 C       -2.9080     2.4710    -0.4630 C.3   1 <1>   0.1400 
  6 C       -2.7210     0.1340     0.4010 C.3   1 <1>   0.1400 
  7 C        1.6320     2.5640    -0.5470 C.3   1 <1>  -0.1600 
  8 C       -3.8400     2.8740     0.6960 C.3   1 <1>   0.1440 
  9 C       -3.6650     0.4830     1.5580 C.3   1 <1>  -0.1600 
 10 C        2.2940     3.8450    -1.0710 C.3   1 <1>   0.0210 
 11 C       -4.7580     3.9760     0.2050 C.ar  1 <1>   0.1660 
 12 C       -4.6180     1.6350     1.1900 C.3   1 <1>  -0.1600 
 13 C       -3.0660     3.5700     1.8490 C.3   1 <1>  -0.1600 
 14 C        3.8120     3.7720    -1.0170 C.2   1 <1>  -0.1810 
 15 N       -5.7420     3.8170    -0.6450 N.ar  1 <1>  -0.6200 
 16 C       -4.4260     5.1840     0.7380 C.ar  1 <1>  -0.1440 
 17 C       -3.2390     5.0870     1.6630 C.3   1 <1>  -0.0170 
 18 C        4.6820     4.7870    -1.4050 C.2   1 <1>   0.1390 
 19 C        4.6220     2.7720    -0.6080 C.2   1 <1>  -0.3020 
 20 C       -6.4190     4.9270    -0.9480 C.ar  1 <1>   0.7200 
 21 C       -5.1770     6.2710     0.3690 C.ar  1 <1>   0.1600 
 22 N        5.9290     4.4560    -1.2530 N.2   1 <1>  -0.7070 
 23 N        5.8880     3.2050    -0.7590 N.pl3 1 <1>   0.3000 
 24 N       -6.1750     6.1540    -0.4740 N.ar  1 <1>  -0.6200 
 25 N       -7.4670     4.7950    -1.8390 N.pl3 1 <1>  -0.8380 
 26 C       -8.0580     3.4710    -2.1750 C.3   1 <1>   0.1290 
 27 C       -8.1140     5.9740    -2.4770 C.3   1 <1>   0.1290 
 28 H       -0.2190     3.4830     0.0150 H     1 <1>   0.0800 
 29 H       -0.2180     2.8210    -1.6000 H     1 <1>   0.0800 
 30 H       -3.5090     2.1370    -1.2920 H     1 <1>   0.0800 
 31 H       -2.3590     3.3330    -0.7920 H     1 <1>   0.0800 
 32 H       -2.0290    -0.6270     0.7200 H     1 <1>   0.0800 
 33 H       -3.2860    -0.2610    -0.4260 H     1 <1>   0.0800 
 34 H        1.9550     1.7280    -1.1440 H     1 <1>   0.0800 
 35 H        1.9500     2.3880     0.4670 H     1 <1>   0.0800 
 36 H       -3.0750     0.7470     2.4170 H     1 <1>   0.0800 
 37 H       -4.2400    -0.3890     1.8160 H     1 <1>   0.0800 
 38 H        1.9710     4.6840    -0.4800 H     1 <1>   0.0800 
 39 H        1.9940     4.0150    -2.0900 H     1 <1>   0.0800 
 40 H       -5.2750     1.3020     0.4050 H     1 <1>   0.0800 
 41 H       -5.2330     1.8940     2.0340 H     1 <1>   0.0800 
 42 H       -2.0280     3.2880     1.8810 H     1 <1>   0.0800 
 43 H       -3.5100     3.3000     2.7910 H     1 <1>   0.0800 
 44 H       -2.3730     5.5150     1.1880 H     1 <1>   0.0800 
 45 H       -3.4260     5.5820     2.6010 H     1 <1>   0.0800 
 46 H        4.3700     5.7430    -1.7890 H     1 <1>   0.1500 
 47 H        4.3780     1.7970    -0.2260 H     1 <1>   0.1500 
 48 H       -4.9560     7.2470     0.7650 H     1 <1>   0.1500 
 49 H        6.7400     2.6770    -0.5350 H     1 <1>   0.2700 
 50 H       -7.9200     2.7770    -1.3650 H     1 <1>   0.0800 
 51 H       -7.5830     3.0790    -3.0570 H     1 <1>   0.0800 
 52 H       -9.1140     3.5720    -2.3550 H     1 <1>   0.0800 
 53 H       -7.4080     6.7780    -2.5890 H     1 <1>   0.0800 
 54 H       -8.9320     6.3100    -1.8640 H     1 <1>   0.0800 
 55 H       -8.4830     5.7110    -3.4520 H     1 <1>   0.0800 
@<TRIPOS>BOND
  1   1   2  2   
  2   2   3  am  
  3   2   4  1   
  4   3   5  1   
  5   3   6  1   
  6   4   7  1   
  7   4  28  1   
  8   4  29  1   
  9   5   8  1   
 10   5  30  1   
 11   5  31  1   
 12   6   9  1   
 13   6  32  1   
 14   6  33  1   
 15   7  10  1   
 16   7  34  1   
 17   7  35  1   
 18   8  11  1   
 19   8  12  1   
 20   8  13  1   
 21   9  12  1   
 22   9  36  1   
 23   9  37  1   
 24  10  14  1   
 25  10  38  1   
 26  10  39  1   
 27  11  15  ar  
 28  11  16  ar  
 29  12  40  1   
 30  12  41  1   
 31  13  17  1   
 32  13  42  1   
 33  13  43  1   
 34  14  18  1   
 35  14  19  2   
 36  15  20  ar  
 37  16  17  1   
 38  16  21  ar  
 39  17  44  1   
 40  17  45  1   
 41  18  22  2   
 42  18  46  1   
 43  19  23  1   
 44  19  47  1   
 45  20  24  ar  
 46  20  25  1   
 47  21  24  ar  
 48  21  48  1   
 49  22  23  1   
 50  23  49  1   
 51  25  26  1   
 52  25  27  1   
 53  26  50  1   
 54  26  51  1   
 55  26  52  1   
 56  27  53  1   
 57  27  54  1   
 58  27  55  1   
@<TRIPOS>SUBSTRUCTURE
  1 ****   5 GROUP 4 **** **** 0

# MOE 2024.06 (io_trps.svl 2023.06)
