@<TRIPOS>MOLECULE
NONAME
60 63 1 0 0 
SMALL
USER_CHARGES


@<TRIPOS>ATOM
  1 O        0.7080    -1.1360    -2.3640 O.2   1 <1>  -0.5700 
  2 C        1.3360    -1.3700    -1.3490 C.2   1 <1>   0.5440 
  3 N        1.8780    -0.3200    -0.6390 N.am  1 <1>  -0.6600 
  4 C        1.4830    -2.7480    -0.9210 C.ar  1 <1>   0.0860 
  5 C        2.2810    -0.4390     0.7950 C.3   1 <1>   0.1400 
  6 C        1.8890     1.0500    -1.2370 C.3   1 <1>   0.1400 
  7 C        0.4070    -3.6120    -0.8590 C.ar  1 <1>  -0.1500 
  8 C        2.7030    -3.3050    -0.5610 C.ar  1 <1>  -0.1500 
  9 C        1.9640     0.8530     1.5540 C.3   1 <1>  -0.1600 
 10 C        2.9380     1.9320    -0.5530 C.3   1 <1>  -0.1600 
 11 C        0.5670    -4.9270    -0.4480 C.ar  1 <1>   0.4100 
 12 C        2.7710    -4.6240    -0.1620 C.ar  1 <1>   0.1600 
 13 C        2.6880     2.0740     0.9590 C.3   1 <1>  -0.1600 
 14 N        1.7370    -5.4440    -0.0940 N.ar  1 <1>  -0.6200 
 15 N       -0.5310    -5.7570    -0.4070 N.pl3 1 <1>  -0.8690 
 16 C       -0.4410    -7.1920    -0.1090 C.3   1 <1>   0.2890 
 17 C       -0.0780    -7.9500    -1.3820 C.3   1 <1>  -0.1600 
 18 C       -1.7760    -7.6770     0.4420 C.3   1 <1>  -0.1600 
 19 C       -0.0210    -9.4450    -1.0990 C.3   1 <1>   0.3430 
 20 C       -1.7180    -9.1780     0.7070 C.3   1 <1>   0.3430 
 21 N       -1.3250    -9.9070    -0.5390 N.4   1 <1>  -0.9590 
 22 C       -1.3230   -11.3810    -0.3270 C.3   1 <1>   0.4860 
 23 C       -2.7400   -11.8290    -0.0330 C.ar  1 <1>  -0.1440 
 24 C       -3.6840   -11.8550    -1.0490 C.ar  1 <1>  -0.1500 
 25 C       -3.1090   -12.2140     1.2500 C.ar  1 <1>  -0.1500 
 26 C       -4.9810   -12.2510    -0.7780 C.ar  1 <1>   0.0820 
 27 C       -4.4100   -12.6120     1.5140 C.ar  1 <1>  -0.1500 
 28 O       -5.8730   -12.2620    -1.7770 O.3   1 <1>  -0.5330 
 29 C       -5.3520   -12.6300     0.5010 C.ar  1 <1>  -0.1500 
 30 H        3.3380    -0.6370     0.8480 H     1 <1>   0.0800 
 31 H        1.7560    -1.2570     1.2580 H     1 <1>   0.0800 
 32 H        0.9110     1.4870    -1.1250 H     1 <1>   0.0800 
 33 H        2.1050     0.9800    -2.2900 H     1 <1>   0.0800 
 34 H       -0.5670    -3.2560    -1.1350 H     1 <1>   0.1500 
 35 H        3.5930    -2.7040    -0.6010 H     1 <1>   0.1500 
 36 H        2.2350     0.7420     2.5890 H     1 <1>   0.0800 
 37 H        0.9000     1.0110     1.5160 H     1 <1>   0.0800 
 38 H        2.9450     2.9060    -1.0110 H     1 <1>   0.0800 
 39 H        3.9050     1.4910    -0.7210 H     1 <1>   0.0800 
 40 H        3.7300    -5.0290     0.1150 H     1 <1>   0.1500 
 41 H        3.6340     2.2120     1.4530 H     1 <1>   0.0800 
 42 H        2.0920     2.9510     1.1460 H     1 <1>   0.0800 
 43 H       -1.3440    -5.4540    -0.9480 H     1 <1>   0.4000 
 44 H        0.3210    -7.3530     0.6380 H     1 <1>   0.0800 
 45 H        0.8890    -7.6250    -1.7220 H     1 <1>   0.0800 
 46 H       -0.7930    -7.7500    -2.1600 H     1 <1>   0.0800 
 47 H       -2.5720    -7.4620    -0.2480 H     1 <1>   0.0800 
 48 H       -1.9820    -7.1660     1.3660 H     1 <1>   0.0800 
 49 H        0.7710    -9.6420    -0.3930 H     1 <1>   0.0800 
 50 H        0.2000    -9.9740    -2.0130 H     1 <1>   0.0800 
 51 H       -2.6850    -9.5180     1.0450 H     1 <1>   0.0800 
 52 H       -1.0000    -9.3760     1.4870 H     1 <1>   0.0800 
 53 H       -2.0620    -9.7240    -1.2330 H     1 <1>   0.4500 
 54 H       -0.6740   -11.6420     0.4920 H     1 <1>   0.0800 
 55 H       -0.9740   -11.8830    -1.2150 H     1 <1>   0.0800 
 56 H       -3.4400   -11.5800    -2.0600 H     1 <1>   0.1500 
 57 H       -2.3950   -12.2150     2.0560 H     1 <1>   0.1500 
 58 H       -4.6920   -12.9110     2.5110 H     1 <1>   0.1500 
 59 H       -6.7490   -12.6000    -1.5140 H     1 <1>   0.4500 
 60 H       -6.3600   -12.9400     0.7100 H     1 <1>   0.1500 
@<TRIPOS>BOND
  1   1   2  2   
  2   2   3  am  
  3   2   4  1   
  4   3   5  1   
  5   3   6  1   
  6   4   7  ar  
  7   4   8  ar  
  8   5   9  1   
  9   5  30  1   
 10   5  31  1   
 11   6  10  1   
 12   6  32  1   
 13   6  33  1   
 14   7  11  ar  
 15   7  34  1   
 16   8  12  ar  
 17   8  35  1   
 18   9  13  1   
 19   9  36  1   
 20   9  37  1   
 21  10  13  1   
 22  10  38  1   
 23  10  39  1   
 24  11  14  ar  
 25  11  15  1   
 26  12  14  ar  
 27  12  40  1   
 28  13  41  1   
 29  13  42  1   
 30  15  16  1   
 31  15  43  1   
 32  16  17  1   
 33  16  18  1   
 34  16  44  1   
 35  17  19  1   
 36  17  45  1   
 37  17  46  1   
 38  18  20  1   
 39  18  47  1   
 40  18  48  1   
 41  19  21  1   
 42  19  49  1   
 43  19  50  1   
 44  20  21  1   
 45  20  51  1   
 46  20  52  1   
 47  21  22  1   
 48  21  53  1   
 49  22  23  1   
 50  22  54  1   
 51  22  55  1   
 52  23  24  ar  
 53  23  25  ar  
 54  24  26  ar  
 55  24  56  1   
 56  25  27  ar  
 57  25  57  1   
 58  26  28  1   
 59  26  29  ar  
 60  27  29  ar  
 61  27  58  1   
 62  28  59  1   
 63  29  60  1   
@<TRIPOS>SUBSTRUCTURE
  1 ****  15 GROUP 4 **** **** 0

# MOE 2024.06 (io_trps.svl 2023.06)
