@<TRIPOS>MOLECULE
NONAME
52 56 1 0 0 
SMALL
USER_CHARGES


@<TRIPOS>ATOM
  1 S        1.1430     1.3940     1.9160 S.3   1 <1>  -0.0800 
  2 C       -0.1920     1.6770     0.8070 C.2   1 <1>  -0.1400 
  3 C        0.2960     0.0290     2.6350 C.2   1 <1>  -0.1100 
  4 C       -1.1760     0.7940     1.0150 C.2   1 <1>  -0.1810 
  5 C       -0.1830     2.7920    -0.2300 C.3   1 <1>   0.4600 
  6 C       -0.9040    -0.1550     2.0510 C.2   1 <1>  -0.1500 
  7 C       -2.4330     0.8690     0.1780 C.3   1 <1>   0.0210 
  8 O       -1.3320     2.6780    -1.0420 O.3   1 <1>  -0.5600 
  9 C        1.0180     2.6390    -1.1740 C.3   1 <1>  -0.1600 
 10 C       -0.1920     4.1730     0.4460 C.3   1 <1>  -0.1600 
 11 C       -2.5430     2.2780    -0.4390 C.3   1 <1>   0.1200 
 12 C        1.1140     3.8010    -2.1620 C.3   1 <1>   0.1400 
 13 C       -0.0520     5.3050    -0.5720 C.3   1 <1>   0.1400 
 14 N        1.1730     5.0660    -1.3800 N.am  1 <1>  -0.6600 
 15 C        2.2840     5.8780    -1.3860 C.2   1 <1>   0.5440 
 16 O        3.1760     5.6750    -2.1850 O.2   1 <1>  -0.5700 
 17 C        2.4620     6.9200    -0.4030 C.ar  1 <1>   0.0860 
 18 C        3.2020     6.6690     0.7630 C.ar  1 <1>   0.0170 
 19 C        1.9050     8.1810    -0.5960 C.ar  1 <1>  -0.1500 
 20 C        3.8000     5.3760     0.9940 C.cat 1 <1>   0.7830 
 21 C        3.3430     7.6910     1.7030 C.ar  1 <1>  -0.1500 
 22 C        2.0560     9.1810     0.3440 C.ar  1 <1>  -0.1500 
 23 N        3.3470     4.4830     1.8730 N.pl3 1 <1>  -0.7000 
 24 N        4.8880     4.8630     0.4030 N.pl3 1 <1>  -0.7640 
 25 C        2.7760     8.9330     1.4980 C.ar  1 <1>  -0.1500 
 26 C        4.1400     3.3690     1.8250 C.2   1 <1>   0.2000 
 27 C        5.0980     3.6050     0.9080 C.2   1 <1>   0.2000 
 28 C        5.7150     5.4840    -0.6710 C.3   1 <1>   0.2740 
 29 H        0.7900    -0.5030     3.4280 H     1 <1>   0.1500 
 30 H       -1.6150    -0.9220     2.3060 H     1 <1>   0.1500 
 31 H       -3.2970     0.6790     0.7870 H     1 <1>   0.0800 
 32 H       -2.3960     0.1300    -0.6020 H     1 <1>   0.0800 
 33 H        0.9290     1.7110    -1.7090 H     1 <1>   0.0800 
 34 H        1.9280     2.6000    -0.6070 H     1 <1>   0.0800 
 35 H        0.6260     4.2310     1.1360 H     1 <1>   0.0800 
 36 H       -1.0940     4.2980     1.0130 H     1 <1>   0.0800 
 37 H       -2.8000     2.9970     0.3180 H     1 <1>   0.0800 
 38 H       -3.3050     2.2910    -1.1970 H     1 <1>   0.0800 
 39 H        0.2490     3.8170    -2.8050 H     1 <1>   0.0800 
 40 H        1.9870     3.6850    -2.7820 H     1 <1>   0.0800 
 41 H       -0.0110     6.2540    -0.0670 H     1 <1>   0.0800 
 42 H       -0.9080     5.3140    -1.2270 H     1 <1>   0.0800 
 43 H        1.3490     8.3770    -1.4990 H     1 <1>   0.1500 
 44 H        3.9060     7.5180     2.6050 H     1 <1>   0.1500 
 45 H        1.6180    10.1520     0.1800 H     1 <1>   0.1500 
 46 H        2.5290     4.6130     2.4730 H     1 <1>   0.4500 
 47 H        2.8940     9.7150     2.2320 H     1 <1>   0.1500 
 48 H        3.9780     2.4910     2.4310 H     1 <1>   0.1500 
 49 H        5.9030     2.9600     0.5890 H     1 <1>   0.1500 
 50 H        5.3970     6.4950    -0.8640 H     1 <1>   0.0800 
 51 H        5.6160     4.9170    -1.5820 H     1 <1>   0.0800 
 52 H        6.7510     5.4980    -0.3780 H     1 <1>   0.0800 
@<TRIPOS>BOND
  1   1   2  1   
  2   1   3  1   
  3   2   4  2   
  4   2   5  1   
  5   3   6  2   
  6   3  29  1   
  7   4   6  1   
  8   4   7  1   
  9   5   8  1   
 10   5   9  1   
 11   5  10  1   
 12   6  30  1   
 13   7  11  1   
 14   7  31  1   
 15   7  32  1   
 16   8  11  1   
 17   9  12  1   
 18   9  33  1   
 19   9  34  1   
 20  10  13  1   
 21  10  35  1   
 22  10  36  1   
 23  11  37  1   
 24  11  38  1   
 25  12  14  1   
 26  12  39  1   
 27  12  40  1   
 28  13  14  1   
 29  13  41  1   
 30  13  42  1   
 31  14  15  am  
 32  15  16  2   
 33  15  17  1   
 34  17  18  ar  
 35  17  19  ar  
 36  18  20  1   
 37  18  21  ar  
 38  19  22  ar  
 39  19  43  1   
 40  20  23  ar  
 41  20  24  ar  
 42  21  25  ar  
 43  21  44  1   
 44  22  25  ar  
 45  22  45  1   
 46  23  26  1   
 47  23  46  1   
 48  24  27  1   
 49  24  28  1   
 50  25  47  1   
 51  26  27  2   
 52  26  48  1   
 53  27  49  1   
 54  28  50  1   
 55  28  51  1   
 56  28  52  1   
@<TRIPOS>SUBSTRUCTURE
  1 ****  10 GROUP 4 **** **** 0

# MOE 2024.06 (io_trps.svl 2023.06)
