@<TRIPOS>MOLECULE
NONAME
48 51 1 0 0 
SMALL
USER_CHARGES


@<TRIPOS>ATOM
  1 S       -0.8860     1.8160     0.8730 S.3   1 <1>  -0.0800 
  2 C        0.4570     1.8730    -0.2570 C.2   1 <1>  -0.1100 
  3 C        0.1570     2.2940     2.2000 C.2   1 <1>  -0.1100 
  4 C        1.5940     2.2370     0.3670 C.2   1 <1>  -0.1810 
  5 C        1.4180     2.4760     1.7700 C.2   1 <1>  -0.1500 
  6 C        2.9600     2.3870    -0.2830 C.3   1 <1>   0.3210 
  7 N        3.2210     3.8200    -0.5790 N.am  1 <1>  -0.6600 
  8 C        3.8460     4.6320     0.3460 C.2   1 <1>   0.7160 
  9 C        2.6140     4.3240    -1.8440 C.3   1 <1>   0.0600 
 10 O        4.3400     4.1120     1.3310 O.2   1 <1>  -0.5700 
 11 C        3.9560     6.0500     0.1880 C.2   1 <1>  -0.0860 
 12 C        2.9060     6.9640     0.0300 C.2   1 <1>   0.3720 
 13 C        5.0660     6.8370     0.1810 C.2   1 <1>   0.0870 
 14 N        3.3540     8.1660    -0.0770 N.2   1 <1>  -0.4100 
 15 N        1.5400     6.6470    -0.0230 N.pl3 1 <1>  -0.8210 
 16 O        4.6520     8.0690     0.0220 O.3   1 <1>  -0.0190 
 17 C        6.4790     6.5640     0.2960 C.ar  1 <1>   0.0530 
 18 C        0.9760     6.0190     1.2110 C.3   1 <1>   0.2090 
 19 C        0.6280     7.7240    -0.5180 C.3   1 <1>   0.2090 
 20 C        7.0300     5.3270    -0.0440 C.ar  1 <1>  -0.1500 
 21 C        7.3590     7.5480     0.7510 C.ar  1 <1>  -0.1500 
 22 C       -0.4720     5.5580     0.9710 C.3   1 <1>   0.1200 
 23 C       -0.8110     7.1970    -0.6720 C.3   1 <1>   0.1200 
 24 C        8.3870     5.0840     0.0670 C.ar  1 <1>  -0.1500 
 25 C        8.7170     7.3130     0.8620 C.ar  1 <1>  -0.1500 
 26 O       -1.2670     6.6210     0.5210 O.3   1 <1>  -0.5600 
 27 C        9.2350     6.0770     0.5200 C.ar  1 <1>  -0.1500 
 28 H        0.2450     1.6230    -1.2810 H     1 <1>   0.1500 
 29 H       -0.2910     2.3860     3.1730 H     1 <1>   0.1500 
 30 H        2.2520     2.7710     2.3870 H     1 <1>   0.1500 
 31 H        2.9900     1.8240    -1.1980 H     1 <1>   0.0800 
 32 H        3.7180     1.9880     0.3690 H     1 <1>   0.0800 
 33 H        2.7930     3.6280    -2.6440 H     1 <1>   0.0800 
 34 H        3.0370     5.2740    -2.1220 H     1 <1>   0.0800 
 35 H        1.5530     4.4450    -1.7100 H     1 <1>   0.0800 
 36 H        0.9940     6.7300     2.0190 H     1 <1>   0.0800 
 37 H        1.5680     5.1720     1.5020 H     1 <1>   0.0800 
 38 H        0.9810     8.0840    -1.4690 H     1 <1>   0.0800 
 39 H        0.6320     8.5500     0.1730 H     1 <1>   0.0800 
 40 H        6.3950     4.5390    -0.4030 H     1 <1>   0.1500 
 41 H        6.9730     8.5150     1.0230 H     1 <1>   0.1500 
 42 H       -0.9010     5.1880     1.8850 H     1 <1>   0.0800 
 43 H       -0.4950     4.7720     0.2360 H     1 <1>   0.0800 
 44 H       -0.8550     6.4550    -1.4500 H     1 <1>   0.0800 
 45 H       -1.4760     8.0030    -0.9230 H     1 <1>   0.0800 
 46 H        8.7840     4.1200    -0.1990 H     1 <1>   0.1500 
 47 H        9.3720     8.0910     1.2160 H     1 <1>   0.1500 
 48 H       10.2910     5.8900     0.6070 H     1 <1>   0.1500 
@<TRIPOS>BOND
  1   1   2  1   
  2   1   3  1   
  3   2   4  2   
  4   2  28  1   
  5   3   5  2   
  6   3  29  1   
  7   4   5  1   
  8   4   6  1   
  9   5  30  1   
 10   6   7  1   
 11   6  31  1   
 12   6  32  1   
 13   7   8  am  
 14   7   9  1   
 15   8  10  2   
 16   8  11  1   
 17   9  33  1   
 18   9  34  1   
 19   9  35  1   
 20  11  12  1   
 21  11  13  2   
 22  12  14  2   
 23  12  15  1   
 24  13  16  1   
 25  13  17  1   
 26  14  16  1   
 27  15  18  1   
 28  15  19  1   
 29  17  20  ar  
 30  17  21  ar  
 31  18  22  1   
 32  18  36  1   
 33  18  37  1   
 34  19  23  1   
 35  19  38  1   
 36  19  39  1   
 37  20  24  ar  
 38  20  40  1   
 39  21  25  ar  
 40  21  41  1   
 41  22  26  1   
 42  22  42  1   
 43  22  43  1   
 44  23  26  1   
 45  23  44  1   
 46  23  45  1   
 47  24  27  ar  
 48  24  46  1   
 49  25  27  ar  
 50  25  47  1   
 51  27  48  1   
@<TRIPOS>SUBSTRUCTURE
  1 ****   8 GROUP 4 **** **** 0

# MOE 2024.06 (io_trps.svl 2023.06)
