@<TRIPOS>MOLECULE
NONAME
48 50 1 0 0 
SMALL
USER_CHARGES


@<TRIPOS>ATOM
  1 O        1.1040    -0.1590    -3.4400 O.2   1 <1>  -0.5700 
  2 C        1.1430    -0.7280    -2.3740 C.2   1 <1>   0.5690 
  3 N        1.6360    -0.1730    -1.2350 N.am  1 <1>  -0.4930 
  4 C        0.6080    -2.1580    -2.2660 C.3   1 <1>   0.1710 
  5 C        2.1420     1.1240    -0.9870 C.2   1 <1>   0.0630 
  6 N        0.2840    -2.5840    -0.8700 N.3   1 <1>  -0.8100 
  7 C        2.4500     1.6470     0.2200 C.2   1 <1>  -0.3320 
  8 C        2.4320     2.1370    -1.9000 C.2   1 <1>   0.1390 
  9 C       -0.9210    -1.9190    -0.3350 C.3   1 <1>   0.1100 
 10 C        0.0100    -4.0320    -0.7770 C.3   1 <1>   0.1100 
 11 N        2.8990     2.9060    -0.0120 N.pl3 1 <1>   0.3140 
 12 C        2.3390     1.0210     1.6030 C.3   1 <1>  -0.0600 
 13 N        2.8870     3.2080    -1.3210 N.2   1 <1>  -0.7070 
 14 C       -1.3460    -2.8120     0.8220 C.3   1 <1>   0.2000 
 15 C       -1.1430    -4.2030     0.2250 C.3   1 <1>  -0.0800 
 16 C        3.3550     3.8840     0.9840 C.3   1 <1>   0.0160 
 17 O       -0.4360    -2.6100     1.8460 O.3   1 <1>  -0.6800 
 18 C       -0.9300    -5.3450     1.2370 C.3   1 <1>   0.0210 
 19 C       -0.7280    -6.6740     0.5320 C.2   1 <1>   0.1080 
 20 N       -1.5580    -7.1460    -0.3470 N.2   1 <1>  -0.7070 
 21 C        0.3520    -7.5240     0.7420 C.2   1 <1>  -0.1500 
 22 N       -1.0260    -8.3260    -0.7190 N.pl3 1 <1>   0.3000 
 23 C        0.1330    -8.5750    -0.0750 C.2   1 <1>  -0.3320 
 24 C        0.9710    -9.8240    -0.2810 C.3   1 <1>  -0.0600 
 25 H        1.5510    -0.7900    -0.4250 H     1 <1>   0.3700 
 26 H        1.3650    -2.8100    -2.6640 H     1 <1>   0.0800 
 27 H       -0.2640    -2.2480    -2.8900 H     1 <1>   0.0800 
 28 H        2.2940     2.0440    -2.9640 H     1 <1>   0.1500 
 29 H       -0.7220    -0.9120    -0.0090 H     1 <1>   0.0800 
 30 H       -1.7000    -1.9050    -1.0790 H     1 <1>   0.0800 
 31 H       -0.2810    -4.4420    -1.7310 H     1 <1>   0.0800 
 32 H        0.8990    -4.5400    -0.4410 H     1 <1>   0.0800 
 33 H        1.9390     0.0250     1.5410 H     1 <1>   0.0800 
 34 H        1.6850     1.6080     2.2230 H     1 <1>   0.0800 
 35 H        3.3080     0.9710     2.0660 H     1 <1>   0.0800 
 36 H       -2.3420    -2.6250     1.1840 H     1 <1>   0.0800 
 37 H       -2.0240    -4.4390    -0.3470 H     1 <1>   0.0800 
 38 H        4.1970     3.4810     1.5130 H     1 <1>   0.0800 
 39 H        2.5540     4.0920     1.6660 H     1 <1>   0.0800 
 40 H        3.6450     4.7880     0.4810 H     1 <1>   0.0800 
 41 H        0.4510    -2.6700     1.4350 H     1 <1>   0.4000 
 42 H       -1.7910    -5.4210     1.8750 H     1 <1>   0.0800 
 43 H       -0.0740    -5.1460     1.8550 H     1 <1>   0.0800 
 44 H        1.1700    -7.3560     1.4190 H     1 <1>   0.1500 
 45 H       -1.4810    -8.9380    -1.4070 H     1 <1>   0.2700 
 46 H        1.8450    -9.7900     0.3450 H     1 <1>   0.0800 
 47 H        1.2870    -9.8970    -1.3070 H     1 <1>   0.0800 
 48 H        0.4010   -10.7000    -0.0260 H     1 <1>   0.0800 
@<TRIPOS>BOND
  1   1   2  2   
  2   2   3  am  
  3   2   4  1   
  4   3   5  1   
  5   3  25  1   
  6   4   6  1   
  7   4  26  1   
  8   4  27  1   
  9   5   7  2   
 10   5   8  1   
 11   6   9  1   
 12   6  10  1   
 13   7  11  1   
 14   7  12  1   
 15   8  13  2   
 16   8  28  1   
 17   9  14  1   
 18   9  29  1   
 19   9  30  1   
 20  10  15  1   
 21  10  31  1   
 22  10  32  1   
 23  11  13  1   
 24  11  16  1   
 25  12  33  1   
 26  12  34  1   
 27  12  35  1   
 28  14  15  1   
 29  14  17  1   
 30  14  36  1   
 31  15  18  1   
 32  15  37  1   
 33  16  38  1   
 34  16  39  1   
 35  16  40  1   
 36  17  41  1   
 37  18  19  1   
 38  18  42  1   
 39  18  43  1   
 40  19  20  2   
 41  19  21  1   
 42  20  22  1   
 43  21  23  2   
 44  21  44  1   
 45  22  23  1   
 46  22  45  1   
 47  23  24  1   
 48  24  46  1   
 49  24  47  1   
 50  24  48  1   
@<TRIPOS>SUBSTRUCTURE
  1 ****   6 GROUP 4 **** **** 0

# MOE 2024.06 (io_trps.svl 2023.06)
