@<TRIPOS>MOLECULE
NONAME
44 45 1 0 0 
SMALL
USER_CHARGES


@<TRIPOS>ATOM
  1 O        0.2200     0.1890    -2.1340 O.2   1 <1>  -0.5700 
  2 C        1.0000    -0.4930    -1.5150 C.2   1 <1>   0.5690 
  3 N        1.9870     0.0120    -0.7250 N.am  1 <1>  -0.4930 
  4 C        0.8750    -2.0010    -1.6120 C.3   1 <1>  -0.0990 
  5 C        2.3110     1.3650    -0.4530 C.2   1 <1>   0.0630 
  6 C        0.1290    -2.5920    -0.4050 C.3   1 <1>  -0.1600 
  7 C        3.3020     1.8070     0.3530 C.2   1 <1>  -0.3320 
  8 C        1.7020     2.5240    -0.9350 C.2   1 <1>   0.1390 
  9 C        0.0220    -4.1190    -0.5110 C.3   1 <1>  -0.1600 
 10 N        3.2500     3.1650     0.3200 N.pl3 1 <1>   0.3140 
 11 C        4.3150     1.0130     1.1670 C.3   1 <1>  -0.0600 
 12 N        2.2580     3.6030    -0.4750 N.2   1 <1>  -0.7070 
 13 C       -0.7420    -4.7140     0.6770 C.3   1 <1>  -0.0170 
 14 C        4.1220     4.1240     1.0340 C.3   1 <1>   0.0960 
 15 C       -0.8140    -6.2270     0.5530 C.ar  1 <1>  -0.1430 
 16 C        5.3760     4.4510     0.2140 C.3   1 <1>  -0.2400 
 17 C        0.1550    -7.0250     1.1410 C.ar  1 <1>  -0.1500 
 18 C       -1.8470    -6.8220    -0.1540 C.ar  1 <1>  -0.1500 
 19 C        0.0910    -8.4030     1.0250 C.ar  1 <1>  -0.1500 
 20 C       -1.9130    -8.2000    -0.2710 C.ar  1 <1>  -0.1500 
 21 C       -0.9430    -8.9910     0.3180 C.ar  1 <1>  -0.1500 
 22 H        2.5770    -0.6630    -0.2490 H     1 <1>   0.3700 
 23 H        1.8570    -2.4310    -1.6900 H     1 <1>   0.0800 
 24 H        0.3410    -2.2390    -2.5150 H     1 <1>   0.0800 
 25 H       -0.8590    -2.1630    -0.3620 H     1 <1>   0.0800 
 26 H        0.6440    -2.3300     0.5040 H     1 <1>   0.0800 
 27 H        0.8640     2.5290    -1.6120 H     1 <1>   0.1500 
 28 H        1.0070    -4.5520    -0.5470 H     1 <1>   0.0800 
 29 H       -0.4890    -4.3840    -1.4220 H     1 <1>   0.0800 
 30 H        4.1710    -0.0430     1.0330 H     1 <1>   0.0800 
 31 H        4.2080     1.2400     2.2130 H     1 <1>   0.0800 
 32 H        5.3150     1.2600     0.8570 H     1 <1>   0.0800 
 33 H       -1.7390    -4.3090     0.7110 H     1 <1>   0.0800 
 34 H       -0.2520    -4.4520     1.5980 H     1 <1>   0.0800 
 35 H        4.3920     3.7060     1.9860 H     1 <1>   0.0800 
 36 H        3.5550     5.0210     1.2060 H     1 <1>   0.0800 
 37 H        5.9560     3.5640     0.0390 H     1 <1>   0.0800 
 38 H        5.9840     5.1620     0.7440 H     1 <1>   0.0800 
 39 H        5.0920     4.8820    -0.7310 H     1 <1>   0.0800 
 40 H        0.9630    -6.5780     1.6920 H     1 <1>   0.1500 
 41 H       -2.6050    -6.2150    -0.6170 H     1 <1>   0.1500 
 42 H        0.8450    -9.0180     1.4840 H     1 <1>   0.1500 
 43 H       -2.7170    -8.6550    -0.8210 H     1 <1>   0.1500 
 44 H       -0.9930   -10.0620     0.2270 H     1 <1>   0.1500 
@<TRIPOS>BOND
  1   1   2  2   
  2   2   3  am  
  3   2   4  1   
  4   3   5  1   
  5   3  22  1   
  6   4   6  1   
  7   4  23  1   
  8   4  24  1   
  9   5   7  2   
 10   5   8  1   
 11   6   9  1   
 12   6  25  1   
 13   6  26  1   
 14   7  10  1   
 15   7  11  1   
 16   8  12  2   
 17   8  27  1   
 18   9  13  1   
 19   9  28  1   
 20   9  29  1   
 21  10  12  1   
 22  10  14  1   
 23  11  30  1   
 24  11  31  1   
 25  11  32  1   
 26  13  15  1   
 27  13  33  1   
 28  13  34  1   
 29  14  16  1   
 30  14  35  1   
 31  14  36  1   
 32  15  17  ar  
 33  15  18  ar  
 34  16  37  1   
 35  16  38  1   
 36  16  39  1   
 37  17  19  ar  
 38  17  40  1   
 39  18  20  ar  
 40  18  41  1   
 41  19  21  ar  
 42  19  42  1   
 43  20  21  ar  
 44  20  43  1   
 45  21  44  1   
@<TRIPOS>SUBSTRUCTURE
  1 ****   6 GROUP 4 **** **** 0

# MOE 2024.06 (io_trps.svl 2023.06)
