@<TRIPOS>MOLECULE
NONAME
46 49 1 0 0 
SMALL
USER_CHARGES


@<TRIPOS>ATOM
  1 CL       0.7510     1.0990     1.3500 Cl    1 <1>  -0.1770 
  2 C        1.6540     2.4370     0.6780 C.ar  1 <1>   0.1770 
  3 C        0.9940     3.5850     0.3130 C.ar  1 <1>  -0.1500 
  4 C        3.0390     2.2960     0.5320 C.ar  1 <1>  -0.1500 
  5 C        1.7380     4.6440    -0.2200 C.ar  1 <1>   0.0000 
  6 C        3.7770     3.3300     0.0060 C.ar  1 <1>  -0.1500 
  7 C        3.1140     4.5020    -0.3700 C.ar  1 <1>  -0.1520 
  8 C        1.4230     5.9350    -0.6800 C.2   1 <1>  -0.1500 
  9 N        3.6090     5.6560    -0.9110 N.pl3 1 <1>   0.0330 
 10 C        2.5760     6.5490    -1.0780 C.2   1 <1>  -0.2370 
 11 C        2.7800     7.8790    -1.5820 C.2   1 <1>   0.7150 
 12 O        2.3920     8.1740    -2.6940 O.2   1 <1>  -0.5700 
 13 N        3.4020     8.8450    -0.8170 N.am  1 <1>  -0.6600 
 14 C        3.6390     8.6490     0.6620 C.3   1 <1>   0.2200 
 15 C        3.8020    10.1310    -1.4720 C.3   1 <1>   0.1400 
 16 C        3.0860     9.8110     1.5040 C.3   1 <1>   0.1200 
 17 C        5.1310     8.4010     0.9740 C.3   1 <1>   0.3430 
 18 C        4.7790    11.0160    -0.6730 C.3   1 <1>  -0.0800 
 19 O        4.0170    10.8460     1.6140 O.3   1 <1>  -0.5600 
 20 N        6.0320     8.8800    -0.1260 N.4   1 <1>  -0.9590 
 21 C        4.1000    11.7000     0.5230 C.3   1 <1>   0.1200 
 22 C        6.1200    10.3540    -0.2920 C.3   1 <1>   0.3430 
 23 C        7.3650     8.1540    -0.0770 C.3   1 <1>   0.2370 
 24 C        7.2030     6.6650    -0.4040 C.2   1 <1>   0.9060 
 25 O        7.9290     5.8350     0.1350 O.co2 1 <1>  -0.9000 
 26 O        6.2420     6.3620    -1.1270 O.co2 1 <1>  -0.9000 
 27 H       -0.0690     3.6790     0.4300 H     1 <1>   0.1500 
 28 H        3.5070     1.3760     0.8330 H     1 <1>   0.1500 
 29 H        4.8460     3.2600    -0.1220 H     1 <1>   0.1500 
 30 H        0.4280     6.3430    -0.7010 H     1 <1>   0.1500 
 31 H        4.6090     5.8070    -1.1540 H     1 <1>   0.2700 
 32 H        3.0980     7.7810     0.9920 H     1 <1>   0.0800 
 33 H        4.2520     9.8970    -2.4230 H     1 <1>   0.0800 
 34 H        2.9060    10.6920    -1.6840 H     1 <1>   0.0800 
 35 H        2.9040     9.4600     2.5040 H     1 <1>   0.0800 
 36 H        2.1580    10.1840     1.1050 H     1 <1>   0.0800 
 37 H        5.2630     7.3380     1.0960 H     1 <1>   0.0800 
 38 H        5.3950     8.8710     1.9070 H     1 <1>   0.0800 
 39 H        5.0330    11.8250    -1.3330 H     1 <1>   0.0800 
 40 H        5.5800     8.4750    -0.9710 H     1 <1>   0.4500 
 41 H        3.1120    12.0530     0.2750 H     1 <1>   0.0800 
 42 H        4.6860    12.5460     0.8380 H     1 <1>   0.0800 
 43 H        6.4930    10.7980     0.6160 H     1 <1>   0.0800 
 44 H        6.8290    10.5610    -1.0750 H     1 <1>   0.0800 
 45 H        8.0380     8.5660    -0.8050 H     1 <1>   0.0800 
 46 H        7.8100     8.2390     0.8970 H     1 <1>   0.0800 
@<TRIPOS>BOND
  1   1   2  1   
  2   2   3  ar  
  3   2   4  ar  
  4   3   5  ar  
  5   3  27  1   
  6   4   6  ar  
  7   4  28  1   
  8   5   7  ar  
  9   5   8  1   
 10   6   7  ar  
 11   6  29  1   
 12   7   9  1   
 13   8  10  2   
 14   8  30  1   
 15   9  10  1   
 16   9  31  1   
 17  10  11  1   
 18  11  12  2   
 19  11  13  am  
 20  13  14  1   
 21  13  15  1   
 22  14  16  1   
 23  14  17  1   
 24  14  32  1   
 25  15  18  1   
 26  15  33  1   
 27  15  34  1   
 28  16  19  1   
 29  16  35  1   
 30  16  36  1   
 31  17  20  1   
 32  17  37  1   
 33  17  38  1   
 34  18  21  1   
 35  18  22  1   
 36  18  39  1   
 37  19  21  1   
 38  20  22  1   
 39  20  23  1   
 40  20  40  1   
 41  21  41  1   
 42  21  42  1   
 43  22  43  1   
 44  22  44  1   
 45  23  24  1   
 46  23  45  1   
 47  23  46  1   
 48  24  25  ar  
 49  24  26  ar  
@<TRIPOS>SUBSTRUCTURE
  1 ****   9 GROUP 4 **** **** 0

# MOE 2024.06 (io_trps.svl 2023.06)
