@<TRIPOS>MOLECULE
NONAME
53 56 1 0 0 
SMALL
USER_CHARGES


@<TRIPOS>ATOM
  1 O       -0.3360     0.1400     0.1460 O.2   1 <1>  -0.5700 
  2 C       -1.3570     0.7180    -0.1440 C.2   1 <1>   0.5690 
  3 N       -2.4900     0.0360    -0.5050 N.am  1 <1>  -0.6600 
  4 C       -1.3650     2.2410    -0.0990 C.3   1 <1>  -0.0990 
  5 C       -3.8230     0.6450    -0.8100 C.3   1 <1>   0.1400 
  6 C       -2.5060    -1.4580    -0.5930 C.3   1 <1>   0.1400 
  7 C        0.0090     2.8670     0.1820 C.3   1 <1>  -0.0160 
  8 C       -4.9310     0.0060     0.0510 C.3   1 <1>   0.1900 
  9 C       -3.6520    -2.0510     0.2430 C.3   1 <1>   0.1100 
 10 C       -0.0940     4.3840     0.1900 C.ar  1 <1>  -0.1440 
 11 N       -4.9590    -1.4660    -0.1340 N.3   1 <1>  -0.8100 
 12 C       -6.3020     0.6200    -0.2950 C.3   1 <1>   0.1200 
 13 C        0.0410     5.0980    -0.9930 C.ar  1 <1>  -0.1500 
 14 C       -0.3290     5.0650     1.3760 C.ar  1 <1>  -0.1500 
 15 C       -6.0720    -2.0530     0.6500 C.3   1 <1>   0.3330 
 16 O       -7.3070     0.0420     0.4860 O.3   1 <1>  -0.5600 
 17 C       -0.0580     6.4790    -0.9900 C.ar  1 <1>  -0.1500 
 18 C       -0.4280     6.4460     1.3840 C.ar  1 <1>  -0.1500 
 19 C       -6.2110    -3.5500     0.3740 C.ar  1 <1>  -0.1440 
 20 C       -7.4060    -1.3480     0.3190 C.3   1 <1>   0.1200 
 21 C       -0.2920     7.1480     0.1980 C.ar  1 <1>   0.0820 
 22 C       -6.2050    -4.0390    -0.9250 C.ar  1 <1>  -0.1500 
 23 C       -6.3500    -4.4410     1.4290 C.ar  1 <1>  -0.1500 
 24 O       -0.3840     8.4860     0.1890 O.3   1 <1>  -0.5330 
 25 C       -6.3380    -5.3950    -1.1680 C.ar  1 <1>  -0.1500 
 26 C       -6.4830    -5.7980     1.1880 C.ar  1 <1>  -0.1500 
 27 C       -6.4770    -6.2750    -0.1100 C.ar  1 <1>  -0.1500 
 28 H       -1.7180     2.6070    -1.0440 H     1 <1>   0.0800 
 29 H       -2.0490     2.5540     0.6670 H     1 <1>   0.0800 
 30 H       -3.8130     1.7040    -0.6320 H     1 <1>   0.0800 
 31 H       -4.0490     0.4840    -1.8500 H     1 <1>   0.0800 
 32 H       -2.6350    -1.7490    -1.6210 H     1 <1>   0.0800 
 33 H       -1.5730    -1.8700    -0.2500 H     1 <1>   0.0800 
 34 H        0.7110     2.5550    -0.5720 H     1 <1>   0.0800 
 35 H        0.3800     2.5210     1.1320 H     1 <1>   0.0800 
 36 H       -4.7210     0.2340     1.0820 H     1 <1>   0.0800 
 37 H       -3.4540    -1.8740     1.2860 H     1 <1>   0.0800 
 38 H       -3.6690    -3.1150     0.0840 H     1 <1>   0.0800 
 39 H       -6.5390     0.4610    -1.3330 H     1 <1>   0.0800 
 40 H       -6.3030     1.6760    -0.0940 H     1 <1>   0.0800 
 41 H        0.2250     4.5830    -1.9190 H     1 <1>   0.1500 
 42 H       -0.4340     4.5200     2.2980 H     1 <1>   0.1500 
 43 H       -5.8760    -1.9080     1.6980 H     1 <1>   0.0800 
 44 H        0.0470     7.0400    -1.9010 H     1 <1>   0.1500 
 45 H       -0.6070     6.9630     2.3080 H     1 <1>   0.1500 
 46 H       -8.1810    -1.7050     0.9730 H     1 <1>   0.0800 
 47 H       -7.6930    -1.5520    -0.6970 H     1 <1>   0.0800 
 48 H       -6.0910    -3.3570    -1.7500 H     1 <1>   0.1500 
 49 H       -6.3570    -4.0850     2.4440 H     1 <1>   0.1500 
 50 H       -0.5370     8.8630     1.0730 H     1 <1>   0.4500 
 51 H       -6.3310    -5.7630    -2.1790 H     1 <1>   0.1500 
 52 H       -6.5910    -6.4830     2.0110 H     1 <1>   0.1500 
 53 H       -6.5800    -7.3300    -0.2980 H     1 <1>   0.1500 
@<TRIPOS>BOND
  1   1   2  2   
  2   2   3  am  
  3   2   4  1   
  4   3   5  1   
  5   3   6  1   
  6   4   7  1   
  7   4  28  1   
  8   4  29  1   
  9   5   8  1   
 10   5  30  1   
 11   5  31  1   
 12   6   9  1   
 13   6  32  1   
 14   6  33  1   
 15   7  10  1   
 16   7  34  1   
 17   7  35  1   
 18   8  11  1   
 19   8  12  1   
 20   8  36  1   
 21   9  11  1   
 22   9  37  1   
 23   9  38  1   
 24  10  13  ar  
 25  10  14  ar  
 26  11  15  1   
 27  12  16  1   
 28  12  39  1   
 29  12  40  1   
 30  13  17  ar  
 31  13  41  1   
 32  14  18  ar  
 33  14  42  1   
 34  15  19  1   
 35  15  20  1   
 36  15  43  1   
 37  16  20  1   
 38  17  21  ar  
 39  17  44  1   
 40  18  21  ar  
 41  18  45  1   
 42  19  22  ar  
 43  19  23  ar  
 44  20  46  1   
 45  20  47  1   
 46  21  24  1   
 47  22  25  ar  
 48  22  48  1   
 49  23  26  ar  
 50  23  49  1   
 51  24  50  1   
 52  25  27  ar  
 53  25  51  1   
 54  26  27  ar  
 55  26  52  1   
 56  27  53  1   
@<TRIPOS>SUBSTRUCTURE
  1 ****   5 GROUP 4 **** **** 0

# MOE 2024.06 (io_trps.svl 2023.06)
