@<TRIPOS>MOLECULE
NONAME
45 47 1 0 0 
SMALL
USER_CHARGES


@<TRIPOS>ATOM
  1 S        0.0230     0.1250     1.6050 S.o2  1 <1>   1.4470 
  2 O        0.3150     1.3600     2.3010 O.2   1 <1>  -0.6500 
  3 O       -0.5290    -0.9900     2.3420 O.2   1 <1>  -0.6500 
  4 N       -1.0830     0.5090     0.3790 N.am  1 <1>  -0.8490 
  5 C        1.4840    -0.4390     0.6850 C.ar  1 <1>  -0.0090 
  6 C       -2.4430     0.6580     0.9220 C.3   1 <1>   0.1960 
  7 C       -0.6900     1.7090    -0.3630 C.3   1 <1>   0.1960 
  8 C        1.3810    -1.4510    -0.2640 C.ar  1 <1>  -0.1500 
  9 C        2.7370     0.1270     0.9020 C.ar  1 <1>  -0.1500 
 10 C       -3.5040     0.8520    -0.1900 C.3   1 <1>   0.0000 
 11 C       -1.6390     1.9330    -1.5430 C.3   1 <1>  -0.1600 
 12 C        2.4860    -1.8880    -0.9740 C.ar  1 <1>  -0.1500 
 13 C        3.8500    -0.3000     0.1980 C.ar  1 <1>  -0.1500 
 14 C       -4.8880     1.0160     0.4730 C.3   1 <1>   0.2000 
 15 C       -3.0940     2.0570    -1.0690 C.3   1 <1>  -0.1600 
 16 C       -3.6660    -0.4460    -1.0090 C.3   1 <1>  -0.1600 
 17 C        3.7240    -1.3140    -0.7380 C.ar  1 <1>   0.0830 
 18 O       -5.7960     1.5460    -0.4260 O.3   1 <1>  -0.6800 
 19 C       -5.3500    -0.4050     0.7890 C.3   1 <1>  -0.1600 
 20 C       -4.6860    -1.3130    -0.2560 C.3   1 <1>  -0.1600 
 21 O        4.8030    -1.7290    -1.4320 O.3   1 <1>  -0.3630 
 22 C        5.5690    -2.7820    -0.8850 C.3   1 <1>   1.3000 
 23 F        6.0690    -2.4530     0.3000 F     1 <1>  -0.3400 
 24 F        6.5840    -3.0680    -1.6870 F     1 <1>  -0.3400 
 25 F        4.8440    -3.8850    -0.7400 F     1 <1>  -0.3400 
 26 H       -2.6930    -0.2200     1.4920 H     1 <1>   0.0800 
 27 H       -2.4660     1.5000     1.5940 H     1 <1>   0.0800 
 28 H       -0.7090     2.5700     0.2870 H     1 <1>   0.0800 
 29 H        0.3130     1.5950    -0.7400 H     1 <1>   0.0800 
 30 H        0.4180    -1.9010    -0.4450 H     1 <1>   0.1500 
 31 H        2.8420     0.9130     1.6320 H     1 <1>   0.1500 
 32 H       -1.3530     2.8300    -2.0620 H     1 <1>   0.0800 
 33 H       -1.5420     1.1110    -2.2300 H     1 <1>   0.0800 
 34 H        2.3850    -2.6690    -1.7070 H     1 <1>   0.1500 
 35 H        4.8100     0.1520     0.3750 H     1 <1>   0.1500 
 36 H       -4.8690     1.6530     1.3420 H     1 <1>   0.0800 
 37 H       -3.7410     2.1450    -1.9250 H     1 <1>   0.0800 
 38 H       -3.1980     2.9600    -0.4930 H     1 <1>   0.0800 
 39 H       -4.0600    -0.2150    -1.9830 H     1 <1>   0.0800 
 40 H       -2.7320    -0.9640    -1.1420 H     1 <1>   0.0800 
 41 H       -5.8580     0.9510    -1.1960 H     1 <1>   0.4000 
 42 H       -4.9910    -0.6790     1.7660 H     1 <1>   0.0800 
 43 H       -6.4230    -0.4920     0.7910 H     1 <1>   0.0800 
 44 H       -4.1910    -2.1360     0.2330 H     1 <1>   0.0800 
 45 H       -5.4180    -1.7080    -0.9400 H     1 <1>   0.0800 
@<TRIPOS>BOND
  1   1   2  2   
  2   1   3  2   
  3   1   4  am  
  4   1   5  1   
  5   4   6  1   
  6   4   7  1   
  7   5   8  ar  
  8   5   9  ar  
  9   6  10  1   
 10   6  26  1   
 11   6  27  1   
 12   7  11  1   
 13   7  28  1   
 14   7  29  1   
 15   8  12  ar  
 16   8  30  1   
 17   9  13  ar  
 18   9  31  1   
 19  10  14  1   
 20  10  15  1   
 21  10  16  1   
 22  11  15  1   
 23  11  32  1   
 24  11  33  1   
 25  12  17  ar  
 26  12  34  1   
 27  13  17  ar  
 28  13  35  1   
 29  14  18  1   
 30  14  19  1   
 31  14  36  1   
 32  15  37  1   
 33  15  38  1   
 34  16  20  1   
 35  16  39  1   
 36  16  40  1   
 37  17  21  1   
 38  18  41  1   
 39  19  20  1   
 40  19  42  1   
 41  19  43  1   
 42  20  44  1   
 43  20  45  1   
 44  21  22  1   
 45  22  23  1   
 46  22  24  1   
 47  22  25  1   
@<TRIPOS>SUBSTRUCTURE
  1 ****   5 GROUP 4 **** **** 0

# MOE 2024.06 (io_trps.svl 2023.06)
