@<TRIPOS>MOLECULE
NONAME
52 54 1 0 0 
SMALL
USER_CHARGES


@<TRIPOS>ATOM
  1 O        1.9760    -1.1630     0.9510 O.co2 1 <1>  -0.9000 
  2 C        2.0360     0.0750     0.9970 C.2   1 <1>   0.9060 
  3 O        1.8550     0.6760     2.0620 O.co2 1 <1>  -0.9000 
  4 C        2.3570     0.8460    -0.3000 C.3   1 <1>  -0.1060 
  5 C        3.5800     0.1880    -0.9910 C.3   1 <1>   0.2000 
  6 C        2.7430     2.3270    -0.0090 C.3   1 <1>  -0.1600 
  7 C        1.1360     0.7780    -1.2580 C.3   1 <1>  -0.0160 
  8 O        3.3240    -1.1500    -1.2450 O.3   1 <1>  -0.6800 
  9 C        4.8590     0.3100    -0.1510 C.3   1 <1>   0.1400 
 10 C        4.0300     2.4480     0.8190 C.3   1 <1>   0.1400 
 11 C        0.0010     1.7500    -0.9410 C.ar  1 <1>  -0.1440 
 12 N        5.1490     1.7560     0.1140 N.am  1 <1>  -0.6600 
 13 C       -0.7710     1.5840     0.1990 C.ar  1 <1>  -0.1500 
 14 C       -0.2730     2.8090    -1.7930 C.ar  1 <1>  -0.1500 
 15 C        6.3190     2.3430    -0.2940 C.2   1 <1>   0.5690 
 16 C       -1.8000     2.4640     0.4840 C.ar  1 <1>  -0.1500 
 17 C       -1.3030     3.6910    -1.5110 C.ar  1 <1>  -0.1500 
 18 O        7.1720     1.7230    -0.8860 O.2   1 <1>  -0.5700 
 19 C        6.5670     3.8180    -0.0090 C.3   1 <1>  -0.0990 
 20 C       -2.0680     3.5190    -0.3710 C.ar  1 <1>  -0.1500 
 21 C        7.9300     4.3310    -0.4960 C.3   1 <1>  -0.0170 
 22 C        8.0790     5.8110    -0.1810 C.ar  1 <1>  -0.1430 
 23 C        8.5880     6.2160     1.0440 C.ar  1 <1>  -0.1500 
 24 C        7.7020     6.7670    -1.1150 C.ar  1 <1>  -0.1500 
 25 C        8.7200     7.5630     1.3350 C.ar  1 <1>  -0.1500 
 26 C        7.8330     8.1150    -0.8290 C.ar  1 <1>  -0.1500 
 27 C        8.3420     8.5080     0.3980 C.ar  1 <1>   0.0830 
 28 O        8.4760     9.8110     0.6890 O.3   1 <1>  -0.5330 
 29 H        3.7640     0.6530    -1.9430 H     1 <1>   0.0800 
 30 H        1.9500     2.8020     0.5430 H     1 <1>   0.0800 
 31 H        2.8670     2.8660    -0.9300 H     1 <1>   0.0800 
 32 H        1.4710     0.9660    -2.2620 H     1 <1>   0.0800 
 33 H        0.7400    -0.2240    -1.2530 H     1 <1>   0.0800 
 34 H        2.8150    -1.4830    -0.4420 H     1 <1>   0.4000 
 35 H        5.6740    -0.1480    -0.6820 H     1 <1>   0.0800 
 36 H        4.7310    -0.2000     0.7880 H     1 <1>   0.0800 
 37 H        3.8930     1.9930     1.7860 H     1 <1>   0.0800 
 38 H        4.2450     3.4870     0.9820 H     1 <1>   0.0800 
 39 H       -0.5670     0.7700     0.8760 H     1 <1>   0.1500 
 40 H        0.3170     2.9520    -2.6800 H     1 <1>   0.1500 
 41 H       -2.3840     2.3240     1.3760 H     1 <1>   0.1500 
 42 H       -1.5090     4.5090    -2.1780 H     1 <1>   0.1500 
 43 H        5.7930     4.3880    -0.4870 H     1 <1>   0.0800 
 44 H        6.4990     3.9740     1.0510 H     1 <1>   0.0800 
 45 H       -2.8670     4.2020    -0.1470 H     1 <1>   0.1500 
 46 H        8.0190     4.1720    -1.5570 H     1 <1>   0.0800 
 47 H        8.7180     3.7750    -0.0180 H     1 <1>   0.0800 
 48 H        8.8840     5.4850     1.7760 H     1 <1>   0.1500 
 49 H        7.3060     6.4610    -2.0680 H     1 <1>   0.1500 
 50 H        9.1140     7.8850     2.2810 H     1 <1>   0.1500 
 51 H        7.5390     8.8460    -1.5590 H     1 <1>   0.1500 
 52 H        8.1950    10.3940    -0.0370 H     1 <1>   0.4500 
@<TRIPOS>BOND
  1   1   2  ar  
  2   2   3  ar  
  3   2   4  1   
  4   4   5  1   
  5   4   6  1   
  6   4   7  1   
  7   5   8  1   
  8   5   9  1   
  9   5  29  1   
 10   6  10  1   
 11   6  30  1   
 12   6  31  1   
 13   7  11  1   
 14   7  32  1   
 15   7  33  1   
 16   8  34  1   
 17   9  12  1   
 18   9  35  1   
 19   9  36  1   
 20  10  12  1   
 21  10  37  1   
 22  10  38  1   
 23  11  13  ar  
 24  11  14  ar  
 25  12  15  am  
 26  13  16  ar  
 27  13  39  1   
 28  14  17  ar  
 29  14  40  1   
 30  15  18  2   
 31  15  19  1   
 32  16  20  ar  
 33  16  41  1   
 34  17  20  ar  
 35  17  42  1   
 36  19  21  1   
 37  19  43  1   
 38  19  44  1   
 39  20  45  1   
 40  21  22  1   
 41  21  46  1   
 42  21  47  1   
 43  22  23  ar  
 44  22  24  ar  
 45  23  25  ar  
 46  23  48  1   
 47  24  26  ar  
 48  24  49  1   
 49  25  27  ar  
 50  25  50  1   
 51  26  27  ar  
 52  26  51  1   
 53  27  28  1   
 54  28  52  1   
@<TRIPOS>SUBSTRUCTURE
  1 ****  10 GROUP 4 **** **** 0

# MOE 2024.06 (io_trps.svl 2023.06)
