@<TRIPOS>MOLECULE
NONAME
54 56 1 0 0 
SMALL
USER_CHARGES


@<TRIPOS>ATOM
  1 O       -1.2050     1.0660    -2.6720 O.2   1 <1>  -0.5700 
  2 C       -2.0520     1.5890    -1.9830 C.2   1 <1>   0.5690 
  3 N       -2.8090     0.8680    -1.0860 N.am  1 <1>  -0.6600 
  4 C       -2.2760     3.0910    -2.2020 C.3   1 <1>   0.1810 
  5 C       -2.7260    -0.6310    -1.0160 C.3   1 <1>   0.1400 
  6 C       -3.8130     1.4900    -0.1760 C.3   1 <1>   0.1400 
  7 O       -1.7940     3.8970    -1.1530 O.3   1 <1>  -0.5600 
  8 C       -2.4740    -1.1460     0.4230 C.3   1 <1>   0.0000 
  9 C       -3.5710     1.0340     1.2600 C.3   1 <1>  -0.1600 
 10 C       -0.4000     3.9330    -1.0310 C.3   1 <1>   0.2640 
 11 C       -3.5500    -0.4920     1.3300 C.3   1 <1>   0.2000 
 12 C       -2.7110    -2.6760     0.4740 C.3   1 <1>   0.1200 
 13 C       -1.0350    -0.7680     0.8900 C.3   1 <1>  -0.0170 
 14 C        0.0380     3.1680     0.2090 C.ar  1 <1>  -0.1440 
 15 O       -3.3840    -0.8540     2.6560 O.3   1 <1>  -0.6800 
 16 O       -2.0500    -3.3340    -0.5540 O.3   1 <1>  -0.6800 
 17 C        0.0980    -1.6150     0.3170 C.ar  1 <1>  -0.1440 
 18 C        1.0380     2.2110     0.1220 C.ar  1 <1>  -0.1500 
 19 C       -0.5340     3.4380     1.4430 C.ar  1 <1>  -0.1500 
 20 C        0.5680    -2.7170     1.0170 C.ar  1 <1>  -0.1500 
 21 C        0.6730    -1.2960    -0.9020 C.ar  1 <1>  -0.1500 
 22 C        1.4670     1.5400     1.2540 C.ar  1 <1>  -0.1500 
 23 C       -0.1090     2.7660     2.5770 C.ar  1 <1>  -0.1500 
 24 C        1.5860    -3.4970     0.4970 C.ar  1 <1>  -0.1500 
 25 C        1.6900    -2.0740    -1.4250 C.ar  1 <1>  -0.1500 
 26 C        0.8940     1.8180     2.4830 C.ar  1 <1>  -0.1500 
 27 C        2.1470    -3.1770    -0.7270 C.ar  1 <1>  -0.1500 
 28 H       -3.3280     3.2790    -2.2990 H     1 <1>   0.0800 
 29 H       -1.8010     3.3980    -3.1160 H     1 <1>   0.0800 
 30 H       -3.6550    -1.0360    -1.3790 H     1 <1>   0.0800 
 31 H       -1.9540    -0.9930    -1.6720 H     1 <1>   0.0800 
 32 H       -3.7590     2.5630    -0.2070 H     1 <1>   0.0800 
 33 H       -4.7990     1.1950    -0.4920 H     1 <1>   0.0800 
 34 H       -4.3640     1.4120     1.8790 H     1 <1>   0.0800 
 35 H       -2.6430     1.4500     1.6050 H     1 <1>   0.0800 
 36 H        0.0650     3.5350    -1.9170 H     1 <1>   0.0800 
 37 H       -0.1140     4.9650    -0.9300 H     1 <1>   0.0800 
 38 H       -4.5200    -0.8570     1.0340 H     1 <1>   0.0800 
 39 H       -3.7580    -2.9010     0.3650 H     1 <1>   0.0800 
 40 H       -2.3730    -3.0840     1.4110 H     1 <1>   0.0800 
 41 H       -0.8480     0.2590     0.6420 H     1 <1>   0.0800 
 42 H       -0.9650    -0.8360     1.9590 H     1 <1>   0.0800 
 43 H       -2.6140    -0.3880     3.0330 H     1 <1>   0.4000 
 44 H       -1.0880    -3.1200    -0.5170 H     1 <1>   0.4000 
 45 H        1.4890     1.9810    -0.8280 H     1 <1>   0.1500 
 46 H       -1.3120     4.1780     1.5170 H     1 <1>   0.1500 
 47 H        0.1410    -2.9780     1.9700 H     1 <1>   0.1500 
 48 H        0.3310    -0.4370    -1.4520 H     1 <1>   0.1500 
 49 H        2.2410     0.7960     1.1750 H     1 <1>   0.1500 
 50 H       -0.5560     2.9870     3.5300 H     1 <1>   0.1500 
 51 H        1.9420    -4.3530     1.0430 H     1 <1>   0.1500 
 52 H        2.1230    -1.8170    -2.3760 H     1 <1>   0.1500 
 53 H        1.2300     1.2960     3.3620 H     1 <1>   0.1500 
 54 H        2.9370    -3.7830    -1.1340 H     1 <1>   0.1500 
@<TRIPOS>BOND
  1   1   2  2   
  2   2   3  am  
  3   2   4  1   
  4   3   5  1   
  5   3   6  1   
  6   4   7  1   
  7   4  28  1   
  8   4  29  1   
  9   5   8  1   
 10   5  30  1   
 11   5  31  1   
 12   6   9  1   
 13   6  32  1   
 14   6  33  1   
 15   7  10  1   
 16   8  11  1   
 17   8  12  1   
 18   8  13  1   
 19   9  11  1   
 20   9  34  1   
 21   9  35  1   
 22  10  14  1   
 23  10  36  1   
 24  10  37  1   
 25  11  15  1   
 26  11  38  1   
 27  12  16  1   
 28  12  39  1   
 29  12  40  1   
 30  13  17  1   
 31  13  41  1   
 32  13  42  1   
 33  14  18  ar  
 34  14  19  ar  
 35  15  43  1   
 36  16  44  1   
 37  17  20  ar  
 38  17  21  ar  
 39  18  22  ar  
 40  18  45  1   
 41  19  23  ar  
 42  19  46  1   
 43  20  24  ar  
 44  20  47  1   
 45  21  25  ar  
 46  21  48  1   
 47  22  26  ar  
 48  22  49  1   
 49  23  26  ar  
 50  23  50  1   
 51  24  27  ar  
 52  24  51  1   
 53  25  27  ar  
 54  25  52  1   
 55  26  53  1   
 56  27  54  1   
@<TRIPOS>SUBSTRUCTURE
  1 ****  13 GROUP 4 **** **** 0

# MOE 2024.06 (io_trps.svl 2023.06)
