@<TRIPOS>MOLECULE
NONAME
42 44 1 0 0 
SMALL
USER_CHARGES


@<TRIPOS>ATOM
  1 S       -0.2640     0.1810     0.1650 S.o2  1 <1>   1.3330 
  2 O       -1.0000     1.4220     0.0710 O.2   1 <1>  -0.6500 
  3 O       -0.0960    -0.4510     1.4540 O.2   1 <1>  -0.6500 
  4 N       -0.9930    -0.9480    -0.8710 N.am  1 <1>  -0.8490 
  5 C        1.3340     0.4380    -0.6060 C.3   1 <1>  -0.0550 
  6 C       -0.6170    -2.3350    -0.5770 C.3   1 <1>   0.1160 
  7 C       -2.4540    -0.8230    -0.8910 C.3   1 <1>   0.1160 
  8 C        2.1760     1.5440     0.0620 C.3   1 <1>  -0.0800 
  9 C        3.4100     1.8610    -0.7640 C.3   1 <1>   0.2200 
 10 C        2.8000     1.0770     1.3780 C.3   1 <1>   0.1200 
 11 N        3.8690     3.2330    -0.4530 N.am  1 <1>  -0.7300 
 12 C        4.4210     0.8380    -0.2480 C.3   1 <1>   0.1200 
 13 O        4.0170     0.4830     1.0430 O.3   1 <1>  -0.5600 
 14 C        3.8110     4.3150    -1.2950 C.2   1 <1>   0.7160 
 15 O        3.3460     4.1270    -2.4080 O.2   1 <1>  -0.5700 
 16 C        4.3010     5.6230    -0.8320 C.2   1 <1>   0.4300 
 17 N        4.8320     5.8040     0.3670 N.2   1 <1>  -0.7070 
 18 N        4.2480     6.7400    -1.5930 N.2   1 <1>  -0.5650 
 19 N        5.1290     7.0920     0.3630 N.pl3 1 <1>   0.6010 
 20 C        4.7680     7.6380    -0.8290 C.2   1 <1>   0.3120 
 21 C        5.7100     7.8760     1.3380 C.2   1 <1>  -0.1810 
 22 N        4.9490     8.9680    -1.1340 N.2   1 <1>  -0.5760 
 23 C        5.8960     9.1910     1.0520 C.2   1 <1>  -0.1360 
 24 C        5.4930     9.6970    -0.2170 C.2   1 <1>   0.3760 
 25 H        1.8830    -0.4830    -0.6080 H     1 <1>   0.0800 
 26 H        1.1610     0.7170    -1.6280 H     1 <1>   0.0800 
 27 H       -1.0310    -2.9960    -1.3190 H     1 <1>   0.0800 
 28 H       -0.9810    -2.6270     0.3940 H     1 <1>   0.0800 
 29 H        0.4540    -2.4410    -0.5890 H     1 <1>   0.0800 
 30 H       -2.8820    -1.5420    -1.5680 H     1 <1>   0.0800 
 31 H       -2.7350     0.1620    -1.2270 H     1 <1>   0.0800 
 32 H       -2.8570    -0.9790     0.0960 H     1 <1>   0.0800 
 33 H        1.5620     2.4190     0.2010 H     1 <1>   0.0800 
 34 H        3.2470     1.7550    -1.8240 H     1 <1>   0.0800 
 35 H        2.2000     0.3660     1.9190 H     1 <1>   0.0800 
 36 H        3.0130     1.9170     2.0160 H     1 <1>   0.0800 
 37 H        4.2650     3.3870     0.4780 H     1 <1>   0.3700 
 38 H        5.4230     1.2280    -0.2170 H     1 <1>   0.0800 
 39 H        4.3970    -0.0530    -0.8490 H     1 <1>   0.0800 
 40 H        5.9740     7.3890     2.2580 H     1 <1>   0.1500 
 41 H        6.3410     9.8770     1.7520 H     1 <1>   0.1500 
 42 H        5.6550    10.7430    -0.4110 H     1 <1>   0.0600 
@<TRIPOS>BOND
  1   1   2  2   
  2   1   3  2   
  3   1   4  am  
  4   1   5  1   
  5   4   6  1   
  6   4   7  1   
  7   5   8  1   
  8   5  25  1   
  9   5  26  1   
 10   6  27  1   
 11   6  28  1   
 12   6  29  1   
 13   7  30  1   
 14   7  31  1   
 15   7  32  1   
 16   8   9  1   
 17   8  10  1   
 18   8  33  1   
 19   9  11  1   
 20   9  12  1   
 21   9  34  1   
 22  10  13  1   
 23  10  35  1   
 24  10  36  1   
 25  11  14  am  
 26  11  37  1   
 27  12  13  1   
 28  12  38  1   
 29  12  39  1   
 30  14  15  2   
 31  14  16  1   
 32  16  17  2   
 33  16  18  1   
 34  17  19  1   
 35  18  20  2   
 36  19  20  1   
 37  19  21  1   
 38  20  22  1   
 39  21  23  2   
 40  21  40  1   
 41  22  24  2   
 42  23  24  1   
 43  23  41  1   
 44  24  42  1   
@<TRIPOS>SUBSTRUCTURE
  1 ****  11 GROUP 4 **** **** 0

# MOE 2024.06 (io_trps.svl 2023.06)
