@<TRIPOS>MOLECULE
NONAME
50 51 1 0 0 
SMALL
USER_CHARGES


@<TRIPOS>ATOM
  1 CL      -1.8970    -0.9440     2.5330 Cl    1 <1>  -0.1770 
  2 C       -2.0350     0.5510     1.6460 C.ar  1 <1>   0.1770 
  3 C       -2.6800     0.5490     0.4250 C.ar  1 <1>  -0.1500 
  4 C       -1.4940     1.7040     2.1790 C.ar  1 <1>  -0.1500 
  5 C       -2.7890     1.7450    -0.2750 C.ar  1 <1>   0.0830 
  6 C       -1.5840     2.9080     1.4850 C.ar  1 <1>   0.0860 
  7 O       -3.4000     1.8600    -1.4790 O.3   1 <1>  -0.3630 
  8 C       -2.2520     2.9030     0.2620 C.ar  1 <1>  -0.1500 
  9 C       -1.0060     4.1230     2.0230 C.2   1 <1>   0.5440 
 10 C       -4.0400     0.7580    -2.0850 C.3   1 <1>   0.0400 
 11 O       -1.3980     4.5330     3.0980 O.2   1 <1>  -0.5700 
 12 N       -0.0260     4.8210     1.3490 N.am  1 <1>  -0.6600 
 13 C        0.7250     4.2950     0.1650 C.3   1 <1>   0.1400 
 14 C        0.4660     6.1360     1.8420 C.3   1 <1>   0.1400 
 15 C        0.3870     5.0490    -1.1310 C.3   1 <1>   0.1400 
 16 C       -0.3440     7.2820     1.2270 C.3   1 <1>  -0.1600 
 17 N        0.5830     6.5270    -0.9980 N.am  1 <1>  -0.6600 
 18 C       -0.5350     7.2270    -0.2970 C.3   1 <1>   0.1400 
 19 C        1.7300     7.1230    -1.4630 C.2   1 <1>   0.5690 
 20 O        2.6270     6.4640    -1.9390 O.2   1 <1>  -0.5700 
 21 C        1.9380     8.6340    -1.4130 C.3   1 <1>   0.1310 
 22 S        2.4590     9.2020     0.2460 S.3   1 <1>  -0.4600 
 23 C        3.8830     8.1570     0.6530 C.3   1 <1>   0.1500 
 24 C        4.1490     8.3420     2.1440 C.3   1 <1>  -0.2400 
 25 C        5.0630     8.6070    -0.2070 C.3   1 <1>  -0.2400 
 26 H       -3.0800    -0.3740     0.0530 H     1 <1>   0.1500 
 27 H       -1.0020     1.6750     3.1350 H     1 <1>   0.1500 
 28 H       -2.3620     3.8240    -0.2800 H     1 <1>   0.1500 
 29 H       -4.4720     1.0900    -3.0120 H     1 <1>   0.0800 
 30 H       -4.8140     0.3990    -1.4300 H     1 <1>   0.0800 
 31 H       -3.3110    -0.0090    -2.2780 H     1 <1>   0.0800 
 32 H        0.5190     3.2490     0.0260 H     1 <1>   0.0800 
 33 H        1.7820     4.3840     0.3490 H     1 <1>   0.0800 
 34 H        1.5050     6.2530     1.5860 H     1 <1>   0.0800 
 35 H        0.3930     6.1800     2.9160 H     1 <1>   0.0800 
 36 H       -0.6290     4.8440    -1.4130 H     1 <1>   0.0800 
 37 H        1.0120     4.6680    -1.9200 H     1 <1>   0.0800 
 38 H        0.1350     8.2070     1.4880 H     1 <1>   0.0800 
 39 H       -1.3120     7.3030     1.6930 H     1 <1>   0.0800 
 40 H       -0.6540     8.2260    -0.6790 H     1 <1>   0.0800 
 41 H       -1.4510     6.7020    -0.5050 H     1 <1>   0.0800 
 42 H        1.0370     9.1600    -1.6640 H     1 <1>   0.0800 
 43 H        2.7130     8.9200    -2.0980 H     1 <1>   0.0800 
 44 H        3.6170     7.1350     0.4430 H     1 <1>   0.0800 
 45 H        4.3710     9.3720     2.3600 H     1 <1>   0.0800 
 46 H        4.9840     7.7370     2.4480 H     1 <1>   0.0800 
 47 H        3.2860     8.0460     2.7120 H     1 <1>   0.0800 
 48 H        5.2570     9.6540    -0.0600 H     1 <1>   0.0800 
 49 H        4.8570     8.4280    -1.2460 H     1 <1>   0.0800 
 50 H        5.9430     8.0500     0.0600 H     1 <1>   0.0800 
@<TRIPOS>BOND
  1   1   2  1   
  2   2   3  ar  
  3   2   4  ar  
  4   3   5  ar  
  5   3  26  1   
  6   4   6  ar  
  7   4  27  1   
  8   5   7  1   
  9   5   8  ar  
 10   6   8  ar  
 11   6   9  1   
 12   7  10  1   
 13   8  28  1   
 14   9  11  2   
 15   9  12  am  
 16  10  29  1   
 17  10  30  1   
 18  10  31  1   
 19  12  13  1   
 20  12  14  1   
 21  13  15  1   
 22  13  32  1   
 23  13  33  1   
 24  14  16  1   
 25  14  34  1   
 26  14  35  1   
 27  15  17  1   
 28  15  36  1   
 29  15  37  1   
 30  16  18  1   
 31  16  38  1   
 32  16  39  1   
 33  17  18  1   
 34  17  19  am  
 35  18  40  1   
 36  18  41  1   
 37  19  20  2   
 38  19  21  1   
 39  21  22  1   
 40  21  42  1   
 41  21  43  1   
 42  22  23  1   
 43  23  24  1   
 44  23  25  1   
 45  23  44  1   
 46  24  45  1   
 47  24  46  1   
 48  24  47  1   
 49  25  48  1   
 50  25  49  1   
 51  25  50  1   
@<TRIPOS>SUBSTRUCTURE
  1 ****  13 GROUP 4 **** **** 0

# MOE 2024.06 (io_trps.svl 2023.06)
