@<TRIPOS>MOLECULE
NONAME
55 58 1 0 0 
SMALL
USER_CHARGES


@<TRIPOS>ATOM
  1 O        0.8660    -0.2510     0.3130 O.2   1 <1>  -0.5700 
  2 C       -0.1750     0.3600     0.3950 C.2   1 <1>   0.5690 
  3 N       -1.3370    -0.1190    -0.1690 N.am  1 <1>  -0.6600 
  4 C       -0.1470     1.6620     1.1910 C.3   1 <1>   0.1810 
  5 C       -2.6660     0.5520    -0.0940 C.3   1 <1>   0.1400 
  6 C       -1.3470    -1.3580    -0.9960 C.3   1 <1>   0.1400 
  7 O       -0.5430     2.7670     0.3920 O.3   1 <1>  -0.3620 
  8 C       -3.6850    -0.4180     0.5040 C.3   1 <1>  -0.1600 
  9 C       -2.3590    -2.3480    -0.4150 C.3   1 <1>  -0.1600 
 10 C       -0.8700     3.9590     0.9540 C.ar  1 <1>   0.0820 
 11 C       -3.7600    -1.7330    -0.2910 C.3   1 <1>   0.4240 
 12 C       -1.5890     4.8630     0.1770 C.ar  1 <1>  -0.1430 
 13 C       -0.5200     4.2940     2.2600 C.ar  1 <1>  -0.1500 
 14 O       -4.1480    -1.4250    -1.6090 O.3   1 <1>  -0.5600 
 15 C       -4.7330    -2.7330     0.3740 C.ar  1 <1>  -0.1430 
 16 C       -1.9590     6.0850     0.7170 C.ar  1 <1>  -0.1500 
 17 C       -1.9690     4.5220    -1.2570 C.3   1 <1>  -0.0970 
 18 C       -0.8950     5.5160     2.7880 C.ar  1 <1>  -0.1500 
 19 C       -5.5100    -1.2780    -1.8640 C.3   1 <1>   0.1200 
 20 C       -5.8860    -3.1570    -0.2780 C.ar  1 <1>  -0.1430 
 21 C       -4.4740    -3.2260     1.6490 C.ar  1 <1>  -0.1500 
 22 C       -1.6170     6.4100     2.0180 C.ar  1 <1>  -0.1500 
 23 C       -6.1960    -2.6250    -1.6630 C.3   1 <1>  -0.0170 
 24 C       -6.7510    -4.0570     0.3250 C.ar  1 <1>  -0.1500 
 25 C       -5.3380    -4.1210     2.2530 C.ar  1 <1>  -0.1500 
 26 C       -6.4800    -4.5450     1.5980 C.ar  1 <1>   0.0820 
 27 O       -7.2730    -5.4260     2.2580 O.3   1 <1>  -0.3630 
 28 C       -8.4490    -5.9360     1.6710 C.3   1 <1>   0.0400 
 29 H        0.8500     1.8480     1.5440 H     1 <1>   0.0800 
 30 H       -0.8200     1.5800     2.0240 H     1 <1>   0.0800 
 31 H       -2.9680     0.8400    -1.0870 H     1 <1>   0.0800 
 32 H       -2.6280     1.4400     0.5100 H     1 <1>   0.0800 
 33 H       -0.3710    -1.8110    -1.0200 H     1 <1>   0.0800 
 34 H       -1.6190    -1.1040    -2.0070 H     1 <1>   0.0800 
 35 H       -4.6530     0.0430     0.5450 H     1 <1>   0.0800 
 36 H       -3.3950    -0.6270     1.5170 H     1 <1>   0.0800 
 37 H       -2.0010    -2.6610     0.5470 H     1 <1>   0.0800 
 38 H       -2.4120    -3.2220    -1.0380 H     1 <1>   0.0800 
 39 H        0.0490     3.6250     2.8760 H     1 <1>   0.1500 
 40 H       -2.5170     6.7910     0.1280 H     1 <1>   0.1500 
 41 H       -2.6140     3.6630    -1.2680 H     1 <1>   0.0800 
 42 H       -1.0830     4.2950    -1.8230 H     1 <1>   0.0800 
 43 H       -2.4770     5.3420    -1.7300 H     1 <1>   0.0800 
 44 H       -0.6250     5.7750     3.7970 H     1 <1>   0.1500 
 45 H       -5.6220    -0.9470    -2.8820 H     1 <1>   0.0800 
 46 H       -5.9180    -0.5330    -1.2050 H     1 <1>   0.0800 
 47 H       -3.5960    -2.9180     2.1870 H     1 <1>   0.1500 
 48 H       -1.9090     7.3610     2.4280 H     1 <1>   0.1500 
 49 H       -5.8450    -3.3200    -2.4050 H     1 <1>   0.0800 
 50 H       -7.2570    -2.5040    -1.7880 H     1 <1>   0.0800 
 51 H       -7.6300    -4.3680    -0.2060 H     1 <1>   0.1500 
 52 H       -5.1310    -4.4990     3.2370 H     1 <1>   0.1500 
 53 H       -8.9020    -6.6160     2.3700 H     1 <1>   0.0800 
 54 H       -8.1890    -6.4590     0.7680 H     1 <1>   0.0800 
 55 H       -9.1190    -5.1210     1.4670 H     1 <1>   0.0800 
@<TRIPOS>BOND
  1   1   2  2   
  2   2   3  am  
  3   2   4  1   
  4   3   5  1   
  5   3   6  1   
  6   4   7  1   
  7   4  29  1   
  8   4  30  1   
  9   5   8  1   
 10   5  31  1   
 11   5  32  1   
 12   6   9  1   
 13   6  33  1   
 14   6  34  1   
 15   7  10  1   
 16   8  11  1   
 17   8  35  1   
 18   8  36  1   
 19   9  11  1   
 20   9  37  1   
 21   9  38  1   
 22  10  12  ar  
 23  10  13  ar  
 24  11  14  1   
 25  11  15  1   
 26  12  16  ar  
 27  12  17  1   
 28  13  18  ar  
 29  13  39  1   
 30  14  19  1   
 31  15  20  ar  
 32  15  21  ar  
 33  16  22  ar  
 34  16  40  1   
 35  17  41  1   
 36  17  42  1   
 37  17  43  1   
 38  18  22  ar  
 39  18  44  1   
 40  19  23  1   
 41  19  45  1   
 42  19  46  1   
 43  20  23  1   
 44  20  24  ar  
 45  21  25  ar  
 46  21  47  1   
 47  22  48  1   
 48  23  49  1   
 49  23  50  1   
 50  24  26  ar  
 51  24  51  1   
 52  25  26  ar  
 53  25  52  1   
 54  26  27  1   
 55  27  28  1   
 56  28  53  1   
 57  28  54  1   
 58  28  55  1   
@<TRIPOS>SUBSTRUCTURE
  1 ****   8 GROUP 4 **** **** 0

# MOE 2024.06 (io_trps.svl 2023.06)
