@<TRIPOS>MOLECULE
NONAME
44 47 1 0 0 
SMALL
USER_CHARGES


@<TRIPOS>ATOM
  1 O       -0.6860    -0.8780    -0.0440 O.2   1 <1>  -0.5700 
  2 C        0.1080    -1.7760    -0.1510 C.2   1 <1>   0.5690 
  3 N       -0.0990    -2.8070    -0.9950 N.am  1 <1>  -0.7300 
  4 C        1.3790    -1.7910     0.6710 C.3   1 <1>  -0.0990 
  5 C        0.8420    -3.9380    -1.1370 C.3   1 <1>   0.1400 
  6 C        2.5770    -2.2180    -0.1980 C.3   1 <1>  -0.0800 
  7 C        2.2930    -3.4140    -1.1370 C.3   1 <1>  -0.0800 
  8 C        3.8110    -2.6010     0.6270 C.3   1 <1>  -0.1600 
  9 C        3.3160    -4.4880    -0.7500 C.3   1 <1>  -0.1600 
 10 C        4.5010    -3.7050    -0.1760 C.3   1 <1>   0.2200 
 11 N        5.4490    -4.5000     0.6730 N.am  1 <1>  -0.6600 
 12 C        6.5000    -3.9070     1.3650 C.2   1 <1>   0.5440 
 13 C        5.2920    -5.9900     0.7050 C.3   1 <1>   0.0600 
 14 O        7.0090    -4.5450     2.2730 O.2   1 <1>  -0.5700 
 15 C        7.0090    -2.5610     1.0960 C.ar  1 <1>   0.3960 
 16 N        7.1060    -2.0740    -0.1250 N.ar  1 <1>  -0.6200 
 17 C        7.3930    -1.7870     2.2230 C.ar  1 <1>   0.1600 
 18 C        7.5770    -0.8060    -0.2060 C.ar  1 <1>   0.3100 
 19 N        7.8380    -0.5680     2.1900 N.ar  1 <1>  -0.6200 
 20 C        7.9350    -0.0530     0.9390 C.ar  1 <1>   0.3100 
 21 C        7.7090    -0.2090    -1.4700 C.ar  1 <1>  -0.1500 
 22 C        8.4000     1.2590     0.7690 C.ar  1 <1>  -0.1500 
 23 C        8.1680     1.0760    -1.6090 C.ar  1 <1>  -0.1500 
 24 C        8.5160     1.8180    -0.4780 C.ar  1 <1>  -0.1500 
 25 H       -0.9740    -2.8180    -1.5240 H     1 <1>   0.3700 
 26 H        1.5500    -0.8150     1.0870 H     1 <1>   0.0800 
 27 H        1.2330    -2.4830     1.4800 H     1 <1>   0.0800 
 28 H        0.6860    -4.6090    -0.3090 H     1 <1>   0.0800 
 29 H        0.6410    -4.4700    -2.0510 H     1 <1>   0.0800 
 30 H        2.8360    -1.3800    -0.8250 H     1 <1>   0.0800 
 31 H        2.5180    -3.0930    -2.1410 H     1 <1>   0.0800 
 32 H        3.5130    -2.9990     1.5820 H     1 <1>   0.0800 
 33 H        4.4420    -1.7450     0.7750 H     1 <1>   0.0800 
 34 H        3.6040    -5.0810    -1.5990 H     1 <1>   0.0800 
 35 H        2.8890    -5.1130     0.0140 H     1 <1>   0.0800 
 36 H        5.0400    -3.2680    -1.0000 H     1 <1>   0.0800 
 37 H        5.1840    -6.3740    -0.2930 H     1 <1>   0.0800 
 38 H        4.4290    -6.2520     1.2920 H     1 <1>   0.0800 
 39 H        6.1550    -6.4590     1.1450 H     1 <1>   0.0800 
 40 H        7.2990    -2.2590     3.1860 H     1 <1>   0.1500 
 41 H        7.4390    -0.7940    -2.3310 H     1 <1>   0.1500 
 42 H        8.6650     1.8130     1.6510 H     1 <1>   0.1500 
 43 H        8.2660     1.5240    -2.5840 H     1 <1>   0.1500 
 44 H        8.8760     2.8270    -0.5980 H     1 <1>   0.1500 
@<TRIPOS>BOND
  1   1   2  2   
  2   2   3  am  
  3   2   4  1   
  4   3   5  1   
  5   3  25  1   
  6   4   6  1   
  7   4  26  1   
  8   4  27  1   
  9   5   7  1   
 10   5  28  1   
 11   5  29  1   
 12   6   7  1   
 13   6   8  1   
 14   6  30  1   
 15   7   9  1   
 16   7  31  1   
 17   8  10  1   
 18   8  32  1   
 19   8  33  1   
 20   9  10  1   
 21   9  34  1   
 22   9  35  1   
 23  10  11  1   
 24  10  36  1   
 25  11  12  am  
 26  11  13  1   
 27  12  14  2   
 28  12  15  1   
 29  13  37  1   
 30  13  38  1   
 31  13  39  1   
 32  15  16  ar  
 33  15  17  ar  
 34  16  18  ar  
 35  17  19  ar  
 36  17  40  1   
 37  18  20  ar  
 38  18  21  ar  
 39  19  20  ar  
 40  20  22  ar  
 41  21  23  ar  
 42  21  41  1   
 43  22  24  ar  
 44  22  42  1   
 45  23  24  ar  
 46  23  43  1   
 47  24  44  1   
@<TRIPOS>SUBSTRUCTURE
  1 ****   8 GROUP 4 **** **** 0

# MOE 2024.06 (io_trps.svl 2023.06)
