@<TRIPOS>MOLECULE
NONAME
50 53 1 0 0 
SMALL
USER_CHARGES


@<TRIPOS>ATOM
  1 O       -0.2500    -2.2680    -1.1520 O.3   1 <1>  -0.6800 
  2 C       -1.3940    -2.7170    -0.5120 C.3   1 <1>   0.2000 
  3 C       -2.2100    -3.6050    -1.4710 C.3   1 <1>   0.2090 
  4 C       -2.1880    -1.4870    -0.0620 C.3   1 <1>  -0.1600 
  5 N       -3.5310    -3.9710    -0.8590 N.pl3 1 <1>  -0.8380 
  6 C       -3.5460    -1.9110     0.5220 C.3   1 <1>  -0.1600 
  7 C       -3.9300    -5.2410    -0.5870 C.ar  1 <1>   0.4100 
  8 C       -4.3390    -2.7750    -0.4630 C.3   1 <1>   0.2090 
  9 N       -4.7080    -5.4320     0.4620 N.ar  1 <1>  -0.6200 
 10 C       -3.5290    -6.3180    -1.4010 C.ar  1 <1>  -0.1500 
 11 C       -5.0900    -6.6650     0.7660 C.ar  1 <1>   0.7710 
 12 C       -3.9340    -7.5690    -1.0840 C.ar  1 <1>   0.2110 
 13 N       -4.7100    -7.7150     0.0130 N.ar  1 <1>  -0.1790 
 14 N       -5.8780    -6.8600     1.8640 N.pl3 1 <1>  -0.8380 
 15 C       -6.1770    -8.1950     2.4950 C.3   1 <1>   0.3530 
 16 C       -6.4200    -5.7060     2.6570 C.3   1 <1>   0.1290 
 17 C       -6.8790    -9.1510     1.5300 C.ar  1 <1>   0.1670 
 18 N       -6.1390    -9.9880     0.8560 N.ar  1 <1>  -0.6200 
 19 C       -8.2750    -9.0710     1.4000 C.ar  1 <1>  -0.1500 
 20 C       -6.7720   -10.8570     0.0190 C.ar  1 <1>   0.3100 
 21 C       -8.9250    -9.9040     0.5420 C.ar  1 <1>  -0.1500 
 22 C       -8.1680   -10.8360    -0.1860 C.ar  1 <1>   0.0000 
 23 C       -6.0070   -11.8060    -0.6800 C.ar  1 <1>  -0.1500 
 24 C       -8.7400   -11.7430    -1.0990 C.ar  1 <1>  -0.1500 
 25 C       -6.5840   -12.6820    -1.5600 C.ar  1 <1>  -0.1500 
 26 C       -7.9650   -12.6460    -1.7740 C.ar  1 <1>  -0.1500 
 27 H        0.4290    -2.9690    -1.1880 H     1 <1>   0.4000 
 28 H       -1.0930    -3.2910     0.3470 H     1 <1>   0.0800 
 29 H       -1.6350    -4.4850    -1.6900 H     1 <1>   0.0800 
 30 H       -2.3890    -3.0670    -2.3860 H     1 <1>   0.0800 
 31 H       -2.3530    -0.8400    -0.9060 H     1 <1>   0.0800 
 32 H       -1.6270    -0.9470     0.6810 H     1 <1>   0.0800 
 33 H       -4.1200    -1.0350     0.7670 H     1 <1>   0.0800 
 34 H       -3.3970    -2.4700     1.4290 H     1 <1>   0.0800 
 35 H       -5.2750    -3.0680    -0.0180 H     1 <1>   0.0800 
 36 H       -4.5660    -2.1990    -1.3450 H     1 <1>   0.0800 
 37 H       -2.9280    -6.1270    -2.2680 H     1 <1>   0.1500 
 38 H       -3.6760    -8.4410    -1.6640 H     1 <1>   0.1500 
 39 H       -5.0990    -8.6230     0.2870 H     1 <1>   0.4570 
 40 H       -6.8010    -8.0630     3.3630 H     1 <1>   0.0800 
 41 H       -5.2580    -8.6410     2.8340 H     1 <1>   0.0800 
 42 H       -6.4170    -4.7920     2.0860 H     1 <1>   0.0800 
 43 H       -5.8240    -5.5570     3.5410 H     1 <1>   0.0800 
 44 H       -7.4380    -5.9000     2.9490 H     1 <1>   0.0800 
 45 H       -8.8210    -8.3450     1.9780 H     1 <1>   0.1500 
 46 H       -9.9930    -9.8680     0.4120 H     1 <1>   0.1500 
 47 H       -4.9480   -11.8350    -0.5020 H     1 <1>   0.1500 
 48 H       -9.8050   -11.7170    -1.2560 H     1 <1>   0.1500 
 49 H       -5.9910   -13.4070    -2.0920 H     1 <1>   0.1500 
 50 H       -8.4060   -13.3400    -2.4710 H     1 <1>   0.1500 
@<TRIPOS>BOND
  1   1   2  1   
  2   1  27  1   
  3   2   3  1   
  4   2   4  1   
  5   2  28  1   
  6   3   5  1   
  7   3  29  1   
  8   3  30  1   
  9   4   6  1   
 10   4  31  1   
 11   4  32  1   
 12   5   7  1   
 13   5   8  1   
 14   6   8  1   
 15   6  33  1   
 16   6  34  1   
 17   7   9  ar  
 18   7  10  ar  
 19   8  35  1   
 20   8  36  1   
 21   9  11  ar  
 22  10  12  ar  
 23  10  37  1   
 24  11  13  ar  
 25  11  14  1   
 26  12  13  ar  
 27  12  38  1   
 28  13  39  1   
 29  14  15  1   
 30  14  16  1   
 31  15  17  1   
 32  15  40  1   
 33  15  41  1   
 34  16  42  1   
 35  16  43  1   
 36  16  44  1   
 37  17  18  ar  
 38  17  19  ar  
 39  18  20  ar  
 40  19  21  ar  
 41  19  45  1   
 42  20  22  ar  
 43  20  23  ar  
 44  21  22  ar  
 45  21  46  1   
 46  22  24  ar  
 47  23  25  ar  
 48  23  47  1   
 49  24  26  ar  
 50  24  48  1   
 51  25  26  ar  
 52  25  49  1   
 53  26  50  1   
@<TRIPOS>SUBSTRUCTURE
  1 ****  13 GROUP 4 **** **** 0

# MOE 2024.06 (io_trps.svl 2023.06)
