@<TRIPOS>MOLECULE
NONAME
50 52 1 0 0 
SMALL
USER_CHARGES


@<TRIPOS>ATOM
  1 S        0.9300     0.6950    -1.2040 S.o2  1 <1>   1.3330 
  2 O        0.8450    -0.7180    -1.5000 O.2   1 <1>  -0.6500 
  3 O        0.3270     1.6510    -2.1040 O.2   1 <1>  -0.6500 
  4 N        0.2430     0.9480     0.3290 N.am  1 <1>  -0.8490 
  5 C        2.6580     1.1100    -0.9690 C.3   1 <1>  -0.0550 
  6 C       -1.0360     0.2480     0.4730 C.3   1 <1>   0.1160 
  7 C        0.0710     2.3690     0.6660 C.3   1 <1>   0.1160 
  8 C        3.4810     0.0510    -0.1990 C.3   1 <1>  -0.0800 
  9 C        4.9380     0.4180     0.0500 C.3   1 <1>   0.2200 
 10 C        2.9800    -0.2730     1.2130 C.3   1 <1>   0.1200 
 11 N        5.0340     1.8140     0.5290 N.am  1 <1>  -0.7300 
 12 C        5.2670    -0.5200     1.2040 C.3   1 <1>   0.1200 
 13 O        4.1090    -0.5740     1.9810 O.3   1 <1>  -0.5600 
 14 C        5.2710     2.9100    -0.2460 C.2   1 <1>   0.7150 
 15 O        5.8270     2.7470    -1.3170 O.2   1 <1>  -0.5700 
 16 C        4.7750     4.1930     0.1930 C.2   1 <1>   0.1020 
 17 N        3.8100     4.3320     1.0660 N.2   1 <1>  -0.3380 
 18 N        5.1890     5.4080    -0.2280 N.pl3 1 <1>   0.0480 
 19 N        3.5780     5.6250     1.2120 N.2   1 <1>  -0.3380 
 20 C        4.4020     6.2480     0.4410 C.2   1 <1>   0.0060 
 21 C        6.2620     5.7770    -1.1850 C.3   1 <1>   0.0960 
 22 C        4.4570     7.7600     0.3260 C.3   1 <1>   0.0200 
 23 C        7.3410     6.6480    -0.5260 C.3   1 <1>  -0.1600 
 24 C        5.8240     8.3230     0.7370 C.3   1 <1>  -0.1600 
 25 C        6.9270     8.1130    -0.3130 C.3   1 <1>  -0.1600 
 26 H        3.1090     1.2380    -1.9340 H     1 <1>   0.0800 
 27 H        2.7100     2.0550    -0.4700 H     1 <1>   0.0800 
 28 H       -1.4360     0.4030     1.4600 H     1 <1>   0.0800 
 29 H       -0.8950    -0.8100     0.3300 H     1 <1>   0.0800 
 30 H       -1.7420     0.6060    -0.2580 H     1 <1>   0.0800 
 31 H       -0.3180     2.4670     1.6660 H     1 <1>   0.0800 
 32 H       -0.6120     2.8410    -0.0220 H     1 <1>   0.0800 
 33 H        1.0140     2.8870     0.6260 H     1 <1>   0.0800 
 34 H        3.4570    -0.8660    -0.7630 H     1 <1>   0.0800 
 35 H        5.5720     0.2580    -0.8060 H     1 <1>   0.0800 
 36 H        2.3090    -1.1160     1.2210 H     1 <1>   0.0800 
 37 H        2.5010     0.5760     1.6690 H     1 <1>   0.0800 
 38 H        4.5640     1.9800     1.4250 H     1 <1>   0.3700 
 39 H        6.0910    -0.1720     1.8020 H     1 <1>   0.0800 
 40 H        5.4670    -1.5130     0.8430 H     1 <1>   0.0800 
 41 H        6.7320     4.8900    -1.5630 H     1 <1>   0.0800 
 42 H        5.8210     6.2940    -2.0180 H     1 <1>   0.0800 
 43 H        4.2120     8.0580    -0.6780 H     1 <1>   0.0800 
 44 H        3.7060     8.1720     0.9770 H     1 <1>   0.0800 
 45 H        7.6500     6.2060     0.4070 H     1 <1>   0.0800 
 46 H        8.2000     6.6460    -1.1750 H     1 <1>   0.0800 
 47 H        5.7130     9.3810     0.8960 H     1 <1>   0.0800 
 48 H        6.1220     7.8890     1.6770 H     1 <1>   0.0800 
 49 H        7.7970     8.6580     0.0120 H     1 <1>   0.0800 
 50 H        6.6190     8.5440    -1.2510 H     1 <1>   0.0800 
@<TRIPOS>BOND
  1   1   2  2   
  2   1   3  2   
  3   1   4  am  
  4   1   5  1   
  5   4   6  1   
  6   4   7  1   
  7   5   8  1   
  8   5  26  1   
  9   5  27  1   
 10   6  28  1   
 11   6  29  1   
 12   6  30  1   
 13   7  31  1   
 14   7  32  1   
 15   7  33  1   
 16   8   9  1   
 17   8  10  1   
 18   8  34  1   
 19   9  11  1   
 20   9  12  1   
 21   9  35  1   
 22  10  13  1   
 23  10  36  1   
 24  10  37  1   
 25  11  14  am  
 26  11  38  1   
 27  12  13  1   
 28  12  39  1   
 29  12  40  1   
 30  14  15  2   
 31  14  16  1   
 32  16  17  2   
 33  16  18  1   
 34  17  19  1   
 35  18  20  1   
 36  18  21  1   
 37  19  20  2   
 38  20  22  1   
 39  21  23  1   
 40  21  41  1   
 41  21  42  1   
 42  22  24  1   
 43  22  43  1   
 44  22  44  1   
 45  23  25  1   
 46  23  45  1   
 47  23  46  1   
 48  24  25  1   
 49  24  47  1   
 50  24  48  1   
 51  25  49  1   
 52  25  50  1   
@<TRIPOS>SUBSTRUCTURE
  1 ****  14 GROUP 4 **** **** 0

# MOE 2024.06 (io_trps.svl 2023.06)
