@<TRIPOS>MOLECULE
NONAME
59 62 1 0 0 
SMALL
USER_CHARGES


@<TRIPOS>ATOM
  1 O        1.0180     1.4840     1.2120 O.3   1 <1>  -0.0190 
  2 N        1.8610     0.5170     1.4140 N.2   1 <1>  -0.4100 
  3 C        0.9490     1.8110    -0.0510 C.2   1 <1>  -0.0400 
  4 C        2.3270     0.1980     0.2600 C.2   1 <1>   0.1080 
  5 C        1.7780     1.0060    -0.7320 C.2   1 <1>  -0.1500 
  6 C        0.0480     2.9510    -0.4860 C.3   1 <1>   0.0200 
  7 C        3.3330    -0.9080     0.0250 C.3   1 <1>  -0.0590 
  8 C        0.1760     4.1590     0.4630 C.3   1 <1>  -0.0800 
  9 C       -0.4640     5.4170    -0.1240 C.3   1 <1>   0.2000 
 10 C        1.6460     4.5410     0.7090 C.3   1 <1>   0.3430 
 11 O       -0.9020     6.2080     0.9310 O.3   1 <1>  -0.6800 
 12 C        0.7150     6.1370    -0.7780 C.3   1 <1>   0.3430 
 13 N        1.8320     5.9280     0.1850 N.4   1 <1>  -0.9590 
 14 C        3.2030     6.2660    -0.2920 C.3   1 <1>   0.4230 
 15 C        4.2130     6.0310     0.8410 C.3   1 <1>  -0.1600 
 16 C        3.2340     7.7200    -0.7860 C.3   1 <1>  -0.1600 
 17 C        5.6100     6.4850     0.4320 C.3   1 <1>   0.2090 
 18 C        4.6520     8.1380    -1.1630 C.3   1 <1>   0.2090 
 19 N        5.5190     7.8930     0.0040 N.pl3 1 <1>  -0.8380 
 20 C        6.7020     8.6230     0.0520 C.ar  1 <1>   0.1000 
 21 C        6.8630     9.6090     1.0150 C.ar  1 <1>  -0.1500 
 22 C        7.7370     8.3890    -0.8460 C.ar  1 <1>  -0.1500 
 23 C        8.0290    10.3510     1.0880 C.ar  1 <1>  -0.1430 
 24 C        8.9090     9.1230    -0.7860 C.ar  1 <1>  -0.1430 
 25 C        9.0490    10.1030     0.1830 C.ar  1 <1>  -0.1500 
 26 C        8.2020    11.4280     2.1420 C.3   1 <1>  -0.0970 
 27 C       10.0400     8.8680    -1.7660 C.3   1 <1>  -0.0970 
 28 H        1.9970     0.9550    -1.7830 H     1 <1>   0.1500 
 29 H        0.3020     3.2230    -1.4950 H     1 <1>   0.0800 
 30 H       -0.9710     2.6020    -0.4840 H     1 <1>   0.0800 
 31 H        4.2440    -0.4990    -0.3710 H     1 <1>   0.0800 
 32 H        2.9340    -1.6240    -0.6680 H     1 <1>   0.0800 
 33 H        3.5510    -1.4090     0.9520 H     1 <1>   0.0800 
 34 H       -0.2850     3.8930     1.4000 H     1 <1>   0.0800 
 35 H       -1.2850     5.2390    -0.7980 H     1 <1>   0.0800 
 36 H        2.2980     3.8560     0.1910 H     1 <1>   0.0800 
 37 H        1.8740     4.5020     1.7630 H     1 <1>   0.0800 
 38 H       -1.7340     5.8600     1.3200 H     1 <1>   0.4000 
 39 H        0.4960     7.1820    -0.9260 H     1 <1>   0.0800 
 40 H        0.9490     5.6740    -1.7220 H     1 <1>   0.0800 
 41 H        1.6100     6.5580     0.9730 H     1 <1>   0.4500 
 42 H        3.4640     5.6220    -1.1170 H     1 <1>   0.0800 
 43 H        3.9270     6.5880     1.7160 H     1 <1>   0.0800 
 44 H        4.2690     4.9900     1.0970 H     1 <1>   0.0800 
 45 H        2.6150     7.8430    -1.6550 H     1 <1>   0.0800 
 46 H        2.8870     8.3830    -0.0140 H     1 <1>   0.0800 
 47 H        5.9920     5.8830    -0.3760 H     1 <1>   0.0800 
 48 H        6.2880     6.4070     1.2670 H     1 <1>   0.0800 
 49 H        4.6770     9.1870    -1.4150 H     1 <1>   0.0800 
 50 H        5.0110     7.5750    -2.0080 H     1 <1>   0.0800 
 51 H        6.0580     9.7830     1.7040 H     1 <1>   0.1500 
 52 H        7.6150     7.6270    -1.5910 H     1 <1>   0.1500 
 53 H        9.9580    10.6760     0.2350 H     1 <1>   0.1500 
 54 H        9.0480    11.1980     2.7640 H     1 <1>   0.0800 
 55 H        7.3280    11.5000     2.7640 H     1 <1>   0.0800 
 56 H        8.3650    12.3790     1.6680 H     1 <1>   0.0800 
 57 H       10.2470     9.7640    -2.3240 H     1 <1>   0.0800 
 58 H        9.7820     8.0860    -2.4560 H     1 <1>   0.0800 
 59 H       10.9260     8.5770    -1.2320 H     1 <1>   0.0800 
@<TRIPOS>BOND
  1   1   2  1   
  2   1   3  1   
  3   2   4  2   
  4   3   5  2   
  5   3   6  1   
  6   4   5  1   
  7   4   7  1   
  8   5  28  1   
  9   6   8  1   
 10   6  29  1   
 11   6  30  1   
 12   7  31  1   
 13   7  32  1   
 14   7  33  1   
 15   8   9  1   
 16   8  10  1   
 17   8  34  1   
 18   9  11  1   
 19   9  12  1   
 20   9  35  1   
 21  10  13  1   
 22  10  36  1   
 23  10  37  1   
 24  11  38  1   
 25  12  13  1   
 26  12  39  1   
 27  12  40  1   
 28  13  14  1   
 29  13  41  1   
 30  14  15  1   
 31  14  16  1   
 32  14  42  1   
 33  15  17  1   
 34  15  43  1   
 35  15  44  1   
 36  16  18  1   
 37  16  45  1   
 38  16  46  1   
 39  17  19  1   
 40  17  47  1   
 41  17  48  1   
 42  18  19  1   
 43  18  49  1   
 44  18  50  1   
 45  19  20  1   
 46  20  21  ar  
 47  20  22  ar  
 48  21  23  ar  
 49  21  51  1   
 50  22  24  ar  
 51  22  52  1   
 52  23  25  ar  
 53  23  26  1   
 54  24  25  ar  
 55  24  27  1   
 56  25  53  1   
 57  26  54  1   
 58  26  55  1   
 59  26  56  1   
 60  27  57  1   
 61  27  58  1   
 62  27  59  1   
@<TRIPOS>SUBSTRUCTURE
  1 ****  15 GROUP 4 **** **** 0

# MOE 2024.06 (io_trps.svl 2023.06)
