@<TRIPOS>MOLECULE
NONAME
25 25 1 0 0 
SMALL
USER_CHARGES


@<TRIPOS>ATOM
  1 O       -0.0840     0.5050     0.7100 O.3   1 <1>  -0.5320 
  2 C       -0.1540     1.7660     0.2630 C.ar  1 <1>   0.0830 
  3 C        0.6750     2.7220     0.8210 C.ar  1 <1>  -0.1500 
  4 C       -1.0400     2.1070    -0.7460 C.ar  1 <1>  -0.1500 
  5 C        0.6140     4.0300     0.3770 C.ar  1 <1>  -0.1500 
  6 C       -1.1020     3.4170    -1.1860 C.ar  1 <1>  -0.1500 
  7 C       -0.2850     4.3870    -0.6200 C.ar  1 <1>  -0.1430 
  8 C       -0.3900     5.8390    -1.0640 C.3   1 <1>  -0.0170 
  9 C       -0.9640     6.6980     0.0720 C.3   1 <1>   0.4230 
 10 N       -2.1310     6.0230     0.6630 N.4   1 <1>  -0.8530 
 11 C       -1.3940     8.0810    -0.4040 C.3   1 <1>  -0.2400 
 12 H       -0.6400    -0.1220     0.2130 H     1 <1>   0.4500 
 13 H        1.3660     2.4300     1.5920 H     1 <1>   0.1500 
 14 H       -1.6720     1.3570    -1.1890 H     1 <1>   0.1500 
 15 H        1.2790     4.7550     0.8150 H     1 <1>   0.1500 
 16 H       -1.7890     3.6650    -1.9780 H     1 <1>   0.1500 
 17 H       -1.0100     5.9160    -1.9410 H     1 <1>   0.0800 
 18 H        0.5860     6.2040    -1.3320 H     1 <1>   0.0800 
 19 H       -0.2020     6.8040     0.8300 H     1 <1>   0.0800 
 20 H       -2.9230     6.0270     0.0150 H     1 <1>   0.4500 
 21 H       -2.4140     6.4560     1.5470 H     1 <1>   0.4500 
 22 H       -1.8760     5.0390     0.8390 H     1 <1>   0.4500 
 23 H       -2.1540     8.0180    -1.1630 H     1 <1>   0.0800 
 24 H       -0.5470     8.5950    -0.8250 H     1 <1>   0.0800 
 25 H       -1.7570     8.6720     0.4190 H     1 <1>   0.0800 
@<TRIPOS>BOND
  1   1   2  1   
  2   1  12  1   
  3   2   3  ar  
  4   2   4  ar  
  5   3   5  ar  
  6   3  13  1   
  7   4   6  ar  
  8   4  14  1   
  9   5   7  ar  
 10   5  15  1   
 11   6   7  ar  
 12   6  16  1   
 13   7   8  1   
 14   8   9  1   
 15   8  17  1   
 16   8  18  1   
 17   9  10  1   
 18   9  11  1   
 19   9  19  1   
 20  10  20  1   
 21  10  21  1   
 22  10  22  1   
 23  11  23  1   
 24  11  24  1   
 25  11  25  1   
@<TRIPOS>SUBSTRUCTURE
  1 ****   7 GROUP 4 **** **** 0

# MOE 2024.06 (io_trps.svl 2023.06)
