@<TRIPOS>MOLECULE
NONAME
47 50 1 0 0 
SMALL
USER_CHARGES


@<TRIPOS>ATOM
  1 S       -0.6130     0.6070     2.1380 S.3   1 <1>  -0.0800 
  2 C       -0.1280     2.2370     1.7310 C.2   1 <1>  -0.1100 
  3 C       -1.2680     0.3630     0.5330 C.2   1 <1>  -0.1100 
  4 C       -0.4350     2.5560     0.4490 C.2   1 <1>  -0.0860 
  5 C       -1.1000     1.4650    -0.2190 C.2   1 <1>  -0.1500 
  6 C       -0.1790     3.8150    -0.2250 C.2   1 <1>   0.7160 
  7 O       -1.0030     4.2420    -1.0130 O.2   1 <1>  -0.5700 
  8 N        0.9720     4.5430    -0.0060 N.am  1 <1>  -0.6600 
  9 C        2.2570     3.9180     0.4460 C.3   1 <1>   0.1400 
 10 C        1.0160     5.9960    -0.3400 C.3   1 <1>   0.1400 
 11 C        3.3930     4.0910    -0.5720 C.3   1 <1>   0.1400 
 12 C        1.6680     6.2090    -1.7120 C.3   1 <1>  -0.1600 
 13 N        3.8440     5.5110    -0.6360 N.am  1 <1>  -0.6600 
 14 C        3.1940     6.3670    -1.6700 C.3   1 <1>   0.1400 
 15 C        4.8230     5.9680     0.2270 C.2   1 <1>   0.6160 
 16 O        5.1000     5.2770     1.1930 O.2   1 <1>  -0.5700 
 17 C        5.4700     7.2420     0.0900 C.2   1 <1>   0.0290 
 18 C        6.1610     7.5520    -1.1320 C.2   1 <1>   0.6160 
 19 C        5.4650     8.1700     1.1070 C.2   1 <1>  -0.1500 
 20 O        6.2400     6.8040    -2.0950 O.2   1 <1>  -0.5700 
 21 N        6.7710     8.7750    -1.2550 N.am  1 <1>  -0.5390 
 22 C        6.1110     9.4070     0.9210 C.2   1 <1>  -0.1380 
 23 C        6.7410     9.6830    -0.2370 C.2   1 <1>  -0.0290 
 24 C        6.2240    10.5470     1.9010 C.3   1 <1>  -0.0220 
 25 C        7.3810    11.0450    -0.2490 C.3   1 <1>  -0.0220 
 26 C        6.8980    11.6670     1.0780 C.3   1 <1>  -0.1600 
 27 H        0.3470     2.8160     2.5030 H     1 <1>   0.1500 
 28 H       -1.7190    -0.5910     0.3200 H     1 <1>   0.1500 
 29 H       -1.4210     1.5760    -1.2410 H     1 <1>   0.1500 
 30 H        2.1210     2.8620     0.5910 H     1 <1>   0.0800 
 31 H        2.5540     4.3420     1.3890 H     1 <1>   0.0800 
 32 H        1.5500     6.5330     0.4260 H     1 <1>   0.0800 
 33 H        0.0110     6.3820    -0.3660 H     1 <1>   0.0800 
 34 H        3.0780     3.7520    -1.5430 H     1 <1>   0.0800 
 35 H        4.2240     3.4760    -0.2700 H     1 <1>   0.0800 
 36 H        1.2640     7.1060    -2.1440 H     1 <1>   0.0800 
 37 H        1.3950     5.4040    -2.3710 H     1 <1>   0.0800 
 38 H        3.4140     7.4000    -1.4650 H     1 <1>   0.0800 
 39 H        3.6110     6.1310    -2.6350 H     1 <1>   0.0800 
 40 H        4.9790     7.9650     2.0450 H     1 <1>   0.1500 
 41 H        7.2560     8.9380    -2.1370 H     1 <1>   0.3700 
 42 H        6.8430    10.2530     2.7310 H     1 <1>   0.0800 
 43 H        5.2550    10.8510     2.2570 H     1 <1>   0.0800 
 44 H        7.0520    11.6230    -1.0940 H     1 <1>   0.0800 
 45 H        8.4520    10.9460    -0.2620 H     1 <1>   0.0800 
 46 H        7.7160    12.1070     1.6210 H     1 <1>   0.0800 
 47 H        6.1730    12.4330     0.8650 H     1 <1>   0.0800 
@<TRIPOS>BOND
  1   1   2  1   
  2   1   3  1   
  3   2   4  2   
  4   2  27  1   
  5   3   5  2   
  6   3  28  1   
  7   4   5  1   
  8   4   6  1   
  9   5  29  1   
 10   6   7  2   
 11   6   8  am  
 12   8   9  1   
 13   8  10  1   
 14   9  11  1   
 15   9  30  1   
 16   9  31  1   
 17  10  12  1   
 18  10  32  1   
 19  10  33  1   
 20  11  13  1   
 21  11  34  1   
 22  11  35  1   
 23  12  14  1   
 24  12  36  1   
 25  12  37  1   
 26  13  14  1   
 27  13  15  am  
 28  14  38  1   
 29  14  39  1   
 30  15  16  2   
 31  15  17  1   
 32  17  18  1   
 33  17  19  2   
 34  18  20  2   
 35  18  21  am  
 36  19  22  1   
 37  19  40  1   
 38  21  23  1   
 39  21  41  1   
 40  22  23  2   
 41  22  24  1   
 42  23  25  1   
 43  24  26  1   
 44  24  42  1   
 45  24  43  1   
 46  25  26  1   
 47  25  44  1   
 48  25  45  1   
 49  26  46  1   
 50  26  47  1   
@<TRIPOS>SUBSTRUCTURE
  1 ****  13 GROUP 4 **** **** 0

# MOE 2024.06 (io_trps.svl 2023.06)
