@<TRIPOS>MOLECULE
NONAME
46 49 1 0 0 
SMALL
USER_CHARGES


@<TRIPOS>ATOM
  1 F        1.0340     0.8700     1.8780 F     1 <1>  -0.1900 
  2 C        2.2670     1.3280     1.7810 C.ar  1 <1>   0.1900 
  3 C        3.2270     0.7210     0.9700 C.ar  1 <1>   0.4100 
  4 C        2.6070     2.4330     2.5090 C.ar  1 <1>   0.1600 
  5 N        4.4540     1.2040     0.9740 N.ar  1 <1>  -0.6200 
  6 N        3.0010    -0.3790     0.1400 N.pl3 1 <1>  -0.8380 
  7 N        3.8220     2.9430     2.4700 N.ar  1 <1>  -0.6200 
  8 C        4.6910     2.2890     1.7010 C.ar  1 <1>   0.7200 
  9 C        1.6710    -0.7110    -0.4260 C.3   1 <1>   0.2090 
 10 C        4.0730    -0.8690    -0.7680 C.3   1 <1>   0.2090 
 11 N        5.9700     2.7980     1.6500 N.pl3 1 <1>  -0.8380 
 12 C        1.9510    -1.3330    -1.7900 C.3   1 <1>  -0.1600 
 13 C        3.3790    -1.8550    -1.6950 C.3   1 <1>  -0.1600 
 14 C        6.1670     4.2680     1.4410 C.3   1 <1>   0.2090 
 15 C        7.1380     1.9100     1.3620 C.3   1 <1>   0.2090 
 16 C        6.5270     4.6740    -0.0120 C.3   1 <1>   0.2200 
 17 C        7.6650     1.9800    -0.0860 C.3   1 <1>  -0.0190 
 18 N        6.0860     3.6770    -1.0420 N.am  1 <1>  -0.6600 
 19 C        8.0270     4.9950    -0.1690 C.3   1 <1>   0.1200 
 20 C        6.6300     2.4190    -1.1050 C.2   1 <1>   0.5690 
 21 C        8.9470     2.8120    -0.2280 C.3   1 <1>   0.1200 
 22 C        4.8880     4.0450    -1.8420 C.3   1 <1>   0.0600 
 23 O        8.8570     4.0400     0.4260 O.3   1 <1>  -0.5600 
 24 O        6.3550     1.6440    -1.9940 O.2   1 <1>  -0.5700 
 25 H        1.8740     2.9100     3.1330 H     1 <1>   0.1500 
 26 H        1.1850    -1.4220     0.2190 H     1 <1>   0.0800 
 27 H        1.0570     0.1680    -0.5290 H     1 <1>   0.0800 
 28 H        4.4690    -0.0420    -1.3350 H     1 <1>   0.0800 
 29 H        4.8660    -1.3330    -0.2080 H     1 <1>   0.0800 
 30 H        1.2440    -2.1070    -2.0290 H     1 <1>   0.0800 
 31 H        1.8960    -0.5620    -2.5390 H     1 <1>   0.0800 
 32 H        3.8660    -1.9070    -2.6520 H     1 <1>   0.0800 
 33 H        3.3880    -2.8280    -1.2360 H     1 <1>   0.0800 
 34 H        5.2680     4.7930     1.7100 H     1 <1>   0.0800 
 35 H        6.9300     4.6150     2.1160 H     1 <1>   0.0800 
 36 H        7.9310     2.1530     2.0480 H     1 <1>   0.0800 
 37 H        6.8570     0.8910     1.5710 H     1 <1>   0.0800 
 38 H        6.0120     5.5960    -0.2140 H     1 <1>   0.0800 
 39 H        7.9430     0.9780    -0.3530 H     1 <1>   0.0800 
 40 H        8.2350     5.9260     0.3270 H     1 <1>   0.0800 
 41 H        8.2910     5.1020    -1.2070 H     1 <1>   0.0800 
 42 H        9.1880     2.9810    -1.2650 H     1 <1>   0.0800 
 43 H        9.7660     2.2820     0.2250 H     1 <1>   0.0800 
 44 H        5.0940     4.9230    -2.4280 H     1 <1>   0.0800 
 45 H        4.0600     4.2370    -1.1820 H     1 <1>   0.0800 
 46 H        4.6130     3.2440    -2.5060 H     1 <1>   0.0800 
@<TRIPOS>BOND
  1   1   2  1   
  2   2   3  ar  
  3   2   4  ar  
  4   3   5  ar  
  5   3   6  1   
  6   4   7  ar  
  7   4  25  1   
  8   5   8  ar  
  9   6   9  1   
 10   6  10  1   
 11   7   8  ar  
 12   8  11  1   
 13   9  12  1   
 14   9  26  1   
 15   9  27  1   
 16  10  13  1   
 17  10  28  1   
 18  10  29  1   
 19  11  14  1   
 20  11  15  1   
 21  12  13  1   
 22  12  30  1   
 23  12  31  1   
 24  13  32  1   
 25  13  33  1   
 26  14  16  1   
 27  14  34  1   
 28  14  35  1   
 29  15  17  1   
 30  15  36  1   
 31  15  37  1   
 32  16  18  1   
 33  16  19  1   
 34  16  38  1   
 35  17  20  1   
 36  17  21  1   
 37  17  39  1   
 38  18  20  am  
 39  18  22  1   
 40  19  23  1   
 41  19  40  1   
 42  19  41  1   
 43  20  24  2   
 44  21  23  1   
 45  21  42  1   
 46  21  43  1   
 47  22  44  1   
 48  22  45  1   
 49  22  46  1   
@<TRIPOS>SUBSTRUCTURE
  1 ****   5 GROUP 4 **** **** 0

# MOE 2024.06 (io_trps.svl 2023.06)
