@<TRIPOS>MOLECULE
NONAME
61 64 1 0 0 
SMALL
USER_CHARGES


@<TRIPOS>ATOM
  1 F        1.1320     0.8750    -0.6170 F     1 <1>  -0.1900 
  2 C        1.8790    -0.1670    -0.3740 C.ar  1 <1>   0.1900 
  3 C        1.6230    -1.3390    -1.0570 C.ar  1 <1>  -0.1500 
  4 C        2.8900    -0.0630     0.5570 C.ar  1 <1>  -0.1500 
  5 C        2.4070    -2.4560    -0.8030 C.ar  1 <1>  -0.1440 
  6 C        3.6750    -1.1740     0.8030 C.ar  1 <1>  -0.1500 
  7 C        3.4580    -2.3750     0.1260 C.ar  1 <1>  -0.0230 
  8 C        2.0850    -3.7490    -1.5360 C.3   1 <1>   0.4870 
  9 N        4.3170    -3.4820     0.4070 N.pl3 1 <1>   0.5930 
 10 N        1.4810    -4.6960    -0.5590 N.4   1 <1>  -0.9590 
 11 N        3.8560    -4.6600     0.9280 N.2   1 <1>  -0.7070 
 12 C        5.6580    -3.5610     0.2030 C.2   1 <1>  -0.3320 
 13 C        1.4620    -6.1170    -1.0420 C.3   1 <1>   0.3430 
 14 C        0.1780    -4.2130    -0.0150 C.3   1 <1>   0.3430 
 15 C        4.9120    -5.3930     1.0950 C.2   1 <1>   0.1080 
 16 C        6.0650    -4.7670     0.6460 C.2   1 <1>  -0.1500 
 17 C        6.5160    -2.4610    -0.4090 C.3   1 <1>  -0.0600 
 18 C        0.9020    -7.1170     0.0230 C.3   1 <1>   0.4230 
 19 C       -0.2550    -5.1650     1.0970 C.3   1 <1>  -0.1600 
 20 C        4.8900    -6.7700     1.7220 C.3   1 <1>  -0.0590 
 21 N        0.8790    -8.5850    -0.4110 N.4   1 <1>  -0.9590 
 22 C       -0.4600    -6.6210     0.5910 C.3   1 <1>   0.0000 
 23 C       -0.0530    -9.4510     0.3930 C.3   1 <1>   0.3430 
 24 C        0.6400    -8.8520    -1.8720 C.3   1 <1>   0.2630 
 25 C       -0.8770    -7.4980     1.8040 C.3   1 <1>  -0.1600 
 26 C       -1.5500    -6.6870    -0.5210 C.3   1 <1>   0.1200 
 27 C       -0.2370    -8.8990     1.8040 C.3   1 <1>  -0.1600 
 28 O       -2.5760    -5.7940    -0.2770 O.3   1 <1>  -0.6800 
 29 H        0.8170    -1.3510    -1.7700 H     1 <1>   0.1500 
 30 H        3.0540     0.8670     1.0740 H     1 <1>   0.1500 
 31 H        4.4650    -1.1060     1.5330 H     1 <1>   0.1500 
 32 H        2.9970    -4.1600    -1.9390 H     1 <1>   0.0800 
 33 H        1.4030    -3.5570    -2.3480 H     1 <1>   0.0800 
 34 H        2.1580    -4.6590     0.2360 H     1 <1>   0.4500 
 35 H        0.8560    -6.1700    -1.9290 H     1 <1>   0.0800 
 36 H        2.4680    -6.4100    -1.2940 H     1 <1>   0.0800 
 37 H        0.2880    -3.2190     0.3900 H     1 <1>   0.0800 
 38 H       -0.5730    -4.1840    -0.7890 H     1 <1>   0.0800 
 39 H        7.0610    -5.1770     0.6630 H     1 <1>   0.1500 
 40 H        7.5270    -2.8060    -0.5330 H     1 <1>   0.0800 
 41 H        6.5340    -1.5950     0.2280 H     1 <1>   0.0800 
 42 H        6.1340    -2.1760    -1.3740 H     1 <1>   0.0800 
 43 H        1.5880    -7.0620     0.8520 H     1 <1>   0.0800 
 44 H        0.4850    -5.1350     1.8790 H     1 <1>   0.0800 
 45 H       -1.1650    -4.7870     1.5320 H     1 <1>   0.0800 
 46 H        5.8410    -6.9770     2.1800 H     1 <1>   0.0800 
 47 H        4.6980    -7.5140     0.9730 H     1 <1>   0.0800 
 48 H        4.1310    -6.8160     2.4810 H     1 <1>   0.0800 
 49 H        1.8180    -8.9570    -0.1980 H     1 <1>   0.4500 
 50 H       -1.0200    -9.4940    -0.0840 H     1 <1>   0.0800 
 51 H        0.3310   -10.4580     0.4440 H     1 <1>   0.0800 
 52 H       -0.3330    -8.4970    -2.1700 H     1 <1>   0.0800 
 53 H        0.6850    -9.9130    -2.0670 H     1 <1>   0.0800 
 54 H        1.3900    -8.3710    -2.4790 H     1 <1>   0.0800 
 55 H       -0.6060    -7.0230     2.7330 H     1 <1>   0.0800 
 56 H       -1.9500    -7.5980     1.8260 H     1 <1>   0.0800 
 57 H       -1.9820    -7.6690    -0.6070 H     1 <1>   0.0800 
 58 H       -1.1500    -6.4130    -1.4810 H     1 <1>   0.0800 
 59 H       -0.8630    -9.5700     2.3680 H     1 <1>   0.0800 
 60 H        0.7180    -8.8730     2.3020 H     1 <1>   0.0800 
 61 H       -3.2200    -6.1340     0.3810 H     1 <1>   0.4000 
@<TRIPOS>BOND
  1   1   2  1   
  2   2   3  ar  
  3   2   4  ar  
  4   3   5  ar  
  5   3  29  1   
  6   4   6  ar  
  7   4  30  1   
  8   5   7  ar  
  9   5   8  1   
 10   6   7  ar  
 11   6  31  1   
 12   7   9  1   
 13   8  10  1   
 14   8  32  1   
 15   8  33  1   
 16   9  11  1   
 17   9  12  1   
 18  10  13  1   
 19  10  14  1   
 20  10  34  1   
 21  11  15  2   
 22  12  16  2   
 23  12  17  1   
 24  13  18  1   
 25  13  35  1   
 26  13  36  1   
 27  14  19  1   
 28  14  37  1   
 29  14  38  1   
 30  15  16  1   
 31  15  20  1   
 32  16  39  1   
 33  17  40  1   
 34  17  41  1   
 35  17  42  1   
 36  18  21  1   
 37  18  22  1   
 38  18  43  1   
 39  19  22  1   
 40  19  44  1   
 41  19  45  1   
 42  20  46  1   
 43  20  47  1   
 44  20  48  1   
 45  21  23  1   
 46  21  24  1   
 47  21  49  1   
 48  22  25  1   
 49  22  26  1   
 50  23  27  1   
 51  23  50  1   
 52  23  51  1   
 53  24  52  1   
 54  24  53  1   
 55  24  54  1   
 56  25  27  1   
 57  25  55  1   
 58  25  56  1   
 59  26  28  1   
 60  26  57  1   
 61  26  58  1   
 62  27  59  1   
 63  27  60  1   
 64  28  61  1   
@<TRIPOS>SUBSTRUCTURE
  1 ****  10 GROUP 4 **** **** 0

# MOE 2024.06 (io_trps.svl 2023.06)
