@<TRIPOS>MOLECULE
NONAME
43 45 1 0 0 
SMALL
USER_CHARGES


@<TRIPOS>ATOM
  1 S       -0.7730     0.8160     0.4560 S.o2  1 <1>   1.4470 
  2 O       -0.5450    -0.0940     1.5570 O.2   1 <1>  -0.6500 
  3 O       -1.4950     2.0480     0.6890 O.2   1 <1>  -0.6500 
  4 N       -1.5570    -0.0130    -0.7970 N.am  1 <1>  -0.8490 
  5 C        0.8210     1.2330    -0.3080 C.ar  1 <1>  -0.0090 
  6 C       -0.9740    -1.3270    -1.1530 C.3   1 <1>   0.1960 
  7 C       -3.0160    -0.0400    -0.7120 C.3   1 <1>   0.1960 
  8 C        0.8640     1.9690    -1.4900 C.ar  1 <1>  -0.1500 
  9 C        2.0270     0.8200     0.2630 C.ar  1 <1>  -0.1500 
 10 C       -1.8150    -2.5730    -0.7670 C.3   1 <1>  -0.1060 
 11 C       -3.4950    -0.9870     0.3920 C.3   1 <1>  -0.1600 
 12 C        2.0820     2.2740    -2.0670 C.ar  1 <1>   0.1900 
 13 C        3.2520     1.1240    -0.3150 C.ar  1 <1>  -0.1500 
 14 C       -2.7320    -2.9230    -1.9490 C.2   1 <1>   0.9060 
 15 C       -2.6310    -2.2530     0.5120 C.3   1 <1>   0.2000 
 16 C       -0.8860    -3.8030    -0.5560 C.3   1 <1>  -0.0650 
 17 F        2.0980     2.9680    -3.1760 F     1 <1>  -0.1900 
 18 C        3.2660     1.8550    -1.4870 C.ar  1 <1>   0.1900 
 19 O       -3.9200    -3.2220    -1.7550 O.co2 1 <1>  -0.9000 
 20 O       -2.2550    -2.9370    -3.0900 O.co2 1 <1>  -0.9000 
 21 O       -3.4710    -3.3060     0.8120 O.3   1 <1>  -0.6800 
 22 C        0.1620    -3.6850     0.5670 C.3   1 <1>  -0.1950 
 23 F        4.4170     2.1450    -2.0370 F     1 <1>  -0.1900 
 24 C        1.5510    -3.1860     0.3150 C.3   1 <1>  -0.2000 
 25 C        1.3120    -4.6400     0.5980 C.3   1 <1>  -0.2000 
 26 H       -0.7840    -1.3320    -2.2130 H     1 <1>   0.0800 
 27 H       -0.0100    -1.3980    -0.6890 H     1 <1>   0.0800 
 28 H       -3.4020     0.9510    -0.5430 H     1 <1>   0.0800 
 29 H       -3.4090    -0.3760    -1.6590 H     1 <1>   0.0800 
 30 H       -0.0490     2.2970    -1.9560 H     1 <1>   0.1500 
 31 H        2.0050     0.2480     1.1770 H     1 <1>   0.1500 
 32 H       -4.5150    -1.2490     0.1740 H     1 <1>   0.0800 
 33 H       -3.4830    -0.4690     1.3340 H     1 <1>   0.0800 
 34 H        4.1760     0.8010     0.1320 H     1 <1>   0.1500 
 35 H       -1.9690    -2.1300     1.3490 H     1 <1>   0.0800 
 36 H       -1.5040    -4.6590    -0.3430 H     1 <1>   0.0800 
 37 H       -0.3820    -4.0160    -1.4840 H     1 <1>   0.0800 
 38 H       -3.9340    -3.5130    -0.0530 H     1 <1>   0.4000 
 39 H       -0.2820    -3.4760     1.5250 H     1 <1>   0.1000 
 40 H        1.8400    -2.9060    -0.6830 H     1 <1>   0.1000 
 41 H        2.0140    -2.5740     1.0690 H     1 <1>   0.1000 
 42 H        1.6160    -5.0440     1.5490 H     1 <1>   0.1000 
 43 H        1.4200    -5.3490    -0.2050 H     1 <1>   0.1000 
@<TRIPOS>BOND
  1   1   2  2   
  2   1   3  2   
  3   1   4  am  
  4   1   5  1   
  5   4   6  1   
  6   4   7  1   
  7   5   8  ar  
  8   5   9  ar  
  9   6  10  1   
 10   6  26  1   
 11   6  27  1   
 12   7  11  1   
 13   7  28  1   
 14   7  29  1   
 15   8  12  ar  
 16   8  30  1   
 17   9  13  ar  
 18   9  31  1   
 19  10  14  1   
 20  10  15  1   
 21  10  16  1   
 22  11  15  1   
 23  11  32  1   
 24  11  33  1   
 25  12  17  1   
 26  12  18  ar  
 27  13  18  ar  
 28  13  34  1   
 29  14  19  ar  
 30  14  20  ar  
 31  15  21  1   
 32  15  35  1   
 33  16  22  1   
 34  16  36  1   
 35  16  37  1   
 36  18  23  1   
 37  21  38  1   
 38  22  24  1   
 39  22  25  1   
 40  22  39  1   
 41  24  25  1   
 42  24  40  1   
 43  24  41  1   
 44  25  42  1   
 45  25  43  1   
@<TRIPOS>SUBSTRUCTURE
  1 ****   6 GROUP 4 **** **** 0

# MOE 2024.06 (io_trps.svl 2023.06)
