@<TRIPOS>MOLECULE
NONAME
46 47 1 0 0 
SMALL
USER_CHARGES


@<TRIPOS>ATOM
  1 N       -0.1840     0.3900    -0.6670 N.ar  1 <1>  -0.6200 
  2 C       -0.3930     1.6840    -0.5800 C.ar  1 <1>   0.7710 
  3 C       -1.1520    -0.4190    -0.2780 C.ar  1 <1>   0.4100 
  4 N       -1.5390     2.2130    -0.1290 N.ar  1 <1>  -0.1790 
  5 N        0.6130     2.4740    -0.9590 N.pl3 1 <1>  -0.8690 
  6 N       -0.8790    -1.7480    -0.3360 N.pl3 1 <1>  -0.8380 
  7 C       -2.4060     0.0740     0.1700 C.ar  1 <1>  -0.1430 
  8 C       -2.5700     1.4190     0.2430 C.ar  1 <1>   0.2110 
  9 C        0.7730     3.9550    -1.0270 C.3   1 <1>   0.2090 
 10 C       -0.9590    -2.6380     0.8550 C.3   1 <1>   0.1290 
 11 C       -0.1140    -2.3330    -1.4740 C.3   1 <1>   0.1290 
 12 C       -3.5600    -0.8610     0.5280 C.3   1 <1>  -0.0970 
 13 C        1.5580     4.5340     0.1780 C.3   1 <1>   0.0000 
 14 C        3.0020     3.9590     0.2320 C.3   1 <1>  -0.1600 
 15 C        1.5820     6.0810     0.0220 C.3   1 <1>  -0.1600 
 16 C        0.8470     4.1830     1.5030 C.3   1 <1>  -0.2400 
 17 C        3.9860     4.7700    -0.6210 C.3   1 <1>  -0.1600 
 18 C        2.8460     6.7180     0.6160 C.3   1 <1>  -0.1600 
 19 C        4.1110     6.2150    -0.1030 C.3   1 <1>  -0.1600 
 20 H       -1.5710     3.2240    -0.0890 H     1 <1>   0.4570 
 21 H        1.4560     1.9560    -1.2370 H     1 <1>   0.4000 
 22 H       -3.4870     1.8790     0.5760 H     1 <1>   0.1500 
 23 H       -0.1910     4.4280    -1.0870 H     1 <1>   0.0800 
 24 H        1.3000     4.1960    -1.9370 H     1 <1>   0.0800 
 25 H       -1.2000    -2.0700     1.7360 H     1 <1>   0.0800 
 26 H       -0.0100    -3.1200     1.0170 H     1 <1>   0.0800 
 27 H       -1.7120    -3.3910     0.6990 H     1 <1>   0.0800 
 28 H       -0.1620    -1.6840    -2.3320 H     1 <1>   0.0800 
 29 H       -0.5300    -3.2880    -1.7450 H     1 <1>   0.0800 
 30 H        0.9170    -2.4610    -1.1940 H     1 <1>   0.0800 
 31 H       -3.6450    -1.6400    -0.2110 H     1 <1>   0.0800 
 32 H       -4.4960    -0.3330     0.5620 H     1 <1>   0.0800 
 33 H       -3.3940    -1.3150     1.4880 H     1 <1>   0.0800 
 34 H        3.0240     2.9280    -0.0740 H     1 <1>   0.0800 
 35 H        3.3650     3.9810     1.2460 H     1 <1>   0.0800 
 36 H        0.7130     6.5220     0.4780 H     1 <1>   0.0800 
 37 H        1.5580     6.3490    -1.0210 H     1 <1>   0.0800 
 38 H        0.8700     3.1220     1.6810 H     1 <1>   0.0800 
 39 H       -0.1720     4.5210     1.4990 H     1 <1>   0.0800 
 40 H        1.3480     4.6600     2.3280 H     1 <1>   0.0800 
 41 H        3.6460     4.7830    -1.6420 H     1 <1>   0.0800 
 42 H        4.9560     4.3020    -0.6090 H     1 <1>   0.0800 
 43 H        2.9080     6.4720     1.6620 H     1 <1>   0.0800 
 44 H        2.7930     7.7900     0.5390 H     1 <1>   0.0800 
 45 H        4.3330     6.8600    -0.9360 H     1 <1>   0.0800 
 46 H        4.9390     6.2800     0.5810 H     1 <1>   0.0800 
@<TRIPOS>BOND
  1   1   2  ar  
  2   1   3  ar  
  3   2   4  ar  
  4   2   5  1   
  5   3   6  1   
  6   3   7  ar  
  7   4   8  ar  
  8   4  20  1   
  9   5   9  1   
 10   5  21  1   
 11   6  10  1   
 12   6  11  1   
 13   7   8  ar  
 14   7  12  1   
 15   8  22  1   
 16   9  13  1   
 17   9  23  1   
 18   9  24  1   
 19  10  25  1   
 20  10  26  1   
 21  10  27  1   
 22  11  28  1   
 23  11  29  1   
 24  11  30  1   
 25  12  31  1   
 26  12  32  1   
 27  12  33  1   
 28  13  14  1   
 29  13  15  1   
 30  13  16  1   
 31  14  17  1   
 32  14  34  1   
 33  14  35  1   
 34  15  18  1   
 35  15  36  1   
 36  15  37  1   
 37  16  38  1   
 38  16  39  1   
 39  16  40  1   
 40  17  19  1   
 41  17  41  1   
 42  17  42  1   
 43  18  19  1   
 44  18  43  1   
 45  18  44  1   
 46  19  45  1   
 47  19  46  1   
@<TRIPOS>SUBSTRUCTURE
  1 ****   2 GROUP 4 **** **** 0

# MOE 2024.06 (io_trps.svl 2023.06)
