@<TRIPOS>MOLECULE
NONAME
47 49 1 0 0 
SMALL
USER_CHARGES


@<TRIPOS>ATOM
  1 CL       0.5390     2.9830    -2.1360 Cl    1 <1>  -0.1770 
  2 C       -0.9670     2.7950    -1.2660 C.ar  1 <1>   0.1770 
  3 C       -0.9840     2.8390     0.1240 C.ar  1 <1>  -0.1440 
  4 C       -2.1230     2.6150    -2.0030 C.ar  1 <1>  -0.1500 
  5 C       -2.2010     2.6960     0.7790 C.ar  1 <1>  -0.1500 
  6 C        0.2970     3.0550     0.9310 C.3   1 <1>   0.0450 
  7 C       -3.3300     2.4800    -1.3420 C.ar  1 <1>   0.0830 
  8 C       -3.3660     2.5130     0.0540 C.ar  1 <1>   0.0830 
  9 C        0.7930     4.4920     0.8870 C.2   1 <1>   0.5690 
 10 O       -4.4620     2.3230    -2.0720 O.3   1 <1>  -0.3630 
 11 O       -4.5350     2.3640     0.7270 O.3   1 <1>  -0.3630 
 12 O        1.9500     4.7160     1.1480 O.2   1 <1>  -0.5700 
 13 N       -0.0670     5.4910     0.5540 N.am  1 <1>  -0.7300 
 14 C       -5.6950     2.4900    -1.3960 C.3   1 <1>   0.1200 
 15 C       -5.6320     1.8470    -0.0030 C.3   1 <1>   0.1200 
 16 C        0.3180     6.9180     0.4330 C.3   1 <1>   0.1400 
 17 C        1.0430     7.1520    -0.8900 C.3   1 <1>   0.0960 
 18 N        1.5460     8.5310    -0.9200 N.pl3 1 <1>   0.3140 
 19 N        0.7640     9.5400    -1.3380 N.2   1 <1>  -0.7070 
 20 C        2.7590     8.9760    -0.5150 C.2   1 <1>  -0.3320 
 21 C        1.4920    10.6010    -1.2040 C.2   1 <1>   0.1080 
 22 C        2.7560    10.3160    -0.6930 C.2   1 <1>  -0.1810 
 23 C        3.8500     8.0620     0.0280 C.3   1 <1>  -0.0600 
 24 C        0.9850    11.9760    -1.5750 C.3   1 <1>  -0.0590 
 25 C        3.8490    11.3320    -0.4160 C.3   1 <1>  -0.0590 
 26 H       -2.0870     2.5850    -3.0760 H     1 <1>   0.1500 
 27 H       -2.2620     2.7220     1.8530 H     1 <1>   0.1500 
 28 H        1.0730     2.4140     0.5550 H     1 <1>   0.0800 
 29 H        0.1370     2.7920     1.9590 H     1 <1>   0.0800 
 30 H       -1.0290     5.2540     0.2960 H     1 <1>   0.3700 
 31 H       -6.4650     2.0350    -1.9920 H     1 <1>   0.0800 
 32 H       -5.8910     3.5440    -1.3110 H     1 <1>   0.0800 
 33 H       -6.5280     2.0520     0.5540 H     1 <1>   0.0800 
 34 H       -5.5050     0.7820    -0.0890 H     1 <1>   0.0800 
 35 H        0.9720     7.1740     1.2500 H     1 <1>   0.0800 
 36 H       -0.5610     7.5380     0.4850 H     1 <1>   0.0800 
 37 H        0.3690     7.0170    -1.7150 H     1 <1>   0.0800 
 38 H        1.8710     6.4760    -0.9900 H     1 <1>   0.0800 
 39 H        3.4800     7.4940     0.8630 H     1 <1>   0.0800 
 40 H        4.6990     8.6290     0.3590 H     1 <1>   0.0800 
 41 H        4.1750     7.3800    -0.7370 H     1 <1>   0.0800 
 42 H       -0.0690    11.9310    -1.7810 H     1 <1>   0.0800 
 43 H        1.4970    12.3250    -2.4510 H     1 <1>   0.0800 
 44 H        1.1520    12.6590    -0.7640 H     1 <1>   0.0800 
 45 H        4.7600    10.8470    -0.1220 H     1 <1>   0.0800 
 46 H        3.5390    11.9930     0.3720 H     1 <1>   0.0800 
 47 H        4.0420    11.9090    -1.3020 H     1 <1>   0.0800 
@<TRIPOS>BOND
  1   1   2  1   
  2   2   3  ar  
  3   2   4  ar  
  4   3   5  ar  
  5   3   6  1   
  6   4   7  ar  
  7   4  26  1   
  8   5   8  ar  
  9   5  27  1   
 10   6   9  1   
 11   6  28  1   
 12   6  29  1   
 13   7   8  ar  
 14   7  10  1   
 15   8  11  1   
 16   9  12  2   
 17   9  13  am  
 18  10  14  1   
 19  11  15  1   
 20  13  16  1   
 21  13  30  1   
 22  14  15  1   
 23  14  31  1   
 24  14  32  1   
 25  15  33  1   
 26  15  34  1   
 27  16  17  1   
 28  16  35  1   
 29  16  36  1   
 30  17  18  1   
 31  17  37  1   
 32  17  38  1   
 33  18  19  1   
 34  18  20  1   
 35  19  21  2   
 36  20  22  2   
 37  20  23  1   
 38  21  22  1   
 39  21  24  1   
 40  22  25  1   
 41  23  39  1   
 42  23  40  1   
 43  23  41  1   
 44  24  42  1   
 45  24  43  1   
 46  24  44  1   
 47  25  45  1   
 48  25  46  1   
 49  25  47  1   
@<TRIPOS>SUBSTRUCTURE
  1 ****  13 GROUP 4 **** **** 0

# MOE 2024.06 (io_trps.svl 2023.06)
