@<TRIPOS>MOLECULE
NONAME
52 55 1 0 0 
SMALL
USER_CHARGES


@<TRIPOS>ATOM
  1 CL      -1.3600     1.7660     2.5230 Cl    1 <1>  -0.1230 
  2 C       -0.1970     2.8610     1.7980 C.2   1 <1>   0.1230 
  3 C       -0.4950     4.0300     1.1160 C.2   1 <1>   0.1390 
  4 C        1.1440     2.7440     1.7880 C.2   1 <1>  -0.3020 
  5 N        0.5900     4.6200     0.7000 N.2   1 <1>  -0.7070 
  6 N        1.6010     3.8220     1.1160 N.pl3 1 <1>   0.3140 
  7 C        3.0060     4.1490     0.8270 C.3   1 <1>   0.0960 
  8 C        3.1270     5.6620     0.6080 C.3   1 <1>   0.3430 
  9 N        4.5260     6.1030     0.2950 N.4   1 <1>  -0.9590 
 10 C        4.7540     7.5710     0.5050 C.3   1 <1>   0.4230 
 11 C        5.0350     5.6560    -1.0270 C.3   1 <1>   0.3430 
 12 C        6.2100     7.9820     0.1410 C.3   1 <1>  -0.0800 
 13 C        3.6830     8.4190    -0.2110 C.3   1 <1>  -0.1600 
 14 C        6.5610     5.8000    -1.0780 C.3   1 <1>  -0.1600 
 15 C        7.1410     6.7520    -0.0090 C.3   1 <1>   0.4240 
 16 C        6.2710     8.9130    -1.0960 C.3   1 <1>  -0.1600 
 17 C        4.0670     9.9040    -0.2040 C.3   1 <1>  -0.1600 
 18 O        7.1150     6.0510     1.1840 O.3   1 <1>  -0.6800 
 19 C        8.6200     7.1270    -0.2010 C.ar  1 <1>  -0.1430 
 20 C        5.4060    10.1690    -0.9120 C.3   1 <1>  -0.1600 
 21 C        9.3810     6.6980    -1.2870 C.ar  1 <1>  -0.1500 
 22 C        9.2450     7.9210     0.7570 C.ar  1 <1>  -0.1500 
 23 C       10.7100     7.0620    -1.4140 C.ar  1 <1>  -0.1500 
 24 C       10.5740     8.2860     0.6320 C.ar  1 <1>  -0.1500 
 25 C       11.3080     7.8570    -0.4560 C.ar  1 <1>  -0.1500 
 26 H       -1.4930     4.4010     0.9530 H     1 <1>   0.1500 
 27 H        1.7640     1.9750     2.2080 H     1 <1>   0.1500 
 28 H        3.6070     3.8400     1.6610 H     1 <1>   0.0800 
 29 H        3.2930     3.6090    -0.0550 H     1 <1>   0.0800 
 30 H        2.7880     6.1580     1.5030 H     1 <1>   0.0800 
 31 H        2.4710     5.9530    -0.1980 H     1 <1>   0.0800 
 32 H        5.1820     5.6810     0.9820 H     1 <1>   0.4500 
 33 H        4.6460     7.7640     1.5610 H     1 <1>   0.0800 
 34 H        4.7720     4.6270    -1.2090 H     1 <1>   0.0800 
 35 H        4.5900     6.2580    -1.8040 H     1 <1>   0.0800 
 36 H        6.5690     8.5730     0.9640 H     1 <1>   0.0800 
 37 H        3.5620     8.1020    -1.2320 H     1 <1>   0.0800 
 38 H        2.7370     8.3170     0.2900 H     1 <1>   0.0800 
 39 H        6.7940     6.1730    -2.0580 H     1 <1>   0.0800 
 40 H        7.0250     4.8340    -0.9930 H     1 <1>   0.0800 
 41 H        7.2860     9.2220    -1.2850 H     1 <1>   0.0800 
 42 H        5.9300     8.3910    -1.9730 H     1 <1>   0.0800 
 43 H        3.2920    10.4850    -0.6780 H     1 <1>   0.0800 
 44 H        4.1370    10.2430     0.8170 H     1 <1>   0.0800 
 45 H        8.0520     5.8920     1.4370 H     1 <1>   0.4000 
 46 H        5.9560    10.9030    -0.3460 H     1 <1>   0.0800 
 47 H        5.2190    10.6000    -1.8820 H     1 <1>   0.0800 
 48 H        8.9750     6.0730    -2.0600 H     1 <1>   0.1500 
 49 H        8.7080     8.2710     1.6210 H     1 <1>   0.1500 
 50 H       11.2840     6.7250    -2.2600 H     1 <1>   0.1500 
 51 H       11.0380     8.9040     1.3810 H     1 <1>   0.1500 
 52 H       12.3420     8.1400    -0.5560 H     1 <1>   0.1500 
@<TRIPOS>BOND
  1   1   2  1   
  2   2   3  1   
  3   2   4  2   
  4   3   5  2   
  5   3  26  1   
  6   4   6  1   
  7   4  27  1   
  8   5   6  1   
  9   6   7  1   
 10   7   8  1   
 11   7  28  1   
 12   7  29  1   
 13   8   9  1   
 14   8  30  1   
 15   8  31  1   
 16   9  10  1   
 17   9  11  1   
 18   9  32  1   
 19  10  12  1   
 20  10  13  1   
 21  10  33  1   
 22  11  14  1   
 23  11  34  1   
 24  11  35  1   
 25  12  15  1   
 26  12  16  1   
 27  12  36  1   
 28  13  17  1   
 29  13  37  1   
 30  13  38  1   
 31  14  15  1   
 32  14  39  1   
 33  14  40  1   
 34  15  18  1   
 35  15  19  1   
 36  16  20  1   
 37  16  41  1   
 38  16  42  1   
 39  17  20  1   
 40  17  43  1   
 41  17  44  1   
 42  18  45  1   
 43  19  21  ar  
 44  19  22  ar  
 45  20  46  1   
 46  20  47  1   
 47  21  23  ar  
 48  21  48  1   
 49  22  24  ar  
 50  22  49  1   
 51  23  25  ar  
 52  23  50  1   
 53  24  25  ar  
 54  24  51  1   
 55  25  52  1   
@<TRIPOS>SUBSTRUCTURE
  1 ****   9 GROUP 4 **** **** 0

# MOE 2024.06 (io_trps.svl 2023.06)
