@<TRIPOS>MOLECULE
NONAME
44 46 1 0 0 
SMALL
USER_CHARGES


@<TRIPOS>ATOM
  1 O        0.4940     0.6770     1.1630 O.3   1 <1>  -0.0190 
  2 N        1.2460    -0.3670     0.9670 N.2   1 <1>  -0.4100 
  3 C        0.7380     1.6260     0.2990 C.2   1 <1>  -0.0400 
  4 C        1.9850    -0.0880    -0.0450 C.2   1 <1>   0.1080 
  5 C        1.7050     1.1880    -0.5250 C.2   1 <1>  -0.1500 
  6 C       -0.0570     2.9190     0.3860 C.3   1 <1>   0.0200 
  7 C        3.0150    -1.0300    -0.6290 C.3   1 <1>  -0.0590 
  8 C        0.5580     4.0560    -0.4510 C.3   1 <1>  -0.0800 
  9 C       -0.2810     5.3330    -0.5090 C.3   1 <1>   0.2000 
 10 C        1.9110     4.5330     0.0810 C.3   1 <1>   0.2090 
 11 O       -0.7810     5.5950     0.7730 O.3   1 <1>  -0.5600 
 12 C        0.7400     6.4060    -0.9160 C.3   1 <1>   0.2090 
 13 N        2.0680     5.9180    -0.4350 N.pl3 1 <1>  -0.8380 
 14 C       -1.8620     6.4720     0.8230 C.3   1 <1>   0.0400 
 15 C        3.1700     6.7030    -0.3560 C.ar  1 <1>   0.4100 
 16 N        3.1160     7.8900    -0.9330 N.ar  1 <1>  -0.6200 
 17 C        4.3290     6.2680     0.3190 C.ar  1 <1>  -0.1500 
 18 C        4.1820     8.6540    -0.8560 C.ar  1 <1>   0.7710 
 19 C        5.4110     7.0810     0.3810 C.ar  1 <1>   0.2180 
 20 N        5.3110     8.2890    -0.2240 N.ar  1 <1>  -0.1790 
 21 N        4.0990     9.8430    -1.4470 N.pl3 1 <1>  -0.9000 
 22 C        6.7050     6.7120     1.0850 C.3   1 <1>  -0.0970 
 23 H        2.1750     1.6640    -1.3640 H     1 <1>   0.1500 
 24 H       -1.0600     2.7250     0.0520 H     1 <1>   0.0800 
 25 H       -0.1110     3.2170     1.4190 H     1 <1>   0.0800 
 26 H        3.9800    -0.5580    -0.6370 H     1 <1>   0.0800 
 27 H        2.7390    -1.2940    -1.6330 H     1 <1>   0.0800 
 28 H        3.0700    -1.9260    -0.0370 H     1 <1>   0.0800 
 29 H        0.7000     3.7110    -1.4590 H     1 <1>   0.0800 
 30 H       -1.0990     5.2500    -1.2030 H     1 <1>   0.0800 
 31 H        2.7100     3.8970    -0.2570 H     1 <1>   0.0800 
 32 H        1.8940     4.5610     1.1580 H     1 <1>   0.0800 
 33 H        0.5000     7.3640    -0.4900 H     1 <1>   0.0800 
 34 H        0.7730     6.4900    -1.9880 H     1 <1>   0.0800 
 35 H       -2.1480     6.5900     1.8530 H     1 <1>   0.0800 
 36 H       -2.6840     6.0560     0.2660 H     1 <1>   0.0800 
 37 H       -1.5740     7.4270     0.4190 H     1 <1>   0.0800 
 38 H        4.3300     5.2980     0.7780 H     1 <1>   0.1500 
 39 H        6.0750     8.9550    -0.2220 H     1 <1>   0.4570 
 40 H        4.7990    10.5830    -1.5080 H     1 <1>   0.4000 
 41 H        3.2160    10.0700    -1.9140 H     1 <1>   0.4000 
 42 H        6.6310     5.7290     1.5160 H     1 <1>   0.0800 
 43 H        6.9160     7.4090     1.8770 H     1 <1>   0.0800 
 44 H        7.5260     6.7110     0.3890 H     1 <1>   0.0800 
@<TRIPOS>BOND
  1   1   2  1   
  2   1   3  1   
  3   2   4  2   
  4   3   5  2   
  5   3   6  1   
  6   4   5  1   
  7   4   7  1   
  8   5  23  1   
  9   6   8  1   
 10   6  24  1   
 11   6  25  1   
 12   7  26  1   
 13   7  27  1   
 14   7  28  1   
 15   8   9  1   
 16   8  10  1   
 17   8  29  1   
 18   9  11  1   
 19   9  12  1   
 20   9  30  1   
 21  10  13  1   
 22  10  31  1   
 23  10  32  1   
 24  11  14  1   
 25  12  13  1   
 26  12  33  1   
 27  12  34  1   
 28  13  15  1   
 29  14  35  1   
 30  14  36  1   
 31  14  37  1   
 32  15  16  ar  
 33  15  17  ar  
 34  16  18  ar  
 35  17  19  ar  
 36  17  38  1   
 37  18  20  ar  
 38  18  21  1   
 39  19  20  ar  
 40  19  22  1   
 41  20  39  1   
 42  21  40  1   
 43  21  41  1   
 44  22  42  1   
 45  22  43  1   
 46  22  44  1   
@<TRIPOS>SUBSTRUCTURE
  1 ****  10 GROUP 4 **** **** 0

# MOE 2024.06 (io_trps.svl 2023.06)
