@<TRIPOS>MOLECULE
NONAME
39 41 1 0 0 
SMALL
USER_CHARGES


@<TRIPOS>ATOM
  1 S       -1.8180     2.1290     0.1000 S.3   1 <1>  -0.0800 
  2 C       -1.8350     0.4320     0.5540 C.2   1 <1>  -0.1400 
  3 C       -0.7350     1.8060    -1.2420 C.2   1 <1>  -0.1100 
  4 C       -1.0580    -0.2850    -0.2800 C.2   1 <1>  -0.1500 
  5 C       -2.6830     0.0520     1.7600 C.3   1 <1>   0.0810 
  6 C       -0.4320     0.4970    -1.3030 C.2   1 <1>  -0.1500 
  7 C       -2.9660    -1.4410     1.8420 C.2   1 <1>   0.5690 
  8 O       -2.5170    -2.0600     2.7780 O.2   1 <1>  -0.5700 
  9 N       -3.7260    -2.0630     0.8860 N.am  1 <1>  -0.6600 
 10 C       -4.3780    -1.4290    -0.2900 C.3   1 <1>   0.1400 
 11 C       -3.9870    -3.5230     0.8940 C.3   1 <1>   0.1400 
 12 C       -5.4390    -2.4420    -0.7170 C.3   1 <1>   0.2000 
 13 C       -4.8010    -3.7940    -0.3770 C.3   1 <1>  -0.0800 
 14 O       -6.5620    -2.2470     0.0730 O.3   1 <1>  -0.6800 
 15 C       -5.7830    -4.9730    -0.2490 C.3   1 <1>  -0.0170 
 16 C       -5.0370    -6.2750     0.0000 C.ar  1 <1>  -0.1430 
 17 C       -4.8680    -6.7930     1.2690 C.ar  1 <1>  -0.1500 
 18 C       -4.4860    -7.0050    -1.0340 C.ar  1 <1>  -0.1500 
 19 C       -4.1730    -7.9790     1.4370 C.ar  1 <1>   0.1600 
 20 C       -3.8090    -8.1810    -0.7570 C.ar  1 <1>   0.1600 
 21 N       -3.6370    -8.6850     0.4540 N.ar  1 <1>  -0.6200 
 22 H       -0.4350     2.6420    -1.8480 H     1 <1>   0.1500 
 23 H       -0.8900    -1.3470    -0.2200 H     1 <1>   0.1500 
 24 H       -2.1740     0.3620     2.6530 H     1 <1>   0.0800 
 25 H       -3.6200     0.5740     1.7210 H     1 <1>   0.0800 
 26 H        0.2140     0.0370    -2.0310 H     1 <1>   0.1500 
 27 H       -4.8140    -0.4740    -0.0530 H     1 <1>   0.0800 
 28 H       -3.6500    -1.3100    -1.0730 H     1 <1>   0.0800 
 29 H       -3.0630    -4.0770     0.8970 H     1 <1>   0.0800 
 30 H       -4.5500    -3.7720     1.7770 H     1 <1>   0.0800 
 31 H       -5.7250    -2.3470    -1.7510 H     1 <1>   0.0800 
 32 H       -4.1000    -4.0250    -1.1590 H     1 <1>   0.0800 
 33 H       -6.2810    -2.2010     1.0090 H     1 <1>   0.4000 
 34 H       -6.3570    -5.0600    -1.1550 H     1 <1>   0.0800 
 35 H       -6.4770    -4.8000     0.5540 H     1 <1>   0.0800 
 36 H       -5.2690    -6.2880     2.1280 H     1 <1>   0.1500 
 37 H       -4.5760    -6.6710    -2.0510 H     1 <1>   0.1500 
 38 H       -4.0500    -8.3670     2.4340 H     1 <1>   0.1500 
 39 H       -3.3860    -8.7370    -1.5760 H     1 <1>   0.1500 
@<TRIPOS>BOND
  1   1   2  1   
  2   1   3  1   
  3   2   4  2   
  4   2   5  1   
  5   3   6  2   
  6   3  22  1   
  7   4   6  1   
  8   4  23  1   
  9   5   7  1   
 10   5  24  1   
 11   5  25  1   
 12   6  26  1   
 13   7   8  2   
 14   7   9  am  
 15   9  10  1   
 16   9  11  1   
 17  10  12  1   
 18  10  27  1   
 19  10  28  1   
 20  11  13  1   
 21  11  29  1   
 22  11  30  1   
 23  12  13  1   
 24  12  14  1   
 25  12  31  1   
 26  13  15  1   
 27  13  32  1   
 28  14  33  1   
 29  15  16  1   
 30  15  34  1   
 31  15  35  1   
 32  16  17  ar  
 33  16  18  ar  
 34  17  19  ar  
 35  17  36  1   
 36  18  20  ar  
 37  18  37  1   
 38  19  21  ar  
 39  19  38  1   
 40  20  21  ar  
 41  20  39  1   
@<TRIPOS>SUBSTRUCTURE
  1 ****  11 GROUP 4 **** **** 0

# MOE 2024.06 (io_trps.svl 2023.06)
