@<TRIPOS>MOLECULE
NONAME
45 46 1 0 0 
SMALL
USER_CHARGES


@<TRIPOS>ATOM
  1 S       -0.4080     0.1400     1.7720 S.o2  1 <1>   1.4470 
  2 O       -0.9700     1.1740     2.6050 O.2   1 <1>  -0.6500 
  3 O       -0.2690    -1.1970     2.3020 O.2   1 <1>  -0.6500 
  4 N       -1.4790     0.0690     0.4760 N.am  1 <1>  -0.9140 
  5 C        1.1430     0.7110     1.0250 C.ar  1 <1>  -0.0090 
  6 C       -1.5900    -1.1480    -0.3340 C.3   1 <1>   0.2760 
  7 C        1.1650     1.8160     0.1830 C.ar  1 <1>  -0.1500 
  8 C        2.3450     0.0580     1.2750 C.ar  1 <1>  -0.1500 
  9 C       -2.3180    -2.2970     0.3700 C.3   1 <1>  -0.0800 
 10 C       -0.2800    -1.7730    -0.8310 C.3   1 <1>   0.1200 
 11 C        2.3390     2.2570    -0.4050 C.ar  1 <1>  -0.1430 
 12 C        3.5250     0.4890     0.6970 C.ar  1 <1>  -0.1500 
 13 C       -1.3120    -3.4490     0.2670 C.3   1 <1>   0.1200 
 14 C       -3.6390    -2.6320    -0.3490 C.3   1 <1>  -0.0550 
 15 O       -0.5270    -3.1410    -0.8370 O.3   1 <1>  -0.5600 
 16 C        3.5220     1.5880    -0.1430 C.ar  1 <1>  -0.1500 
 17 C        2.3300     3.4680    -1.3210 C.3   1 <1>  -0.0970 
 18 S       -4.7160    -3.7160     0.5880 S.o2  1 <1>   1.3330 
 19 O       -4.1090    -5.0200     0.7270 O.2   1 <1>  -0.6500 
 20 O       -5.1340    -2.9860     1.7630 O.2   1 <1>  -0.6500 
 21 N       -6.0560    -3.8750    -0.4410 N.am  1 <1>  -0.8490 
 22 C       -7.2980    -4.1180     0.3000 C.3   1 <1>   0.1160 
 23 C       -5.8810    -4.9090    -1.4670 C.3   1 <1>   0.1160 
 24 H       -2.3810     0.2630     0.9080 H     1 <1>   0.4200 
 25 H       -2.1450    -0.8800    -1.2170 H     1 <1>   0.0800 
 26 H        0.2430     2.3370    -0.0130 H     1 <1>   0.1500 
 27 H        2.3580    -0.7980     1.9290 H     1 <1>   0.1500 
 28 H       -2.5190    -2.0800     1.4050 H     1 <1>   0.0800 
 29 H        0.5500    -1.6050    -0.1710 H     1 <1>   0.0800 
 30 H       -0.0320    -1.4600    -1.8300 H     1 <1>   0.0800 
 31 H        4.4470    -0.0290     0.9010 H     1 <1>   0.1500 
 32 H       -1.7620    -4.4150     0.1200 H     1 <1>   0.0800 
 33 H       -0.6710    -3.4810     1.1330 H     1 <1>   0.0800 
 34 H       -3.4200    -3.0740    -1.3020 H     1 <1>   0.0800 
 35 H       -4.1750    -1.7200    -0.5290 H     1 <1>   0.0800 
 36 H        4.4440     1.9190    -0.5890 H     1 <1>   0.1500 
 37 H        3.1110     3.3900    -2.0560 H     1 <1>   0.0800 
 38 H        2.4840     4.3620    -0.7430 H     1 <1>   0.0800 
 39 H        1.3890     3.5450    -1.8350 H     1 <1>   0.0800 
 40 H       -8.1290    -4.1980    -0.3790 H     1 <1>   0.0800 
 41 H       -7.4930    -3.2990     0.9730 H     1 <1>   0.0800 
 42 H       -7.2200    -5.0260     0.8750 H     1 <1>   0.0800 
 43 H       -6.7180    -4.9020    -2.1460 H     1 <1>   0.0800 
 44 H       -5.8080    -5.8840    -1.0120 H     1 <1>   0.0800 
 45 H       -4.9840    -4.7250    -2.0330 H     1 <1>   0.0800 
@<TRIPOS>BOND
  1   1   2  2   
  2   1   3  2   
  3   1   4  am  
  4   1   5  1   
  5   4   6  1   
  6   4  24  1   
  7   5   7  ar  
  8   5   8  ar  
  9   6   9  1   
 10   6  10  1   
 11   6  25  1   
 12   7  11  ar  
 13   7  26  1   
 14   8  12  ar  
 15   8  27  1   
 16   9  13  1   
 17   9  14  1   
 18   9  28  1   
 19  10  15  1   
 20  10  29  1   
 21  10  30  1   
 22  11  16  ar  
 23  11  17  1   
 24  12  16  ar  
 25  12  31  1   
 26  13  15  1   
 27  13  32  1   
 28  13  33  1   
 29  14  18  1   
 30  14  34  1   
 31  14  35  1   
 32  16  36  1   
 33  17  37  1   
 34  17  38  1   
 35  17  39  1   
 36  18  19  2   
 37  18  20  2   
 38  18  21  am  
 39  21  22  1   
 40  21  23  1   
 41  22  40  1   
 42  22  41  1   
 43  22  42  1   
 44  23  43  1   
 45  23  44  1   
 46  23  45  1   
@<TRIPOS>SUBSTRUCTURE
  1 ****   6 GROUP 4 **** **** 0

# MOE 2024.06 (io_trps.svl 2023.06)
