@<TRIPOS>MOLECULE
NONAME
39 41 1 0 0 
SMALL
USER_CHARGES


@<TRIPOS>ATOM
  1 CL      -0.1470    -0.2890    -0.5910 Cl    1 <1>  -0.1770 
  2 C       -1.6510    -1.0760    -0.1520 C.ar  1 <1>   0.1770 
  3 C       -2.8830    -0.6150    -0.6010 C.ar  1 <1>   0.1660 
  4 C       -1.5810    -2.1870     0.6600 C.ar  1 <1>  -0.1500 
  5 N       -4.0340    -1.1980    -0.2990 N.ar  1 <1>  -0.6200 
  6 C       -3.0040     0.6090    -1.4920 C.3   1 <1>  -0.0960 
  7 C       -2.7780    -2.7860     0.9770 C.ar  1 <1>  -0.1500 
  8 C       -3.9770    -2.2750     0.4800 C.ar  1 <1>   0.4100 
  9 N       -5.1730    -2.8970     0.8030 N.pl3 1 <1>  -0.8380 
 10 C       -6.4740    -2.2540     0.4420 C.3   1 <1>   0.2090 
 11 C       -5.3000    -4.3670     0.5990 C.3   1 <1>   0.2090 
 12 C       -7.5030    -3.3730     0.5770 C.3   1 <1>   0.2000 
 13 C       -6.7290    -4.6020     0.0960 C.3   1 <1>  -0.0800 
 14 O       -7.8050    -3.5160     1.9240 O.3   1 <1>  -0.6800 
 15 C       -7.3210    -5.9620     0.5070 C.3   1 <1>  -0.0170 
 16 C       -6.4500    -7.1060     0.0100 C.ar  1 <1>  -0.1430 
 17 C       -5.6460    -7.8350     0.8630 C.ar  1 <1>  -0.1500 
 18 C       -6.4150    -7.4710    -1.3200 C.ar  1 <1>  -0.1500 
 19 C       -4.8620    -8.8580     0.3580 C.ar  1 <1>   0.1600 
 20 C       -5.5940    -8.5110    -1.7240 C.ar  1 <1>   0.1600 
 21 N       -4.8130    -9.2110    -0.9170 N.ar  1 <1>  -0.6200 
 22 H       -0.6380    -2.5540     1.0210 H     1 <1>   0.1500 
 23 H       -2.1410     1.2430    -1.4210 H     1 <1>   0.0800 
 24 H       -3.8650     1.1830    -1.2010 H     1 <1>   0.0800 
 25 H       -3.1280     0.2970    -2.5120 H     1 <1>   0.0800 
 26 H       -2.8030    -3.6490     1.6140 H     1 <1>   0.1500 
 27 H       -6.6930    -1.4210     1.0860 H     1 <1>   0.0800 
 28 H       -6.4430    -1.9180    -0.5800 H     1 <1>   0.0800 
 29 H       -4.5780    -4.7270    -0.1150 H     1 <1>   0.0800 
 30 H       -5.1460    -4.8620     1.5420 H     1 <1>   0.0800 
 31 H       -8.4120    -3.1900     0.0310 H     1 <1>   0.0800 
 32 H       -6.6930    -4.5600    -0.9780 H     1 <1>   0.0800 
 33 H       -6.9700    -3.3890     2.4230 H     1 <1>   0.4000 
 34 H       -8.3110    -6.0610     0.0960 H     1 <1>   0.0800 
 35 H       -7.4120    -6.0230     1.5780 H     1 <1>   0.0800 
 36 H       -5.6200    -7.6190     1.9160 H     1 <1>   0.1500 
 37 H       -7.0170    -6.9570    -2.0470 H     1 <1>   0.1500 
 38 H       -4.2410    -9.4170     1.0370 H     1 <1>   0.1500 
 39 H       -5.5780    -8.7810    -2.7660 H     1 <1>   0.1500 
@<TRIPOS>BOND
  1   1   2  1   
  2   2   3  ar  
  3   2   4  ar  
  4   3   5  ar  
  5   3   6  1   
  6   4   7  ar  
  7   4  22  1   
  8   5   8  ar  
  9   6  23  1   
 10   6  24  1   
 11   6  25  1   
 12   7   8  ar  
 13   7  26  1   
 14   8   9  1   
 15   9  10  1   
 16   9  11  1   
 17  10  12  1   
 18  10  27  1   
 19  10  28  1   
 20  11  13  1   
 21  11  29  1   
 22  11  30  1   
 23  12  13  1   
 24  12  14  1   
 25  12  31  1   
 26  13  15  1   
 27  13  32  1   
 28  14  33  1   
 29  15  16  1   
 30  15  34  1   
 31  15  35  1   
 32  16  17  ar  
 33  16  18  ar  
 34  17  19  ar  
 35  17  36  1   
 36  18  20  ar  
 37  18  37  1   
 38  19  21  ar  
 39  19  38  1   
 40  20  21  ar  
 41  20  39  1   
@<TRIPOS>SUBSTRUCTURE
  1 ****  11 GROUP 4 **** **** 0

# MOE 2024.06 (io_trps.svl 2023.06)
