@<TRIPOS>MOLECULE
NONAME
56 58 1 0 0 
SMALL
USER_CHARGES


@<TRIPOS>ATOM
  1 O       -2.0980     1.2520    -2.0900 O.2   1 <1>  -0.5700 
  2 C       -2.2340     1.1350    -0.8850 C.2   1 <1>   0.6900 
  3 N       -3.3820     0.5920    -0.3670 N.am  1 <1>  -0.6600 
  4 N       -1.2640     1.5490    -0.0310 N.am  1 <1>  -0.7300 
  5 C       -3.5060     0.0190     1.0020 C.3   1 <1>   0.1400 
  6 C       -4.5850     0.3750    -1.2170 C.3   1 <1>   0.1400 
  7 C        0.0340     2.1620    -0.3190 C.3   1 <1>   0.3000 
  8 C       -3.7700    -1.4850     0.8990 C.3   1 <1>  -0.1600 
  9 C       -4.8540    -1.1260    -1.3410 C.3   1 <1>  -0.1600 
 10 C       -0.1690     3.5030    -1.0240 C.3   1 <1>  -0.2400 
 11 C        0.8860     1.2100    -1.1590 C.3   1 <1>  -0.2400 
 12 C        0.7110     2.3930     1.0320 C.3   1 <1>  -0.2400 
 13 C       -5.0020    -1.7950     0.0360 C.3   1 <1>   0.4240 
 14 O       -6.0830    -1.1900     0.7080 O.3   1 <1>  -0.5600 
 15 C       -5.1990    -3.3210    -0.0980 C.ar  1 <1>  -0.1430 
 16 C       -7.3630    -1.6580     0.4190 C.3   1 <1>   0.1200 
 17 C       -6.3710    -3.9370     0.3190 C.ar  1 <1>  -0.1440 
 18 C       -4.2000    -4.1140    -0.6490 C.ar  1 <1>  -0.1500 
 19 C       -7.4830    -3.0960     0.9130 C.3   1 <1>  -0.0170 
 20 C       -6.5310    -5.3080     0.1930 C.ar  1 <1>  -0.1500 
 21 C       -4.3390    -5.4850    -0.7770 C.ar  1 <1>   0.0820 
 22 C       -5.5300    -6.1010    -0.3600 C.ar  1 <1>   0.0820 
 23 O       -3.2610    -6.1180    -1.3220 O.3   1 <1>  -0.3620 
 24 O       -5.6960    -7.4480    -0.5170 O.3   1 <1>  -0.3620 
 25 C       -2.9290    -7.4420    -0.9670 C.3   1 <1>   0.0400 
 26 C       -6.9260    -8.0900    -0.2630 C.3   1 <1>   0.0400 
 27 H       -1.5340     1.5980     0.9430 H     1 <1>   0.3700 
 28 H       -4.3220     0.5020     1.5130 H     1 <1>   0.0800 
 29 H       -2.6100     0.1790     1.5740 H     1 <1>   0.0800 
 30 H       -4.4430     0.8010    -2.1960 H     1 <1>   0.0800 
 31 H       -5.4280     0.8650    -0.7620 H     1 <1>   0.0800 
 32 H       -3.9150    -1.9000     1.8790 H     1 <1>   0.0800 
 33 H       -2.8980    -1.9480     0.4770 H     1 <1>   0.0800 
 34 H       -4.0290    -1.5670    -1.8700 H     1 <1>   0.0800 
 35 H       -5.7320    -1.2960    -1.9340 H     1 <1>   0.0800 
 36 H       -0.6170     3.3570    -1.9910 H     1 <1>   0.0800 
 37 H        0.7750     3.9940    -1.1680 H     1 <1>   0.0800 
 38 H       -0.8050     4.1430    -0.4400 H     1 <1>   0.0800 
 39 H        0.4480     1.0650    -2.1290 H     1 <1>   0.0800 
 40 H        0.9750     0.2560    -0.6720 H     1 <1>   0.0800 
 41 H        1.8710     1.6170    -1.2980 H     1 <1>   0.0800 
 42 H        0.1240     3.0560     1.6410 H     1 <1>   0.0800 
 43 H        1.6780     2.8390     0.8870 H     1 <1>   0.0800 
 44 H        0.8470     1.4600     1.5490 H     1 <1>   0.0800 
 45 H       -7.5330    -1.5960    -0.6420 H     1 <1>   0.0800 
 46 H       -8.0690    -1.0240     0.9260 H     1 <1>   0.0800 
 47 H       -3.2820    -3.6740    -0.9940 H     1 <1>   0.1500 
 48 H       -8.4420    -3.4880     0.6260 H     1 <1>   0.0800 
 49 H       -7.4170    -3.1120     1.9860 H     1 <1>   0.0800 
 50 H       -7.4510    -5.7410     0.5340 H     1 <1>   0.1500 
 51 H       -1.8970    -7.6070    -1.2180 H     1 <1>   0.0800 
 52 H       -3.5510    -8.1170    -1.5260 H     1 <1>   0.0800 
 53 H       -3.0770    -7.5700     0.0900 H     1 <1>   0.0800 
 54 H       -6.8200    -9.1270    -0.5240 H     1 <1>   0.0800 
 55 H       -7.6880    -7.6370    -0.8730 H     1 <1>   0.0800 
 56 H       -7.1590    -7.9980     0.7820 H     1 <1>   0.0800 
@<TRIPOS>BOND
  1   1   2  2   
  2   2   3  am  
  3   2   4  am  
  4   3   5  1   
  5   3   6  1   
  6   4   7  1   
  7   4  27  1   
  8   5   8  1   
  9   5  28  1   
 10   5  29  1   
 11   6   9  1   
 12   6  30  1   
 13   6  31  1   
 14   7  10  1   
 15   7  11  1   
 16   7  12  1   
 17   8  13  1   
 18   8  32  1   
 19   8  33  1   
 20   9  13  1   
 21   9  34  1   
 22   9  35  1   
 23  10  36  1   
 24  10  37  1   
 25  10  38  1   
 26  11  39  1   
 27  11  40  1   
 28  11  41  1   
 29  12  42  1   
 30  12  43  1   
 31  12  44  1   
 32  13  14  1   
 33  13  15  1   
 34  14  16  1   
 35  15  17  ar  
 36  15  18  ar  
 37  16  19  1   
 38  16  45  1   
 39  16  46  1   
 40  17  19  1   
 41  17  20  ar  
 42  18  21  ar  
 43  18  47  1   
 44  19  48  1   
 45  19  49  1   
 46  20  22  ar  
 47  20  50  1   
 48  21  22  ar  
 49  21  23  1   
 50  22  24  1   
 51  23  25  1   
 52  24  26  1   
 53  25  51  1   
 54  25  52  1   
 55  25  53  1   
 56  26  54  1   
 57  26  55  1   
 58  26  56  1   
@<TRIPOS>SUBSTRUCTURE
  1 ****  13 GROUP 4 **** **** 0

# MOE 2024.06 (io_trps.svl 2023.06)
