@<TRIPOS>MOLECULE
NONAME
44 45 1 0 0 
SMALL
USER_CHARGES


@<TRIPOS>ATOM
  1 S        0.4390     0.0420    -0.7280 S.o2  1 <1>   1.3330 
  2 O        1.7730     0.0230    -0.1680 O.2   1 <1>  -0.6500 
  3 O        0.2720    -0.0020    -2.1640 O.2   1 <1>  -0.6500 
  4 N       -0.4210    -1.2580    -0.0560 N.am  1 <1>  -0.8490 
  5 C       -0.4470     1.4730    -0.1190 C.3   1 <1>  -0.0550 
  6 C       -0.0660    -1.5340     1.3400 C.3   1 <1>   0.1160 
  7 C       -0.2900    -2.4800    -0.8550 C.3   1 <1>   0.1160 
  8 C        0.0980     2.8040    -0.6760 C.3   1 <1>  -0.0800 
  9 C       -0.7330     4.0310    -0.3060 C.3   1 <1>   0.2000 
 10 C        1.5220     3.1450    -0.2010 C.3   1 <1>   0.1100 
 11 O       -1.1190     3.9350     1.0190 O.3   1 <1>  -0.6800 
 12 C        0.2980     5.1470    -0.3910 C.3   1 <1>   0.1100 
 13 N        1.5000     4.5560     0.2160 N.3   1 <1>  -0.8100 
 14 C        2.7320     5.2820    -0.1690 C.3   1 <1>   0.2530 
 15 C        2.7090     6.7450     0.2680 C.ar  1 <1>   0.1670 
 16 N        2.9160     7.6570    -0.6740 N.ar  1 <1>  -0.6200 
 17 C        2.4790     7.0500     1.6010 C.ar  1 <1>  -0.1500 
 18 C        2.8930     8.9180    -0.2760 C.ar  1 <1>   0.1670 
 19 C        2.4560     8.3670     2.0060 C.ar  1 <1>  -0.1500 
 20 C        2.6710     9.3180     1.0320 C.ar  1 <1>  -0.1500 
 21 C        3.1290     9.9510    -1.3570 C.3   1 <1>  -0.0970 
 22 H       -1.4780     1.3840    -0.4010 H     1 <1>   0.0800 
 23 H       -0.4040     1.4900     0.9520 H     1 <1>   0.0800 
 24 H       -0.7010    -2.3080     1.7360 H     1 <1>   0.0800 
 25 H       -0.1970    -0.6490     1.9390 H     1 <1>   0.0800 
 26 H        0.9620    -1.8520     1.4120 H     1 <1>   0.0800 
 27 H       -0.8610    -3.2780    -0.4130 H     1 <1>   0.0800 
 28 H        0.7440    -2.7760    -0.9200 H     1 <1>   0.0800 
 29 H       -0.6640    -2.3120    -1.8510 H     1 <1>   0.0800 
 30 H        0.1210     2.7380    -1.7500 H     1 <1>   0.0800 
 31 H       -1.6020     4.1820    -0.9230 H     1 <1>   0.0800 
 32 H        2.2220     2.9820    -1.0050 H     1 <1>   0.0800 
 33 H        1.8160     2.5380     0.6390 H     1 <1>   0.0800 
 34 H       -0.3050     4.0970     1.5440 H     1 <1>   0.4000 
 35 H       -0.0210     6.0330     0.1330 H     1 <1>   0.0800 
 36 H        0.4840     5.3920    -1.4240 H     1 <1>   0.0800 
 37 H        3.5810     4.8050     0.2870 H     1 <1>   0.0800 
 38 H        2.8600     5.2380    -1.2370 H     1 <1>   0.0800 
 39 H        2.3130     6.2580     2.3080 H     1 <1>   0.1500 
 40 H        2.2790     8.6370     3.0320 H     1 <1>   0.1500 
 41 H        2.6640    10.3600     1.2910 H     1 <1>   0.1500 
 42 H        3.0950    10.9470    -0.9570 H     1 <1>   0.0800 
 43 H        2.3750     9.8540    -2.1150 H     1 <1>   0.0800 
 44 H        4.0920     9.7870    -1.8030 H     1 <1>   0.0800 
@<TRIPOS>BOND
  1   1   2  2   
  2   1   3  2   
  3   1   4  am  
  4   1   5  1   
  5   4   6  1   
  6   4   7  1   
  7   5   8  1   
  8   5  22  1   
  9   5  23  1   
 10   6  24  1   
 11   6  25  1   
 12   6  26  1   
 13   7  27  1   
 14   7  28  1   
 15   7  29  1   
 16   8   9  1   
 17   8  10  1   
 18   8  30  1   
 19   9  11  1   
 20   9  12  1   
 21   9  31  1   
 22  10  13  1   
 23  10  32  1   
 24  10  33  1   
 25  11  34  1   
 26  12  13  1   
 27  12  35  1   
 28  12  36  1   
 29  13  14  1   
 30  14  15  1   
 31  14  37  1   
 32  14  38  1   
 33  15  16  ar  
 34  15  17  ar  
 35  16  18  ar  
 36  17  19  ar  
 37  17  39  1   
 38  18  20  ar  
 39  18  21  1   
 40  19  20  ar  
 41  19  40  1   
 42  20  41  1   
 43  21  42  1   
 44  21  43  1   
 45  21  44  1   
@<TRIPOS>SUBSTRUCTURE
  1 ****  13 GROUP 4 **** **** 0

# MOE 2024.06 (io_trps.svl 2023.06)
