@<TRIPOS>MOLECULE
NONAME
48 49 1 0 0 
SMALL
USER_CHARGES


@<TRIPOS>ATOM
  1 O       -1.5440     0.1040    -1.2750 O.2   1 <1>  -0.5700 
  2 C       -2.5810     0.7260    -1.1830 C.2   1 <1>   0.5690 
  3 N       -3.7710     0.0860    -1.4810 N.am  1 <1>  -0.6600 
  4 C       -2.4950     2.1870    -0.6370 C.3   1 <1>   0.4840 
  5 C       -3.7450    -1.4090    -1.4070 C.3   1 <1>   0.3200 
  6 C       -5.1770     0.6250    -1.4760 C.3   1 <1>   0.1400 
  7 N       -3.4770     2.4350     0.5100 N.4   1 <1>  -0.9590 
  8 C       -1.0310     2.5680    -0.2890 C.3   1 <1>  -0.0170 
  9 C       -3.6660    -1.8100     0.0590 C.2   1 <1>   0.0070 
 10 C       -5.4320     1.7680    -2.4690 C.3   1 <1>   0.1200 
 11 C       -3.5540     3.8450     0.9990 C.3   1 <1>   0.2630 
 12 C       -3.3230     1.4580     1.6340 C.3   1 <1>   0.2630 
 13 C       -0.8090     4.0480    -0.0070 C.ar  1 <1>  -0.1440 
 14 N       -4.6060    -1.6100     0.9310 N.2   1 <1>  -0.5650 
 15 N       -2.5640    -2.3940     0.5800 N.pl3 1 <1>   0.0330 
 16 O       -4.9720     2.9740    -1.9560 O.3   1 <1>  -0.6800 
 17 C       -0.2860     4.4570     1.2110 C.ar  1 <1>  -0.1500 
 18 C       -1.1300     4.9990    -0.9640 C.ar  1 <1>  -0.1500 
 19 C       -4.1010    -2.1160     2.0730 C.2   1 <1>   0.0770 
 20 C       -2.8510    -2.5900     1.8790 C.2   1 <1>  -0.3020 
 21 C       -0.1110     5.8030     1.4790 C.ar  1 <1>  -0.1500 
 22 C       -0.9550     6.3460    -0.6960 C.ar  1 <1>  -0.1500 
 23 C       -0.4490     6.7480     0.5270 C.ar  1 <1>  -0.1500 
 24 H       -2.7770     2.8230    -1.4560 H     1 <1>   0.0800 
 25 H       -4.6280    -1.8360    -1.8490 H     1 <1>   0.0800 
 26 H       -2.8980    -1.7940    -1.9480 H     1 <1>   0.0800 
 27 H       -5.8480    -0.1680    -1.7580 H     1 <1>   0.0800 
 28 H       -5.4680     0.9090    -0.4810 H     1 <1>   0.0800 
 29 H       -4.3850     2.2590     0.0500 H     1 <1>   0.4500 
 30 H       -0.6870     1.9670     0.5340 H     1 <1>   0.0800 
 31 H       -0.4040     2.3240    -1.1290 H     1 <1>   0.0800 
 32 H       -6.4920     1.8700    -2.6330 H     1 <1>   0.0800 
 33 H       -4.9480     1.5730    -3.4120 H     1 <1>   0.0800 
 34 H       -2.6880     4.0890     1.5900 H     1 <1>   0.0800 
 35 H       -4.4310     3.9800     1.6100 H     1 <1>   0.0800 
 36 H       -3.6060     4.5270     0.1660 H     1 <1>   0.0800 
 37 H       -2.3830     1.6120     2.1380 H     1 <1>   0.0800 
 38 H       -3.3510     0.4470     1.2630 H     1 <1>   0.0800 
 39 H       -4.1220     1.5780     2.3460 H     1 <1>   0.0800 
 40 H       -1.6930    -2.6220     0.0870 H     1 <1>   0.2700 
 41 H       -5.2370     3.7070    -2.5570 H     1 <1>   0.4000 
 42 H       -0.0060     3.7370     1.9610 H     1 <1>   0.1500 
 43 H       -1.5110     4.7080    -1.9270 H     1 <1>   0.1500 
 44 H       -4.6710    -2.1180     2.9880 H     1 <1>   0.1500 
 45 H       -2.1730    -3.0520     2.5750 H     1 <1>   0.1500 
 46 H        0.2950     6.1180     2.4250 H     1 <1>   0.1500 
 47 H       -1.2040     7.0830    -1.4400 H     1 <1>   0.1500 
 48 H       -0.3110     7.7960     0.7350 H     1 <1>   0.1500 
@<TRIPOS>BOND
  1   1   2  2   
  2   2   3  am  
  3   2   4  1   
  4   3   5  1   
  5   3   6  1   
  6   4   7  1   
  7   4   8  1   
  8   4  24  1   
  9   5   9  1   
 10   5  25  1   
 11   5  26  1   
 12   6  10  1   
 13   6  27  1   
 14   6  28  1   
 15   7  11  1   
 16   7  12  1   
 17   7  29  1   
 18   8  13  1   
 19   8  30  1   
 20   8  31  1   
 21   9  14  2   
 22   9  15  1   
 23  10  16  1   
 24  10  32  1   
 25  10  33  1   
 26  11  34  1   
 27  11  35  1   
 28  11  36  1   
 29  12  37  1   
 30  12  38  1   
 31  12  39  1   
 32  13  17  ar  
 33  13  18  ar  
 34  14  19  1   
 35  15  20  1   
 36  15  40  1   
 37  16  41  1   
 38  17  21  ar  
 39  17  42  1   
 40  18  22  ar  
 41  18  43  1   
 42  19  20  2   
 43  19  44  1   
 44  20  45  1   
 45  21  23  ar  
 46  21  46  1   
 47  22  23  ar  
 48  22  47  1   
 49  23  48  1   
@<TRIPOS>SUBSTRUCTURE
  1 ****   4 GROUP 4 **** **** 0

# MOE 2024.06 (io_trps.svl 2023.06)
