@<TRIPOS>MOLECULE
NONAME
26 26 1 0 0 
SMALL
USER_CHARGES


@<TRIPOS>ATOM
  1 O       -0.2670     0.4200    -0.3140 O.2   1 <1>  -0.5700 
  2 C       -1.3270     0.9540    -0.1040 C.2   1 <1>   0.5690 
  3 N       -1.3870     2.2740     0.1860 N.am  1 <1>  -0.7300 
  4 C       -2.6270     0.1480    -0.1820 C.3   1 <1>   0.1810 
  5 C       -2.6420     2.9890     0.5280 C.3   1 <1>   0.2200 
  6 O       -3.7100     0.7930     0.4520 O.3   1 <1>  -0.5600 
  7 C       -2.6330     4.4070    -0.1030 C.3   1 <1>  -0.0800 
  8 C       -3.8630     2.1390     0.0910 C.3   1 <1>   0.1200 
  9 C       -1.4170     5.2330     0.3870 C.3   1 <1>  -0.1600 
 10 C       -3.9480     5.1620     0.1900 C.3   1 <1>  -0.2400 
 11 C       -1.2790     6.6070    -0.2850 C.3   1 <1>  -0.2400 
 12 H       -0.5060     2.7790     0.2780 H     1 <1>   0.3700 
 13 H       -2.4860    -0.8040     0.2960 H     1 <1>   0.0800 
 14 H       -2.8860    -0.0140    -1.2120 H     1 <1>   0.0800 
 15 H       -2.6840     3.0960     1.5990 H     1 <1>   0.0800 
 16 H       -2.5550     4.2890    -1.1710 H     1 <1>   0.0800 
 17 H       -4.0030     2.1930    -0.9740 H     1 <1>   0.0800 
 18 H       -4.7560     2.4960     0.5730 H     1 <1>   0.0800 
 19 H       -1.4750     5.3670     1.4530 H     1 <1>   0.0800 
 20 H       -0.5080     4.6960     0.1810 H     1 <1>   0.0800 
 21 H       -4.0710     5.3100     1.2490 H     1 <1>   0.0800 
 22 H       -4.8010     4.6270    -0.1850 H     1 <1>   0.0800 
 23 H       -3.9560     6.1220    -0.2920 H     1 <1>   0.0800 
 24 H       -2.0610     7.2750     0.0270 H     1 <1>   0.0800 
 25 H       -1.3070     6.5080    -1.3560 H     1 <1>   0.0800 
 26 H       -0.3380     7.0510    -0.0110 H     1 <1>   0.0800 
@<TRIPOS>BOND
  1   1   2  2   
  2   2   3  am  
  3   2   4  1   
  4   3   5  1   
  5   3  12  1   
  6   4   6  1   
  7   4  13  1   
  8   4  14  1   
  9   5   7  1   
 10   5   8  1   
 11   5  15  1   
 12   6   8  1   
 13   7   9  1   
 14   7  10  1   
 15   7  16  1   
 16   8  17  1   
 17   8  18  1   
 18   9  11  1   
 19   9  19  1   
 20   9  20  1   
 21  10  21  1   
 22  10  22  1   
 23  10  23  1   
 24  11  24  1   
 25  11  25  1   
 26  11  26  1   
@<TRIPOS>SUBSTRUCTURE
  1 ****   5 GROUP 4 **** **** 0

# MOE 2024.06 (io_trps.svl 2023.06)
