@<TRIPOS>MOLECULE
NONAME
45 47 1 0 0 
SMALL
USER_CHARGES


@<TRIPOS>ATOM
  1 O        0.1140     2.1960     1.6860 O.3   1 <1>  -0.3630 
  2 C       -0.1380     2.6990     0.4540 C.ar  1 <1>   0.0830 
  3 C        1.2520     1.3990     1.9340 C.3   1 <1>   0.0400 
  4 C       -1.2990     3.4380     0.3180 C.ar  1 <1>  -0.1500 
  5 C        0.6940     2.5190    -0.6460 C.ar  1 <1>  -0.1500 
  6 C       -1.6390     4.0170    -0.8980 C.ar  1 <1>  -0.1430 
  7 C        0.3560     3.0820    -1.8640 C.ar  1 <1>  -0.1500 
  8 C       -0.8040     3.8280    -1.9910 C.ar  1 <1>  -0.1500 
  9 C       -2.8880     4.8770    -1.0460 C.3   1 <1>   0.5660 
 10 N       -2.8540     5.9770    -0.0370 N.4   1 <1>  -0.9590 
 11 C       -4.1550     4.0310    -0.8660 C.3   1 <1>  -0.1600 
 12 C       -4.0550     6.8590    -0.1270 C.3   1 <1>   0.3430 
 13 C       -1.5760     6.7610    -0.1320 C.3   1 <1>   0.3430 
 14 C       -5.4300     4.8820    -0.9170 C.3   1 <1>  -0.1600 
 15 C       -5.3290     6.0390     0.0820 C.3   1 <1>  -0.1600 
 16 C       -1.2880     7.5550     1.1430 C.3   1 <1>   0.0210 
 17 C        0.0750     8.1980     1.0160 C.2   1 <1>  -0.1810 
 18 C        1.3050     7.5450     1.0440 C.2   1 <1>   0.1390 
 19 C        0.3820     9.5010     0.8450 C.2   1 <1>  -0.3020 
 20 N        2.2960     8.3650     0.8930 N.2   1 <1>  -0.7070 
 21 N        1.7270     9.5790     0.7770 N.pl3 1 <1>   0.3000 
 22 H        1.2360     1.1050     2.9680 H     1 <1>   0.0800 
 23 H        2.1360     1.9780     1.7340 H     1 <1>   0.0800 
 24 H        1.2120     0.5260     1.3070 H     1 <1>   0.0800 
 25 H       -1.9210     3.5420     1.1880 H     1 <1>   0.1500 
 26 H        1.6010     1.9480    -0.5740 H     1 <1>   0.1500 
 27 H        1.0000     2.9370    -2.7150 H     1 <1>   0.1500 
 28 H       -1.0390     4.2550    -2.9510 H     1 <1>   0.1500 
 29 H       -2.8990     5.3060    -2.0350 H     1 <1>   0.0800 
 30 H       -2.8660     5.4980     0.8690 H     1 <1>   0.4500 
 31 H       -4.1120     3.5030     0.0710 H     1 <1>   0.0800 
 32 H       -4.1910     3.2890    -1.6450 H     1 <1>   0.0800 
 33 H       -4.0890     7.3310    -1.0960 H     1 <1>   0.0800 
 34 H       -4.0060     7.6330     0.6220 H     1 <1>   0.0800 
 35 H       -1.6130     7.4330    -0.9740 H     1 <1>   0.0800 
 36 H       -0.7440     6.0930    -0.2880 H     1 <1>   0.0800 
 37 H       -6.2870     4.2710    -0.6870 H     1 <1>   0.0800 
 38 H       -5.5650     5.2730    -1.9130 H     1 <1>   0.0800 
 39 H       -6.1840     6.6840    -0.0340 H     1 <1>   0.0800 
 40 H       -5.3510     5.6600     1.0900 H     1 <1>   0.0800 
 41 H       -1.2820     6.9020     1.9980 H     1 <1>   0.0800 
 42 H       -2.0250     8.3240     1.2880 H     1 <1>   0.0800 
 43 H        1.4430     6.4830     1.1750 H     1 <1>   0.1500 
 44 H       -0.2530    10.3660     0.7710 H     1 <1>   0.1500 
 45 H        2.2860    10.4350     0.6560 H     1 <1>   0.2700 
@<TRIPOS>BOND
  1   1   2  1   
  2   1   3  1   
  3   2   4  ar  
  4   2   5  ar  
  5   3  22  1   
  6   3  23  1   
  7   3  24  1   
  8   4   6  ar  
  9   4  25  1   
 10   5   7  ar  
 11   5  26  1   
 12   6   8  ar  
 13   6   9  1   
 14   7   8  ar  
 15   7  27  1   
 16   8  28  1   
 17   9  10  1   
 18   9  11  1   
 19   9  29  1   
 20  10  12  1   
 21  10  13  1   
 22  10  30  1   
 23  11  14  1   
 24  11  31  1   
 25  11  32  1   
 26  12  15  1   
 27  12  33  1   
 28  12  34  1   
 29  13  16  1   
 30  13  35  1   
 31  13  36  1   
 32  14  15  1   
 33  14  37  1   
 34  14  38  1   
 35  15  39  1   
 36  15  40  1   
 37  16  17  1   
 38  16  41  1   
 39  16  42  1   
 40  17  18  1   
 41  17  19  2   
 42  18  20  2   
 43  18  43  1   
 44  19  21  1   
 45  19  44  1   
 46  20  21  1   
 47  21  45  1   
@<TRIPOS>SUBSTRUCTURE
  1 ****  13 GROUP 4 **** **** 0

# MOE 2024.06 (io_trps.svl 2023.06)
