@<TRIPOS>MOLECULE
NONAME
42 44 1 0 0 
SMALL
USER_CHARGES


@<TRIPOS>ATOM
  1 O        0.2060     0.7540     1.4500 O.3   1 <1>  -0.6800 
  2 C        0.7040     0.2080     0.2740 C.3   1 <1>   0.2000 
  3 C        1.2540    -1.1800     0.6020 C.3   1 <1>  -0.0800 
  4 C        1.9550     1.0090    -0.1310 C.3   1 <1>   0.3430 
  5 C        2.5730    -0.8080     1.2830 C.3   1 <1>   0.3430 
  6 C        1.4240    -2.0200    -0.6930 C.3   1 <1>  -0.0170 
  7 N        3.1330     0.2560     0.4180 N.4   1 <1>  -0.9590 
  8 C        2.6630    -2.9070    -0.7110 C.ar  1 <1>   0.1670 
  9 C        4.1390     1.1150     1.0910 C.3   1 <1>   0.4860 
 10 N        3.8110    -2.3020    -0.9960 N.ar  1 <1>  -0.6200 
 11 C        2.5500    -4.2710    -0.4490 C.ar  1 <1>   0.1600 
 12 C        4.6290     2.1660     0.1150 C.ar  1 <1>  -0.1440 
 13 C        4.8220    -3.1620    -1.0270 C.ar  1 <1>   0.1600 
 14 N        3.5650    -5.1150    -0.4530 N.ar  1 <1>  -0.6200 
 15 C        5.4840     1.8640    -0.9440 C.ar  1 <1>   0.1670 
 16 C        4.2020     3.4710     0.2800 C.ar  1 <1>  -0.1500 
 17 C        4.7030    -4.5200    -0.7620 C.ar  1 <1>   0.1600 
 18 N        5.8950     2.7530    -1.8290 N.ar  1 <1>  -0.6200 
 19 C        6.0280     0.4670    -1.1950 C.3   1 <1>  -0.0970 
 20 C        4.6420     4.4010    -0.6350 C.ar  1 <1>  -0.1500 
 21 C        5.4750     3.9950    -1.6600 C.ar  1 <1>   0.1600 
 22 H       -0.7040     0.4360     1.6380 H     1 <1>   0.4000 
 23 H       -0.0700     0.2270    -0.4750 H     1 <1>   0.0800 
 24 H        0.6210    -1.7140     1.2890 H     1 <1>   0.0800 
 25 H        1.8950     2.0060     0.2720 H     1 <1>   0.0800 
 26 H        2.0340     1.0660    -1.2050 H     1 <1>   0.0800 
 27 H        3.2430    -1.6490     1.3710 H     1 <1>   0.0800 
 28 H        2.3640    -0.4110     2.2640 H     1 <1>   0.0800 
 29 H        1.4870    -1.3810    -1.5570 H     1 <1>   0.0800 
 30 H        0.5450    -2.6260    -0.8330 H     1 <1>   0.0800 
 31 H        3.5930    -0.2400    -0.3690 H     1 <1>   0.4500 
 32 H        3.6930     1.5970     1.9460 H     1 <1>   0.0800 
 33 H        4.9690     0.5190     1.4340 H     1 <1>   0.0800 
 34 H        1.5820    -4.6870    -0.2270 H     1 <1>   0.1500 
 35 H        5.7970    -2.7790    -1.2760 H     1 <1>   0.1500 
 36 H        3.5510     3.7700     1.0850 H     1 <1>   0.1500 
 37 H        5.5830    -5.1390    -0.8080 H     1 <1>   0.1500 
 38 H        5.9820    -0.1610    -0.3280 H     1 <1>   0.0800 
 39 H        7.0600     0.5380    -1.4930 H     1 <1>   0.0800 
 40 H        5.4820     0.0090    -2.0000 H     1 <1>   0.0800 
 41 H        4.3460     5.4330    -0.5610 H     1 <1>   0.1500 
 42 H        5.8150     4.7250    -2.3750 H     1 <1>   0.1500 
@<TRIPOS>BOND
  1   1   2  1   
  2   1  22  1   
  3   2   3  1   
  4   2   4  1   
  5   2  23  1   
  6   3   5  1   
  7   3   6  1   
  8   3  24  1   
  9   4   7  1   
 10   4  25  1   
 11   4  26  1   
 12   5   7  1   
 13   5  27  1   
 14   5  28  1   
 15   6   8  1   
 16   6  29  1   
 17   6  30  1   
 18   7   9  1   
 19   7  31  1   
 20   8  10  ar  
 21   8  11  ar  
 22   9  12  1   
 23   9  32  1   
 24   9  33  1   
 25  10  13  ar  
 26  11  14  ar  
 27  11  34  1   
 28  12  15  ar  
 29  12  16  ar  
 30  13  17  ar  
 31  13  35  1   
 32  14  17  ar  
 33  15  18  ar  
 34  15  19  1   
 35  16  20  ar  
 36  16  36  1   
 37  17  37  1   
 38  18  21  ar  
 39  19  38  1   
 40  19  39  1   
 41  19  40  1   
 42  20  21  ar  
 43  20  41  1   
 44  21  42  1   
@<TRIPOS>SUBSTRUCTURE
  1 ****   7 GROUP 4 **** **** 0

# MOE 2024.06 (io_trps.svl 2023.06)
