@<TRIPOS>MOLECULE
NONAME
45 47 1 0 0 
SMALL
USER_CHARGES


@<TRIPOS>ATOM
  1 N        0.6800     0.0010     1.1080 N.ar  1 <1>  -0.1790 
  2 C        1.6520    -0.6030     0.3430 C.ar  1 <1>   0.3610 
  3 C        0.6420     1.3330     1.2910 C.ar  1 <1>   0.2110 
  4 C        2.6380     0.1980    -0.2720 C.ar  1 <1>   0.0000 
  5 C        1.6640    -1.9950     0.1780 C.ar  1 <1>  -0.1500 
  6 C        1.5840     2.1410     0.7090 C.ar  1 <1>  -0.1500 
  7 C        2.6030     1.6180    -0.0920 C.ar  1 <1>   0.1000 
  8 C        3.6160    -0.4660    -1.0420 C.ar  1 <1>  -0.1500 
  9 C        2.6320    -2.6030    -0.5790 C.ar  1 <1>  -0.1500 
 10 N        3.5300     2.4030    -0.6900 N.pl3 1 <1>  -0.8690 
 11 C        3.6140    -1.8290    -1.1920 C.ar  1 <1>  -0.1500 
 12 C        3.6900     3.8920    -0.7150 C.3   1 <1>   0.2090 
 13 C        4.8190     4.4100     0.2270 C.3   1 <1>   0.4230 
 14 N        5.0940     5.8900     0.0700 N.4   1 <1>  -0.9590 
 15 C        6.1320     3.6380    -0.0140 C.3   1 <1>  -0.1600 
 16 C        6.1370     6.3520     1.0410 C.3   1 <1>   0.3430 
 17 C        3.8800     6.7500     0.1780 C.3   1 <1>   0.3430 
 18 C        7.2720     4.1060     0.8960 C.3   1 <1>  -0.1600 
 19 C        7.4520     5.6210     0.7880 C.3   1 <1>  -0.1600 
 20 C        4.1570     8.1160    -0.4420 C.3   1 <1>  -0.2400 
 21 H       -0.0230    -0.6060     1.5390 H     1 <1>   0.4570 
 22 H       -0.1420     1.7510     1.9040 H     1 <1>   0.1500 
 23 H        0.9110    -2.6040     0.6460 H     1 <1>   0.1500 
 24 H        1.5260     3.1990     0.8760 H     1 <1>   0.1500 
 25 H        4.3900     0.0970    -1.5310 H     1 <1>   0.1500 
 26 H        2.6480    -3.6740    -0.7110 H     1 <1>   0.1500 
 27 H        4.2240     1.9350    -1.2900 H     1 <1>   0.4000 
 28 H        4.3710    -2.3170    -1.7850 H     1 <1>   0.1500 
 29 H        2.7550     4.3470    -0.4480 H     1 <1>   0.0800 
 30 H        3.9180     4.1820    -1.7270 H     1 <1>   0.0800 
 31 H        4.5040     4.2270     1.2420 H     1 <1>   0.0800 
 32 H        5.4930     6.0240    -0.8670 H     1 <1>   0.4500 
 33 H        6.4270     3.7380    -1.0440 H     1 <1>   0.0800 
 34 H        5.9750     2.5900     0.1740 H     1 <1>   0.0800 
 35 H        5.8090     6.1620     2.0510 H     1 <1>   0.0800 
 36 H        6.3040     7.4120     0.9370 H     1 <1>   0.0800 
 37 H        3.5890     6.8620     1.2110 H     1 <1>   0.0800 
 38 H        3.0570     6.3060    -0.3570 H     1 <1>   0.0800 
 39 H        8.1880     3.6080     0.6220 H     1 <1>   0.0800 
 40 H        7.0510     3.8420     1.9170 H     1 <1>   0.0800 
 41 H        8.1800     5.9440     1.5130 H     1 <1>   0.0800 
 42 H        7.8310     5.8830    -0.1850 H     1 <1>   0.0800 
 43 H        4.8900     8.6680     0.1160 H     1 <1>   0.0800 
 44 H        3.2480     8.6930    -0.4360 H     1 <1>   0.0800 
 45 H        4.4760     8.0180    -1.4640 H     1 <1>   0.0800 
@<TRIPOS>BOND
  1   1   2  ar  
  2   1   3  ar  
  3   1  21  1   
  4   2   4  ar  
  5   2   5  ar  
  6   3   6  ar  
  7   3  22  1   
  8   4   7  ar  
  9   4   8  ar  
 10   5   9  ar  
 11   5  23  1   
 12   6   7  ar  
 13   6  24  1   
 14   7  10  1   
 15   8  11  ar  
 16   8  25  1   
 17   9  11  ar  
 18   9  26  1   
 19  10  12  1   
 20  10  27  1   
 21  11  28  1   
 22  12  13  1   
 23  12  29  1   
 24  12  30  1   
 25  13  14  1   
 26  13  15  1   
 27  13  31  1   
 28  14  16  1   
 29  14  17  1   
 30  14  32  1   
 31  15  18  1   
 32  15  33  1   
 33  15  34  1   
 34  16  19  1   
 35  16  35  1   
 36  16  36  1   
 37  17  20  1   
 38  17  37  1   
 39  17  38  1   
 40  18  19  1   
 41  18  39  1   
 42  18  40  1   
 43  19  41  1   
 44  19  42  1   
 45  20  43  1   
 46  20  44  1   
 47  20  45  1   
@<TRIPOS>SUBSTRUCTURE
  1 ****  10 GROUP 4 **** **** 0

# MOE 2024.06 (io_trps.svl 2023.06)
