@<TRIPOS>MOLECULE
NONAME
40 42 1 0 0 
SMALL
USER_CHARGES


@<TRIPOS>ATOM
  1 O        4.9600     3.3940     0.8050 O.co2 1 <1>  -0.9000 
  2 C        4.2350     2.3930     0.9290 C.2   1 <1>   0.9060 
  3 O        4.6630     1.2820     1.2170 O.co2 1 <1>  -0.9000 
  4 C        2.7650     2.5360     0.5890 C.3   1 <1>  -0.1860 
  5 C        2.7370     2.9870    -0.8510 C.3   1 <1>   0.3430 
  6 C        2.0710     3.6840     1.3470 C.3   1 <1>  -0.1600 
  7 N        3.0160     4.4220    -0.6920 N.4   1 <1>  -0.9590 
  8 C        2.2160     4.9130     0.4480 C.3   1 <1>   0.3430 
  9 C        3.1280     5.2740    -1.8890 C.3   1 <1>   0.4860 
 10 C        3.7630     6.5910    -1.4750 C.ar  1 <1>  -0.1440 
 11 C        4.9510     6.5960    -0.7590 C.ar  1 <1>  -0.1500 
 12 C        3.1610     7.7970    -1.7990 C.ar  1 <1>  -0.1500 
 13 C        5.5500     7.7790    -0.3330 C.ar  1 <1>   0.0530 
 14 C        3.7450     8.9860    -1.4020 C.ar  1 <1>  -0.1500 
 15 C        6.7660     7.7490     0.4470 C.2   1 <1>   0.0870 
 16 C        4.9230     8.9740    -0.6780 C.ar  1 <1>  -0.1500 
 17 O        7.4800     8.8550     0.6230 O.3   1 <1>  -0.2800 
 18 C        7.3820     6.7260     1.0990 C.2   1 <1>  -0.1500 
 19 C        8.5290     8.5680     1.3620 C.2   1 <1>  -0.0400 
 20 C        8.5280     7.2600     1.6920 C.2   1 <1>  -0.1500 
 21 C        9.5030     9.6730     1.7020 C.3   1 <1>  -0.0600 
 22 H        2.2780     1.5890     0.7280 H     1 <1>   0.0800 
 23 H        1.7630     2.8310    -1.2850 H     1 <1>   0.0800 
 24 H        3.4990     2.4890    -1.4300 H     1 <1>   0.0800 
 25 H        2.5320     3.8530     2.3060 H     1 <1>   0.0800 
 26 H        1.0280     3.4700     1.4980 H     1 <1>   0.0800 
 27 H        3.9810     4.3770    -0.2710 H     1 <1>   0.4500 
 28 H        2.7330     5.7110     0.9580 H     1 <1>   0.0800 
 29 H        1.2500     5.2530     0.1160 H     1 <1>   0.0800 
 30 H        2.1550     5.4440    -2.3160 H     1 <1>   0.0800 
 31 H        3.7550     4.7930    -2.6220 H     1 <1>   0.0800 
 32 H        5.4400     5.6670    -0.5100 H     1 <1>   0.1500 
 33 H        2.2410     7.8260    -2.3580 H     1 <1>   0.1500 
 34 H        3.2840     9.9260    -1.6540 H     1 <1>   0.1500 
 35 H        5.3680     9.9040    -0.3690 H     1 <1>   0.1500 
 36 H        7.0720     5.6960     1.1700 H     1 <1>   0.1500 
 37 H        9.2380     6.7090     2.2820 H     1 <1>   0.1500 
 38 H        9.9120    10.0860     0.7980 H     1 <1>   0.0800 
 39 H       10.3040     9.2900     2.3070 H     1 <1>   0.0800 
 40 H        8.9940    10.4500     2.2430 H     1 <1>   0.0800 
@<TRIPOS>BOND
  1   1   2  ar  
  2   2   3  ar  
  3   2   4  1   
  4   4   5  1   
  5   4   6  1   
  6   4  22  1   
  7   5   7  1   
  8   5  23  1   
  9   5  24  1   
 10   6   8  1   
 11   6  25  1   
 12   6  26  1   
 13   7   8  1   
 14   7   9  1   
 15   7  27  1   
 16   8  28  1   
 17   8  29  1   
 18   9  10  1   
 19   9  30  1   
 20   9  31  1   
 21  10  11  ar  
 22  10  12  ar  
 23  11  13  ar  
 24  11  32  1   
 25  12  14  ar  
 26  12  33  1   
 27  13  15  1   
 28  13  16  ar  
 29  14  16  ar  
 30  14  34  1   
 31  15  17  1   
 32  15  18  2   
 33  16  35  1   
 34  17  19  1   
 35  18  20  1   
 36  18  36  1   
 37  19  20  2   
 38  19  21  1   
 39  20  37  1   
 40  21  38  1   
 41  21  39  1   
 42  21  40  1   
@<TRIPOS>SUBSTRUCTURE
  1 ****  11 GROUP 4 **** **** 0

# MOE 2024.06 (io_trps.svl 2023.06)
