@<TRIPOS>MOLECULE
NONAME
47 50 1 0 0 
SMALL
USER_CHARGES


@<TRIPOS>ATOM
  1 S       -1.0280    -1.4450     2.0900 S.3   1 <1>  -0.0800 
  2 C       -2.0770    -1.7970     0.7180 C.ar  1 <1>   0.2970 
  3 C       -1.0630    -3.1290     2.6220 C.2   1 <1>  -0.1400 
  4 N       -2.4700    -0.8950    -0.1560 N.ar  1 <1>  -0.5670 
  5 C       -2.4100    -3.1310     0.7070 C.ar  1 <1>   0.0000 
  6 C       -1.8240    -3.8700     1.7970 C.2   1 <1>  -0.1500 
  7 C       -0.2700    -3.4690     3.8670 C.3   1 <1>  -0.0600 
  8 C       -3.2520    -1.3890    -1.0970 C.ar  1 <1>   0.4700 
  9 C       -3.2360    -3.4870    -0.3440 C.ar  1 <1>   0.4120 
 10 N       -3.6690    -2.6450    -1.2540 N.ar  1 <1>  -0.6200 
 11 S       -3.7610    -5.1880    -0.4990 S.3   1 <1>  -0.3320 
 12 C       -4.8040    -5.2000    -2.0430 C.3   1 <1>   0.1310 
 13 C       -5.2750    -6.6030    -2.3990 C.2   1 <1>   0.5690 
 14 O       -6.1170    -6.7320    -3.2540 O.2   1 <1>  -0.5700 
 15 N       -4.7510    -7.6790    -1.7600 N.am  1 <1>  -0.7300 
 16 C       -5.0690    -9.0960    -2.0450 C.3   1 <1>   0.2200 
 17 C       -5.9640    -9.6920    -0.9680 C.3   1 <1>  -0.0800 
 18 C       -3.8100    -9.9290    -1.8530 C.3   1 <1>   0.1200 
 19 C       -4.9660   -10.1090     0.1180 C.3   1 <1>   0.1200 
 20 C       -7.1070    -8.7910    -0.4660 C.3   1 <1>  -0.0170 
 21 O       -3.6980   -10.1090    -0.4740 O.3   1 <1>  -0.5600 
 22 C       -8.0000    -9.5440     0.5080 C.ar  1 <1>  -0.1430 
 23 C       -7.8590    -9.4290     1.8770 C.ar  1 <1>  -0.1500 
 24 C       -9.0010   -10.3860     0.0690 C.ar  1 <1>  -0.1500 
 25 C       -8.6970   -10.1460     2.7140 C.ar  1 <1>   0.1600 
 26 C       -9.7860   -11.0580     0.9910 C.ar  1 <1>   0.1600 
 27 N       -9.6570   -10.9600     2.3040 N.ar  1 <1>  -0.6200 
 28 H       -2.0090    -4.9260     1.8970 H     1 <1>   0.1500 
 29 H       -0.3650    -4.5150     4.0950 H     1 <1>   0.0800 
 30 H       -0.6330    -2.8960     4.7010 H     1 <1>   0.0800 
 31 H        0.7690    -3.2400     3.7130 H     1 <1>   0.0800 
 32 H       -3.5990    -0.6860    -1.8370 H     1 <1>   0.1500 
 33 H       -5.6470    -4.5590    -1.8640 H     1 <1>   0.0800 
 34 H       -4.2040    -4.8010    -2.8390 H     1 <1>   0.0800 
 35 H       -4.0670    -7.5380    -1.0090 H     1 <1>   0.3700 
 36 H       -5.4830    -9.2000    -3.0350 H     1 <1>   0.0800 
 37 H       -6.3980   -10.5920    -1.3660 H     1 <1>   0.0800 
 38 H       -2.9260    -9.4460    -2.2310 H     1 <1>   0.0800 
 39 H       -3.9200   -10.9000    -2.3050 H     1 <1>   0.0800 
 40 H       -5.1770   -11.0940     0.4970 H     1 <1>   0.0800 
 41 H       -4.9440    -9.4040     0.9310 H     1 <1>   0.0800 
 42 H       -7.6950    -8.4610    -1.3050 H     1 <1>   0.0800 
 43 H       -6.7120    -7.9140     0.0160 H     1 <1>   0.0800 
 44 H       -7.1070    -8.7900     2.3000 H     1 <1>   0.1500 
 45 H       -9.1790   -10.5260    -0.9820 H     1 <1>   0.1500 
 46 H       -8.5720   -10.0450     3.7790 H     1 <1>   0.1500 
 47 H      -10.5620   -11.7110     0.6290 H     1 <1>   0.1500 
@<TRIPOS>BOND
  1   1   2  1   
  2   1   3  1   
  3   2   4  ar  
  4   2   5  ar  
  5   3   6  2   
  6   3   7  1   
  7   4   8  ar  
  8   5   6  1   
  9   5   9  ar  
 10   6  28  1   
 11   7  29  1   
 12   7  30  1   
 13   7  31  1   
 14   8  10  ar  
 15   8  32  1   
 16   9  10  ar  
 17   9  11  1   
 18  11  12  1   
 19  12  13  1   
 20  12  33  1   
 21  12  34  1   
 22  13  14  2   
 23  13  15  am  
 24  15  16  1   
 25  15  35  1   
 26  16  17  1   
 27  16  18  1   
 28  16  36  1   
 29  17  19  1   
 30  17  20  1   
 31  17  37  1   
 32  18  21  1   
 33  18  38  1   
 34  18  39  1   
 35  19  21  1   
 36  19  40  1   
 37  19  41  1   
 38  20  22  1   
 39  20  42  1   
 40  20  43  1   
 41  22  23  ar  
 42  22  24  ar  
 43  23  25  ar  
 44  23  44  1   
 45  24  26  ar  
 46  24  45  1   
 47  25  27  ar  
 48  25  46  1   
 49  26  27  ar  
 50  26  47  1   
@<TRIPOS>SUBSTRUCTURE
  1 ****  11 GROUP 4 **** **** 0

# MOE 2024.06 (io_trps.svl 2023.06)
