@<TRIPOS>MOLECULE
NONAME
53 55 1 0 0 
SMALL
USER_CHARGES


@<TRIPOS>ATOM
  1 O        0.0770     1.0030    -0.2120 O.2   1 <1>  -0.5700 
  2 C        0.0250     2.2100    -0.2420 C.2   1 <1>   0.5690 
  3 N       -0.8450     2.9240     0.5410 N.am  1 <1>  -0.6600 
  4 C        0.9530     2.9440    -1.2130 C.3   1 <1>   0.1810 
  5 C       -0.8540     4.4230     0.5080 C.3   1 <1>   0.3640 
  6 C       -1.7480     2.2700     1.5320 C.3   1 <1>   0.0600 
  7 O        1.1690     4.2890    -0.8630 O.3   1 <1>  -0.5600 
  8 C       -2.2830     4.9870     0.5500 C.ar  1 <1>  -0.1430 
  9 C       -0.0240     5.0210    -0.6530 C.3   1 <1>   0.2610 
 10 C       -3.2650     4.7520    -0.4180 C.ar  1 <1>  -0.1430 
 11 C       -2.5980     5.7920     1.6400 C.ar  1 <1>  -0.1500 
 12 C        0.2320     6.5150    -0.3960 C.2   1 <1>   0.5690 
 13 C       -4.5190     5.3270    -0.2690 C.ar  1 <1>  -0.1500 
 14 C       -3.0550     3.8950    -1.6630 C.3   1 <1>  -0.0960 
 15 C       -3.8510     6.3550     1.7790 C.ar  1 <1>  -0.1500 
 16 O       -0.3730     7.2910    -1.1010 O.2   1 <1>  -0.5700 
 17 N        1.0720     6.9840     0.5910 N.am  1 <1>  -0.6600 
 18 C       -4.8160     6.1220     0.8210 C.ar  1 <1>  -0.1500 
 19 C        0.9660     8.4080     1.0480 C.3   1 <1>   0.3200 
 20 C        2.0960     6.1700     1.3110 C.3   1 <1>   0.1400 
 21 C        2.2320     9.2080     0.7770 C.2   1 <1>   0.0060 
 22 C        3.4080     6.1380     0.5280 C.3   1 <1>  -0.2400 
 23 N        3.0110     9.6450     1.7170 N.2   1 <1>  -0.5650 
 24 N        2.6500     9.5350    -0.4710 N.pl3 1 <1>   0.0480 
 25 C        3.9880    10.2870     1.0520 C.2   1 <1>   0.0770 
 26 C        3.7850    10.2300    -0.2810 C.2   1 <1>  -0.3020 
 27 C        2.0340     9.2040    -1.7690 C.3   1 <1>   0.0160 
 28 H        0.5340     2.9120    -2.2020 H     1 <1>   0.0800 
 29 H        1.9090     2.4540    -1.2270 H     1 <1>   0.0800 
 30 H       -0.3690     4.7330     1.4150 H     1 <1>   0.0800 
 31 H       -1.6160     2.7180     2.5010 H     1 <1>   0.0800 
 32 H       -1.5340     1.2180     1.6080 H     1 <1>   0.0800 
 33 H       -2.7730     2.3890     1.2270 H     1 <1>   0.0800 
 34 H       -0.5890     4.9560    -1.5610 H     1 <1>   0.0800 
 35 H       -1.8650     5.9930     2.4020 H     1 <1>   0.1500 
 36 H       -5.2830     5.1600    -1.0080 H     1 <1>   0.1500 
 37 H       -3.9980     3.5440    -2.0400 H     1 <1>   0.0800 
 38 H       -2.4580     3.0290    -1.4570 H     1 <1>   0.0800 
 39 H       -2.5870     4.4770    -2.4350 H     1 <1>   0.0800 
 40 H       -4.0760     6.9760     2.6290 H     1 <1>   0.1500 
 41 H       -5.7940     6.5590     0.9200 H     1 <1>   0.1500 
 42 H        0.1350     8.9020     0.5750 H     1 <1>   0.0800 
 43 H        0.7760     8.4180     2.1060 H     1 <1>   0.0800 
 44 H        2.2750     6.5890     2.2880 H     1 <1>   0.0800 
 45 H        1.7470     5.1630     1.4480 H     1 <1>   0.0800 
 46 H        3.8720     7.1060     0.5180 H     1 <1>   0.0800 
 47 H        3.2440     5.8120    -0.4830 H     1 <1>   0.0800 
 48 H        4.0880     5.4520     0.9990 H     1 <1>   0.0800 
 49 H        4.8000    10.7640     1.5760 H     1 <1>   0.1500 
 50 H        4.3740    10.6360    -1.0820 H     1 <1>   0.1500 
 51 H        2.5260     9.7480    -2.5530 H     1 <1>   0.0800 
 52 H        0.9920     9.4670    -1.7500 H     1 <1>   0.0800 
 53 H        2.1320     8.1480    -1.9470 H     1 <1>   0.0800 
@<TRIPOS>BOND
  1   1   2  2   
  2   2   3  am  
  3   2   4  1   
  4   3   5  1   
  5   3   6  1   
  6   4   7  1   
  7   4  28  1   
  8   4  29  1   
  9   5   8  1   
 10   5   9  1   
 11   5  30  1   
 12   6  31  1   
 13   6  32  1   
 14   6  33  1   
 15   7   9  1   
 16   8  10  ar  
 17   8  11  ar  
 18   9  12  1   
 19   9  34  1   
 20  10  13  ar  
 21  10  14  1   
 22  11  15  ar  
 23  11  35  1   
 24  12  16  2   
 25  12  17  am  
 26  13  18  ar  
 27  13  36  1   
 28  14  37  1   
 29  14  38  1   
 30  14  39  1   
 31  15  18  ar  
 32  15  40  1   
 33  17  19  1   
 34  17  20  1   
 35  18  41  1   
 36  19  21  1   
 37  19  42  1   
 38  19  43  1   
 39  20  22  1   
 40  20  44  1   
 41  20  45  1   
 42  21  23  2   
 43  21  24  1   
 44  22  46  1   
 45  22  47  1   
 46  22  48  1   
 47  23  25  1   
 48  24  26  1   
 49  24  27  1   
 50  25  26  2   
 51  25  49  1   
 52  26  50  1   
 53  27  51  1   
 54  27  52  1   
 55  27  53  1   
@<TRIPOS>SUBSTRUCTURE
  1 ****  12 GROUP 4 **** **** 0

# MOE 2024.06 (io_trps.svl 2023.06)
