@<TRIPOS>MOLECULE
NONAME
48 50 1 0 0 
SMALL
USER_CHARGES


@<TRIPOS>ATOM
  1 F       -1.0180    -0.5530     0.7930 F     1 <1>  -0.1900 
  2 C       -2.1880    -0.0180     0.5520 C.ar  1 <1>   0.1900 
  3 C       -2.3800     1.3670     0.5290 C.ar  1 <1>   0.0830 
  4 C       -3.2300    -0.8950     0.3250 C.ar  1 <1>  -0.1500 
  5 O       -1.4380     2.3310     0.7370 O.3   1 <1>  -0.3630 
  6 C       -3.6580     1.8340     0.2680 C.ar  1 <1>  -0.1500 
  7 C       -4.4930    -0.3950     0.0690 C.ar  1 <1>  -0.1500 
  8 C       -0.0780     2.0400     0.9710 C.3   1 <1>   0.0400 
  9 C       -4.7400     0.9810     0.0320 C.ar  1 <1>   0.0530 
 10 C       -6.0560     1.5190    -0.2300 C.2   1 <1>   0.0870 
 11 O       -6.3470     2.7460     0.1220 O.3   1 <1>  -0.0190 
 12 C       -7.1790     1.0040    -0.7990 C.2   1 <1>  -0.0860 
 13 N       -7.5740     3.0870    -0.1690 N.2   1 <1>  -0.4100 
 14 C       -8.0960     2.0570    -0.7360 C.2   1 <1>   0.3720 
 15 C       -7.4260    -0.2890    -1.3500 C.2   1 <1>   0.7160 
 16 N       -9.4160     2.0070    -1.2130 N.pl3 1 <1>  -0.8210 
 17 O       -6.8040    -0.6410    -2.3350 O.2   1 <1>  -0.5700 
 18 N       -8.3120    -1.1770    -0.7800 N.am  1 <1>  -0.6600 
 19 C       -9.5210     1.9370    -2.6970 C.3   1 <1>   0.1290 
 20 C      -10.3420     3.0290    -0.6460 C.3   1 <1>   0.1290 
 21 C       -8.5030    -2.5670    -1.3360 C.3   1 <1>   0.2010 
 22 C       -9.1770    -0.8630     0.4010 C.3   1 <1>   0.1400 
 23 C       -8.7740    -3.6330    -0.2690 C.2   1 <1>   0.5690 
 24 C       -8.9810    -1.8920     1.5350 C.3   1 <1>   0.2200 
 25 O       -8.7780    -4.7980    -0.5790 O.2   1 <1>  -0.5700 
 26 N       -9.0150    -3.2750     1.0170 N.am  1 <1>  -0.7300 
 27 C      -10.0670    -1.7590     2.6000 C.3   1 <1>  -0.2400 
 28 H       -3.0510    -1.9550     0.3480 H     1 <1>   0.1500 
 29 H       -3.8090     2.8990     0.2450 H     1 <1>   0.1500 
 30 H       -5.2910    -1.0940    -0.1010 H     1 <1>   0.1500 
 31 H        0.4500     2.9710     1.0760 H     1 <1>   0.0800 
 32 H        0.3130     1.4930     0.1310 H     1 <1>   0.0800 
 33 H        0.0080     1.4680     1.8780 H     1 <1>   0.0800 
 34 H      -10.5260     1.6800    -2.9810 H     1 <1>   0.0800 
 35 H       -8.8550     1.1880    -3.0900 H     1 <1>   0.0800 
 36 H       -9.2620     2.8890    -3.1290 H     1 <1>   0.0800 
 37 H      -11.3580     2.7910    -0.9060 H     1 <1>   0.0800 
 38 H      -10.0950     4.0050    -1.0280 H     1 <1>   0.0800 
 39 H      -10.2550     3.0460     0.4270 H     1 <1>   0.0800 
 40 H       -9.3330    -2.5560    -2.0190 H     1 <1>   0.0800 
 41 H       -7.6290    -2.8690    -1.8860 H     1 <1>   0.0800 
 42 H       -8.9670     0.1170     0.7890 H     1 <1>   0.0800 
 43 H      -10.2050    -0.8670     0.0830 H     1 <1>   0.0800 
 44 H       -8.0200    -1.7210     1.9910 H     1 <1>   0.0800 
 45 H       -9.1630    -4.0300     1.6890 H     1 <1>   0.3700 
 46 H      -11.0370    -1.9520     2.1770 H     1 <1>   0.0800 
 47 H      -10.0620    -0.7630     3.0060 H     1 <1>   0.0800 
 48 H       -9.8870    -2.4500     3.4040 H     1 <1>   0.0800 
@<TRIPOS>BOND
  1   1   2  1   
  2   2   3  ar  
  3   2   4  ar  
  4   3   5  1   
  5   3   6  ar  
  6   4   7  ar  
  7   4  28  1   
  8   5   8  1   
  9   6   9  ar  
 10   6  29  1   
 11   7   9  ar  
 12   7  30  1   
 13   8  31  1   
 14   8  32  1   
 15   8  33  1   
 16   9  10  1   
 17  10  11  1   
 18  10  12  2   
 19  11  13  1   
 20  12  14  1   
 21  12  15  1   
 22  13  14  2   
 23  14  16  1   
 24  15  17  2   
 25  15  18  am  
 26  16  19  1   
 27  16  20  1   
 28  18  21  1   
 29  18  22  1   
 30  19  34  1   
 31  19  35  1   
 32  19  36  1   
 33  20  37  1   
 34  20  38  1   
 35  20  39  1   
 36  21  23  1   
 37  21  40  1   
 38  21  41  1   
 39  22  24  1   
 40  22  42  1   
 41  22  43  1   
 42  23  25  2   
 43  23  26  am  
 44  24  26  1   
 45  24  27  1   
 46  24  44  1   
 47  26  45  1   
 48  27  46  1   
 49  27  47  1   
 50  27  48  1   
@<TRIPOS>SUBSTRUCTURE
  1 ****  12 GROUP 4 **** **** 0

# MOE 2024.06 (io_trps.svl 2023.06)
