@<TRIPOS>MOLECULE
NONAME
38 40 1 0 0 
SMALL
USER_CHARGES


@<TRIPOS>ATOM
  1 CL       0.3430    -2.5110    -1.9860 Cl    1 <1>  -0.1770 
  2 C        1.5620    -1.5990    -1.1190 C.ar  1 <1>   0.1770 
  3 C        1.9260    -1.9540     0.1760 C.ar  1 <1>  -0.0230 
  4 C        2.1340    -0.5160    -1.7600 C.ar  1 <1>  -0.1500 
  5 N        1.3460    -3.0720     0.8260 N.pl3 1 <1>   0.5930 
  6 C        2.8790    -1.1740     0.8260 C.ar  1 <1>  -0.1500 
  7 C        3.0880     0.2430    -1.1020 C.ar  1 <1>  -0.1500 
  8 N        0.7340    -2.9920     2.0350 N.2   1 <1>  -0.7070 
  9 C        1.3090    -4.3540     0.3860 C.2   1 <1>  -0.3020 
 10 C        3.4560    -0.0870     0.1910 C.ar  1 <1>  -0.1500 
 11 C        0.3230    -4.1880     2.3070 C.2   1 <1>   0.1390 
 12 C        0.6480    -5.0920     1.3040 C.2   1 <1>  -0.1810 
 13 C        0.2950    -6.5650     1.2900 C.3   1 <1>   0.5240 
 14 N       -0.3380    -6.8770    -0.0010 N.4   1 <1>  -0.9590 
 15 C       -0.6370    -8.3510    -0.1370 C.3   1 <1>   0.3170 
 16 C       -1.5850    -6.1190    -0.2990 C.3   1 <1>   0.3430 
 17 C        0.4000    -9.0330    -1.0490 C.2   1 <1>   0.9060 
 18 C       -2.0700    -8.4280    -0.6730 C.3   1 <1>  -0.1600 
 19 C       -2.7180    -7.1420    -0.1900 C.3   1 <1>   0.2000 
 20 O        1.2010    -8.2640    -1.6060 O.co2 1 <1>  -0.9000 
 21 O        0.4100   -10.2560    -1.1750 O.co2 1 <1>  -0.9000 
 22 O       -3.0490    -7.3060     1.1510 O.3   1 <1>  -0.6800 
 23 H        1.8340    -0.2680    -2.7620 H     1 <1>   0.1500 
 24 H        3.1660    -1.4190     1.8360 H     1 <1>   0.1500 
 25 H        3.5390     1.0890    -1.5930 H     1 <1>   0.1500 
 26 H        1.7500    -4.6460    -0.5500 H     1 <1>   0.1500 
 27 H        4.1930     0.5060     0.7070 H     1 <1>   0.1500 
 28 H       -0.2110    -4.4330     3.2120 H     1 <1>   0.1500 
 29 H       -0.3880    -6.7890     2.0930 H     1 <1>   0.0800 
 30 H        1.1890    -7.1550     1.4130 H     1 <1>   0.0800 
 31 H        0.3850    -6.7500    -0.7470 H     1 <1>   0.4500 
 32 H       -0.5980    -8.8250     0.8270 H     1 <1>   0.0800 
 33 H       -1.7360    -5.2950     0.3790 H     1 <1>   0.0800 
 34 H       -1.5370    -5.7460    -1.3080 H     1 <1>   0.0800 
 35 H       -2.5740    -9.3180    -0.3400 H     1 <1>   0.0800 
 36 H       -2.0390    -8.4390    -1.7490 H     1 <1>   0.0800 
 37 H       -3.5990    -6.8570    -0.7410 H     1 <1>   0.0800 
 38 H       -3.7800    -7.9500     1.2480 H     1 <1>   0.4000 
@<TRIPOS>BOND
  1   1   2  1   
  2   2   3  ar  
  3   2   4  ar  
  4   3   5  1   
  5   3   6  ar  
  6   4   7  ar  
  7   4  23  1   
  8   5   8  1   
  9   5   9  1   
 10   6  10  ar  
 11   6  24  1   
 12   7  10  ar  
 13   7  25  1   
 14   8  11  2   
 15   9  12  2   
 16   9  26  1   
 17  10  27  1   
 18  11  12  1   
 19  11  28  1   
 20  12  13  1   
 21  13  14  1   
 22  13  29  1   
 23  13  30  1   
 24  14  15  1   
 25  14  16  1   
 26  14  31  1   
 27  15  17  1   
 28  15  18  1   
 29  15  32  1   
 30  16  19  1   
 31  16  33  1   
 32  16  34  1   
 33  17  20  ar  
 34  17  21  ar  
 35  18  19  1   
 36  18  35  1   
 37  18  36  1   
 38  19  22  1   
 39  19  37  1   
 40  22  38  1   
@<TRIPOS>SUBSTRUCTURE
  1 ****   9 GROUP 4 **** **** 0

# MOE 2024.06 (io_trps.svl 2023.06)
