@<TRIPOS>MOLECULE
NONAME
53 56 1 0 0 
SMALL
USER_CHARGES


@<TRIPOS>ATOM
  1 O       -0.5300    -0.3720    -0.8300 O.3   1 <1>  -0.3630 
  2 C       -0.6730    -1.6440    -0.3900 C.ar  1 <1>   0.0820 
  3 C       -0.3720     0.6550     0.1190 C.3   1 <1>   0.1200 
  4 C       -1.7100    -2.0440     0.4550 C.ar  1 <1>   0.0820 
  5 C        0.2370    -2.5770    -0.8530 C.ar  1 <1>  -0.1500 
  6 C       -1.7160     1.0200     0.7490 C.3   1 <1>  -0.1600 
  7 O       -2.6640    -1.1980     0.9130 O.3   1 <1>  -0.3630 
  8 C       -1.8220    -3.3720     0.8240 C.ar  1 <1>  -0.1500 
  9 C        0.1260    -3.9130    -0.4790 C.ar  1 <1>   0.0820 
 10 C       -2.2590    -0.0780     1.6630 C.3   1 <1>   0.1200 
 11 C       -0.9120    -4.3090     0.3600 C.ar  1 <1>  -0.1430 
 12 O        0.9850    -4.8790    -0.9110 O.3   1 <1>  -0.3630 
 13 C       -1.0600    -5.7640     0.7540 C.3   1 <1>   0.4860 
 14 C        2.1800    -4.5300    -1.5850 C.3   1 <1>   0.0400 
 15 N       -1.2990    -6.5530    -0.4810 N.4   1 <1>  -0.9590 
 16 C       -2.5640    -6.1690    -1.1880 C.3   1 <1>   0.3430 
 17 C       -1.3180    -8.0220    -0.2440 C.3   1 <1>   0.3430 
 18 C       -3.3420    -7.4730    -1.3990 C.3   1 <1>   0.2000 
 19 C       -2.7780    -8.4530    -0.3760 C.3   1 <1>  -0.0800 
 20 O       -4.7040    -7.3090    -1.2010 O.3   1 <1>  -0.6800 
 21 C       -2.9550    -9.9250    -0.7950 C.3   1 <1>  -0.0170 
 22 C       -2.4190   -10.8890     0.2540 C.ar  1 <1>   0.1670 
 23 N       -1.1180   -10.8350     0.4970 N.ar  1 <1>  -0.6200 
 24 C       -3.2860   -11.7710     0.8990 C.ar  1 <1>   0.1600 
 25 C       -0.7450   -11.7240     1.4060 C.ar  1 <1>   0.1600 
 26 N       -2.9160   -12.6440     1.8190 N.ar  1 <1>  -0.6200 
 27 C       -1.6150   -12.5970     2.0470 C.ar  1 <1>   0.1600 
 28 H        0.3390     0.3330     0.8600 H     1 <1>   0.0800 
 29 H        0.0300     1.5050    -0.4030 H     1 <1>   0.0800 
 30 H        1.0120    -2.2310    -1.5090 H     1 <1>   0.1500 
 31 H       -1.5720     1.9040     1.3430 H     1 <1>   0.0800 
 32 H       -2.4340     1.2580    -0.0160 H     1 <1>   0.0800 
 33 H       -2.6350    -3.6490     1.4720 H     1 <1>   0.1500 
 34 H       -3.1280     0.2800     2.1870 H     1 <1>   0.0800 
 35 H       -1.5240    -0.3930     2.3840 H     1 <1>   0.0800 
 36 H       -1.8800    -5.8850     1.4430 H     1 <1>   0.0800 
 37 H       -0.1520    -6.0940     1.2320 H     1 <1>   0.0800 
 38 H        2.7510    -5.4260    -1.7510 H     1 <1>   0.0800 
 39 H        2.7450    -3.8500    -0.9700 H     1 <1>   0.0800 
 40 H        1.9340    -4.0760    -2.5290 H     1 <1>   0.0800 
 41 H       -0.4930    -6.3010    -1.0820 H     1 <1>   0.4500 
 42 H       -3.1420    -5.4930    -0.5810 H     1 <1>   0.0800 
 43 H       -2.3460    -5.7020    -2.1340 H     1 <1>   0.0800 
 44 H       -0.7320    -8.5190    -1.0020 H     1 <1>   0.0800 
 45 H       -0.9180    -8.2850     0.7230 H     1 <1>   0.0800 
 46 H       -3.1910    -7.8210    -2.4070 H     1 <1>   0.0800 
 47 H       -3.2490    -8.2970     0.5790 H     1 <1>   0.0800 
 48 H       -4.9360    -7.1060    -0.2730 H     1 <1>   0.4000 
 49 H       -2.4410   -10.1110    -1.7230 H     1 <1>   0.0800 
 50 H       -4.0000   -10.1190    -0.9640 H     1 <1>   0.0800 
 51 H       -4.3320   -11.7570     0.6470 H     1 <1>   0.1500 
 52 H        0.3000   -11.7670     1.6600 H     1 <1>   0.1500 
 53 H       -1.2190   -13.2840     2.7750 H     1 <1>   0.1500 
@<TRIPOS>BOND
  1   1   2  1   
  2   1   3  1   
  3   2   4  ar  
  4   2   5  ar  
  5   3   6  1   
  6   3  28  1   
  7   3  29  1   
  8   4   7  1   
  9   4   8  ar  
 10   5   9  ar  
 11   5  30  1   
 12   6  10  1   
 13   6  31  1   
 14   6  32  1   
 15   7  10  1   
 16   8  11  ar  
 17   8  33  1   
 18   9  11  ar  
 19   9  12  1   
 20  10  34  1   
 21  10  35  1   
 22  11  13  1   
 23  12  14  1   
 24  13  15  1   
 25  13  36  1   
 26  13  37  1   
 27  14  38  1   
 28  14  39  1   
 29  14  40  1   
 30  15  16  1   
 31  15  17  1   
 32  15  41  1   
 33  16  18  1   
 34  16  42  1   
 35  16  43  1   
 36  17  19  1   
 37  17  44  1   
 38  17  45  1   
 39  18  19  1   
 40  18  20  1   
 41  18  46  1   
 42  19  21  1   
 43  19  47  1   
 44  20  48  1   
 45  21  22  1   
 46  21  49  1   
 47  21  50  1   
 48  22  23  ar  
 49  22  24  ar  
 50  23  25  ar  
 51  24  26  ar  
 52  24  51  1   
 53  25  27  ar  
 54  25  52  1   
 55  26  27  ar  
 56  27  53  1   
@<TRIPOS>SUBSTRUCTURE
  1 ****  13 GROUP 4 **** **** 0

# MOE 2024.06 (io_trps.svl 2023.06)
