@<TRIPOS>MOLECULE
NONAME
48 50 1 0 0 
SMALL
USER_CHARGES


@<TRIPOS>ATOM
  1 S        0.0150     0.9040    -1.5060 S.o2  1 <1>   1.3330 
  2 O        1.0340     0.9800    -2.5290 O.2   1 <1>  -0.6500 
  3 O       -1.1600     0.0910    -1.7250 O.2   1 <1>  -0.6500 
  4 N        0.7480     0.3640    -0.0720 N.am  1 <1>  -0.8490 
  5 C       -0.4960     2.5800    -1.1170 C.3   1 <1>  -0.0550 
  6 C        1.7850    -0.6430    -0.3170 C.3   1 <1>   0.1160 
  7 C       -0.2080    -0.1350     0.9220 C.3   1 <1>   0.1160 
  8 C        0.6720     3.5660    -0.8900 C.3   1 <1>  -0.0800 
  9 C        0.2390     5.0290    -0.7630 C.3   1 <1>   0.2000 
 10 C        1.4950     3.3050     0.3800 C.3   1 <1>   0.1400 
 11 O       -0.8530     5.1040     0.0900 O.3   1 <1>  -0.6800 
 12 C        1.4260     5.6950    -0.0730 C.3   1 <1>   0.1400 
 13 N        1.9560     4.6410     0.8290 N.am  1 <1>  -0.6600 
 14 C        2.8510     4.8070     1.8540 C.2   1 <1>   0.5690 
 15 O        3.2120     3.8630     2.5180 O.2   1 <1>  -0.5700 
 16 C        3.3960     6.1840     2.2130 C.3   1 <1>   0.0820 
 17 C        4.0840     6.8800     1.0460 C.2   1 <1>  -0.1810 
 18 C        3.6880     8.1150     0.4810 C.ar  1 <1>   0.0000 
 19 C        5.1570     6.4360     0.3500 C.2   1 <1>  -0.3020 
 20 C        4.5640     8.3600    -0.5730 C.ar  1 <1>  -0.1520 
 21 C        2.6740     9.0390     0.7570 C.ar  1 <1>  -0.1500 
 22 N        5.4640     7.3270    -0.6370 N.pl3 1 <1>   0.0330 
 23 C        4.4410     9.5050    -1.3630 C.ar  1 <1>  -0.1500 
 24 C        2.5510    10.1670    -0.0220 C.ar  1 <1>  -0.1500 
 25 C        3.4340    10.4000    -1.0820 C.ar  1 <1>  -0.1500 
 26 H       -1.0840     2.9470    -1.9350 H     1 <1>   0.0800 
 27 H       -1.1310     2.5660    -0.2530 H     1 <1>   0.0800 
 28 H        2.2390    -0.9450     0.6110 H     1 <1>   0.0800 
 29 H        2.5550    -0.2330    -0.9490 H     1 <1>   0.0800 
 30 H        1.3610    -1.5060    -0.8040 H     1 <1>   0.0800 
 31 H        0.3030    -0.3680     1.8410 H     1 <1>   0.0800 
 32 H       -0.7000    -1.0220     0.5590 H     1 <1>   0.0800 
 33 H       -0.9540     0.6130     1.1300 H     1 <1>   0.0800 
 34 H        1.3440     3.4990    -1.7280 H     1 <1>   0.0800 
 35 H       -0.0210     5.4880    -1.7020 H     1 <1>   0.0800 
 36 H        2.3350     2.6610     0.1810 H     1 <1>   0.0800 
 37 H        0.8900     2.8660     1.1550 H     1 <1>   0.0800 
 38 H       -0.5520     4.8770     0.9940 H     1 <1>   0.4000 
 39 H        1.1310     6.5800     0.4630 H     1 <1>   0.0800 
 40 H        2.1790     5.9470    -0.8000 H     1 <1>   0.0800 
 41 H        2.5880     6.7830     2.5820 H     1 <1>   0.0800 
 42 H        4.1080     6.0740     3.0110 H     1 <1>   0.0800 
 43 H        5.7220     5.5300     0.4960 H     1 <1>   0.1500 
 44 H        2.0010     8.8610     1.5740 H     1 <1>   0.1500 
 45 H        6.2310     7.2500    -1.3120 H     1 <1>   0.2700 
 46 H        5.1260     9.6780    -2.1740 H     1 <1>   0.1500 
 47 H        1.7750    10.8850     0.1790 H     1 <1>   0.1500 
 48 H        3.3180    11.2900    -1.6750 H     1 <1>   0.1500 
@<TRIPOS>BOND
  1   1   2  2   
  2   1   3  2   
  3   1   4  am  
  4   1   5  1   
  5   4   6  1   
  6   4   7  1   
  7   5   8  1   
  8   5  26  1   
  9   5  27  1   
 10   6  28  1   
 11   6  29  1   
 12   6  30  1   
 13   7  31  1   
 14   7  32  1   
 15   7  33  1   
 16   8   9  1   
 17   8  10  1   
 18   8  34  1   
 19   9  11  1   
 20   9  12  1   
 21   9  35  1   
 22  10  13  1   
 23  10  36  1   
 24  10  37  1   
 25  11  38  1   
 26  12  13  1   
 27  12  39  1   
 28  12  40  1   
 29  13  14  am  
 30  14  15  2   
 31  14  16  1   
 32  16  17  1   
 33  16  41  1   
 34  16  42  1   
 35  17  18  1   
 36  17  19  2   
 37  18  20  ar  
 38  18  21  ar  
 39  19  22  1   
 40  19  43  1   
 41  20  22  1   
 42  20  23  ar  
 43  21  24  ar  
 44  21  44  1   
 45  22  45  1   
 46  23  25  ar  
 47  23  46  1   
 48  24  25  ar  
 49  24  47  1   
 50  25  48  1   
@<TRIPOS>SUBSTRUCTURE
  1 ****  13 GROUP 4 **** **** 0

# MOE 2024.06 (io_trps.svl 2023.06)
