@<TRIPOS>MOLECULE
NONAME
57 60 1 0 0 
SMALL
USER_CHARGES


@<TRIPOS>ATOM
  1 O       -0.9210     0.0550    -0.7210 O.3   1 <1>  -0.3630 
  2 C       -1.9350     0.7250    -1.3330 C.ar  1 <1>   0.0830 
  3 C        0.2030     0.7460    -0.2160 C.3   1 <1>   0.1200 
  4 C       -2.8730    -0.0150    -2.0500 C.ar  1 <1>  -0.1440 
  5 C       -2.0610     2.1120    -1.2660 C.ar  1 <1>  -0.1500 
  6 C        1.2410    -0.2800     0.2260 C.3   1 <1>   0.0960 
  7 C       -3.9140     0.6380    -2.6920 C.ar  1 <1>  -0.1500 
  8 C       -2.7880    -1.5320    -2.1500 C.3   1 <1>   0.2540 
  9 C       -3.1040     2.7510    -1.9110 C.ar  1 <1>  -0.1500 
 10 N        2.4220     0.4170     0.7620 N.pl3 1 <1>   0.0480 
 11 C       -4.0310     2.0150    -2.6250 C.ar  1 <1>  -0.1500 
 12 N       -3.9020    -2.1320    -1.4000 N.3   1 <1>  -0.6890 
 13 C        2.6670     0.7680     2.0450 C.2   1 <1>   0.0360 
 14 C        3.4820     0.8770     0.0750 C.2   1 <1>  -0.3020 
 15 C       -3.7450    -1.9410     0.0690 C.3   1 <1>   0.2100 
 16 C       -3.7250    -3.5860    -1.1470 C.3   1 <1>   0.2100 
 17 N        3.7800     1.4030     2.2130 N.2   1 <1>  -0.5650 
 18 C        4.2980     1.4720     0.9730 C.2   1 <1>   0.0770 
 19 C       -4.4570    -3.3210     0.2110 C.3   1 <1>   0.4720 
 20 N       -5.9690    -3.2160     0.1560 N.4   1 <1>  -0.9280 
 21 C       -6.6230    -3.0640     1.4930 C.3   1 <1>   0.4230 
 22 C       -6.5670    -4.3490    -0.6140 C.3   1 <1>   0.3430 
 23 C       -8.1280    -2.8230     1.3080 C.3   1 <1>  -0.1600 
 24 C       -6.0300    -1.9120     2.3060 C.3   1 <1>  -0.2400 
 25 C       -8.0630    -4.1240    -0.8300 C.3   1 <1>  -0.1600 
 26 C       -8.7990    -3.9350     0.4970 C.3   1 <1>  -0.1600 
 27 H       -0.1160     1.3460     0.6180 H     1 <1>   0.0800 
 28 H        0.5990     1.3670    -1.0010 H     1 <1>   0.0800 
 29 H       -1.3640     2.7170    -0.7190 H     1 <1>   0.1500 
 30 H        1.5470    -0.8810    -0.6110 H     1 <1>   0.0800 
 31 H        0.8340    -0.9130     0.9930 H     1 <1>   0.0800 
 32 H       -4.6410     0.0730    -3.2490 H     1 <1>   0.1500 
 33 H       -1.8420    -1.8910    -1.7830 H     1 <1>   0.0800 
 34 H       -2.8670    -1.8190    -3.1850 H     1 <1>   0.0800 
 35 H       -3.1960     3.8220    -1.8580 H     1 <1>   0.1500 
 36 H       -4.8420     2.5120    -3.1290 H     1 <1>   0.1500 
 37 H        1.9840     0.5340     2.8430 H     1 <1>   0.1500 
 38 H        3.6030     0.7620    -0.9870 H     1 <1>   0.1500 
 39 H       -4.2940    -1.0870     0.4210 H     1 <1>   0.0000 
 40 H       -2.7140    -1.9560     0.3830 H     1 <1>   0.0000 
 41 H       -2.6890    -3.8590    -1.0220 H     1 <1>   0.0000 
 42 H       -4.2400    -4.1960    -1.8640 H     1 <1>   0.0000 
 43 H        5.2440     1.9530     0.7900 H     1 <1>   0.1500 
 44 H       -4.1110    -3.9320     1.0260 H     1 <1>   0.0000 
 45 H       -6.1370    -2.3600    -0.3900 H     1 <1>   0.4500 
 46 H       -6.4920    -3.9780     2.0510 H     1 <1>   0.0800 
 47 H       -6.4160    -5.2730    -0.0800 H     1 <1>   0.0800 
 48 H       -6.0990    -4.4340    -1.5800 H     1 <1>   0.0800 
 49 H       -8.2850    -1.8750     0.8220 H     1 <1>   0.0800 
 50 H       -8.6010    -2.7690     2.2740 H     1 <1>   0.0800 
 51 H       -6.1070    -0.9810     1.7730 H     1 <1>   0.0800 
 52 H       -5.0080    -2.1030     2.5750 H     1 <1>   0.0800 
 53 H       -6.5780    -1.8070     3.2260 H     1 <1>   0.0800 
 54 H       -8.4760    -4.9720    -1.3490 H     1 <1>   0.0800 
 55 H       -8.2070    -3.2620    -1.4590 H     1 <1>   0.0800 
 56 H       -9.8310    -3.6830     0.3130 H     1 <1>   0.0800 
 57 H       -8.7800    -4.8550     1.0580 H     1 <1>   0.0800 
@<TRIPOS>BOND
  1   1   2  1   
  2   1   3  1   
  3   2   4  ar  
  4   2   5  ar  
  5   3   6  1   
  6   3  27  1   
  7   3  28  1   
  8   4   7  ar  
  9   4   8  1   
 10   5   9  ar  
 11   5  29  1   
 12   6  10  1   
 13   6  30  1   
 14   6  31  1   
 15   7  11  ar  
 16   7  32  1   
 17   8  12  1   
 18   8  33  1   
 19   8  34  1   
 20   9  11  ar  
 21   9  35  1   
 22  10  13  1   
 23  10  14  1   
 24  11  36  1   
 25  12  15  1   
 26  12  16  1   
 27  13  17  2   
 28  13  37  1   
 29  14  18  2   
 30  14  38  1   
 31  15  19  1   
 32  15  39  1   
 33  15  40  1   
 34  16  19  1   
 35  16  41  1   
 36  16  42  1   
 37  17  18  1   
 38  18  43  1   
 39  19  20  1   
 40  19  44  1   
 41  20  21  1   
 42  20  22  1   
 43  20  45  1   
 44  21  23  1   
 45  21  24  1   
 46  21  46  1   
 47  22  25  1   
 48  22  47  1   
 49  22  48  1   
 50  23  26  1   
 51  23  49  1   
 52  23  50  1   
 53  24  51  1   
 54  24  52  1   
 55  24  53  1   
 56  25  26  1   
 57  25  54  1   
 58  25  55  1   
 59  26  56  1   
 60  26  57  1   
@<TRIPOS>SUBSTRUCTURE
  1 ****  15 GROUP 4 **** **** 0

# MOE 2024.06 (io_trps.svl 2023.06)
