@<TRIPOS>MOLECULE
NONAME
51 55 1 0 0 
SMALL
USER_CHARGES


@<TRIPOS>ATOM
  1 O       -0.6980     0.4670     0.9840 O.2   1 <1>  -0.5700 
  2 C       -1.7240     1.0650     0.7170 C.2   1 <1>   0.7160 
  3 N       -2.9300     0.5150     1.1000 N.am  1 <1>  -0.6600 
  4 C       -1.6590     2.3170    -0.0020 C.2   1 <1>  -0.0860 
  5 C       -4.2050     0.7500     0.3690 C.3   1 <1>   0.1400 
  6 C       -3.0110    -0.5660     2.1200 C.3   1 <1>   0.1400 
  7 C       -0.8670     2.6840    -1.0480 C.2   1 <1>  -0.0400 
  8 C       -2.4330     3.4700     0.2580 C.2   1 <1>  -0.1500 
  9 C       -4.6180    -0.5450    -0.3340 C.3   1 <1>  -0.1600 
 10 C       -3.4140    -1.8730     1.4380 C.3   1 <1>  -0.1600 
 11 O       -1.1160     3.9160    -1.4210 O.3   1 <1>  -0.2800 
 12 C        0.2010     1.9160    -1.7990 C.3   1 <1>  -0.0600 
 13 C       -2.0550     4.3990    -0.6400 C.2   1 <1>  -0.0400 
 14 C       -4.7190    -1.7180     0.6510 C.3   1 <1>   0.4600 
 15 C       -2.5180     5.8220    -0.8590 C.3   1 <1>  -0.0600 
 16 O       -5.7250    -1.4360     1.6010 O.3   1 <1>  -0.5600 
 17 C       -5.0560    -3.0150    -0.0720 C.2   1 <1>  -0.3320 
 18 C       -7.0640    -1.6860     1.2440 C.3   1 <1>   0.1200 
 19 N       -4.2550    -3.6840    -0.9570 N.pl3 1 <1>   0.0330 
 20 C       -6.2150    -3.6870     0.0730 C.2   1 <1>  -0.1810 
 21 C       -7.3030    -3.1840     0.9880 C.3   1 <1>   0.0210 
 22 C       -4.9280    -4.8070    -1.3730 C.ar  1 <1>  -0.1520 
 23 C       -6.1670    -4.8390    -0.7390 C.ar  1 <1>   0.0000 
 24 C       -4.5530    -5.8160    -2.2640 C.ar  1 <1>  -0.1500 
 25 C       -7.0480    -5.8940    -0.9940 C.ar  1 <1>  -0.1500 
 26 C       -5.4300    -6.8480    -2.5070 C.ar  1 <1>  -0.1500 
 27 C       -6.6780    -6.8870    -1.8720 C.ar  1 <1>  -0.1500 
 28 H       -4.0950     1.5280    -0.3650 H     1 <1>   0.0800 
 29 H       -4.9650     1.0490     1.0710 H     1 <1>   0.0800 
 30 H       -3.7450    -0.2970     2.8610 H     1 <1>   0.0800 
 31 H       -2.0650    -0.6890     2.6200 H     1 <1>   0.0800 
 32 H       -3.1670     3.5500     1.0390 H     1 <1>   0.1500 
 33 H       -3.8830    -0.7740    -1.0820 H     1 <1>   0.0800 
 34 H       -5.5530    -0.4080    -0.8420 H     1 <1>   0.0800 
 35 H       -3.5360    -2.6480     2.1720 H     1 <1>   0.0800 
 36 H       -2.6200    -2.1690     0.7790 H     1 <1>   0.0800 
 37 H        0.2950     0.9170    -1.4130 H     1 <1>   0.0800 
 38 H        1.1450     2.4180    -1.6940 H     1 <1>   0.0800 
 39 H       -0.0540     1.8660    -2.8410 H     1 <1>   0.0800 
 40 H       -3.2800     6.0800    -0.1470 H     1 <1>   0.0800 
 41 H       -2.9140     5.9250    -1.8520 H     1 <1>   0.0800 
 42 H       -1.6870     6.4940    -0.7430 H     1 <1>   0.0800 
 43 H       -7.2970    -1.1160     0.3630 H     1 <1>   0.0800 
 44 H       -7.6880    -1.3450     2.0510 H     1 <1>   0.0800 
 45 H       -3.3110    -3.4170    -1.2530 H     1 <1>   0.2700 
 46 H       -8.2660    -3.3250     0.5320 H     1 <1>   0.0800 
 47 H       -7.2770    -3.7250     1.9160 H     1 <1>   0.0800 
 48 H       -3.5930    -5.7800    -2.7460 H     1 <1>   0.1500 
 49 H       -8.0010    -5.9120    -0.4990 H     1 <1>   0.1500 
 50 H       -5.1650    -7.6370    -3.1880 H     1 <1>   0.1500 
 51 H       -7.3450    -7.7060    -2.0790 H     1 <1>   0.1500 
@<TRIPOS>BOND
  1   1   2  2   
  2   2   3  am  
  3   2   4  1   
  4   3   5  1   
  5   3   6  1   
  6   4   7  2   
  7   4   8  1   
  8   5   9  1   
  9   5  28  1   
 10   5  29  1   
 11   6  10  1   
 12   6  30  1   
 13   6  31  1   
 14   7  11  1   
 15   7  12  1   
 16   8  13  2   
 17   8  32  1   
 18   9  14  1   
 19   9  33  1   
 20   9  34  1   
 21  10  14  1   
 22  10  35  1   
 23  10  36  1   
 24  11  13  1   
 25  12  37  1   
 26  12  38  1   
 27  12  39  1   
 28  13  15  1   
 29  14  16  1   
 30  14  17  1   
 31  15  40  1   
 32  15  41  1   
 33  15  42  1   
 34  16  18  1   
 35  17  19  1   
 36  17  20  2   
 37  18  21  1   
 38  18  43  1   
 39  18  44  1   
 40  19  22  1   
 41  19  45  1   
 42  20  21  1   
 43  20  23  1   
 44  21  46  1   
 45  21  47  1   
 46  22  23  ar  
 47  22  24  ar  
 48  23  25  ar  
 49  24  26  ar  
 50  24  48  1   
 51  25  27  ar  
 52  25  49  1   
 53  26  27  ar  
 54  26  50  1   
 55  27  51  1   
@<TRIPOS>SUBSTRUCTURE
  1 ****   9 GROUP 4 **** **** 0

# MOE 2024.06 (io_trps.svl 2023.06)
