@<TRIPOS>MOLECULE
NONAME
45 47 1 0 0 
SMALL
USER_CHARGES


@<TRIPOS>ATOM
  1 S        0.0270    -0.5010     0.0660 S.3   1 <1>  -0.4600 
  2 C       -1.4460     0.5670    -0.0350 C.3   1 <1>   0.2510 
  3 C       -0.8000    -2.1200     0.0640 C.3   1 <1>   0.2510 
  4 C       -2.5840    -0.4230    -0.1010 C.2   1 <1>   0.1080 
  5 C       -2.2620    -1.7640    -0.0540 C.2   1 <1>  -0.1810 
  6 N       -3.8560    -0.2100    -0.2000 N.2   1 <1>  -0.7070 
  7 C       -3.4420    -2.4240    -0.1250 C.2   1 <1>  -0.0880 
  8 N       -4.4030    -1.4520    -0.2100 N.pl3 1 <1>   0.3140 
  9 N       -3.6140    -3.8290    -0.1360 N.am  1 <1>  -0.4940 
 10 C       -5.8520    -1.6040    -0.3950 C.3   1 <1>   0.0160 
 11 C       -4.5890    -4.6260     0.4190 C.2   1 <1>   0.5440 
 12 O       -5.5340    -4.1250     0.9950 O.2   1 <1>  -0.5700 
 13 C       -4.4810    -6.0650     0.3010 C.ar  1 <1>   0.0860 
 14 C       -5.6020    -6.8460     0.0320 C.ar  1 <1>  -0.1500 
 15 C       -3.2620    -6.7290     0.4490 C.ar  1 <1>  -0.1500 
 16 C       -5.5300    -8.2200    -0.1070 C.ar  1 <1>   0.0820 
 17 C       -3.1650    -8.1010     0.3070 C.ar  1 <1>  -0.1500 
 18 O       -6.7190    -8.8300    -0.3710 O.3   1 <1>  -0.3630 
 19 C       -4.2910    -8.8690     0.0180 C.ar  1 <1>   0.0820 
 20 C       -7.0000   -10.1230     0.1140 C.3   1 <1>   0.1200 
 21 O       -4.2070   -10.2150    -0.1580 O.3   1 <1>  -0.3630 
 22 C       -8.5150   -10.2970     0.1440 C.3   1 <1>  -0.2400 
 23 C       -2.9930   -10.9260    -0.0880 C.3   1 <1>   0.1200 
 24 C       -3.2970   -12.3980    -0.3500 C.3   1 <1>  -0.2400 
 25 H       -1.3770     1.1640    -0.9260 H     1 <1>   0.0800 
 26 H       -1.4910     1.1750     0.8500 H     1 <1>   0.0800 
 27 H       -0.5730    -2.6120     0.9920 H     1 <1>   0.0800 
 28 H       -0.4410    -2.6760    -0.7830 H     1 <1>   0.0800 
 29 H       -2.8660    -4.3430    -0.5990 H     1 <1>   0.3700 
 30 H       -6.2400    -0.7290    -0.8820 H     1 <1>   0.0800 
 31 H       -6.3160    -1.7160     0.5670 H     1 <1>   0.0800 
 32 H       -6.0480    -2.4700    -0.9970 H     1 <1>   0.0800 
 33 H       -6.5600    -6.3660    -0.0700 H     1 <1>   0.1500 
 34 H       -2.3770    -6.1650     0.6870 H     1 <1>   0.1500 
 35 H       -2.2000    -8.5540     0.4280 H     1 <1>   0.1500 
 36 H       -6.5840   -10.2190     1.1030 H     1 <1>   0.0800 
 37 H       -6.5490   -10.8400    -0.5490 H     1 <1>   0.0800 
 38 H       -8.9580    -9.5670     0.7970 H     1 <1>   0.0800 
 39 H       -8.7610   -11.2780     0.5070 H     1 <1>   0.0800 
 40 H       -8.9180   -10.1850    -0.8470 H     1 <1>   0.0800 
 41 H       -2.5760   -10.7940     0.8950 H     1 <1>   0.0800 
 42 H       -2.3250   -10.5360    -0.8370 H     1 <1>   0.0800 
 43 H       -3.9770   -12.7740     0.3930 H     1 <1>   0.0800 
 44 H       -2.3890   -12.9710    -0.3070 H     1 <1>   0.0800 
 45 H       -3.7310   -12.5160    -1.3270 H     1 <1>   0.0800 
@<TRIPOS>BOND
  1   1   2  1   
  2   1   3  1   
  3   2   4  1   
  4   2  25  1   
  5   2  26  1   
  6   3   5  1   
  7   3  27  1   
  8   3  28  1   
  9   4   5  1   
 10   4   6  2   
 11   5   7  2   
 12   6   8  1   
 13   7   8  1   
 14   7   9  1   
 15   8  10  1   
 16   9  11  am  
 17   9  29  1   
 18  10  30  1   
 19  10  31  1   
 20  10  32  1   
 21  11  12  2   
 22  11  13  1   
 23  13  14  ar  
 24  13  15  ar  
 25  14  16  ar  
 26  14  33  1   
 27  15  17  ar  
 28  15  34  1   
 29  16  18  1   
 30  16  19  ar  
 31  17  19  ar  
 32  17  35  1   
 33  18  20  1   
 34  19  21  1   
 35  20  22  1   
 36  20  36  1   
 37  20  37  1   
 38  21  23  1   
 39  22  38  1   
 40  22  39  1   
 41  22  40  1   
 42  23  24  1   
 43  23  41  1   
 44  23  42  1   
 45  24  43  1   
 46  24  44  1   
 47  24  45  1   
@<TRIPOS>SUBSTRUCTURE
  1 ****  13 GROUP 4 **** **** 0

# MOE 2024.06 (io_trps.svl 2023.06)
