@<TRIPOS>MOLECULE
NONAME
43 44 1 0 0 
SMALL
USER_CHARGES


@<TRIPOS>ATOM
  1 O        0.7570     0.5960     1.5350 O.2   1 <1>  -0.5700 
  2 C        1.3520     0.9010     0.5160 C.2   1 <1>   0.5440 
  3 N        1.0010     2.0680    -0.1110 N.am  1 <1>  -0.7300 
  4 C        2.3960     0.0610    -0.0330 C.ar  1 <1>   0.0860 
  5 C       -0.0280     3.0310     0.3630 C.3   1 <1>   0.0600 
  6 C        2.3550    -1.3450     0.0740 C.ar  1 <1>   0.4100 
  7 C        3.4850     0.6190    -0.6950 C.ar  1 <1>  -0.1500 
  8 N        3.2690    -2.1600    -0.4470 N.ar  1 <1>  -0.6200 
  9 N        1.3250    -1.9780     0.7300 N.pl3 1 <1>  -0.8690 
 10 C        4.4350    -0.2250    -1.2210 C.ar  1 <1>  -0.1500 
 11 C        4.2790    -1.5910    -1.0740 C.ar  1 <1>   0.1600 
 12 C        1.4610    -3.2830     1.4430 C.3   1 <1>   0.2090 
 13 C        1.0180    -4.4850     0.5690 C.3   1 <1>   0.2800 
 14 O        1.8170    -4.5320    -0.5530 O.3   1 <1>  -0.6800 
 15 C       -0.4270    -4.3560     0.0730 C.3   1 <1>  -0.1600 
 16 C        1.2000    -5.8230     1.2890 C.3   1 <1>  -0.1600 
 17 C       -0.8050    -5.5430    -0.8090 C.3   1 <1>   0.3430 
 18 C        0.7950    -6.9830     0.3800 C.3   1 <1>   0.3430 
 19 N       -0.6260    -6.8230    -0.0560 N.4   1 <1>  -0.9590 
 20 C       -1.0450    -7.9820    -0.8980 C.3   1 <1>   0.2630 
 21 H        1.4050     2.2750    -1.0260 H     1 <1>   0.3700 
 22 H       -0.3710     2.7650     1.3490 H     1 <1>   0.0800 
 23 H       -0.8680     3.0270    -0.3090 H     1 <1>   0.0800 
 24 H        0.3910     4.0220     0.4010 H     1 <1>   0.0800 
 25 H        3.5900     1.6850    -0.7890 H     1 <1>   0.1500 
 26 H        0.7310    -1.3010     1.2430 H     1 <1>   0.4000 
 27 H        5.2930     0.1660    -1.7410 H     1 <1>   0.1500 
 28 H        5.0270    -2.2430    -1.4930 H     1 <1>   0.1500 
 29 H        0.8560    -3.2490     2.3330 H     1 <1>   0.0800 
 30 H        2.4830    -3.4210     1.7540 H     1 <1>   0.0800 
 31 H        2.2550    -3.6370    -0.6360 H     1 <1>   0.4000 
 32 H       -0.5330    -3.4500    -0.4980 H     1 <1>   0.0800 
 33 H       -1.1030    -4.2900     0.9060 H     1 <1>   0.0800 
 34 H        0.6130    -5.8460     2.1890 H     1 <1>   0.0800 
 35 H        2.2320    -5.9380     1.5710 H     1 <1>   0.0800 
 36 H       -0.1690    -5.5440    -1.6810 H     1 <1>   0.0800 
 37 H       -1.8270    -5.4400    -1.1340 H     1 <1>   0.0800 
 38 H        0.9210    -7.9150     0.9060 H     1 <1>   0.0800 
 39 H        1.4410    -6.9890    -0.4840 H     1 <1>   0.0800 
 40 H       -1.2190    -6.7840     0.7830 H     1 <1>   0.4500 
 41 H       -0.4340    -8.0380    -1.7850 H     1 <1>   0.0800 
 42 H       -2.0760    -7.8760    -1.1950 H     1 <1>   0.0800 
 43 H       -0.9390    -8.9030    -0.3480 H     1 <1>   0.0800 
@<TRIPOS>BOND
  1   1   2  2   
  2   2   3  am  
  3   2   4  1   
  4   3   5  1   
  5   3  21  1   
  6   4   6  ar  
  7   4   7  ar  
  8   5  22  1   
  9   5  23  1   
 10   5  24  1   
 11   6   8  ar  
 12   6   9  1   
 13   7  10  ar  
 14   7  25  1   
 15   8  11  ar  
 16   9  12  1   
 17   9  26  1   
 18  10  11  ar  
 19  10  27  1   
 20  11  28  1   
 21  12  13  1   
 22  12  29  1   
 23  12  30  1   
 24  13  14  1   
 25  13  15  1   
 26  13  16  1   
 27  14  31  1   
 28  15  17  1   
 29  15  32  1   
 30  15  33  1   
 31  16  18  1   
 32  16  34  1   
 33  16  35  1   
 34  17  19  1   
 35  17  36  1   
 36  17  37  1   
 37  18  19  1   
 38  18  38  1   
 39  18  39  1   
 40  19  20  1   
 41  19  40  1   
 42  20  41  1   
 43  20  42  1   
 44  20  43  1   
@<TRIPOS>SUBSTRUCTURE
  1 ****   9 GROUP 4 **** **** 0

# MOE 2024.06 (io_trps.svl 2023.06)
