@<TRIPOS>MOLECULE
NONAME
55 57 1 0 0 
SMALL
USER_CHARGES


@<TRIPOS>ATOM
  1 O       -1.3540     0.8870    -1.7930 O.2   1 <1>  -0.5700 
  2 C       -2.3250     1.0710    -1.0970 C.2   1 <1>   0.5690 
  3 N       -3.4200     0.2400    -1.1750 N.am  1 <1>  -0.6600 
  4 C       -2.3030     2.2640    -0.1270 C.3   1 <1>  -0.0190 
  5 C       -3.3440    -1.0490    -1.9210 C.3   1 <1>   0.1400 
  6 C       -4.7450     0.4680    -0.5310 C.3   1 <1>   0.1400 
  7 C       -2.9100     3.5250    -0.7730 C.3   1 <1>  -0.1600 
  8 C       -0.8930     2.5820     0.4340 C.3   1 <1>  -0.1600 
  9 C       -3.6100    -2.2070    -0.9550 C.3   1 <1>  -0.1600 
 10 C       -5.0140    -0.6530     0.4710 C.3   1 <1>  -0.1600 
 11 C       -3.0970     4.6670     0.2490 C.3   1 <1>   0.2000 
 12 C       -0.7760     3.9850     1.0670 C.3   1 <1>  -0.1600 
 13 C       -4.9430    -2.0130    -0.2260 C.3   1 <1>   0.2000 
 14 O       -2.8640     5.8910    -0.4040 O.3   1 <1>  -0.5600 
 15 C       -2.1420     4.5500     1.4660 C.3   1 <1>   0.2000 
 16 O       -5.0650    -3.0120     0.7600 O.3   1 <1>  -0.3630 
 17 C       -3.9150     6.3560    -1.1930 C.3   1 <1>   0.0400 
 18 O       -1.9470     5.8020     2.0110 O.3   1 <1>  -0.6800 
 19 C       -5.8530    -4.0800     0.4790 C.ar  1 <1>   0.0820 
 20 C       -7.2310    -3.9610     0.2620 C.ar  1 <1>   0.0820 
 21 C       -5.2420    -5.3220     0.4320 C.ar  1 <1>  -0.1500 
 22 O       -7.8070    -2.7260     0.3520 O.3   1 <1>  -0.3620 
 23 C       -7.9660    -5.1080    -0.0270 C.ar  1 <1>  -0.1500 
 24 C       -5.9850    -6.4540     0.1480 C.ar  1 <1>  -0.1500 
 25 C       -9.2070    -2.5790     0.4380 C.3   1 <1>   0.0400 
 26 C       -7.3450    -6.3450    -0.0840 C.ar  1 <1>  -0.1500 
 27 H       -2.9030     1.9940     0.7220 H     1 <1>   0.0800 
 28 H       -4.0780    -1.0460    -2.7080 H     1 <1>   0.0800 
 29 H       -2.3750    -1.1770    -2.3720 H     1 <1>   0.0800 
 30 H       -4.7940     1.4200    -0.0370 H     1 <1>   0.0800 
 31 H       -5.5060     0.4600    -1.2930 H     1 <1>   0.0800 
 32 H       -3.8590     3.2890    -1.2180 H     1 <1>   0.0800 
 33 H       -2.2440     3.8460    -1.5570 H     1 <1>   0.0800 
 34 H       -0.6400     1.8330     1.1650 H     1 <1>   0.0800 
 35 H       -0.1570     2.5170    -0.3500 H     1 <1>   0.0800 
 36 H       -2.8070    -2.2520    -0.2410 H     1 <1>   0.0800 
 37 H       -3.6320    -3.1300    -1.5050 H     1 <1>   0.0800 
 38 H       -5.9930    -0.5270     0.8970 H     1 <1>   0.0800 
 39 H       -4.2850    -0.6080     1.2600 H     1 <1>   0.0800 
 40 H       -4.1060     4.6650     0.6260 H     1 <1>   0.0800 
 41 H       -0.3330     4.6510     0.3460 H     1 <1>   0.0800 
 42 H       -0.1320     3.9410     1.9270 H     1 <1>   0.0800 
 43 H       -5.7530    -2.1020    -0.9300 H     1 <1>   0.0800 
 44 H       -2.5780     3.9250     2.2260 H     1 <1>   0.0800 
 45 H       -3.6200     7.2990    -1.6180 H     1 <1>   0.0800 
 46 H       -4.7880     6.4940    -0.5790 H     1 <1>   0.0800 
 47 H       -4.1120     5.6530    -1.9830 H     1 <1>   0.0800 
 48 H       -1.9780     6.4310     1.2540 H     1 <1>   0.4000 
 49 H       -4.1860    -5.3950     0.6170 H     1 <1>   0.1500 
 50 H       -9.0220    -5.0620    -0.2120 H     1 <1>   0.1500 
 51 H       -5.5060    -7.4170     0.1100 H     1 <1>   0.1500 
 52 H       -9.4230    -1.5420     0.6210 H     1 <1>   0.0800 
 53 H       -9.5710    -3.1780     1.2540 H     1 <1>   0.0800 
 54 H       -9.6490    -2.8850    -0.4930 H     1 <1>   0.0800 
 55 H       -7.9220    -7.2260    -0.3070 H     1 <1>   0.1500 
@<TRIPOS>BOND
  1   1   2  2   
  2   2   3  am  
  3   2   4  1   
  4   3   5  1   
  5   3   6  1   
  6   4   7  1   
  7   4   8  1   
  8   4  27  1   
  9   5   9  1   
 10   5  28  1   
 11   5  29  1   
 12   6  10  1   
 13   6  30  1   
 14   6  31  1   
 15   7  11  1   
 16   7  32  1   
 17   7  33  1   
 18   8  12  1   
 19   8  34  1   
 20   8  35  1   
 21   9  13  1   
 22   9  36  1   
 23   9  37  1   
 24  10  13  1   
 25  10  38  1   
 26  10  39  1   
 27  11  14  1   
 28  11  15  1   
 29  11  40  1   
 30  12  15  1   
 31  12  41  1   
 32  12  42  1   
 33  13  16  1   
 34  13  43  1   
 35  14  17  1   
 36  15  18  1   
 37  15  44  1   
 38  16  19  1   
 39  17  45  1   
 40  17  46  1   
 41  17  47  1   
 42  18  48  1   
 43  19  20  ar  
 44  19  21  ar  
 45  20  22  1   
 46  20  23  ar  
 47  21  24  ar  
 48  21  49  1   
 49  22  25  1   
 50  23  26  ar  
 51  23  50  1   
 52  24  26  ar  
 53  24  51  1   
 54  25  52  1   
 55  25  53  1   
 56  25  54  1   
 57  26  55  1   
@<TRIPOS>SUBSTRUCTURE
  1 ****   6 GROUP 4 **** **** 0

# MOE 2024.06 (io_trps.svl 2023.06)
