@<TRIPOS>MOLECULE
NONAME
50 52 1 0 0 
SMALL
USER_CHARGES


@<TRIPOS>ATOM
  1 O        0.7730     1.4230    -2.4590 O.2   1 <1>  -0.5700 
  2 C        1.1180     0.5620    -1.6890 C.2   1 <1>   0.5690 
  3 N        1.8620     0.8550    -0.5710 N.am  1 <1>  -0.6600 
  4 C        0.7700    -0.8740    -2.0420 C.3   1 <1>  -0.0990 
  5 C        2.3570    -0.1450     0.4250 C.3   1 <1>   0.1400 
  6 C        2.3520     2.2380    -0.3360 C.3   1 <1>   0.1400 
  7 C       -0.4170    -1.4370    -1.2350 C.3   1 <1>  -0.1600 
  8 C        3.7570    -0.6780     0.0690 C.3   1 <1>   0.3430 
  9 C        3.6740     2.4680    -1.0800 C.3   1 <1>  -0.1600 
 10 C       -0.3490    -2.9670    -1.0790 C.3   1 <1>   0.0960 
 11 N        4.7680     0.4080    -0.1800 N.4   1 <1>  -0.9590 
 12 C        4.4830     1.2100    -1.4080 C.3   1 <1>   0.3430 
 13 N        0.6770    -3.3740    -0.0870 N.pl3 1 <1>   0.3140 
 14 C        6.1540    -0.1280    -0.2050 C.3   1 <1>   0.5230 
 15 N        1.9780    -3.4970    -0.3530 N.2   1 <1>  -0.7070 
 16 C        0.4840    -3.6700     1.2020 C.2   1 <1>   0.0360 
 17 C        7.0970     1.0410    -0.0110 C.2   1 <1>  -0.0400 
 18 C        2.4550    -3.9060     0.7780 C.2   1 <1>   0.3660 
 19 N        1.5810    -3.9960     1.7830 N.2   1 <1>  -0.5650 
 20 O        6.8630     1.8660     0.9940 O.3   1 <1>  -0.2800 
 21 C        8.1820     1.4400    -0.7090 C.2   1 <1>  -0.1500 
 22 C        7.7900     2.8010     0.9660 C.2   1 <1>  -0.0400 
 23 C        8.6380     2.5970    -0.0650 C.2   1 <1>  -0.1500 
 24 C        7.7720     3.8860     2.0220 C.3   1 <1>  -0.0600 
 25 H        1.6520    -1.4690    -1.9170 H     1 <1>   0.0800 
 26 H        0.5260    -0.9170    -3.0890 H     1 <1>   0.0800 
 27 H        1.6750    -0.9690     0.4930 H     1 <1>   0.0800 
 28 H        2.3840     0.3040     1.4030 H     1 <1>   0.0800 
 29 H        2.4880     2.4000     0.7200 H     1 <1>   0.0800 
 30 H        1.6150     2.9500    -0.6740 H     1 <1>   0.0800 
 31 H       -1.3240    -1.1760    -1.7530 H     1 <1>   0.0800 
 32 H       -0.4740    -0.9810    -0.2610 H     1 <1>   0.0800 
 33 H        3.6730    -1.3060    -0.8030 H     1 <1>   0.0800 
 34 H        4.0890    -1.3020     0.8830 H     1 <1>   0.0800 
 35 H        4.2820     3.1630    -0.5280 H     1 <1>   0.0800 
 36 H        3.4370     2.9480    -2.0140 H     1 <1>   0.0800 
 37 H       -0.1200    -3.4320    -2.0210 H     1 <1>   0.0800 
 38 H       -1.3010    -3.3390    -0.7460 H     1 <1>   0.0800 
 39 H        4.7750     1.0720     0.6080 H     1 <1>   0.4500 
 40 H        5.4070     1.5180    -1.8720 H     1 <1>   0.0800 
 41 H        3.9380     0.6100    -2.1190 H     1 <1>   0.0800 
 42 H        6.3570    -0.6300    -1.1360 H     1 <1>   0.0800 
 43 H        6.2960    -0.8210     0.6070 H     1 <1>   0.0800 
 44 H       -0.4820    -3.6370     1.6760 H     1 <1>   0.1500 
 45 H        3.4920    -4.1620     0.9330 H     1 <1>   0.1500 
 46 H        8.6450     1.0030    -1.5780 H     1 <1>   0.1500 
 47 H        9.4950     3.1790    -0.3560 H     1 <1>   0.1500 
 48 H        6.8470     4.4320     1.9720 H     1 <1>   0.0800 
 49 H        8.5880     4.5680     1.8680 H     1 <1>   0.0800 
 50 H        7.8670     3.4460     2.9980 H     1 <1>   0.0800 
@<TRIPOS>BOND
  1   1   2  2   
  2   2   3  am  
  3   2   4  1   
  4   3   5  1   
  5   3   6  1   
  6   4   7  1   
  7   4  25  1   
  8   4  26  1   
  9   5   8  1   
 10   5  27  1   
 11   5  28  1   
 12   6   9  1   
 13   6  29  1   
 14   6  30  1   
 15   7  10  1   
 16   7  31  1   
 17   7  32  1   
 18   8  11  1   
 19   8  33  1   
 20   8  34  1   
 21   9  12  1   
 22   9  35  1   
 23   9  36  1   
 24  10  13  1   
 25  10  37  1   
 26  10  38  1   
 27  11  12  1   
 28  11  14  1   
 29  11  39  1   
 30  12  40  1   
 31  12  41  1   
 32  13  15  1   
 33  13  16  1   
 34  14  17  1   
 35  14  42  1   
 36  14  43  1   
 37  15  18  2   
 38  16  19  2   
 39  16  44  1   
 40  17  20  1   
 41  17  21  2   
 42  18  19  1   
 43  18  45  1   
 44  20  22  1   
 45  21  23  1   
 46  21  46  1   
 47  22  23  2   
 48  22  24  1   
 49  23  47  1   
 50  24  48  1   
 51  24  49  1   
 52  24  50  1   
@<TRIPOS>SUBSTRUCTURE
  1 ****   8 GROUP 4 **** **** 0

# MOE 2024.06 (io_trps.svl 2023.06)
