@<TRIPOS>MOLECULE
NONAME
44 45 1 0 0 
SMALL
USER_CHARGES


@<TRIPOS>ATOM
  1 CL      -2.2780    -1.4720    -1.0610 Cl    1 <1>  -0.1770 
  2 C       -2.2270     0.0500    -0.1900 C.ar  1 <1>   0.1770 
  3 C       -2.7210     0.1070     1.1150 C.ar  1 <1>   0.0860 
  4 C       -1.6930     1.1620    -0.8270 C.ar  1 <1>  -0.1440 
  5 C       -3.3000    -1.0440     1.7710 C.2   1 <1>   0.5440 
  6 C       -2.6370     1.3290     1.7790 C.ar  1 <1>  -0.1500 
  7 C       -1.6420     2.3650    -0.1410 C.ar  1 <1>  -0.1500 
  8 C       -1.1580     1.0830    -2.2510 C.3   1 <1>  -0.0960 
  9 O       -2.8080    -1.4490     2.8040 O.2   1 <1>  -0.5700 
 10 N       -4.4160    -1.6920     1.2840 N.am  1 <1>  -0.6600 
 11 C       -2.1090     2.4460     1.1590 C.ar  1 <1>  -0.1500 
 12 C       -4.6360    -3.1180     1.6820 C.3   1 <1>   0.3200 
 13 C       -5.3410    -1.0630     0.2810 C.3   1 <1>   0.1400 
 14 C       -5.1180    -3.9060     0.4810 C.2   1 <1>  -0.3320 
 15 C       -6.8220    -1.1940     0.6850 C.3   1 <1>   0.3430 
 16 N       -4.3700    -4.1040    -0.6230 N.pl3 1 <1>   0.0330 
 17 C       -6.3010    -4.5170     0.2580 C.2   1 <1>   0.0770 
 18 N       -7.7610    -0.9840    -0.4710 N.4   1 <1>  -0.9590 
 19 C       -5.1730    -4.7840    -1.4670 C.2   1 <1>   0.0360 
 20 N       -6.3480    -5.0310    -0.9830 N.2   1 <1>  -0.5650 
 21 C       -9.1570    -0.7810     0.0230 C.3   1 <1>   0.2630 
 22 C       -7.7300    -2.1440    -1.4270 C.3   1 <1>   0.2630 
 23 H       -2.9860     1.3970     2.7960 H     1 <1>   0.1500 
 24 H       -1.2310     3.2440    -0.6090 H     1 <1>   0.1500 
 25 H       -0.3550     0.3680    -2.3030 H     1 <1>   0.0800 
 26 H       -0.7810     2.0360    -2.5770 H     1 <1>   0.0800 
 27 H       -1.9380     0.7780    -2.9260 H     1 <1>   0.0800 
 28 H       -2.0540     3.3830     1.6900 H     1 <1>   0.1500 
 29 H       -5.3610    -3.1590     2.4770 H     1 <1>   0.0800 
 30 H       -3.7210    -3.5550     2.0490 H     1 <1>   0.0800 
 31 H       -5.1730    -1.5300    -0.6720 H     1 <1>   0.0800 
 32 H       -5.1120    -0.0170     0.1790 H     1 <1>   0.0800 
 33 H       -7.0260    -0.4690     1.4570 H     1 <1>   0.0800 
 34 H       -6.9910    -2.1740     1.0960 H     1 <1>   0.0800 
 35 H       -3.4030    -3.7980    -0.7870 H     1 <1>   0.2700 
 36 H       -7.1410    -4.6090     0.9280 H     1 <1>   0.1500 
 37 H       -7.4750    -0.1330    -0.9800 H     1 <1>   0.4500 
 38 H       -4.8440    -5.0860    -2.4480 H     1 <1>   0.1500 
 39 H       -9.4970    -1.6540     0.5560 H     1 <1>   0.0800 
 40 H       -9.8250    -0.6030    -0.8050 H     1 <1>   0.0800 
 41 H       -9.2020     0.0680     0.6870 H     1 <1>   0.0800 
 42 H       -8.0730    -3.0440    -0.9410 H     1 <1>   0.0800 
 43 H       -6.7290    -2.3210    -1.7870 H     1 <1>   0.0800 
 44 H       -8.3680    -1.9520    -2.2750 H     1 <1>   0.0800 
@<TRIPOS>BOND
  1   1   2  1   
  2   2   3  ar  
  3   2   4  ar  
  4   3   5  1   
  5   3   6  ar  
  6   4   7  ar  
  7   4   8  1   
  8   5   9  2   
  9   5  10  am  
 10   6  11  ar  
 11   6  23  1   
 12   7  11  ar  
 13   7  24  1   
 14   8  25  1   
 15   8  26  1   
 16   8  27  1   
 17  10  12  1   
 18  10  13  1   
 19  11  28  1   
 20  12  14  1   
 21  12  29  1   
 22  12  30  1   
 23  13  15  1   
 24  13  31  1   
 25  13  32  1   
 26  14  16  1   
 27  14  17  2   
 28  15  18  1   
 29  15  33  1   
 30  15  34  1   
 31  16  19  1   
 32  16  35  1   
 33  17  20  1   
 34  17  36  1   
 35  18  21  1   
 36  18  22  1   
 37  18  37  1   
 38  19  20  2   
 39  19  38  1   
 40  21  39  1   
 41  21  40  1   
 42  21  41  1   
 43  22  42  1   
 44  22  43  1   
 45  22  44  1   
@<TRIPOS>SUBSTRUCTURE
  1 ****  13 GROUP 4 **** **** 0

# MOE 2024.06 (io_trps.svl 2023.06)
