@<TRIPOS>MOLECULE
NONAME
55 57 1 0 0 
SMALL
USER_CHARGES


@<TRIPOS>ATOM
  1 O        2.6060    -0.7440    -1.9750 O.2   1 <1>  -0.5700 
  2 C        2.0230    -0.8800    -0.9300 C.2   1 <1>   0.5690 
  3 N        1.5160     0.1760    -0.2410 N.am  1 <1>  -0.7300 
  4 C        1.8610    -2.2720    -0.3610 C.3   1 <1>  -0.0990 
  5 C        1.3740     1.5850    -0.7210 C.3   1 <1>   0.1400 
  6 C        0.4250    -2.7990    -0.5190 C.3   1 <1>   0.2070 
  7 C        2.6780     2.2830    -1.2090 C.3   1 <1>   0.2800 
  8 C       -0.5550    -1.8980     0.2360 C.ar  1 <1>  -0.1440 
  9 C        0.2410    -4.2580    -0.0820 C.ar  1 <1>  -0.1440 
 10 O        2.9750     1.8180    -2.4630 O.3   1 <1>  -0.6800 
 11 C        2.4830     3.7960    -1.3680 C.3   1 <1>  -0.1600 
 12 C        3.9090     2.0120    -0.3350 C.3   1 <1>  -0.1600 
 13 C       -1.4040    -1.0480    -0.4610 C.ar  1 <1>  -0.1500 
 14 C       -0.5940    -1.9000     1.6230 C.ar  1 <1>  -0.1500 
 15 C        1.1840    -4.9720     0.6500 C.ar  1 <1>  -0.1500 
 16 C       -0.9410    -4.8940    -0.4390 C.ar  1 <1>  -0.1500 
 17 C        2.4200     4.5080    -0.0190 C.3   1 <1>   0.3430 
 18 C        3.7890     2.7130     1.0100 C.3   1 <1>   0.3430 
 19 C       -2.2660    -0.2050     0.2180 C.ar  1 <1>  -0.1500 
 20 C       -1.4560    -1.0570     2.3030 C.ar  1 <1>  -0.1500 
 21 C        0.9490    -6.2890     1.0090 C.ar  1 <1>  -0.1500 
 22 C       -1.1770    -6.2090    -0.0810 C.ar  1 <1>  -0.1500 
 23 N        3.6320     4.1810     0.7890 N.4   1 <1>  -0.9590 
 24 C       -2.2910    -0.2070     1.6010 C.ar  1 <1>  -0.1500 
 25 C       -0.2310    -6.9090     0.6440 C.ar  1 <1>  -0.1500 
 26 C        3.6330     4.9240     2.0860 C.3   1 <1>   0.2630 
 27 H        0.8320    -0.0800     0.4850 H     1 <1>   0.3700 
 28 H        2.1390    -2.2520     0.6750 H     1 <1>   0.0800 
 29 H        2.5350    -2.9300    -0.8790 H     1 <1>   0.0800 
 30 H        0.9610     2.1520     0.0940 H     1 <1>   0.0800 
 31 H        0.6480     1.6080    -1.5170 H     1 <1>   0.0800 
 32 H        0.1910    -2.7590    -1.5690 H     1 <1>   0.0800 
 33 H        2.9250     0.8210    -2.4530 H     1 <1>   0.4000 
 34 H        1.5750     3.9880    -1.9120 H     1 <1>   0.0800 
 35 H        3.2970     4.2100    -1.9380 H     1 <1>   0.0800 
 36 H        4.7960     2.3630    -0.8340 H     1 <1>   0.0800 
 37 H        4.0320     0.9570    -0.1720 H     1 <1>   0.0800 
 38 H       -1.3980    -1.0350    -1.5380 H     1 <1>   0.1500 
 39 H        0.0400    -2.5680     2.1820 H     1 <1>   0.1500 
 40 H        2.1130    -4.5290     0.9560 H     1 <1>   0.1500 
 41 H       -1.6920    -4.3620    -0.9970 H     1 <1>   0.1500 
 42 H        1.5340     4.2020     0.5130 H     1 <1>   0.0800 
 43 H        2.3630     5.5730    -0.1820 H     1 <1>   0.0800 
 44 H        4.6760     2.5200     1.5930 H     1 <1>   0.0800 
 45 H        2.9390     2.3250     1.5480 H     1 <1>   0.0800 
 46 H       -2.9250     0.4470    -0.3300 H     1 <1>   0.1500 
 47 H       -1.4840    -1.0710     3.3790 H     1 <1>   0.1500 
 48 H        1.6860    -6.8320     1.5740 H     1 <1>   0.1500 
 49 H       -2.0990    -6.6860    -0.3650 H     1 <1>   0.1500 
 50 H        4.4500     4.4890     0.2390 H     1 <1>   0.4500 
 51 H       -2.9670     0.4430     2.1300 H     1 <1>   0.1500 
 52 H       -0.4130    -7.9320     0.9230 H     1 <1>   0.1500 
 53 H        2.7910     4.6270     2.6890 H     1 <1>   0.0800 
 54 H        3.5740     5.9860     1.9090 H     1 <1>   0.0800 
 55 H        4.5390     4.7190     2.6340 H     1 <1>   0.0800 
@<TRIPOS>BOND
  1   1   2  2   
  2   2   3  am  
  3   2   4  1   
  4   3   5  1   
  5   3  27  1   
  6   4   6  1   
  7   4  28  1   
  8   4  29  1   
  9   5   7  1   
 10   5  30  1   
 11   5  31  1   
 12   6   8  1   
 13   6   9  1   
 14   6  32  1   
 15   7  10  1   
 16   7  11  1   
 17   7  12  1   
 18   8  13  ar  
 19   8  14  ar  
 20   9  15  ar  
 21   9  16  ar  
 22  10  33  1   
 23  11  17  1   
 24  11  34  1   
 25  11  35  1   
 26  12  18  1   
 27  12  36  1   
 28  12  37  1   
 29  13  19  ar  
 30  13  38  1   
 31  14  20  ar  
 32  14  39  1   
 33  15  21  ar  
 34  15  40  1   
 35  16  22  ar  
 36  16  41  1   
 37  17  23  1   
 38  17  42  1   
 39  17  43  1   
 40  18  23  1   
 41  18  44  1   
 42  18  45  1   
 43  19  24  ar  
 44  19  46  1   
 45  20  24  ar  
 46  20  47  1   
 47  21  25  ar  
 48  21  48  1   
 49  22  25  ar  
 50  22  49  1   
 51  23  26  1   
 52  23  50  1   
 53  24  51  1   
 54  25  52  1   
 55  26  53  1   
 56  26  54  1   
 57  26  55  1   
@<TRIPOS>SUBSTRUCTURE
  1 ****   3 GROUP 4 **** **** 0

# MOE 2024.06 (io_trps.svl 2023.06)
