@<TRIPOS>MOLECULE
NONAME
44 46 1 0 0 
SMALL
USER_CHARGES


@<TRIPOS>ATOM
  1 S       -0.7150    -0.6700     0.8950 S.3   1 <1>  -0.0800 
  2 C       -1.4880    -1.2740    -0.5360 C.2   1 <1>   0.4420 
  3 C       -0.6740     0.8780     0.1270 C.2   1 <1>   0.1980 
  4 N       -1.6500    -0.3570    -1.4190 N.2   1 <1>  -0.3380 
  5 N       -1.8210    -2.6110    -0.5450 N.am  1 <1>  -0.4940 
  6 N       -1.1840     0.8680    -1.0350 N.2   1 <1>  -0.3380 
  7 C       -0.0660     2.0460     0.8700 C.3   1 <1>   0.0200 
  8 C       -2.4730    -3.3310    -1.5040 C.2   1 <1>   0.5690 
  9 C       -0.1340     3.2880    -0.0260 C.3   1 <1>   0.3430 
 10 O       -2.8940    -2.8680    -2.5310 O.2   1 <1>  -0.5700 
 11 C       -2.7080    -4.7960    -1.2460 C.3   1 <1>  -0.0990 
 12 N        0.5120     4.4960     0.5900 N.4   1 <1>  -0.9590 
 13 C       -4.0620    -4.9960    -0.5770 C.3   1 <1>   0.3640 
 14 C       -0.2510     5.0180     1.7700 C.3   1 <1>   0.2630 
 15 C        0.6460     5.5700    -0.4440 C.3   1 <1>   0.2630 
 16 N       -4.0840    -4.3150     0.7380 N.am  1 <1>  -0.7300 
 17 C       -4.2660    -6.4490    -0.1610 C.ar  1 <1>  -0.1440 
 18 C       -4.3050    -5.1900     1.7430 C.2   1 <1>   0.5440 
 19 C       -4.3920    -6.5190     1.2150 C.ar  1 <1>   0.0860 
 20 C       -4.3280    -7.5870    -0.9440 C.ar  1 <1>  -0.1500 
 21 O       -4.4330    -4.8290     2.8920 O.2   1 <1>  -0.5700 
 22 C       -4.5780    -7.7510     1.8300 C.ar  1 <1>  -0.1500 
 23 C       -4.5140    -8.8150    -0.3270 C.ar  1 <1>  -0.1500 
 24 C       -4.6370    -8.8960     1.0540 C.ar  1 <1>  -0.1500 
 25 H       -1.6040    -3.1180     0.3100 H     1 <1>   0.3700 
 26 H        0.9570     1.8110     1.1040 H     1 <1>   0.0800 
 27 H       -0.6200     2.1990     1.7780 H     1 <1>   0.0800 
 28 H       -1.1660     3.5000    -0.2560 H     1 <1>   0.0800 
 29 H        0.3600     3.0550    -0.9570 H     1 <1>   0.0800 
 30 H       -1.9250    -5.2040    -0.6340 H     1 <1>   0.0800 
 31 H       -2.6980    -5.3160    -2.1860 H     1 <1>   0.0800 
 32 H        1.4640     4.2400     0.8960 H     1 <1>   0.4500 
 33 H       -4.8720    -4.6480    -1.1980 H     1 <1>   0.0800 
 34 H       -1.2560     5.2810     1.4810 H     1 <1>   0.0800 
 35 H        0.2320     5.8960     2.1680 H     1 <1>   0.0800 
 36 H       -0.2990     4.2750     2.5490 H     1 <1>   0.0800 
 37 H       -0.3260     5.8710    -0.8020 H     1 <1>   0.0800 
 38 H        1.2250     5.2150    -1.2820 H     1 <1>   0.0800 
 39 H        1.1410     6.4330    -0.0280 H     1 <1>   0.0800 
 40 H       -4.4120    -3.3510     0.8300 H     1 <1>   0.3700 
 41 H       -4.2350    -7.5300    -2.0160 H     1 <1>   0.1500 
 42 H       -4.6760    -7.7970     2.9010 H     1 <1>   0.1500 
 43 H       -4.5650    -9.7120    -0.9200 H     1 <1>   0.1500 
 44 H       -4.7820    -9.8550     1.5230 H     1 <1>   0.1500 
@<TRIPOS>BOND
  1   1   2  1   
  2   1   3  1   
  3   2   4  2   
  4   2   5  1   
  5   3   6  2   
  6   3   7  1   
  7   4   6  1   
  8   5   8  am  
  9   5  25  1   
 10   7   9  1   
 11   7  26  1   
 12   7  27  1   
 13   8  10  2   
 14   8  11  1   
 15   9  12  1   
 16   9  28  1   
 17   9  29  1   
 18  11  13  1   
 19  11  30  1   
 20  11  31  1   
 21  12  14  1   
 22  12  15  1   
 23  12  32  1   
 24  13  16  1   
 25  13  17  1   
 26  13  33  1   
 27  14  34  1   
 28  14  35  1   
 29  14  36  1   
 30  15  37  1   
 31  15  38  1   
 32  15  39  1   
 33  16  18  am  
 34  16  40  1   
 35  17  19  ar  
 36  17  20  ar  
 37  18  19  1   
 38  18  21  2   
 39  19  22  ar  
 40  20  23  ar  
 41  20  41  1   
 42  22  24  ar  
 43  22  42  1   
 44  23  24  ar  
 45  23  43  1   
 46  24  44  1   
@<TRIPOS>SUBSTRUCTURE
  1 ****   5 GROUP 4 **** **** 0

# MOE 2024.06 (io_trps.svl 2023.06)
