@<TRIPOS>MOLECULE
NONAME
50 52 1 0 0 
SMALL
USER_CHARGES


@<TRIPOS>ATOM
  1 F       -1.2440     0.4870     2.1040 F     1 <1>  -0.3400 
  2 C       -0.8190    -0.7260     1.7710 C.3   1 <1>   1.1640 
  3 F       -0.5590    -1.3530     2.9120 F     1 <1>  -0.3400 
  4 F        0.3460    -0.5610     1.1590 F     1 <1>  -0.3400 
  5 C       -1.8260    -1.4910     0.8930 C.ar  1 <1>  -0.1440 
  6 C       -2.7230    -0.8130     0.0750 C.ar  1 <1>  -0.1500 
  7 C       -1.8520    -2.8820     0.8920 C.ar  1 <1>  -0.1500 
  8 C       -3.6260    -1.5040    -0.7140 C.ar  1 <1>  -0.1500 
  9 C       -2.7540    -3.5750     0.1040 C.ar  1 <1>  -0.1500 
 10 C       -3.6500    -2.8900    -0.7010 C.ar  1 <1>  -0.1430 
 11 C       -4.6520    -3.6490    -1.5520 C.3   1 <1>   0.4870 
 12 N       -6.0120    -3.4070    -1.0110 N.4   1 <1>  -0.9590 
 13 C       -6.1810    -3.8540     0.4020 C.3   1 <1>   0.3430 
 14 C       -7.1110    -3.8860    -1.8790 C.3   1 <1>   0.3430 
 15 C       -7.6240    -3.6350     0.8750 C.3   1 <1>  -0.1600 
 16 C       -8.4190    -3.2010    -1.4660 C.3   1 <1>  -0.1600 
 17 C       -8.4230    -2.6650    -0.0140 C.3   1 <1>   0.2800 
 18 O       -7.6790    -1.4590    -0.0510 O.3   1 <1>  -0.5600 
 19 C       -9.8560    -2.4530     0.5640 C.3   1 <1>   0.2000 
 20 C       -8.2840    -0.2700     0.3820 C.3   1 <1>   0.1200 
 21 O      -10.6220    -3.6190     0.4720 O.3   1 <1>  -0.6800 
 22 C      -10.5970    -1.2190    -0.0310 C.3   1 <1>   0.2800 
 23 C       -9.6090    -0.0850    -0.3590 C.3   1 <1>  -0.1600 
 24 O      -11.4410    -0.7600     0.9590 O.3   1 <1>  -0.6800 
 25 C      -11.5060    -1.5080    -1.2350 C.3   1 <1>  -0.2400 
 26 H       -2.7230     0.2660     0.0460 H     1 <1>   0.1500 
 27 H       -1.1610    -3.4360     1.5090 H     1 <1>   0.1500 
 28 H       -4.3030    -0.9430    -1.3370 H     1 <1>   0.1500 
 29 H       -2.7420    -4.6520     0.1280 H     1 <1>   0.1500 
 30 H       -4.4280    -4.7020    -1.5380 H     1 <1>   0.0800 
 31 H       -4.5900    -3.2970    -2.5690 H     1 <1>   0.0800 
 32 H       -6.1500    -2.3810    -0.9440 H     1 <1>   0.4500 
 33 H       -5.9220    -4.8950     0.5010 H     1 <1>   0.0800 
 34 H       -5.5180    -3.2810     1.0310 H     1 <1>   0.0800 
 35 H       -6.9040    -3.6650    -2.9140 H     1 <1>   0.0800 
 36 H       -7.2130    -4.9550    -1.7720 H     1 <1>   0.0800 
 37 H       -7.6120    -3.2820     1.8900 H     1 <1>   0.0800 
 38 H       -8.1250    -4.5880     0.8890 H     1 <1>   0.0800 
 39 H       -9.2030    -3.9250    -1.5950 H     1 <1>   0.0800 
 40 H       -8.6270    -2.3960    -2.1460 H     1 <1>   0.0800 
 41 H       -9.7340    -2.2720     1.6180 H     1 <1>   0.0800 
 42 H       -8.4300    -0.3170     1.4490 H     1 <1>   0.0800 
 43 H       -7.6110     0.5420     0.1620 H     1 <1>   0.0800 
 44 H      -11.5000    -3.4420     0.8700 H     1 <1>   0.4000 
 45 H       -9.3900    -0.0740    -1.4110 H     1 <1>   0.0800 
 46 H      -10.0330     0.8730    -0.1140 H     1 <1>   0.0800 
 47 H      -12.0120    -0.0510     0.6070 H     1 <1>   0.4000 
 48 H      -10.9410    -1.9370    -2.0400 H     1 <1>   0.0800 
 49 H      -11.9580    -0.6010    -1.5950 H     1 <1>   0.0800 
 50 H      -12.2840    -2.2020    -0.9710 H     1 <1>   0.0800 
@<TRIPOS>BOND
  1   1   2  1   
  2   2   3  1   
  3   2   4  1   
  4   2   5  1   
  5   5   6  ar  
  6   5   7  ar  
  7   6   8  ar  
  8   6  26  1   
  9   7   9  ar  
 10   7  27  1   
 11   8  10  ar  
 12   8  28  1   
 13   9  10  ar  
 14   9  29  1   
 15  10  11  1   
 16  11  12  1   
 17  11  30  1   
 18  11  31  1   
 19  12  13  1   
 20  12  14  1   
 21  12  32  1   
 22  13  15  1   
 23  13  33  1   
 24  13  34  1   
 25  14  16  1   
 26  14  35  1   
 27  14  36  1   
 28  15  17  1   
 29  15  37  1   
 30  15  38  1   
 31  16  17  1   
 32  16  39  1   
 33  16  40  1   
 34  17  18  1   
 35  17  19  1   
 36  18  20  1   
 37  19  21  1   
 38  19  22  1   
 39  19  41  1   
 40  20  23  1   
 41  20  42  1   
 42  20  43  1   
 43  21  44  1   
 44  22  23  1   
 45  22  24  1   
 46  22  25  1   
 47  23  45  1   
 48  23  46  1   
 49  24  47  1   
 50  25  48  1   
 51  25  49  1   
 52  25  50  1   
@<TRIPOS>SUBSTRUCTURE
  1 ****  12 GROUP 4 **** **** 0

# MOE 2024.06 (io_trps.svl 2023.06)
