@<TRIPOS>MOLECULE
NONAME
47 49 1 0 0 
SMALL
USER_CHARGES


@<TRIPOS>ATOM
  1 S        0.2380    -0.0570     1.0310 S.o2  1 <1>   1.3330 
  2 O       -0.7120    -1.1290     1.2180 O.2   1 <1>  -0.6500 
  3 O        1.1360     0.2990     2.1060 O.2   1 <1>  -0.6500 
  4 N        1.1770    -0.4330    -0.3340 N.am  1 <1>  -0.8490 
  5 C       -0.6420     1.4240     0.5280 C.3   1 <1>  -0.0550 
  6 C        2.4020    -1.1560     0.0210 C.3   1 <1>   0.1160 
  7 C        0.4380    -1.1820    -1.3570 C.3   1 <1>   0.1160 
  8 C        0.2710     2.5820     0.0690 C.3   1 <1>  -0.0800 
  9 C       -0.4820     3.7750    -0.5260 C.3   1 <1>   0.2000 
 10 C        1.1340     3.1930     1.1830 C.3   1 <1>   0.1400 
 11 O       -1.5700     4.0730     0.2800 O.3   1 <1>  -0.6800 
 12 C        0.5170     4.9250    -0.4210 C.3   1 <1>   0.1400 
 13 N        1.2900     4.6230     0.8100 N.am  1 <1>  -0.6600 
 14 C        2.2480     5.4410     1.3610 C.2   1 <1>   0.6160 
 15 O        2.9320     5.0100     2.2690 O.2   1 <1>  -0.5700 
 16 C        2.4420     6.7800     0.8760 C.2   1 <1>  -0.0140 
 17 C        3.6180     7.1120     0.1020 C.ar  1 <1>   0.0280 
 18 C        1.5160     7.7520     1.1280 C.2   1 <1>  -0.0410 
 19 C        3.7600     8.4240    -0.3940 C.ar  1 <1>   0.0860 
 20 C        4.6260     6.1820    -0.1830 C.ar  1 <1>  -0.1500 
 21 N        1.6640     9.0260     0.6450 N.am  1 <1>  -0.5390 
 22 C        2.7380     9.4020    -0.1060 C.2   1 <1>   0.5440 
 23 C        4.8880     8.7460    -1.1560 C.ar  1 <1>  -0.1500 
 24 C        5.7290     6.5220    -0.9360 C.ar  1 <1>  -0.1500 
 25 O        2.7700    10.5530    -0.4990 O.2   1 <1>  -0.5700 
 26 C        5.8620     7.8100    -1.4270 C.ar  1 <1>  -0.1500 
 27 H       -1.3010     1.1720    -0.2800 H     1 <1>   0.0800 
 28 H       -1.2550     1.7530     1.3450 H     1 <1>   0.0800 
 29 H        2.9790    -1.3720    -0.8610 H     1 <1>   0.0800 
 30 H        2.1590    -2.0790     0.5220 H     1 <1>   0.0800 
 31 H        3.0080    -0.5560     0.6800 H     1 <1>   0.0800 
 32 H        1.0510    -1.3160    -2.2320 H     1 <1>   0.0800 
 33 H       -0.4500    -0.6450    -1.6430 H     1 <1>   0.0800 
 34 H        0.1500    -2.1500    -0.9800 H     1 <1>   0.0800 
 35 H        0.9410     2.2140    -0.6900 H     1 <1>   0.0800 
 36 H       -0.8330     3.6070    -1.5300 H     1 <1>   0.0800 
 37 H        2.0930     2.7060     1.2520 H     1 <1>   0.0800 
 38 H        0.6410     3.1310     2.1380 H     1 <1>   0.0800 
 39 H       -1.2420     4.3690     1.1540 H     1 <1>   0.4000 
 40 H        0.0200     5.8780    -0.3670 H     1 <1>   0.0800 
 41 H        1.1840     4.9110    -1.2660 H     1 <1>   0.0800 
 42 H        0.6360     7.5430     1.7160 H     1 <1>   0.1500 
 43 H        4.5530     5.1760     0.1930 H     1 <1>   0.1500 
 44 H        0.9910     9.7750     0.8270 H     1 <1>   0.3700 
 45 H        4.9910     9.7490    -1.5340 H     1 <1>   0.1500 
 46 H        6.4910     5.7900    -1.1420 H     1 <1>   0.1500 
 47 H        6.7250     8.0750    -2.0140 H     1 <1>   0.1500 
@<TRIPOS>BOND
  1   1   2  2   
  2   1   3  2   
  3   1   4  am  
  4   1   5  1   
  5   4   6  1   
  6   4   7  1   
  7   5   8  1   
  8   5  27  1   
  9   5  28  1   
 10   6  29  1   
 11   6  30  1   
 12   6  31  1   
 13   7  32  1   
 14   7  33  1   
 15   7  34  1   
 16   8   9  1   
 17   8  10  1   
 18   8  35  1   
 19   9  11  1   
 20   9  12  1   
 21   9  36  1   
 22  10  13  1   
 23  10  37  1   
 24  10  38  1   
 25  11  39  1   
 26  12  13  1   
 27  12  40  1   
 28  12  41  1   
 29  13  14  am  
 30  14  15  2   
 31  14  16  1   
 32  16  17  1   
 33  16  18  2   
 34  17  19  ar  
 35  17  20  ar  
 36  18  21  1   
 37  18  42  1   
 38  19  22  1   
 39  19  23  ar  
 40  20  24  ar  
 41  20  43  1   
 42  21  22  am  
 43  21  44  1   
 44  22  25  2   
 45  23  26  ar  
 46  23  45  1   
 47  24  26  ar  
 48  24  46  1   
 49  26  47  1   
@<TRIPOS>SUBSTRUCTURE
  1 ****  13 GROUP 4 **** **** 0

# MOE 2024.06 (io_trps.svl 2023.06)
