@<TRIPOS>MOLECULE
NONAME
44 47 1 0 0 
SMALL
USER_CHARGES


@<TRIPOS>ATOM
  1 S        0.5510     0.7190    -1.3420 S.3   1 <1>  -0.0800 
  2 C        2.2250     1.0450    -1.7550 C.2   1 <1>  -0.1100 
  3 C        0.8650     1.0390     0.3540 C.2   1 <1>  -0.1100 
  4 C        2.9370     1.3700    -0.6590 C.2   1 <1>  -0.1810 
  5 C        2.1560     1.3650     0.5450 C.2   1 <1>  -0.1500 
  6 C        4.4170     1.7130    -0.6380 C.3   1 <1>   0.3210 
  7 N        5.1450     0.7730     0.2590 N.am  1 <1>  -0.6600 
  8 C        5.7980     1.2070     1.3940 C.2   1 <1>   0.7160 
  9 C        5.1950    -0.6280    -0.2560 C.3   1 <1>   0.2200 
 10 O        6.3820     0.4230     2.1170 O.2   1 <1>  -0.5700 
 11 C        5.8260     2.5960     1.7670 C.2   1 <1>  -0.0860 
 12 C        4.5190    -1.6170     0.7040 C.3   1 <1>  -0.1600 
 13 C        6.6280    -1.0540    -0.6080 C.3   1 <1>  -0.1600 
 14 C        6.7410     3.5550     1.3060 C.2   1 <1>   0.2120 
 15 C        5.0420     3.2880     2.6400 C.2   1 <1>  -0.3020 
 16 C        4.5420    -3.0390     0.1240 C.3   1 <1>  -0.1600 
 17 C        6.6460    -2.4780    -1.1850 C.3   1 <1>  -0.1600 
 18 N        6.5390     4.7270     1.8530 N.2   1 <1>  -0.7070 
 19 N        7.7780     3.2920     0.3510 N.pl3 1 <1>   0.6470 
 20 N        5.4860     4.5510     2.6760 N.pl3 1 <1>   0.3000 
 21 C        5.9730    -3.4720    -0.2270 C.3   1 <1>  -0.1600 
 22 N        7.6680     2.5290    -0.7290 N.2   1 <1>  -0.4180 
 23 C        8.9980     3.8010     0.3200 C.2   1 <1>   0.0370 
 24 N        8.7940     2.5860    -1.3450 N.2   1 <1>   0.0000 
 25 N        9.6400     3.3820    -0.7020 N.2   1 <1>  -0.3380 
 26 H        2.4990     0.9550    -2.7920 H     1 <1>   0.1500 
 27 H        0.0390     0.9440     1.0350 H     1 <1>   0.1500 
 28 H        2.6030     1.5980     1.4950 H     1 <1>   0.1500 
 29 H        4.5290     2.7340    -0.3220 H     1 <1>   0.0800 
 30 H        4.8260     1.6370    -1.6310 H     1 <1>   0.0800 
 31 H        4.6330    -0.6680    -1.1740 H     1 <1>   0.0800 
 32 H        3.5000    -1.3160     0.8700 H     1 <1>   0.0800 
 33 H        5.0310    -1.6260     1.6490 H     1 <1>   0.0800 
 34 H        7.2470    -1.0370     0.2710 H     1 <1>   0.0800 
 35 H        7.0420    -0.3700    -1.3270 H     1 <1>   0.0800 
 36 H        4.2160     2.9320     3.2300 H     1 <1>   0.1500 
 37 H        3.9310    -3.0730    -0.7620 H     1 <1>   0.0800 
 38 H        4.1230    -3.7250     0.8400 H     1 <1>   0.0800 
 39 H        7.6640    -2.7790    -1.3610 H     1 <1>   0.0800 
 40 H        6.1310    -2.4880    -2.1300 H     1 <1>   0.0800 
 41 H        5.1040     5.3170     3.2500 H     1 <1>   0.2700 
 42 H        5.9550    -4.4490    -0.6770 H     1 <1>   0.0800 
 43 H        6.5540    -3.5370     0.6780 H     1 <1>   0.0800 
 44 H        9.3610     4.4770     1.0690 H     1 <1>   0.1500 
@<TRIPOS>BOND
  1   1   2  1   
  2   1   3  1   
  3   2   4  2   
  4   2  26  1   
  5   3   5  2   
  6   3  27  1   
  7   4   5  1   
  8   4   6  1   
  9   5  28  1   
 10   6   7  1   
 11   6  29  1   
 12   6  30  1   
 13   7   8  am  
 14   7   9  1   
 15   8  10  2   
 16   8  11  1   
 17   9  12  1   
 18   9  13  1   
 19   9  31  1   
 20  11  14  1   
 21  11  15  2   
 22  12  16  1   
 23  12  32  1   
 24  12  33  1   
 25  13  17  1   
 26  13  34  1   
 27  13  35  1   
 28  14  18  2   
 29  14  19  1   
 30  15  20  1   
 31  15  36  1   
 32  16  21  1   
 33  16  37  1   
 34  16  38  1   
 35  17  21  1   
 36  17  39  1   
 37  17  40  1   
 38  18  20  1   
 39  19  22  1   
 40  19  23  1   
 41  20  41  1   
 42  21  42  1   
 43  21  43  1   
 44  22  24  2   
 45  23  25  2   
 46  23  44  1   
 47  24  25  1   
@<TRIPOS>SUBSTRUCTURE
  1 ****   7 GROUP 4 **** **** 0

# MOE 2024.06 (io_trps.svl 2023.06)
