@<TRIPOS>MOLECULE
NONAME
48 50 1 0 0 
SMALL
USER_CHARGES


@<TRIPOS>ATOM
  1 S        0.5970     0.8870    -1.4660 S.o2  1 <1>   1.3330 
  2 O        0.6750    -0.4350    -2.0460 O.2   1 <1>  -0.6500 
  3 O       -0.0990     1.9390    -2.1720 O.2   1 <1>  -0.6500 
  4 N       -0.1310     0.7420     0.0620 N.am  1 <1>  -0.8490 
  5 C        2.2680     1.4300    -1.0980 C.3   1 <1>  -0.0550 
  6 C       -0.5810     2.0240     0.6160 C.3   1 <1>   0.1160 
  7 C       -1.2450    -0.2100     0.0530 C.3   1 <1>   0.1160 
  8 C        3.1400     0.3690    -0.3900 C.3   1 <1>  -0.0800 
  9 C        4.6030     0.7530    -0.2260 C.3   1 <1>   0.2200 
 10 C        2.7170     0.0310     1.0440 C.3   1 <1>   0.1200 
 11 N        4.7310     2.1680     0.1900 N.am  1 <1>  -0.7300 
 12 C        5.0030    -0.1470     0.9350 C.3   1 <1>   0.1200 
 13 O        3.8900    -0.1780     1.7760 O.3   1 <1>  -0.5600 
 14 C        5.1100     3.2200    -0.5890 C.2   1 <1>   0.7160 
 15 O        5.3490     3.0100    -1.7660 O.2   1 <1>  -0.5700 
 16 C        5.1940     4.5510    -0.0060 C.2   1 <1>   0.2030 
 17 N        4.8780     4.8590     1.2420 N.2   1 <1>  -0.7070 
 18 C        5.6200     5.6910    -0.6890 C.2   1 <1>  -0.1500 
 19 N        5.1100     6.1760     1.3390 N.pl3 1 <1>   0.3000 
 20 C        5.5580     6.7240     0.1860 C.2   1 <1>  -0.2050 
 21 C        5.8870     8.1170     0.0180 C.ar  1 <1>   0.0530 
 22 C        5.1450     9.1240     0.6330 C.ar  1 <1>  -0.1500 
 23 C        6.9690     8.4970    -0.7710 C.ar  1 <1>  -0.1500 
 24 C        5.4770    10.4570     0.4730 C.ar  1 <1>  -0.1500 
 25 C        7.3050     9.8280    -0.9360 C.ar  1 <1>  -0.1500 
 26 C        6.5600    10.8120    -0.3110 C.ar  1 <1>  -0.1500 
 27 H        2.7470     1.6860    -2.0240 H     1 <1>   0.0800 
 28 H        2.2260     2.3220    -0.5050 H     1 <1>   0.0800 
 29 H       -0.9540     1.8840     1.6160 H     1 <1>   0.0800 
 30 H       -1.3640     2.4450     0.0060 H     1 <1>   0.0800 
 31 H        0.2380     2.7220     0.6550 H     1 <1>   0.0800 
 32 H       -1.6770    -0.2910     1.0350 H     1 <1>   0.0800 
 33 H       -0.8950    -1.1850    -0.2410 H     1 <1>   0.0800 
 34 H       -2.0040     0.1090    -0.6440 H     1 <1>   0.0800 
 35 H        3.1010    -0.5420    -0.9630 H     1 <1>   0.0800 
 36 H        5.1870     0.5620    -1.1110 H     1 <1>   0.0800 
 37 H        2.1130    -0.8590     1.0850 H     1 <1>   0.0800 
 38 H        2.1910     0.8470     1.5080 H     1 <1>   0.0800 
 39 H        4.5330     2.3700     1.1760 H     1 <1>   0.3700 
 40 H        5.8570     0.2210     1.4750 H     1 <1>   0.0800 
 41 H        5.1860    -1.1510     0.5940 H     1 <1>   0.0800 
 42 H        5.9290     5.7100    -1.7190 H     1 <1>   0.1500 
 43 H        4.9730     6.7000     2.2120 H     1 <1>   0.2700 
 44 H        4.2920     8.8680     1.2340 H     1 <1>   0.1500 
 45 H        7.5550     7.7380    -1.2570 H     1 <1>   0.1500 
 46 H        4.8920    11.2220     0.9550 H     1 <1>   0.1500 
 47 H        8.1470    10.0990    -1.5490 H     1 <1>   0.1500 
 48 H        6.8200    11.8490    -0.4370 H     1 <1>   0.1500 
@<TRIPOS>BOND
  1   1   2  2   
  2   1   3  2   
  3   1   4  am  
  4   1   5  1   
  5   4   6  1   
  6   4   7  1   
  7   5   8  1   
  8   5  27  1   
  9   5  28  1   
 10   6  29  1   
 11   6  30  1   
 12   6  31  1   
 13   7  32  1   
 14   7  33  1   
 15   7  34  1   
 16   8   9  1   
 17   8  10  1   
 18   8  35  1   
 19   9  11  1   
 20   9  12  1   
 21   9  36  1   
 22  10  13  1   
 23  10  37  1   
 24  10  38  1   
 25  11  14  am  
 26  11  39  1   
 27  12  13  1   
 28  12  40  1   
 29  12  41  1   
 30  14  15  2   
 31  14  16  1   
 32  16  17  2   
 33  16  18  1   
 34  17  19  1   
 35  18  20  2   
 36  18  42  1   
 37  19  20  1   
 38  19  43  1   
 39  20  21  1   
 40  21  22  ar  
 41  21  23  ar  
 42  22  24  ar  
 43  22  44  1   
 44  23  25  ar  
 45  23  45  1   
 46  24  26  ar  
 47  24  46  1   
 48  25  26  ar  
 49  25  47  1   
 50  26  48  1   
@<TRIPOS>SUBSTRUCTURE
  1 ****  14 GROUP 4 **** **** 0

# MOE 2024.06 (io_trps.svl 2023.06)
