@<TRIPOS>MOLECULE
NONAME
57 60 1 0 0 
SMALL
USER_CHARGES


@<TRIPOS>ATOM
  1 O       -1.5660    -1.4650     0.7450 O.2   1 <1>  -0.5700 
  2 C       -2.2890    -0.4730     0.8030 C.2   1 <1>   0.5410 
  3 C       -3.6880    -0.6000     1.0840 C.2   1 <1>  -0.1240 
  4 C       -1.7650     0.8330     0.5730 C.2   1 <1>  -0.1240 
  5 C       -4.4830     0.5140     1.1110 C.2   1 <1>  -0.0380 
  6 C       -4.1940    -2.0250     1.3330 C.3   1 <1>  -0.1020 
  7 C       -2.5890     1.9100     0.6220 C.2   1 <1>  -0.0500 
  8 C       -0.2770     0.9910     0.2800 C.3   1 <1>  -0.1020 
  9 N       -3.9280     1.7610     0.8870 N.pl3 1 <1>  -0.6000 
 10 C       -5.9880     0.4820     1.3520 C.3   1 <1>   0.4810 
 11 N       -6.6640     0.7450     0.0520 N.4   1 <1>  -0.9590 
 12 C       -8.1120     1.0830     0.2560 C.3   1 <1>   0.3430 
 13 C       -6.4910    -0.4010    -0.8890 C.3   1 <1>   0.3430 
 14 C       -8.8230     1.4300    -1.0640 C.3   1 <1>   0.1430 
 15 C       -7.1270    -0.0700    -2.2410 C.3   1 <1>  -0.1600 
 16 C      -10.2890     1.5940    -0.7570 C.ar  1 <1>   0.1670 
 17 C       -8.6120     0.3100    -2.1030 C.3   1 <1>  -0.1600 
 18 C       -8.4410     2.8270    -1.6250 C.3   1 <1>  -0.1600 
 19 N      -10.9800     0.7600    -0.0250 N.ar  1 <1>  -0.6200 
 20 C      -10.8020     2.7280    -1.3040 C.ar  1 <1>  -0.1430 
 21 C       -9.7570     3.4940    -2.0760 C.3   1 <1>  -0.0170 
 22 C      -12.2600     1.1000     0.1500 C.ar  1 <1>   0.7200 
 23 C      -12.1270     2.9950    -1.0720 C.ar  1 <1>   0.1600 
 24 N      -12.8610     2.1880    -0.3430 N.ar  1 <1>  -0.6200 
 25 N      -13.0250     0.2530     0.9220 N.pl3 1 <1>  -0.8380 
 26 C      -12.7460    -1.2060     1.0210 C.3   1 <1>   0.1290 
 27 C      -14.3360     0.6850     1.4830 C.3   1 <1>   0.1290 
 28 H       -3.6740    -2.4430     2.1780 H     1 <1>   0.0800 
 29 H       -3.9730    -2.6420     0.4790 H     1 <1>   0.0800 
 30 H       -5.2450    -2.0890     1.5290 H     1 <1>   0.0800 
 31 H       -2.2190     2.9120     0.4630 H     1 <1>   0.1500 
 32 H       -0.0170     0.4370    -0.6050 H     1 <1>   0.0800 
 33 H        0.3000     0.6050     1.1030 H     1 <1>   0.0800 
 34 H       -0.0150     2.0230     0.1300 H     1 <1>   0.0800 
 35 H       -4.4760     2.6260     1.0000 H     1 <1>   0.4000 
 36 H       -6.2420     1.2450     2.0680 H     1 <1>   0.0800 
 37 H       -6.3020    -0.4670     1.7510 H     1 <1>   0.0800 
 38 H       -6.1790     1.5460    -0.3700 H     1 <1>   0.4500 
 39 H       -8.2140     1.9130     0.9350 H     1 <1>   0.0800 
 40 H       -8.6180     0.2370     0.6940 H     1 <1>   0.0800 
 41 H       -6.9600    -1.2820    -0.4810 H     1 <1>   0.0800 
 42 H       -5.4410    -0.6110    -1.0300 H     1 <1>   0.0800 
 43 H       -7.0440    -0.9300    -2.8830 H     1 <1>   0.0800 
 44 H       -6.5750     0.7260    -2.7100 H     1 <1>   0.0800 
 45 H       -9.0100     0.6090    -3.0580 H     1 <1>   0.0800 
 46 H       -9.1640    -0.5620    -1.7900 H     1 <1>   0.0800 
 47 H       -7.7370     2.7790    -2.4360 H     1 <1>   0.0800 
 48 H       -8.0190     3.4310    -0.8400 H     1 <1>   0.0800 
 49 H       -9.9160     3.3540    -3.1320 H     1 <1>   0.0800 
 50 H       -9.7760     4.5440    -1.8410 H     1 <1>   0.0800 
 51 H      -12.5910     3.8760    -1.4820 H     1 <1>   0.1500 
 52 H      -12.0260    -1.5100     0.2810 H     1 <1>   0.0800 
 53 H      -13.6510    -1.7640     0.8580 H     1 <1>   0.0800 
 54 H      -12.3610    -1.4320     1.9990 H     1 <1>   0.0800 
 55 H      -14.3180     1.7370     1.7110 H     1 <1>   0.0800 
 56 H      -14.5460     0.1460     2.3900 H     1 <1>   0.0800 
 57 H      -15.1160     0.4970     0.7660 H     1 <1>   0.0800 
@<TRIPOS>BOND
  1   1   2  2   
  2   2   3  1   
  3   2   4  1   
  4   3   5  2   
  5   3   6  1   
  6   4   7  2   
  7   4   8  1   
  8   5   9  1   
  9   5  10  1   
 10   6  28  1   
 11   6  29  1   
 12   6  30  1   
 13   7   9  1   
 14   7  31  1   
 15   8  32  1   
 16   8  33  1   
 17   8  34  1   
 18   9  35  1   
 19  10  11  1   
 20  10  36  1   
 21  10  37  1   
 22  11  12  1   
 23  11  13  1   
 24  11  38  1   
 25  12  14  1   
 26  12  39  1   
 27  12  40  1   
 28  13  15  1   
 29  13  41  1   
 30  13  42  1   
 31  14  16  1   
 32  14  17  1   
 33  14  18  1   
 34  15  17  1   
 35  15  43  1   
 36  15  44  1   
 37  16  19  ar  
 38  16  20  ar  
 39  17  45  1   
 40  17  46  1   
 41  18  21  1   
 42  18  47  1   
 43  18  48  1   
 44  19  22  ar  
 45  20  21  1   
 46  20  23  ar  
 47  21  49  1   
 48  21  50  1   
 49  22  24  ar  
 50  22  25  1   
 51  23  24  ar  
 52  23  51  1   
 53  25  26  1   
 54  25  27  1   
 55  26  52  1   
 56  26  53  1   
 57  26  54  1   
 58  27  55  1   
 59  27  56  1   
 60  27  57  1   
@<TRIPOS>SUBSTRUCTURE
  1 ****  12 GROUP 4 **** **** 0

# MOE 2024.06 (io_trps.svl 2023.06)
