@<TRIPOS>MOLECULE
NONAME
41 43 1 0 0 
SMALL
USER_CHARGES


@<TRIPOS>ATOM
  1 S        0.6220    -0.0770    -0.5430 S.o2  1 <1>   1.3330 
  2 O        0.2350    -0.1120    -1.9350 O.2   1 <1>  -0.6500 
  3 O        2.0230    -0.0170    -0.1900 O.2   1 <1>  -0.6500 
  4 N       -0.0510    -1.4290     0.2310 N.am  1 <1>  -0.8490 
  5 C       -0.2340     1.2980     0.2200 C.3   1 <1>  -0.0550 
  6 C        0.5380    -1.7010     1.5470 C.3   1 <1>   0.1160 
  7 C        0.0170    -2.6320    -0.6030 C.3   1 <1>   0.1160 
  8 C        0.1290     2.6600    -0.4030 C.3   1 <1>  -0.0800 
  9 C       -0.6910     3.8360     0.1370 C.3   1 <1>   0.2000 
 10 C        1.5910     3.0830    -0.1930 C.3   1 <1>   0.2090 
 11 O       -0.7520     3.7420     1.5210 O.3   1 <1>  -0.6800 
 12 C        0.1540     5.0580    -0.2180 C.3   1 <1>   0.2090 
 13 N        1.5470     4.5630    -0.1080 N.pl3 1 <1>  -0.8220 
 14 C        2.6800     5.3350    -0.1590 C.2   1 <1>   0.4620 
 15 S        2.5110     7.0950    -0.2360 S.3   1 <1>  -0.0800 
 16 N        3.8930     4.9230    -0.1570 N.2   1 <1>  -0.5650 
 17 C        4.2510     7.2510    -0.2720 C.ar  1 <1>   0.0400 
 18 C        4.7890     5.9780    -0.2220 C.ar  1 <1>   0.2270 
 19 C        5.0110     8.4030    -0.3400 C.ar  1 <1>  -0.1500 
 20 C        6.1720     5.8560    -0.2410 C.ar  1 <1>  -0.1500 
 21 C        6.3890     8.2600    -0.3570 C.ar  1 <1>  -0.1500 
 22 C        6.9640     6.9920    -0.3080 C.ar  1 <1>  -0.1500 
 23 H       -1.2900     1.1450     0.1130 H     1 <1>   0.0800 
 24 H       -0.0140     1.3130     1.2700 H     1 <1>   0.0800 
 25 H        0.0180    -2.5140     2.0230 H     1 <1>   0.0800 
 26 H        0.4590    -0.8330     2.1770 H     1 <1>   0.0800 
 27 H        1.5800    -1.9620     1.4470 H     1 <1>   0.0800 
 28 H       -0.4330    -3.4670    -0.0930 H     1 <1>   0.0800 
 29 H        1.0420    -2.8690    -0.8360 H     1 <1>   0.0800 
 30 H       -0.5190    -2.4740    -1.5240 H     1 <1>   0.0800 
 31 H       -0.0380     2.6050    -1.4660 H     1 <1>   0.0800 
 32 H       -1.6930     3.8810    -0.2520 H     1 <1>   0.0800 
 33 H        2.2190     2.7650    -1.0090 H     1 <1>   0.0800 
 34 H        1.9850     2.6900     0.7290 H     1 <1>   0.0800 
 35 H        0.1400     3.9490     1.8740 H     1 <1>   0.4000 
 36 H       -0.0370     5.8830     0.4470 H     1 <1>   0.0800 
 37 H       -0.0330     5.3570    -1.2350 H     1 <1>   0.0800 
 38 H        4.5430     9.3700    -0.3770 H     1 <1>   0.1500 
 39 H        6.6050     4.8730    -0.2030 H     1 <1>   0.1500 
 40 H        7.0200     9.1310    -0.4090 H     1 <1>   0.1500 
 41 H        8.0360     6.8940    -0.3230 H     1 <1>   0.1500 
@<TRIPOS>BOND
  1   1   2  2   
  2   1   3  2   
  3   1   4  am  
  4   1   5  1   
  5   4   6  1   
  6   4   7  1   
  7   5   8  1   
  8   5  23  1   
  9   5  24  1   
 10   6  25  1   
 11   6  26  1   
 12   6  27  1   
 13   7  28  1   
 14   7  29  1   
 15   7  30  1   
 16   8   9  1   
 17   8  10  1   
 18   8  31  1   
 19   9  11  1   
 20   9  12  1   
 21   9  32  1   
 22  10  13  1   
 23  10  33  1   
 24  10  34  1   
 25  11  35  1   
 26  12  13  1   
 27  12  36  1   
 28  12  37  1   
 29  13  14  1   
 30  14  15  1   
 31  14  16  2   
 32  15  17  1   
 33  16  18  1   
 34  17  18  ar  
 35  17  19  ar  
 36  18  20  ar  
 37  19  21  ar  
 38  19  38  1   
 39  20  22  ar  
 40  20  39  1   
 41  21  22  ar  
 42  21  40  1   
 43  22  41  1   
@<TRIPOS>SUBSTRUCTURE
  1 ****  10 GROUP 4 **** **** 0

# MOE 2024.06 (io_trps.svl 2023.06)
