@<TRIPOS>MOLECULE
NONAME
53 54 1 0 0 
SMALL
USER_CHARGES


@<TRIPOS>ATOM
  1 O       -0.9070    -0.8440     0.0820 O.2   1 <1>  -0.5700 
  2 C       -1.3350     0.2670    -0.1220 C.2   1 <1>   0.5690 
  3 N       -2.4620     0.4490    -0.8820 N.am  1 <1>  -0.6600 
  4 C       -0.6270     1.4320     0.5520 C.3   1 <1>  -0.0990 
  5 C       -2.9190    -0.6560    -1.7680 C.3   1 <1>   0.3200 
  6 C       -3.4730     1.5230    -0.6370 C.3   1 <1>   0.1400 
  7 C        0.5340     2.0480    -0.2590 C.3   1 <1>   0.1440 
  8 C       -3.9880    -1.4030    -1.0080 C.2   1 <1>  -0.3320 
  9 C       -4.1440     1.3100     0.7380 C.3   1 <1>   0.3430 
 10 C        1.0600     3.2610     0.5430 C.ar  1 <1>  -0.1440 
 11 C        1.6720     1.0280    -0.4520 C.3   1 <1>  -0.2400 
 12 C        0.0500     2.4450    -1.6690 C.3   1 <1>  -0.2400 
 13 N       -3.7070    -2.1340     0.0870 N.pl3 1 <1>   0.0330 
 14 C       -5.3220    -1.4800    -1.1950 C.2   1 <1>   0.0770 
 15 N       -5.4900     1.9630     0.8660 N.4   1 <1>  -0.9590 
 16 C        1.6640     3.0530     1.7800 C.ar  1 <1>  -0.1500 
 17 C        0.9460     4.5760     0.0950 C.ar  1 <1>  -0.1500 
 18 C       -4.9060    -2.5700     0.5270 C.2   1 <1>   0.0360 
 19 N       -5.9020    -2.1780    -0.2030 N.2   1 <1>  -0.5650 
 20 C       -5.8580     2.0950     2.3100 C.3   1 <1>   0.2630 
 21 C       -6.5430     1.1560     0.1650 C.3   1 <1>   0.2630 
 22 C        2.1340     4.1090     2.5410 C.ar  1 <1>  -0.1500 
 23 C        1.4150     5.6350     0.8540 C.ar  1 <1>  -0.1500 
 24 C        2.0090     5.4040     2.0790 C.ar  1 <1>  -0.1500 
 25 H       -0.2440     1.0700     1.4890 H     1 <1>   0.0800 
 26 H       -1.3240     2.2090     0.7910 H     1 <1>   0.0800 
 27 H       -2.1020    -1.3150    -2.0150 H     1 <1>   0.0800 
 28 H       -3.3120    -0.2530    -2.6860 H     1 <1>   0.0800 
 29 H       -4.2140     1.4850    -1.4160 H     1 <1>   0.0800 
 30 H       -2.9980     2.4870    -0.6750 H     1 <1>   0.0800 
 31 H       -3.4840     1.6930     1.4970 H     1 <1>   0.0800 
 32 H       -4.2600     0.2510     0.9050 H     1 <1>   0.0800 
 33 H        1.9840     0.6030     0.4840 H     1 <1>   0.0800 
 34 H        2.5230     1.5070    -0.9040 H     1 <1>   0.0800 
 35 H        1.3630     0.2180    -1.0890 H     1 <1>   0.0800 
 36 H       -0.7930     3.1080    -1.6140 H     1 <1>   0.0800 
 37 H       -0.2370     1.5800    -2.2390 H     1 <1>   0.0800 
 38 H        0.8430     2.9350    -2.2070 H     1 <1>   0.0800 
 39 H       -2.7710    -2.3030     0.4840 H     1 <1>   0.2700 
 40 H       -5.9090    -1.0550    -1.9940 H     1 <1>   0.1500 
 41 H       -5.4560     2.9080     0.4540 H     1 <1>   0.4500 
 42 H        1.7800     2.0600     2.1740 H     1 <1>   0.1500 
 43 H        0.4970     4.8160    -0.8490 H     1 <1>   0.1500 
 44 H       -5.0020    -3.1880     1.4040 H     1 <1>   0.1500 
 45 H       -5.9100     1.1230     2.7730 H     1 <1>   0.0800 
 46 H       -6.8180     2.5740     2.4100 H     1 <1>   0.0800 
 47 H       -5.1240     2.6880     2.8330 H     1 <1>   0.0800 
 48 H       -6.5870     0.1590     0.5750 H     1 <1>   0.0800 
 49 H       -6.3230     1.0800    -0.8870 H     1 <1>   0.0800 
 50 H       -7.5100     1.6170     0.2800 H     1 <1>   0.0800 
 51 H        2.5990     3.9210     3.4930 H     1 <1>   0.1500 
 52 H        1.3180     6.6420     0.4880 H     1 <1>   0.1500 
 53 H        2.3750     6.2270     2.6680 H     1 <1>   0.1500 
@<TRIPOS>BOND
  1   1   2  2   
  2   2   3  am  
  3   2   4  1   
  4   3   5  1   
  5   3   6  1   
  6   4   7  1   
  7   4  25  1   
  8   4  26  1   
  9   5   8  1   
 10   5  27  1   
 11   5  28  1   
 12   6   9  1   
 13   6  29  1   
 14   6  30  1   
 15   7  10  1   
 16   7  11  1   
 17   7  12  1   
 18   8  13  1   
 19   8  14  2   
 20   9  15  1   
 21   9  31  1   
 22   9  32  1   
 23  10  16  ar  
 24  10  17  ar  
 25  11  33  1   
 26  11  34  1   
 27  11  35  1   
 28  12  36  1   
 29  12  37  1   
 30  12  38  1   
 31  13  18  1   
 32  13  39  1   
 33  14  19  1   
 34  14  40  1   
 35  15  20  1   
 36  15  21  1   
 37  15  41  1   
 38  16  22  ar  
 39  16  42  1   
 40  17  23  ar  
 41  17  43  1   
 42  18  19  2   
 43  18  44  1   
 44  20  45  1   
 45  20  46  1   
 46  20  47  1   
 47  21  48  1   
 48  21  49  1   
 49  21  50  1   
 50  22  24  ar  
 51  22  51  1   
 52  23  24  ar  
 53  23  52  1   
 54  24  53  1   
@<TRIPOS>SUBSTRUCTURE
  1 ****   2 GROUP 4 **** **** 0

# MOE 2024.06 (io_trps.svl 2023.06)
