@<TRIPOS>MOLECULE
NONAME
34 36 1 0 0 
SMALL
USER_CHARGES


@<TRIPOS>ATOM
  1 CL      -1.8070    -0.4800     2.1840 Cl    1 <1>  -0.1770 
  2 C       -2.6120     0.5890     1.0620 C.ar  1 <1>   0.1770 
  3 C       -3.2200     0.0840    -0.0820 C.ar  1 <1>   0.0860 
  4 C       -2.6130     1.9400     1.3500 C.ar  1 <1>  -0.1500 
  5 C       -3.2310    -1.3270    -0.3870 C.2   1 <1>   0.5440 
  6 C       -3.8280     1.0000    -0.9410 C.ar  1 <1>  -0.1500 
  7 C       -3.2260     2.8270     0.4830 C.ar  1 <1>  -0.1500 
  8 O       -2.4920    -1.7460    -1.2590 O.2   1 <1>  -0.5700 
  9 N       -4.0830    -2.1800     0.2600 N.am  1 <1>  -0.6600 
 10 C       -3.8430     2.3670    -0.6780 C.ar  1 <1>  -0.1440 
 11 C       -5.1660    -1.7600     1.1930 C.3   1 <1>   0.2350 
 12 C       -4.2830    -3.6080    -0.1190 C.3   1 <1>   0.2350 
 13 C       -4.5180     3.3440    -1.6580 C.3   1 <1>   1.1640 
 14 C       -6.3110    -2.7210     0.9350 C.3   1 <1>  -0.2420 
 15 C       -5.7570    -3.8810     0.1410 C.3   1 <1>  -0.2420 
 16 F       -4.8990     4.4770    -1.0800 F     1 <1>  -0.3400 
 17 F       -5.6030     2.8320    -2.2240 F     1 <1>  -0.3400 
 18 F       -3.7050     3.6860    -2.6480 F     1 <1>  -0.3400 
 19 C       -7.3450    -2.6220     2.0610 C.2   1 <1>   0.9470 
 20 C       -6.8050    -2.9840    -0.4660 C.3   1 <1>  -0.2000 
 21 C       -6.0270    -5.3850     0.2460 C.2   1 <1>   0.9470 
 22 O       -8.5240    -2.3600     1.7880 O.co2 1 <1>  -0.9000 
 23 O       -6.9490    -2.6200     3.2350 O.co2 1 <1>  -0.9000 
 24 O       -5.3430    -6.0640     1.0230 O.co2 1 <1>  -0.9000 
 25 O       -6.8100    -5.9220    -0.5500 O.co2 1 <1>  -0.9000 
 26 H       -2.1340     2.2910     2.2470 H     1 <1>   0.1500 
 27 H       -4.2940     0.6100    -1.8320 H     1 <1>   0.1500 
 28 H       -3.2160     3.8790     0.7200 H     1 <1>   0.1500 
 29 H       -4.8180    -1.8640     2.2080 H     1 <1>   0.0800 
 30 H       -5.4840    -0.7480     1.0190 H     1 <1>   0.0800 
 31 H       -4.0370    -3.7820    -1.1520 H     1 <1>   0.0800 
 32 H       -3.6720    -4.2320     0.5110 H     1 <1>   0.0800 
 33 H       -6.5350    -2.3150    -1.2610 H     1 <1>   0.1000 
 34 H       -7.7980    -3.3860    -0.5840 H     1 <1>   0.1000 
@<TRIPOS>BOND
  1   1   2  1   
  2   2   3  ar  
  3   2   4  ar  
  4   3   5  1   
  5   3   6  ar  
  6   4   7  ar  
  7   4  26  1   
  8   5   8  2   
  9   5   9  am  
 10   6  10  ar  
 11   6  27  1   
 12   7  10  ar  
 13   7  28  1   
 14   9  11  1   
 15   9  12  1   
 16  10  13  1   
 17  11  14  1   
 18  11  29  1   
 19  11  30  1   
 20  12  15  1   
 21  12  31  1   
 22  12  32  1   
 23  13  16  1   
 24  13  17  1   
 25  13  18  1   
 26  14  15  1   
 27  14  19  1   
 28  14  20  1   
 29  15  20  1   
 30  15  21  1   
 31  19  22  ar  
 32  19  23  ar  
 33  20  33  1   
 34  20  34  1   
 35  21  24  ar  
 36  21  25  ar  
@<TRIPOS>SUBSTRUCTURE
  1 ****  11 GROUP 4 **** **** 0

# MOE 2024.06 (io_trps.svl 2023.06)
