@<TRIPOS>MOLECULE
NONAME
36 37 1 0 0 
SMALL
USER_CHARGES


@<TRIPOS>ATOM
  1 O        0.1100    -0.3100    -0.4970 O.2   1 <1>  -0.5700 
  2 C        1.1650    -0.7950    -0.1290 C.2   1 <1>   0.5440 
  3 N        2.2220     0.0230     0.2030 N.am  1 <1>  -0.4940 
  4 C        1.3390    -2.2390    -0.0420 C.ar  1 <1>   0.3960 
  5 C        2.4150     1.4240     0.1300 C.2   1 <1>  -0.0880 
  6 N        2.5260    -2.7360     0.3510 N.ar  1 <1>  -0.6200 
  7 C        0.2710    -3.0850    -0.3660 C.ar  1 <1>   0.1600 
  8 N        1.5000     2.4100     0.3530 N.pl3 1 <1>   0.3140 
  9 C        3.5830     2.0510    -0.1550 C.2   1 <1>  -0.1810 
 10 C        2.5480    -4.0560     0.3900 C.ar  1 <1>   0.1600 
 11 N        0.2990    -4.4080    -0.3250 N.ar  1 <1>  -0.6200 
 12 N        2.0540     3.6350     0.2200 N.2   1 <1>  -0.7070 
 13 C        0.1050     2.2920     0.7930 C.3   1 <1>   0.0160 
 14 C        3.2920     3.4110    -0.0860 C.2   1 <1>   0.1080 
 15 C        4.9310     1.4340    -0.4860 C.3   1 <1>  -0.0590 
 16 C        1.4700    -4.8740     0.0630 C.ar  1 <1>   0.1670 
 17 C        4.2740     4.5440    -0.3270 C.3   1 <1>   0.0210 
 18 C        1.5890    -6.3830     0.1380 C.3   1 <1>  -0.0970 
 19 C        4.9920     4.9400     0.9670 C.3   1 <1>  -0.2400 
 20 H        3.0640    -0.5140     0.4310 H     1 <1>   0.3700 
 21 H       -0.6550    -2.6330    -0.6770 H     1 <1>   0.1500 
 22 H        3.4700    -4.5190     0.6970 H     1 <1>   0.1500 
 23 H        0.0110     1.4570     1.4600 H     1 <1>   0.0800 
 24 H       -0.5200     2.1470    -0.0680 H     1 <1>   0.0800 
 25 H       -0.1830     3.1940     1.2990 H     1 <1>   0.0800 
 26 H        4.8710     0.3610    -0.4870 H     1 <1>   0.0800 
 27 H        5.6610     1.7390     0.2420 H     1 <1>   0.0800 
 28 H        5.2500     1.7570    -1.4600 H     1 <1>   0.0800 
 29 H        3.7320     5.3910    -0.7090 H     1 <1>   0.0800 
 30 H        4.9910     4.2490    -1.0710 H     1 <1>   0.0800 
 31 H        2.5690    -6.6830     0.4610 H     1 <1>   0.0800 
 32 H        1.3970    -6.8070    -0.8310 H     1 <1>   0.0800 
 33 H        0.8620    -6.7670     0.8310 H     1 <1>   0.0800 
 34 H        4.2690     5.2460     1.7020 H     1 <1>   0.0800 
 35 H        5.6680     5.7550     0.7830 H     1 <1>   0.0800 
 36 H        5.5450     4.1040     1.3560 H     1 <1>   0.0800 
@<TRIPOS>BOND
  1   1   2  2   
  2   2   3  am  
  3   2   4  1   
  4   3   5  1   
  5   3  20  1   
  6   4   6  ar  
  7   4   7  ar  
  8   5   8  1   
  9   5   9  2   
 10   6  10  ar  
 11   7  11  ar  
 12   7  21  1   
 13   8  12  1   
 14   8  13  1   
 15   9  14  1   
 16   9  15  1   
 17  10  16  ar  
 18  10  22  1   
 19  11  16  ar  
 20  12  14  2   
 21  13  23  1   
 22  13  24  1   
 23  13  25  1   
 24  14  17  1   
 25  15  26  1   
 26  15  27  1   
 27  15  28  1   
 28  16  18  1   
 29  17  19  1   
 30  17  29  1   
 31  17  30  1   
 32  18  31  1   
 33  18  32  1   
 34  18  33  1   
 35  19  34  1   
 36  19  35  1   
 37  19  36  1   
@<TRIPOS>SUBSTRUCTURE
  1 ****   3 GROUP 4 **** **** 0

# MOE 2024.06 (io_trps.svl 2023.06)
