@<TRIPOS>MOLECULE
NONAME
46 48 1 0 0 
SMALL
USER_CHARGES


@<TRIPOS>ATOM
  1 F        2.4450     2.0670    -3.3920 F     1 <1>  -0.1900 
  2 C        3.1610     2.6420    -2.4630 C.ar  1 <1>   0.1900 
  3 C        4.5300     2.4540    -2.4650 C.ar  1 <1>  -0.1500 
  4 C        2.5220     3.4150    -1.5120 C.ar  1 <1>  -0.1500 
  5 C        5.2840     3.0660    -1.4780 C.ar  1 <1>  -0.1500 
  6 C        3.2830     4.0260    -0.5280 C.ar  1 <1>  -0.1500 
  7 C        4.6670     3.8520    -0.5110 C.ar  1 <1>   0.0830 
  8 O        5.4720     4.4260     0.4170 O.3   1 <1>  -0.3630 
  9 C        4.9660     4.7580     1.6990 C.3   1 <1>   0.1200 
 10 C        6.1110     5.2740     2.5820 C.3   1 <1>   0.2090 
 11 N        6.5920     6.6420     2.2100 N.pl3 1 <1>  -0.8690 
 12 C        7.1370     7.1710     1.1060 C.ar  1 <1>   0.7710 
 13 N        7.6060     8.3950     1.2300 N.ar  1 <1>  -0.6200 
 14 N        7.1920     6.4830    -0.0440 N.ar  1 <1>  -0.1790 
 15 C        8.1760     8.9520     0.1760 C.ar  1 <1>   0.4100 
 16 C        7.7370     7.0230    -1.1570 C.ar  1 <1>   0.2110 
 17 N        8.6940    10.2000     0.3240 N.pl3 1 <1>  -0.8380 
 18 C        8.2410     8.2760    -1.0600 C.ar  1 <1>  -0.1500 
 19 C        9.8720    10.7300    -0.4410 C.3   1 <1>   0.2090 
 20 C        8.1900    11.1670     1.3480 C.3   1 <1>   0.2090 
 21 C        9.5000    12.0430    -1.1490 C.3   1 <1>   0.2000 
 22 C        7.8000    12.4840     0.6620 C.3   1 <1>  -0.1600 
 23 O       10.6190    12.5730    -1.7670 O.3   1 <1>  -0.6800 
 24 C        8.9540    13.0820    -0.1620 C.3   1 <1>  -0.1600 
 25 H        4.9850     1.8390    -3.2220 H     1 <1>   0.1500 
 26 H        1.4530     3.5330    -1.5480 H     1 <1>   0.1500 
 27 H        6.3490     2.9210    -1.4580 H     1 <1>   0.1500 
 28 H        2.7780     4.6300     0.2030 H     1 <1>   0.1500 
 29 H        4.5410     3.8650     2.1270 H     1 <1>   0.0800 
 30 H        4.2040     5.5120     1.6040 H     1 <1>   0.0800 
 31 H        6.9310     4.5750     2.5650 H     1 <1>   0.0800 
 32 H        5.7520     5.3150     3.5970 H     1 <1>   0.0800 
 33 H        6.6250     7.2920     3.0060 H     1 <1>   0.4000 
 34 H        6.7410     5.5660    -0.0270 H     1 <1>   0.4570 
 35 H        7.7460     6.4510    -2.0720 H     1 <1>   0.1500 
 36 H        8.6700     8.7700    -1.9100 H     1 <1>   0.1500 
 37 H       10.2240    10.0170    -1.1630 H     1 <1>   0.0800 
 38 H       10.6700    10.9170     0.2560 H     1 <1>   0.0800 
 39 H        8.9620    11.3450     2.0780 H     1 <1>   0.0800 
 40 H        7.3300    10.7730     1.8620 H     1 <1>   0.0800 
 41 H        8.7740    11.8380    -1.9170 H     1 <1>   0.0800 
 42 H        7.4890    13.1920     1.4090 H     1 <1>   0.0800 
 43 H        6.9560    12.2980     0.0200 H     1 <1>   0.0800 
 44 H       11.2090    12.9890    -1.1100 H     1 <1>   0.4000 
 45 H        8.6010    13.9420    -0.7030 H     1 <1>   0.0800 
 46 H        9.7340    13.3900     0.5110 H     1 <1>   0.0800 
@<TRIPOS>BOND
  1   1   2  1   
  2   2   3  ar  
  3   2   4  ar  
  4   3   5  ar  
  5   3  25  1   
  6   4   6  ar  
  7   4  26  1   
  8   5   7  ar  
  9   5  27  1   
 10   6   7  ar  
 11   6  28  1   
 12   7   8  1   
 13   8   9  1   
 14   9  10  1   
 15   9  29  1   
 16   9  30  1   
 17  10  11  1   
 18  10  31  1   
 19  10  32  1   
 20  11  12  1   
 21  11  33  1   
 22  12  13  ar  
 23  12  14  ar  
 24  13  15  ar  
 25  14  16  ar  
 26  14  34  1   
 27  15  17  1   
 28  15  18  ar  
 29  16  18  ar  
 30  16  35  1   
 31  17  19  1   
 32  17  20  1   
 33  18  36  1   
 34  19  21  1   
 35  19  37  1   
 36  19  38  1   
 37  20  22  1   
 38  20  39  1   
 39  20  40  1   
 40  21  23  1   
 41  21  24  1   
 42  21  41  1   
 43  22  24  1   
 44  22  42  1   
 45  22  43  1   
 46  23  44  1   
 47  24  45  1   
 48  24  46  1   
@<TRIPOS>SUBSTRUCTURE
  1 ****  14 GROUP 4 **** **** 0

# MOE 2024.06 (io_trps.svl 2023.06)
