@<TRIPOS>MOLECULE
NONAME
27 27 1 0 0 
SMALL
USER_CHARGES


@<TRIPOS>ATOM
  1 O        0.0050    -0.3220     0.7290 O.2   1 <1>  -0.5700 
  2 C        0.1260    -1.3570     0.1060 C.2   1 <1>   0.7800 
  3 O        1.3110    -1.9320    -0.0350 O.3   1 <1>  -0.4300 
  4 N       -0.9120    -1.9830    -0.4690 N.am  1 <1>  -0.7300 
  5 C        2.4520    -1.3360     0.5400 C.3   1 <1>   0.2630 
  6 C       -2.2920    -1.6090    -0.2760 C.3   1 <1>   0.4200 
  7 C        3.6660    -2.1960     0.2280 C.ar  1 <1>  -0.1440 
  8 O       -3.0000    -2.7550    -0.5780 O.3   1 <1>  -0.5600 
  9 C        3.7820    -3.4620     0.7820 C.ar  1 <1>  -0.1500 
 10 C        4.6690    -1.7260    -0.6060 C.ar  1 <1>  -0.1500 
 11 C       -4.3750    -2.6140    -0.4340 C.3   1 <1>   0.0400 
 12 C        4.8890    -4.2480     0.5100 C.ar  1 <1>  -0.1500 
 13 C        5.7770    -2.5100    -0.8790 C.ar  1 <1>  -0.1500 
 14 C        5.8880    -3.7710    -0.3210 C.ar  1 <1>  -0.1500 
 15 H       -0.7840    -2.9030    -0.8820 H     1 <1>   0.3700 
 16 H        2.3010    -1.2680     1.6040 H     1 <1>   0.0800 
 17 H        2.5610    -0.3470     0.1300 H     1 <1>   0.0800 
 18 H       -2.5740    -0.8210    -0.9540 H     1 <1>   0.0800 
 19 H       -2.4770    -1.3250     0.7480 H     1 <1>   0.0800 
 20 H        3.0060    -3.8400     1.4250 H     1 <1>   0.1500 
 21 H        4.5930    -0.7480    -1.0480 H     1 <1>   0.1500 
 22 H       -4.8360    -3.5520    -0.6910 H     1 <1>   0.0800 
 23 H       -4.7270    -1.8440    -1.1000 H     1 <1>   0.0800 
 24 H       -4.6040    -2.3670     0.5890 H     1 <1>   0.0800 
 25 H        4.9710    -5.2290     0.9430 H     1 <1>   0.1500 
 26 H        6.5520    -2.1390    -1.5270 H     1 <1>   0.1500 
 27 H        6.7480    -4.3810    -0.5330 H     1 <1>   0.1500 
@<TRIPOS>BOND
  1   1   2  2   
  2   2   3  1   
  3   2   4  am  
  4   3   5  1   
  5   4   6  1   
  6   4  15  1   
  7   5   7  1   
  8   5  16  1   
  9   5  17  1   
 10   6   8  1   
 11   6  18  1   
 12   6  19  1   
 13   7   9  ar  
 14   7  10  ar  
 15   8  11  1   
 16   9  12  ar  
 17   9  20  1   
 18  10  13  ar  
 19  10  21  1   
 20  11  22  1   
 21  11  23  1   
 22  11  24  1   
 23  12  14  ar  
 24  12  25  1   
 25  13  14  ar  
 26  13  26  1   
 27  14  27  1   
@<TRIPOS>SUBSTRUCTURE
  1 ****   3 GROUP 4 **** **** 0

# MOE 2024.06 (io_trps.svl 2023.06)
