@<TRIPOS>MOLECULE
NONAME
55 58 1 0 0 
SMALL
USER_CHARGES


@<TRIPOS>ATOM
  1 O       -0.4270    -0.3920     0.2570 O.2   1 <1>  -0.5700 
  2 C       -1.3130     0.3740    -0.0720 C.2   1 <1>   0.7160 
  3 N       -2.4430    -0.1470    -0.6220 N.am  1 <1>  -0.7300 
  4 C       -1.1990     1.7900     0.1130 C.2   1 <1>  -0.0860 
  5 C       -2.8410    -1.5680    -0.6660 C.3   1 <1>   0.1400 
  6 C       -2.2600     2.7070     0.0860 C.2   1 <1>   0.3720 
  7 C       -0.1170     2.5780     0.3730 C.2   1 <1>   0.0870 
  8 C       -4.2740    -1.7240    -0.1420 C.3   1 <1>  -0.0800 
  9 N       -1.8510     3.9030     0.3210 N.2   1 <1>  -0.4100 
 10 N       -3.6100     2.3840    -0.1320 N.pl3 1 <1>  -0.8210 
 11 O       -0.5610     3.8040     0.4910 O.3   1 <1>  -0.0190 
 12 C        1.2950     2.3260     0.5170 C.ar  1 <1>   0.0530 
 13 C       -4.6430    -3.2130    -0.0600 C.3   1 <1>   0.1200 
 14 C       -5.3000    -0.9750    -1.0160 C.3   1 <1>  -0.1600 
 15 C       -4.3470     3.2740    -1.0720 C.3   1 <1>   0.2090 
 16 C       -4.3990     2.2640     1.1260 C.3   1 <1>   0.2090 
 17 C        2.0510     3.0390     1.4490 C.ar  1 <1>  -0.1500 
 18 C        1.9680     1.3890    -0.2670 C.ar  1 <1>  -0.1500 
 19 O       -5.9510    -3.3500     0.4070 O.3   1 <1>  -0.5600 
 20 C       -6.7230    -1.2980    -0.5430 C.3   1 <1>  -0.1600 
 21 C       -5.7740     3.3130    -0.5500 C.3   1 <1>  -0.1600 
 22 C       -5.6150     3.1660     0.9550 C.3   1 <1>  -0.1600 
 23 C        3.4080     2.8210     1.5960 C.ar  1 <1>  -0.1500 
 24 C        3.3250     1.1620    -0.1260 C.ar  1 <1>  -0.1500 
 25 C       -6.9300    -2.8120    -0.4270 C.3   1 <1>   0.1200 
 26 C        4.0580     1.8820     0.8130 C.ar  1 <1>   0.0830 
 27 O        5.3870     1.7230     1.0170 O.3   1 <1>  -0.3620 
 28 C        6.1310     0.7610     0.3050 C.3   1 <1>   0.0400 
 29 H       -3.1970     0.5420    -0.7550 H     1 <1>   0.3700 
 30 H       -2.1650    -2.1510    -0.0620 H     1 <1>   0.0800 
 31 H       -2.7750    -1.9210    -1.6820 H     1 <1>   0.0800 
 32 H       -4.3050    -1.3340     0.8610 H     1 <1>   0.0800 
 33 H       -3.9980    -3.7240     0.6340 H     1 <1>   0.0800 
 34 H       -4.5720    -3.6910    -1.0220 H     1 <1>   0.0800 
 35 H       -5.1920    -1.2850    -2.0410 H     1 <1>   0.0800 
 36 H       -5.1410     0.0870    -0.9690 H     1 <1>   0.0800 
 37 H       -4.3060     2.8840    -2.0740 H     1 <1>   0.0800 
 38 H       -3.9290     4.2680    -1.0620 H     1 <1>   0.0800 
 39 H       -3.8210     2.5590     1.9870 H     1 <1>   0.0800 
 40 H       -4.7110     1.2410     1.2470 H     1 <1>   0.0800 
 41 H        1.5650     3.7720     2.0680 H     1 <1>   0.1500 
 42 H        1.4190     0.8260    -1.0010 H     1 <1>   0.1500 
 43 H       -7.4400    -0.8880    -1.2330 H     1 <1>   0.0800 
 44 H       -6.8990    -0.8520     0.4200 H     1 <1>   0.0800 
 45 H       -6.3190     2.4750    -0.9490 H     1 <1>   0.0800 
 46 H       -6.2750     4.2250    -0.8240 H     1 <1>   0.0800 
 47 H       -5.3990     4.1250     1.3950 H     1 <1>   0.0800 
 48 H       -6.4900     2.7530     1.4250 H     1 <1>   0.0800 
 49 H        3.9750     3.3780     2.3200 H     1 <1>   0.1500 
 50 H        3.7910     0.4260    -0.7510 H     1 <1>   0.1500 
 51 H       -7.8900    -3.0300     0.0090 H     1 <1>   0.0800 
 52 H       -6.8650    -3.2920    -1.3890 H     1 <1>   0.0800 
 53 H        7.1500     0.8080     0.6460 H     1 <1>   0.0800 
 54 H        6.0850     0.9900    -0.7440 H     1 <1>   0.0800 
 55 H        5.7230    -0.2140     0.5060 H     1 <1>   0.0800 
@<TRIPOS>BOND
  1   1   2  2   
  2   2   3  am  
  3   2   4  1   
  4   3   5  1   
  5   3  29  1   
  6   4   6  1   
  7   4   7  2   
  8   5   8  1   
  9   5  30  1   
 10   5  31  1   
 11   6   9  2   
 12   6  10  1   
 13   7  11  1   
 14   7  12  1   
 15   8  13  1   
 16   8  14  1   
 17   8  32  1   
 18   9  11  1   
 19  10  15  1   
 20  10  16  1   
 21  12  17  ar  
 22  12  18  ar  
 23  13  19  1   
 24  13  33  1   
 25  13  34  1   
 26  14  20  1   
 27  14  35  1   
 28  14  36  1   
 29  15  21  1   
 30  15  37  1   
 31  15  38  1   
 32  16  22  1   
 33  16  39  1   
 34  16  40  1   
 35  17  23  ar  
 36  17  41  1   
 37  18  24  ar  
 38  18  42  1   
 39  19  25  1   
 40  20  25  1   
 41  20  43  1   
 42  20  44  1   
 43  21  22  1   
 44  21  45  1   
 45  21  46  1   
 46  22  47  1   
 47  22  48  1   
 48  23  26  ar  
 49  23  49  1   
 50  24  26  ar  
 51  24  50  1   
 52  25  51  1   
 53  25  52  1   
 54  26  27  1   
 55  27  28  1   
 56  28  53  1   
 57  28  54  1   
 58  28  55  1   
@<TRIPOS>SUBSTRUCTURE
  1 ****   2 GROUP 4 **** **** 0

# MOE 2024.06 (io_trps.svl 2023.06)
