@<TRIPOS>MOLECULE
NONAME
40 40 1 0 0 
SMALL
USER_CHARGES


@<TRIPOS>ATOM
  1 O       -1.8680     2.5040    -2.0130 O.2   1 <1>  -0.5700 
  2 C       -1.9760     2.1830    -0.8550 C.2   1 <1>   0.5690 
  3 N       -2.4500     0.9670    -0.4760 N.am  1 <1>  -0.7300 
  4 C       -1.5630     3.1670     0.2090 C.3   1 <1>  -0.0990 
  5 C       -2.8930    -0.1010    -1.4080 C.3   1 <1>   0.0600 
  6 C       -0.0410     3.2630     0.2520 C.3   1 <1>   0.2090 
  7 N        0.3790     4.2950     1.2360 N.pl3 1 <1>  -0.8380 
  8 C        1.3800     5.1590     0.8350 C.ar  1 <1>   0.4100 
  9 C        0.3740     3.8510     2.6580 C.3   1 <1>   0.1290 
 10 N        2.5920     4.8960     1.2830 N.ar  1 <1>  -0.6200 
 11 C        1.1390     6.2390    -0.0090 C.ar  1 <1>  -0.1430 
 12 C        3.5490     5.7020     0.8770 C.ar  1 <1>   0.4770 
 13 C        2.2300     6.9970    -0.3580 C.ar  1 <1>   0.1600 
 14 C       -0.2800     6.5380    -0.5060 C.3   1 <1>  -0.0170 
 15 N        3.4470     6.7440     0.0770 N.ar  1 <1>  -0.6200 
 16 C        4.9370     5.4020     1.3890 C.3   1 <1>  -0.0970 
 17 C       -0.4910     7.9500    -1.0760 C.3   1 <1>  -0.1600 
 18 C       -1.9610     8.1870    -1.4380 C.3   1 <1>  -0.2400 
 19 H       -2.5300     0.7480     0.5180 H     1 <1>   0.3700 
 20 H       -1.9430     2.8560     1.1620 H     1 <1>   0.0800 
 21 H       -1.9800     4.1250    -0.0360 H     1 <1>   0.0800 
 22 H       -2.7740     0.2190    -2.4300 H     1 <1>   0.0800 
 23 H       -3.9320    -0.3260    -1.2360 H     1 <1>   0.0800 
 24 H       -2.3060    -0.9880    -1.2520 H     1 <1>   0.0800 
 25 H        0.3290     3.5250    -0.7270 H     1 <1>   0.0800 
 26 H        0.3870     2.3120     0.5190 H     1 <1>   0.0800 
 27 H       -0.6300     3.6370     2.9770 H     1 <1>   0.0800 
 28 H        0.7730     4.6310     3.2840 H     1 <1>   0.0800 
 29 H        0.9860     2.9730     2.7710 H     1 <1>   0.0800 
 30 H        2.1260     7.8430    -1.0120 H     1 <1>   0.1500 
 31 H       -0.9580     6.4070     0.3200 H     1 <1>   0.0800 
 32 H       -0.5380     5.8140    -1.2590 H     1 <1>   0.0800 
 33 H        4.9670     4.4300     1.8460 H     1 <1>   0.0800 
 34 H        5.2140     6.1420     2.1150 H     1 <1>   0.0800 
 35 H        5.6350     5.4270     0.5730 H     1 <1>   0.0800 
 36 H        0.1060     8.0770    -1.9620 H     1 <1>   0.0800 
 37 H       -0.1850     8.6810    -0.3470 H     1 <1>   0.0800 
 38 H       -2.2870     7.4730    -2.1750 H     1 <1>   0.0800 
 39 H       -2.0850     9.1760    -1.8420 H     1 <1>   0.0800 
 40 H       -2.5840     8.0940    -0.5660 H     1 <1>   0.0800 
@<TRIPOS>BOND
  1   1   2  2   
  2   2   3  am  
  3   2   4  1   
  4   3   5  1   
  5   3  19  1   
  6   4   6  1   
  7   4  20  1   
  8   4  21  1   
  9   5  22  1   
 10   5  23  1   
 11   5  24  1   
 12   6   7  1   
 13   6  25  1   
 14   6  26  1   
 15   7   8  1   
 16   7   9  1   
 17   8  10  ar  
 18   8  11  ar  
 19   9  27  1   
 20   9  28  1   
 21   9  29  1   
 22  10  12  ar  
 23  11  13  ar  
 24  11  14  1   
 25  12  15  ar  
 26  12  16  1   
 27  13  15  ar  
 28  13  30  1   
 29  14  17  1   
 30  14  31  1   
 31  14  32  1   
 32  16  33  1   
 33  16  34  1   
 34  16  35  1   
 35  17  18  1   
 36  17  36  1   
 37  17  37  1   
 38  18  38  1   
 39  18  39  1   
 40  18  40  1   
@<TRIPOS>SUBSTRUCTURE
  1 ****   7 GROUP 4 **** **** 0

# MOE 2024.06 (io_trps.svl 2023.06)
