@<TRIPOS>MOLECULE
NONAME
63 65 1 0 0 
SMALL
USER_CHARGES


@<TRIPOS>ATOM
  1 O       -0.8160    -1.2870    -0.7540 O.2   1 <1>  -0.5700 
  2 C        0.0690    -2.0450    -0.4390 C.2   1 <1>   0.5690 
  3 N       -0.1380    -3.2030     0.2600 N.am  1 <1>  -0.6600 
  4 C        1.4930    -1.7100    -0.8260 C.3   1 <1>  -0.0990 
  5 C        1.0000    -4.0750     0.6350 C.3   1 <1>   0.1400 
  6 C       -1.4870    -3.6170     0.7330 C.3   1 <1>   0.0600 
  7 C        2.2050    -2.9550    -1.3890 C.3   1 <1>  -0.0800 
  8 C        1.9550    -4.2420    -0.5660 C.3   1 <1>  -0.0800 
  9 C        3.7260    -2.7840    -1.4830 C.3   1 <1>  -0.1600 
 10 C        3.3430    -4.7670    -0.1670 C.3   1 <1>  -0.1600 
 11 C        4.2820    -4.1770    -1.2190 C.3   1 <1>   0.4230 
 12 N        5.7340    -4.1930    -0.8590 N.4   1 <1>  -0.9590 
 13 C        6.1310    -3.5360     0.4240 C.3   1 <1>   0.4860 
 14 C        6.2760    -5.5840    -0.9260 C.3   1 <1>   0.2630 
 15 C        6.6000    -2.1260     0.1220 C.ar  1 <1>  -0.1440 
 16 C        5.9390    -1.0470     0.6920 C.ar  1 <1>  -0.1500 
 17 C        7.6810    -1.8940    -0.7200 C.ar  1 <1>  -0.1500 
 18 C        6.3180     0.2510     0.3990 C.ar  1 <1>   0.0820 
 19 C        8.0800    -0.5970    -0.9990 C.ar  1 <1>  -0.1500 
 20 O        5.5840     1.2470     0.9540 O.3   1 <1>  -0.3630 
 21 C        7.4130     0.4780    -0.4390 C.ar  1 <1>   0.0820 
 22 C        4.8730     2.1120     0.0910 C.3   1 <1>   0.1200 
 23 O        7.8650     1.7180    -0.7380 O.3   1 <1>  -0.3630 
 24 C        3.6080     1.4080    -0.4010 C.3   1 <1>  -0.2400 
 25 C        8.4060     2.4700     0.3280 C.3   1 <1>   0.2580 
 26 C        8.9300     3.7910    -0.2200 C.2   1 <1>  -0.2760 
 27 C       10.2170     4.1470    -0.1670 C.2   1 <1>  -0.3000 
 28 C        7.8590     4.6790    -0.8350 C.3   1 <1>  -0.1020 
 29 H        1.4880    -0.9230    -1.5590 H     1 <1>   0.0800 
 30 H        1.9890    -1.3470     0.0550 H     1 <1>   0.0800 
 31 H        1.5110    -3.6170     1.4650 H     1 <1>   0.0800 
 32 H        0.6390    -5.0390     0.9510 H     1 <1>   0.0800 
 33 H       -1.7430    -4.5750     0.3140 H     1 <1>   0.0800 
 34 H       -2.2310    -2.9010     0.4300 H     1 <1>   0.0800 
 35 H       -1.4930    -3.6840     1.8070 H     1 <1>   0.0800 
 36 H        1.8150    -3.1290    -2.3800 H     1 <1>   0.0800 
 37 H        1.5030    -4.9630    -1.2280 H     1 <1>   0.0800 
 38 H        4.0390    -2.0960    -0.7270 H     1 <1>   0.0800 
 39 H        4.0160    -2.4120    -2.4500 H     1 <1>   0.0800 
 40 H        3.3620    -5.8420    -0.1730 H     1 <1>   0.0800 
 41 H        3.5840    -4.4070     0.8150 H     1 <1>   0.0800 
 42 H        4.1450    -4.7440    -2.1270 H     1 <1>   0.0800 
 43 H        6.2030    -3.6280    -1.5820 H     1 <1>   0.4500 
 44 H        5.3110    -3.5100     1.1200 H     1 <1>   0.0800 
 45 H        6.9450    -4.0740     0.8820 H     1 <1>   0.0800 
 46 H        5.8200    -6.2020    -0.1690 H     1 <1>   0.0800 
 47 H        7.3430    -5.5800    -0.7710 H     1 <1>   0.0800 
 48 H        6.0740    -6.0190    -1.8920 H     1 <1>   0.0800 
 49 H        5.1090    -1.1870     1.3620 H     1 <1>   0.1500 
 50 H        8.2320    -2.7060    -1.1630 H     1 <1>   0.1500 
 51 H        8.9180    -0.4070    -1.6490 H     1 <1>   0.1500 
 52 H        4.6150     2.9900     0.6580 H     1 <1>   0.0800 
 53 H        5.5010     2.4020    -0.7330 H     1 <1>   0.0800 
 54 H        3.0050     1.1020     0.4350 H     1 <1>   0.0800 
 55 H        3.8640     0.5560    -1.0030 H     1 <1>   0.0800 
 56 H        3.0320     2.0860    -1.0050 H     1 <1>   0.0800 
 57 H        7.6420     2.6450     1.0630 H     1 <1>   0.0800 
 58 H        9.2020     1.8970     0.7710 H     1 <1>   0.0800 
 59 H       10.9970     3.5420     0.2600 H     1 <1>   0.1500 
 60 H       10.6030     5.0770    -0.5500 H     1 <1>   0.1500 
 61 H        7.3990     4.1820    -1.6710 H     1 <1>   0.0800 
 62 H        8.2860     5.6020    -1.1850 H     1 <1>   0.0800 
 63 H        7.1020     4.9080    -0.1060 H     1 <1>   0.0800 
@<TRIPOS>BOND
  1   1   2  2   
  2   2   3  am  
  3   2   4  1   
  4   3   5  1   
  5   3   6  1   
  6   4   7  1   
  7   4  29  1   
  8   4  30  1   
  9   5   8  1   
 10   5  31  1   
 11   5  32  1   
 12   6  33  1   
 13   6  34  1   
 14   6  35  1   
 15   7   8  1   
 16   7   9  1   
 17   7  36  1   
 18   8  10  1   
 19   8  37  1   
 20   9  11  1   
 21   9  38  1   
 22   9  39  1   
 23  10  11  1   
 24  10  40  1   
 25  10  41  1   
 26  11  12  1   
 27  11  42  1   
 28  12  13  1   
 29  12  14  1   
 30  12  43  1   
 31  13  15  1   
 32  13  44  1   
 33  13  45  1   
 34  14  46  1   
 35  14  47  1   
 36  14  48  1   
 37  15  16  ar  
 38  15  17  ar  
 39  16  18  ar  
 40  16  49  1   
 41  17  19  ar  
 42  17  50  1   
 43  18  20  1   
 44  18  21  ar  
 45  19  21  ar  
 46  19  51  1   
 47  20  22  1   
 48  21  23  1   
 49  22  24  1   
 50  22  52  1   
 51  22  53  1   
 52  23  25  1   
 53  24  54  1   
 54  24  55  1   
 55  24  56  1   
 56  25  26  1   
 57  25  57  1   
 58  25  58  1   
 59  26  27  2   
 60  26  28  1   
 61  27  59  1   
 62  27  60  1   
 63  28  61  1   
 64  28  62  1   
 65  28  63  1   
@<TRIPOS>SUBSTRUCTURE
  1 ****  16 GROUP 4 **** **** 0

# MOE 2024.06 (io_trps.svl 2023.06)
