@<TRIPOS>MOLECULE
NONAME
53 56 1 0 0 
SMALL
USER_CHARGES


@<TRIPOS>ATOM
  1 O        3.8090    -1.2760    -1.8510 O.2   1 <1>  -0.5700 
  2 C        3.0210    -0.9180    -0.9940 C.2   1 <1>   0.7150 
  3 N        3.2200     0.3370    -0.4570 N.am  1 <1>  -0.6600 
  4 C        1.9970    -1.8200    -0.5130 C.2   1 <1>   0.0550 
  5 C        3.5930     0.4440     0.9890 C.3   1 <1>   0.2200 
  6 C        3.5730     1.4580    -1.3640 C.3   1 <1>   0.1400 
  7 O        1.1740    -1.4830     0.4780 O.3   1 <1>  -0.2800 
  8 C        1.6780    -3.0800    -0.9210 C.2   1 <1>  -0.1500 
  9 C        3.5140     1.8910     1.5420 C.3   1 <1>   0.1200 
 10 C        4.9800    -0.2220     1.2060 C.3   1 <1>   0.3430 
 11 C        4.9590     2.0330    -1.0580 C.3   1 <1>  -0.0800 
 12 C        0.3490    -2.4800     0.7040 C.2   1 <1>  -0.0100 
 13 C        0.6110    -3.5060    -0.1310 C.2   1 <1>  -0.1500 
 14 O        4.6880     2.6300     1.3110 O.3   1 <1>  -0.5600 
 15 N        6.1420     0.5430     0.6280 N.4   1 <1>  -0.9590 
 16 C        4.8820     3.1380     0.0210 C.3   1 <1>   0.1200 
 17 C        6.0080     0.9220    -0.8210 C.3   1 <1>   0.3430 
 18 C        7.4540    -0.0750     0.9570 C.3   1 <1>   0.4860 
 19 C        8.5540     0.9020     0.6180 C.ar  1 <1>  -0.1430 
 20 C        8.7150     2.0790     1.3110 C.ar  1 <1>   0.1600 
 21 C        9.4300     0.6660    -0.4150 C.ar  1 <1>   0.1600 
 22 N        9.6320     2.9520     0.9930 N.ar  1 <1>  -0.6200 
 23 N       10.3550     1.5250    -0.7510 N.ar  1 <1>  -0.6200 
 24 C       10.4250     2.6470    -0.0340 C.ar  1 <1>   0.7200 
 25 N       11.3930     3.5660    -0.3850 N.pl3 1 <1>  -0.8380 
 26 C       12.4330     3.2560    -1.4080 C.3   1 <1>   0.1290 
 27 C       11.6710     4.7700     0.4520 C.3   1 <1>   0.1290 
 28 H        2.8750    -0.1280     1.5470 H     1 <1>   0.0800 
 29 H        3.5570     1.1090    -2.3850 H     1 <1>   0.0800 
 30 H        2.8210     2.2260    -1.2890 H     1 <1>   0.0800 
 31 H        2.1450    -3.6530    -1.7050 H     1 <1>   0.1500 
 32 H        3.3960     1.8440     2.6110 H     1 <1>   0.0800 
 33 H        2.6650     2.4210     1.1440 H     1 <1>   0.0800 
 34 H        4.9530    -1.2130     0.7840 H     1 <1>   0.0800 
 35 H        5.1300    -0.3250     2.2680 H     1 <1>   0.0800 
 36 H        5.2550     2.5340    -1.9630 H     1 <1>   0.0800 
 37 H       -0.3980    -2.3830     1.4750 H     1 <1>   0.1500 
 38 H        0.1160    -4.4600    -0.2000 H     1 <1>   0.1500 
 39 H        6.0840     1.4600     1.1120 H     1 <1>   0.4500 
 40 H        4.0850     3.8320    -0.1920 H     1 <1>   0.0800 
 41 H        5.8040     3.6940     0.0370 H     1 <1>   0.0800 
 42 H        6.9540     1.2980    -1.1740 H     1 <1>   0.0800 
 43 H        5.7610     0.0550    -1.4130 H     1 <1>   0.0800 
 44 H        7.5000    -0.3100     2.0080 H     1 <1>   0.0800 
 45 H        7.5820    -0.9880     0.3970 H     1 <1>   0.0800 
 46 H        8.0760     2.3230     2.1440 H     1 <1>   0.1500 
 47 H        9.3740    -0.2430    -0.9920 H     1 <1>   0.1500 
 48 H       12.8740     4.1630    -1.7820 H     1 <1>   0.0800 
 49 H       11.9970     2.7290    -2.2400 H     1 <1>   0.0800 
 50 H       13.2000     2.6430    -0.9690 H     1 <1>   0.0800 
 51 H       12.1830     5.5180    -0.1260 H     1 <1>   0.0800 
 52 H       12.2830     4.4910     1.2930 H     1 <1>   0.0800 
 53 H       10.7530     5.1980     0.8150 H     1 <1>   0.0800 
@<TRIPOS>BOND
  1   1   2  2   
  2   2   3  am  
  3   2   4  1   
  4   3   5  1   
  5   3   6  1   
  6   4   7  1   
  7   4   8  2   
  8   5   9  1   
  9   5  10  1   
 10   5  28  1   
 11   6  11  1   
 12   6  29  1   
 13   6  30  1   
 14   7  12  1   
 15   8  13  1   
 16   8  31  1   
 17   9  14  1   
 18   9  32  1   
 19   9  33  1   
 20  10  15  1   
 21  10  34  1   
 22  10  35  1   
 23  11  16  1   
 24  11  17  1   
 25  11  36  1   
 26  12  13  2   
 27  12  37  1   
 28  13  38  1   
 29  14  16  1   
 30  15  17  1   
 31  15  18  1   
 32  15  39  1   
 33  16  40  1   
 34  16  41  1   
 35  17  42  1   
 36  17  43  1   
 37  18  19  1   
 38  18  44  1   
 39  18  45  1   
 40  19  20  ar  
 41  19  21  ar  
 42  20  22  ar  
 43  20  46  1   
 44  21  23  ar  
 45  21  47  1   
 46  22  24  ar  
 47  23  24  ar  
 48  24  25  1   
 49  25  26  1   
 50  25  27  1   
 51  26  48  1   
 52  26  49  1   
 53  26  50  1   
 54  27  51  1   
 55  27  52  1   
 56  27  53  1   
@<TRIPOS>SUBSTRUCTURE
  1 ****  15 GROUP 4 **** **** 0

# MOE 2024.06 (io_trps.svl 2023.06)
