@<TRIPOS>MOLECULE
NONAME
50 53 1 0 0 
SMALL
USER_CHARGES


@<TRIPOS>ATOM
  1 S       -1.1790    -0.7210     0.6540 S.3   1 <1>  -0.0800 
  2 C       -2.2080    -1.3920    -0.6060 C.2   1 <1>  -0.1400 
  3 C       -1.4820     0.9160     0.1000 C.2   1 <1>  -0.1100 
  4 C       -2.7140    -0.4010    -1.3660 C.2   1 <1>  -0.1500 
  5 C       -2.3550    -2.9080    -0.6470 C.3   1 <1>   0.3800 
  6 C       -2.3050     0.9110    -0.9640 C.2   1 <1>  -0.1500 
  7 O       -3.1070    -3.2420    -1.7580 O.3   1 <1>  -0.6800 
  8 C       -3.0310    -3.4830     0.6200 C.3   1 <1>  -0.0800 
  9 C       -3.1710    -5.0190     0.5540 C.3   1 <1>  -0.1600 
 10 C       -4.4040    -2.8400     0.9200 C.3   1 <1>  -0.1600 
 11 C       -3.8300    -5.5890     1.8120 C.3   1 <1>   0.2090 
 12 C       -5.0580    -3.4440     2.1670 C.3   1 <1>   0.2090 
 13 N       -5.1390    -4.9240     2.0300 N.pl3 1 <1>  -0.8380 
 14 C       -6.2960    -5.5150     1.5370 C.ar  1 <1>   0.4100 
 15 N       -7.0860    -4.8040     0.7200 N.ar  1 <1>  -0.3100 
 16 C       -6.6150    -6.8160     1.8840 C.ar  1 <1>  -0.1500 
 17 N       -8.1690    -5.3330     0.2070 N.ar  1 <1>  -0.3100 
 18 C       -7.7500    -7.3680     1.3480 C.ar  1 <1>  -0.1500 
 19 C       -8.5160    -6.5960     0.4890 C.ar  1 <1>   0.3100 
 20 C       -9.7260    -7.1210    -0.1040 C.ar  1 <1>   0.0000 
 21 C       -9.7500    -8.3200    -0.8290 C.ar  1 <1>   0.0830 
 22 C      -10.9240    -6.4190     0.0370 C.ar  1 <1>  -0.1500 
 23 O       -8.5780    -8.9900    -0.9840 O.3   1 <1>  -0.3620 
 24 C      -10.9440    -8.7890    -1.3720 C.ar  1 <1>  -0.1500 
 25 C      -12.1050    -6.8860    -0.5060 C.ar  1 <1>  -0.1500 
 26 C       -8.4410   -10.0680    -1.8830 C.3   1 <1>   0.0400 
 27 C      -12.1170    -8.0750    -1.2110 C.ar  1 <1>  -0.1500 
 28 H       -1.0060     1.7170     0.6370 H     1 <1>   0.1500 
 29 H       -3.3670    -0.5360    -2.2120 H     1 <1>   0.1500 
 30 H       -1.3820    -3.3510    -0.7780 H     1 <1>   0.0800 
 31 H       -2.6460     1.7820    -1.4950 H     1 <1>   0.1500 
 32 H       -4.0310    -2.9760    -1.5960 H     1 <1>   0.4000 
 33 H       -2.3850    -3.2590     1.4500 H     1 <1>   0.0800 
 34 H       -2.2020    -5.4680     0.4310 H     1 <1>   0.0800 
 35 H       -3.7710    -5.3020    -0.2930 H     1 <1>   0.0800 
 36 H       -5.0740    -2.9810     0.0910 H     1 <1>   0.0800 
 37 H       -4.2940    -1.7820     1.0740 H     1 <1>   0.0800 
 38 H       -3.2010    -5.4200     2.6700 H     1 <1>   0.0800 
 39 H       -3.9620    -6.6510     1.6960 H     1 <1>   0.0800 
 40 H       -6.0440    -3.0310     2.3020 H     1 <1>   0.0800 
 41 H       -4.4760    -3.2040     3.0400 H     1 <1>   0.0800 
 42 H       -5.9890    -7.3640     2.5590 H     1 <1>   0.1500 
 43 H       -8.0460    -8.3750     1.5790 H     1 <1>   0.1500 
 44 H      -10.9210    -5.4900     0.5810 H     1 <1>   0.1500 
 45 H      -10.9830    -9.7080    -1.9240 H     1 <1>   0.1500 
 46 H      -13.0150    -6.3240    -0.3810 H     1 <1>   0.1500 
 47 H       -7.4060   -10.3600    -1.8980 H     1 <1>   0.0800 
 48 H       -8.7430    -9.7450    -2.8640 H     1 <1>   0.0800 
 49 H       -9.0460   -10.8880    -1.5420 H     1 <1>   0.0800 
 50 H      -13.0370    -8.4410    -1.6330 H     1 <1>   0.1500 
@<TRIPOS>BOND
  1   1   2  1   
  2   1   3  1   
  3   2   4  2   
  4   2   5  1   
  5   3   6  2   
  6   3  28  1   
  7   4   6  1   
  8   4  29  1   
  9   5   7  1   
 10   5   8  1   
 11   5  30  1   
 12   6  31  1   
 13   7  32  1   
 14   8   9  1   
 15   8  10  1   
 16   8  33  1   
 17   9  11  1   
 18   9  34  1   
 19   9  35  1   
 20  10  12  1   
 21  10  36  1   
 22  10  37  1   
 23  11  13  1   
 24  11  38  1   
 25  11  39  1   
 26  12  13  1   
 27  12  40  1   
 28  12  41  1   
 29  13  14  1   
 30  14  15  ar  
 31  14  16  ar  
 32  15  17  ar  
 33  16  18  ar  
 34  16  42  1   
 35  17  19  ar  
 36  18  19  ar  
 37  18  43  1   
 38  19  20  1   
 39  20  21  ar  
 40  20  22  ar  
 41  21  23  1   
 42  21  24  ar  
 43  22  25  ar  
 44  22  44  1   
 45  23  26  1   
 46  24  27  ar  
 47  24  45  1   
 48  25  27  ar  
 49  25  46  1   
 50  26  47  1   
 51  26  48  1   
 52  26  49  1   
 53  27  50  1   
@<TRIPOS>SUBSTRUCTURE
  1 ****  15 GROUP 4 **** **** 0

# MOE 2024.06 (io_trps.svl 2023.06)
