@<TRIPOS>MOLECULE
NONAME
34 35 1 0 0 
SMALL
USER_CHARGES


@<TRIPOS>ATOM
  1 S        0.4300     0.4370    -0.7460 S.3   1 <1>  -0.0800 
  2 C       -1.0850     1.2420    -0.4370 C.2   1 <1>  -0.1400 
  3 C       -0.3910    -1.1000    -0.6090 C.2   1 <1>   0.2280 
  4 C       -2.0370     0.3090    -0.2640 C.2   1 <1>   0.0460 
  5 C       -1.0770     2.7600    -0.4200 C.3   1 <1>   0.0200 
  6 N       -1.6360    -1.0120    -0.3620 N.2   1 <1>  -0.5650 
  7 C       -3.5050     0.5340     0.0310 C.3   1 <1>  -0.0590 
  8 C       -0.4100     3.2840     0.8560 C.3   1 <1>  -0.0990 
  9 C       -0.3830     4.7960     0.8610 C.2   1 <1>   0.5690 
 10 O       -1.4130     5.3800     1.0950 O.2   1 <1>  -0.5700 
 11 N        0.7960     5.4180     0.5850 N.am  1 <1>  -0.4930 
 12 C        1.0760     6.8050     0.5070 C.2   1 <1>   0.0630 
 13 C        2.2670     7.3680     0.2070 C.2   1 <1>  -0.3320 
 14 C        0.2160     7.8850     0.7150 C.2   1 <1>   0.1390 
 15 N        2.0790     8.7120     0.2460 N.pl3 1 <1>   0.3140 
 16 C        3.6010     6.7110    -0.1220 C.3   1 <1>  -0.0600 
 17 N        0.8130     9.0290     0.5590 N.2   1 <1>  -0.7070 
 18 C        3.0770     9.7590    -0.0080 C.3   1 <1>   0.0160 
 19 H        0.2020    -1.9880    -0.7400 H     1 <1>   0.1500 
 20 H       -2.0860     3.1300    -0.4690 H     1 <1>   0.0800 
 21 H       -0.5540     3.1210    -1.2890 H     1 <1>   0.0800 
 22 H       -3.7280     1.5800     0.1180 H     1 <1>   0.0800 
 23 H       -3.7640     0.0470     0.9540 H     1 <1>   0.0800 
 24 H       -4.0990     0.1140    -0.7600 H     1 <1>   0.0800 
 25 H        0.5890     2.8980     0.9390 H     1 <1>   0.0800 
 26 H       -0.9680     2.9490     1.7120 H     1 <1>   0.0800 
 27 H        1.6000     4.8230     0.4040 H     1 <1>   0.3700 
 28 H       -0.8240     7.7900     0.9750 H     1 <1>   0.1500 
 29 H        3.5160     5.6410    -0.0980 H     1 <1>   0.0800 
 30 H        4.3460     7.0090     0.5950 H     1 <1>   0.0800 
 31 H        3.9250     7.0040    -1.1050 H     1 <1>   0.0800 
 32 H        3.8770     9.6630     0.7000 H     1 <1>   0.0800 
 33 H        2.6120    10.7210     0.1030 H     1 <1>   0.0800 
 34 H        3.4510     9.6550    -1.0080 H     1 <1>   0.0800 
@<TRIPOS>BOND
  1   1   2  1   
  2   1   3  1   
  3   2   4  2   
  4   2   5  1   
  5   3   6  2   
  6   3  19  1   
  7   4   6  1   
  8   4   7  1   
  9   5   8  1   
 10   5  20  1   
 11   5  21  1   
 12   7  22  1   
 13   7  23  1   
 14   7  24  1   
 15   8   9  1   
 16   8  25  1   
 17   8  26  1   
 18   9  10  2   
 19   9  11  am  
 20  11  12  1   
 21  11  27  1   
 22  12  13  2   
 23  12  14  1   
 24  13  15  1   
 25  13  16  1   
 26  14  17  2   
 27  14  28  1   
 28  15  17  1   
 29  15  18  1   
 30  16  29  1   
 31  16  30  1   
 32  16  31  1   
 33  18  32  1   
 34  18  33  1   
 35  18  34  1   
@<TRIPOS>SUBSTRUCTURE
  1 ****   9 GROUP 4 **** **** 0

# MOE 2024.06 (io_trps.svl 2023.06)
