@<TRIPOS>MOLECULE
NONAME
54 57 1 0 0 
SMALL
USER_CHARGES


@<TRIPOS>ATOM
  1 O       -0.9020     0.6990     1.5630 O.2   1 <1>  -0.5700 
  2 C       -1.7460     0.8250     0.6960 C.2   1 <1>   0.5440 
  3 N       -1.5160     1.7220    -0.3270 N.am  1 <1>  -0.6600 
  4 C       -2.9580     0.0440     0.7710 C.ar  1 <1>   0.0860 
  5 C       -0.1640     2.3160    -0.5670 C.3   1 <1>   0.1400 
  6 C       -2.6010     2.4220    -1.0820 C.3   1 <1>   0.1400 
  7 C       -3.4860    -0.5860    -0.3530 C.ar  1 <1>   0.1600 
  8 C       -3.6510    -0.1270     1.9640 C.ar  1 <1>  -0.1500 
  9 C       -0.2070     3.8430    -0.3980 C.3   1 <1>   0.1200 
 10 C       -2.4950     3.9470    -0.8980 C.3   1 <1>   0.1200 
 11 N       -4.5990    -1.2960    -0.3990 N.ar  1 <1>  -0.6200 
 12 C       -4.8060    -0.8710     1.9400 C.ar  1 <1>  -0.1500 
 13 O       -1.2070     4.3980    -1.2060 O.3   1 <1>  -0.5600 
 14 C       -5.2620    -1.4330     0.7470 C.ar  1 <1>   0.4100 
 15 N       -6.4340    -2.1610     0.7140 N.pl3 1 <1>  -0.8380 
 16 C       -6.5250    -3.3100    -0.2320 C.3   1 <1>   0.2090 
 17 C       -7.6480    -1.6240     1.3890 C.3   1 <1>   0.2090 
 18 C       -7.5130    -4.3900     0.2160 C.3   1 <1>  -0.1600 
 19 C       -8.8910    -1.6330     0.4940 C.3   1 <1>  -0.1600 
 20 C       -8.9550    -4.1120    -0.2410 C.3   1 <1>   0.0630 
 21 C       -9.6440    -2.9730     0.5240 C.3   1 <1>  -0.1600 
 22 C       -9.8010    -5.3810    -0.1360 C.ar  1 <1>  -0.1430 
 23 C       -9.9440    -6.0510     1.0720 C.ar  1 <1>  -0.1500 
 24 C      -10.4440    -5.8800    -1.2600 C.ar  1 <1>  -0.1500 
 25 C      -10.7140    -7.1990     1.1540 C.ar  1 <1>  -0.1500 
 26 C      -11.2140    -7.0280    -1.1800 C.ar  1 <1>  -0.1500 
 27 C      -11.3490    -7.6880     0.0280 C.ar  1 <1>  -0.1500 
 28 H        0.1520     2.0810    -1.5670 H     1 <1>   0.0800 
 29 H        0.5620     1.9030     0.1110 H     1 <1>   0.0800 
 30 H       -3.5700     2.1010    -0.7450 H     1 <1>   0.0800 
 31 H       -2.5140     2.1860    -2.1280 H     1 <1>   0.0800 
 32 H       -2.9420    -0.4900    -1.2760 H     1 <1>   0.1500 
 33 H       -3.2780     0.3120     2.8730 H     1 <1>   0.1500 
 34 H        0.7330     4.2760    -0.6920 H     1 <1>   0.0800 
 35 H       -0.4020     4.1030     0.6280 H     1 <1>   0.0800 
 36 H       -2.7230     4.2220     0.1170 H     1 <1>   0.0800 
 37 H       -3.1840     4.4480    -1.5540 H     1 <1>   0.0800 
 38 H       -5.3640    -1.0370     2.8400 H     1 <1>   0.1500 
 39 H       -5.5480    -3.7600    -0.3020 H     1 <1>   0.0800 
 40 H       -6.7780    -2.9450    -1.2120 H     1 <1>   0.0800 
 41 H       -7.4580    -0.6030     1.6750 H     1 <1>   0.0800 
 42 H       -7.8330    -2.1850     2.2880 H     1 <1>   0.0800 
 43 H       -7.4520    -4.5300     1.2790 H     1 <1>   0.0800 
 44 H       -7.2040    -5.3100    -0.2460 H     1 <1>   0.0800 
 45 H       -8.6310    -1.3480    -0.5100 H     1 <1>   0.0800 
 46 H       -9.5620    -0.8830     0.8740 H     1 <1>   0.0800 
 47 H       -8.9170    -3.8270    -1.2790 H     1 <1>   0.0800 
 48 H      -10.6170    -2.8250     0.0860 H     1 <1>   0.0800 
 49 H       -9.8030    -3.2670     1.5460 H     1 <1>   0.0800 
 50 H       -9.4570    -5.6830     1.9570 H     1 <1>   0.1500 
 51 H      -10.3510    -5.3780    -2.2060 H     1 <1>   0.1500 
 52 H      -10.8170    -7.7110     2.0950 H     1 <1>   0.1500 
 53 H      -11.7080    -7.4060    -2.0570 H     1 <1>   0.1500 
 54 H      -11.9480    -8.5800     0.0910 H     1 <1>   0.1500 
@<TRIPOS>BOND
  1   1   2  2   
  2   2   3  am  
  3   2   4  1   
  4   3   5  1   
  5   3   6  1   
  6   4   7  ar  
  7   4   8  ar  
  8   5   9  1   
  9   5  28  1   
 10   5  29  1   
 11   6  10  1   
 12   6  30  1   
 13   6  31  1   
 14   7  11  ar  
 15   7  32  1   
 16   8  12  ar  
 17   8  33  1   
 18   9  13  1   
 19   9  34  1   
 20   9  35  1   
 21  10  13  1   
 22  10  36  1   
 23  10  37  1   
 24  11  14  ar  
 25  12  14  ar  
 26  12  38  1   
 27  14  15  1   
 28  15  16  1   
 29  15  17  1   
 30  16  18  1   
 31  16  39  1   
 32  16  40  1   
 33  17  19  1   
 34  17  41  1   
 35  17  42  1   
 36  18  20  1   
 37  18  43  1   
 38  18  44  1   
 39  19  21  1   
 40  19  45  1   
 41  19  46  1   
 42  20  21  1   
 43  20  22  1   
 44  20  47  1   
 45  21  48  1   
 46  21  49  1   
 47  22  23  ar  
 48  22  24  ar  
 49  23  25  ar  
 50  23  50  1   
 51  24  26  ar  
 52  24  51  1   
 53  25  27  ar  
 54  25  52  1   
 55  26  27  ar  
 56  26  53  1   
 57  27  54  1   
@<TRIPOS>SUBSTRUCTURE
  1 ****  14 GROUP 4 **** **** 0

# MOE 2024.06 (io_trps.svl 2023.06)
