@<TRIPOS>MOLECULE
NONAME
50 53 1 0 0 
SMALL
USER_CHARGES


@<TRIPOS>ATOM
  1 O        0.5850     0.8320    -0.7550 O.2   1 <1>  -0.5700 
  2 C       -0.1970     1.7830    -0.7730 C.2   1 <1>   0.5440 
  3 N       -1.5370     1.4980    -0.5130 N.am  1 <1>  -0.6600 
  4 C        0.3020     3.1240    -0.9420 C.ar  1 <1>   0.0860 
  5 C       -2.6300     2.4990    -0.7040 C.3   1 <1>   0.1400 
  6 C       -1.9930     0.1960     0.0280 C.3   1 <1>   0.1400 
  7 C        0.0070     3.9340    -2.0770 C.ar  1 <1>  -0.1710 
  8 C        1.1280     3.7020     0.0410 C.ar  1 <1>   0.0820 
  9 C       -3.3310     2.7860     0.6370 C.3   1 <1>   0.1440 
 10 C       -2.6880     0.4260     1.3780 C.3   1 <1>  -0.1600 
 11 O       -0.7490     3.5530    -3.0010 O.3   1 <1>  -0.8290 
 12 C        0.5580     5.2170    -2.1900 C.ar  1 <1>  -0.1500 
 13 O        1.4220     3.0350     1.1760 O.3   1 <1>  -0.5330 
 14 C        1.6640     4.9700    -0.0930 C.ar  1 <1>  -0.1500 
 15 C       -4.4530     3.7840     0.4070 C.ar  1 <1>   0.1670 
 16 C       -3.8200     1.4650     1.2730 C.3   1 <1>  -0.1600 
 17 C       -2.3940     3.5860     1.5790 C.3   1 <1>  -0.1600 
 18 C        1.3780     5.7310    -1.2200 C.ar  1 <1>  -0.1500 
 19 N       -5.6500     3.5100    -0.0540 N.ar  1 <1>  -0.6200 
 20 C       -4.0620     5.0450     0.7470 C.ar  1 <1>  -0.1430 
 21 C       -2.6410     5.0670     1.2550 C.3   1 <1>  -0.0170 
 22 C       -6.4660     4.5590    -0.1750 C.ar  1 <1>   0.7200 
 23 C       -4.9710     6.0590     0.5900 C.ar  1 <1>   0.1600 
 24 N       -6.1810     5.8280     0.1360 N.ar  1 <1>  -0.6200 
 25 N       -7.7320     4.3050    -0.6680 N.pl3 1 <1>  -0.8380 
 26 C       -8.0320     3.0720    -1.4470 C.3   1 <1>   0.1290 
 27 C       -8.8260     5.3090    -0.5880 C.3   1 <1>   0.1290 
 28 H       -3.3390     2.1050    -1.4100 H     1 <1>   0.0800 
 29 H       -2.2560     3.4160    -1.1140 H     1 <1>   0.0800 
 30 H       -1.1620    -0.4750     0.1570 H     1 <1>   0.0800 
 31 H       -2.6770    -0.2470    -0.6740 H     1 <1>   0.0800 
 32 H       -1.9490     0.7580     2.0860 H     1 <1>   0.0800 
 33 H       -3.0850    -0.5080     1.7330 H     1 <1>   0.0800 
 34 H        0.3070     5.7730    -3.0740 H     1 <1>   0.1500 
 35 H        2.1610     3.4290     1.6650 H     1 <1>   0.4500 
 36 H        2.2990     5.3830     0.6660 H     1 <1>   0.1500 
 37 H       -4.6010     1.0580     0.6530 H     1 <1>   0.0800 
 38 H       -4.2440     1.6560     2.2420 H     1 <1>   0.0800 
 39 H       -1.3600     3.3170     1.4660 H     1 <1>   0.0800 
 40 H       -2.6810     3.4090     2.6000 H     1 <1>   0.0800 
 41 H        1.7950     6.7150    -1.3280 H     1 <1>   0.1500 
 42 H       -1.9790     5.3930     0.4690 H     1 <1>   0.0800 
 43 H       -2.5250     5.6910     2.1230 H     1 <1>   0.0800 
 44 H       -4.7020     7.0700     0.8400 H     1 <1>   0.1500 
 45 H       -7.1410     2.7040    -1.9270 H     1 <1>   0.0800 
 46 H       -8.7630     3.2810    -2.2070 H     1 <1>   0.0800 
 47 H       -8.4100     2.3130    -0.7850 H     1 <1>   0.0800 
 48 H       -8.7120     5.9200     0.2910 H     1 <1>   0.0800 
 49 H       -9.7800     4.8150    -0.5360 H     1 <1>   0.0800 
 50 H       -8.7970     5.9410    -1.4590 H     1 <1>   0.0800 
@<TRIPOS>BOND
  1   1   2  2   
  2   2   3  am  
  3   2   4  1   
  4   3   5  1   
  5   3   6  1   
  6   4   7  ar  
  7   4   8  ar  
  8   5   9  1   
  9   5  28  1   
 10   5  29  1   
 11   6  10  1   
 12   6  30  1   
 13   6  31  1   
 14   7  11  1   
 15   7  12  ar  
 16   8  13  1   
 17   8  14  ar  
 18   9  15  1   
 19   9  16  1   
 20   9  17  1   
 21  10  16  1   
 22  10  32  1   
 23  10  33  1   
 24  12  18  ar  
 25  12  34  1   
 26  13  35  1   
 27  14  18  ar  
 28  14  36  1   
 29  15  19  ar  
 30  15  20  ar  
 31  16  37  1   
 32  16  38  1   
 33  17  21  1   
 34  17  39  1   
 35  17  40  1   
 36  18  41  1   
 37  19  22  ar  
 38  20  21  1   
 39  20  23  ar  
 40  21  42  1   
 41  21  43  1   
 42  22  24  ar  
 43  22  25  1   
 44  23  24  ar  
 45  23  44  1   
 46  25  26  1   
 47  25  27  1   
 48  26  45  1   
 49  26  46  1   
 50  26  47  1   
 51  27  48  1   
 52  27  49  1   
 53  27  50  1   
@<TRIPOS>SUBSTRUCTURE
  1 ****   5 GROUP 4 **** **** 0

# MOE 2024.06 (io_trps.svl 2023.06)
