@<TRIPOS>MOLECULE
NONAME
45 46 1 0 0 
SMALL
USER_CHARGES


@<TRIPOS>ATOM
  1 F        0.3980    -1.0960     1.4280 F     1 <1>  -0.3400 
  2 C        0.1440    -2.3770     1.6470 C.3   1 <1>   0.8800 
  3 F        1.2790    -2.9050     2.0880 F     1 <1>  -0.3400 
  4 O       -0.1830    -2.9730     0.4120 O.3   1 <1>  -0.3630 
  5 C       -0.6680    -4.2310     0.3290 C.ar  1 <1>   0.0830 
  6 C       -0.8500    -5.0780     1.4190 C.ar  1 <1>  -0.1500 
  7 C       -0.9930    -4.6890    -0.9370 C.ar  1 <1>  -0.1500 
  8 C       -1.3670    -6.3460     1.2290 C.ar  1 <1>  -0.1500 
  9 C       -1.5050    -5.9590    -1.1170 C.ar  1 <1>  -0.1500 
 10 C       -1.7230    -6.8170    -0.0370 C.ar  1 <1>   0.0860 
 11 C       -2.2930    -8.1430    -0.2110 C.2   1 <1>   0.5440 
 12 O       -2.0250    -9.0370     0.5710 O.2   1 <1>  -0.5700 
 13 N       -3.2160    -8.4180    -1.1940 N.am  1 <1>  -0.6600 
 14 C       -3.2160    -9.7430    -1.8700 C.3   1 <1>   0.3200 
 15 C       -4.3940    -7.5250    -1.4570 C.3   1 <1>   0.1400 
 16 C       -4.1490   -10.6510    -1.1020 C.2   1 <1>  -0.3320 
 17 C       -5.1650    -7.1910    -0.1620 C.3   1 <1>   0.3430 
 18 N       -3.8000   -11.2160     0.0700 N.pl3 1 <1>   0.0330 
 19 C       -5.4090   -11.0610    -1.3670 C.2   1 <1>   0.0770 
 20 N       -5.4540    -8.4320     0.6210 N.4   1 <1>  -0.9590 
 21 C       -4.8900   -11.9060     0.4640 C.2   1 <1>   0.0360 
 22 N       -5.8840   -11.8170    -0.3610 N.2   1 <1>  -0.5650 
 23 C       -6.8800    -8.8690     0.5280 C.3   1 <1>   0.2630 
 24 C       -5.0080    -8.3280     2.0400 C.3   1 <1>   0.2630 
 25 H       -0.6300    -2.4770     2.3860 H     1 <1>   0.0800 
 26 H       -0.5840    -4.7770     2.4170 H     1 <1>   0.1500 
 27 H       -0.8310    -4.0400    -1.7820 H     1 <1>   0.1500 
 28 H       -1.4870    -6.9960     2.0800 H     1 <1>   0.1500 
 29 H       -1.7260    -6.2940    -2.1160 H     1 <1>   0.1500 
 30 H       -2.2190   -10.1560    -1.8770 H     1 <1>   0.0800 
 31 H       -3.5420    -9.6360    -2.8900 H     1 <1>   0.0800 
 32 H       -5.0680    -8.0060    -2.1460 H     1 <1>   0.0800 
 33 H       -4.0620    -6.6130    -1.9200 H     1 <1>   0.0800 
 34 H       -6.0820    -6.6780    -0.4040 H     1 <1>   0.0800 
 35 H       -4.5610    -6.5210     0.4280 H     1 <1>   0.0800 
 36 H       -2.8980   -11.1020     0.5570 H     1 <1>   0.2700 
 37 H       -6.0150   -10.8440    -2.2330 H     1 <1>   0.1500 
 38 H       -4.8800    -9.1820     0.1780 H     1 <1>   0.4500 
 39 H       -4.9090   -12.4690     1.3820 H     1 <1>   0.1500 
 40 H       -7.5300    -8.1460     0.9940 H     1 <1>   0.0800 
 41 H       -7.0080    -9.8210     1.0190 H     1 <1>   0.0800 
 42 H       -7.1680    -8.9860    -0.5040 H     1 <1>   0.0800 
 43 H       -5.5420    -7.5410     2.5470 H     1 <1>   0.0800 
 44 H       -3.9510    -8.1190     2.0830 H     1 <1>   0.0800 
 45 H       -5.1910    -9.2580     2.5540 H     1 <1>   0.0800 
@<TRIPOS>BOND
  1   1   2  1   
  2   2   3  1   
  3   2   4  1   
  4   2  25  1   
  5   4   5  1   
  6   5   6  ar  
  7   5   7  ar  
  8   6   8  ar  
  9   6  26  1   
 10   7   9  ar  
 11   7  27  1   
 12   8  10  ar  
 13   8  28  1   
 14   9  10  ar  
 15   9  29  1   
 16  10  11  1   
 17  11  12  2   
 18  11  13  am  
 19  13  14  1   
 20  13  15  1   
 21  14  16  1   
 22  14  30  1   
 23  14  31  1   
 24  15  17  1   
 25  15  32  1   
 26  15  33  1   
 27  16  18  1   
 28  16  19  2   
 29  17  20  1   
 30  17  34  1   
 31  17  35  1   
 32  18  21  1   
 33  18  36  1   
 34  19  22  1   
 35  19  37  1   
 36  20  23  1   
 37  20  24  1   
 38  20  38  1   
 39  21  22  2   
 40  21  39  1   
 41  23  40  1   
 42  23  41  1   
 43  23  42  1   
 44  24  43  1   
 45  24  44  1   
 46  24  45  1   
@<TRIPOS>SUBSTRUCTURE
  1 ****  11 GROUP 4 **** **** 0

# MOE 2024.06 (io_trps.svl 2023.06)
