@<TRIPOS>MOLECULE
NONAME
40 42 1 0 0 
SMALL
USER_CHARGES


@<TRIPOS>ATOM
  1 S        2.3880     1.2470     2.6400 S.3   1 <1>  -0.0800 
  2 C        2.2110     1.9260     1.0320 C.2   1 <1>  -0.1100 
  3 C        3.6700     0.1820     2.0960 C.2   1 <1>  -0.1100 
  4 C        3.1000     1.3780     0.1810 C.2   1 <1>  -0.1810 
  5 C        3.9230     0.3730     0.7890 C.2   1 <1>  -0.1500 
  6 C        3.2760     1.7400    -1.2900 C.3   1 <1>   0.0820 
  7 C        4.6830     2.2570    -1.5620 C.2   1 <1>   0.5690 
  8 O        5.5410     1.4540    -1.8430 O.2   1 <1>  -0.5700 
  9 N        5.0230     3.5720    -1.3630 N.am  1 <1>  -0.6600 
 10 C        4.6010     4.2360    -0.0760 C.3   1 <1>   0.2200 
 11 C        6.2450     4.1210    -2.0450 C.3   1 <1>   0.1400 
 12 C        4.7120     5.7710    -0.0940 C.3   1 <1>   0.1200 
 13 C        5.4120     3.6350     1.1050 C.3   1 <1>   0.3430 
 14 C        7.3050     4.7190    -1.0970 C.3   1 <1>  -0.0800 
 15 O        5.9870     6.1800     0.3000 O.3   1 <1>  -0.5600 
 16 N        6.6720     2.9360     0.6500 N.4   1 <1>  -0.9590 
 17 C        6.9590     6.1590    -0.6890 C.3   1 <1>   0.1200 
 18 C        7.7250     3.8590     0.1180 C.3   1 <1>   0.3430 
 19 C        7.2040     2.0360     1.7110 C.3   1 <1>   0.2630 
 20 H        1.4490     2.6740     0.9020 H     1 <1>   0.1500 
 21 H        4.0930    -0.4910     2.8220 H     1 <1>   0.1500 
 22 H        4.6560    -0.1700     0.2130 H     1 <1>   0.1500 
 23 H        2.5600     2.4850    -1.5830 H     1 <1>   0.0800 
 24 H        3.1050     0.8660    -1.8930 H     1 <1>   0.0800 
 25 H        3.5600     4.0300     0.0880 H     1 <1>   0.0800 
 26 H        6.7130     3.3470    -2.6310 H     1 <1>   0.0800 
 27 H        5.9290     4.8750    -2.7460 H     1 <1>   0.0800 
 28 H        4.0290     6.1790     0.6310 H     1 <1>   0.0800 
 29 H        4.4640     6.1840    -1.0560 H     1 <1>   0.0800 
 30 H        4.7780     2.9230     1.6080 H     1 <1>   0.0800 
 31 H        5.6500     4.4110     1.8150 H     1 <1>   0.0800 
 32 H        8.1920     4.8260    -1.6950 H     1 <1>   0.0800 
 33 H        6.3810     2.3550    -0.1640 H     1 <1>   0.4500 
 34 H        6.6190     6.7440    -1.5280 H     1 <1>   0.0800 
 35 H        7.8300     6.6440    -0.2800 H     1 <1>   0.0800 
 36 H        8.0580     4.5140     0.9070 H     1 <1>   0.0800 
 37 H        8.5700     3.2610    -0.1820 H     1 <1>   0.0800 
 38 H        7.5150     2.6110     2.5680 H     1 <1>   0.0800 
 39 H        8.0490     1.4800     1.3380 H     1 <1>   0.0800 
 40 H        6.4440     1.3370     2.0190 H     1 <1>   0.0800 
@<TRIPOS>BOND
  1   1   2  1   
  2   1   3  1   
  3   2   4  2   
  4   2  20  1   
  5   3   5  2   
  6   3  21  1   
  7   4   5  1   
  8   4   6  1   
  9   5  22  1   
 10   6   7  1   
 11   6  23  1   
 12   6  24  1   
 13   7   8  2   
 14   7   9  am  
 15   9  10  1   
 16   9  11  1   
 17  10  12  1   
 18  10  13  1   
 19  10  25  1   
 20  11  14  1   
 21  11  26  1   
 22  11  27  1   
 23  12  15  1   
 24  12  28  1   
 25  12  29  1   
 26  13  16  1   
 27  13  30  1   
 28  13  31  1   
 29  14  17  1   
 30  14  18  1   
 31  14  32  1   
 32  15  17  1   
 33  16  18  1   
 34  16  19  1   
 35  16  33  1   
 36  17  34  1   
 37  17  35  1   
 38  18  36  1   
 39  18  37  1   
 40  19  38  1   
 41  19  39  1   
 42  19  40  1   
@<TRIPOS>SUBSTRUCTURE
  1 ****  13 GROUP 4 **** **** 0

# MOE 2024.06 (io_trps.svl 2023.06)
