@<TRIPOS>MOLECULE
NONAME
46 47 1 0 0 
SMALL
USER_CHARGES


@<TRIPOS>ATOM
  1 S        0.0970     0.2280    -0.2020 S.o2  1 <1>   1.3330 
  2 O       -0.1330     1.6490    -0.1800 O.2   1 <1>  -0.6500 
  3 O        1.0590    -0.3500    -1.1030 O.2   1 <1>  -0.6500 
  4 N        0.7240    -0.1020     1.2920 N.am  1 <1>  -0.9780 
  5 C       -1.4650    -0.6600    -0.2490 C.3   1 <1>  -0.0550 
  6 C       -1.3320    -2.1830    -0.0720 C.3   1 <1>  -0.1600 
  7 C       -2.6980    -2.8900    -0.1580 C.3   1 <1>  -0.0990 
  8 C       -2.6260    -4.4040     0.0160 C.2   1 <1>   0.5690 
  9 O       -1.6040    -4.9010     0.4270 O.2   1 <1>  -0.5700 
 10 N       -3.7160    -5.1670    -0.2880 N.am  1 <1>  -0.6600 
 11 C       -5.0650    -4.6890    -0.6850 C.3   1 <1>   0.1400 
 12 C       -3.7460    -6.6270    -0.0440 C.3   1 <1>   0.1400 
 13 C       -6.0140    -5.8640    -0.4210 C.3   1 <1>   0.2000 
 14 C       -5.1130    -7.0960    -0.5490 C.3   1 <1>  -0.0800 
 15 O       -6.5020    -5.7910     0.8900 O.3   1 <1>  -0.5600 
 16 C       -5.6250    -8.3530     0.1740 C.3   1 <1>   0.0200 
 17 C       -7.6620    -5.0370     1.0520 C.3   1 <1>   0.0400 
 18 C       -4.6990    -9.5300    -0.0640 C.2   1 <1>  -0.0400 
 19 O       -4.5680   -10.0300    -1.2640 O.3   1 <1>  -0.0190 
 20 C       -3.9090   -10.2290     0.7640 C.2   1 <1>  -0.1500 
 21 N       -3.7300   -11.0260    -1.2840 N.2   1 <1>  -0.4100 
 22 C       -3.3170   -11.1690    -0.0760 C.2   1 <1>   0.1080 
 23 C       -2.3200   -12.2170     0.3650 C.3   1 <1>  -0.0590 
 24 H        1.1560     0.7760     1.5710 H     1 <1>   0.4200 
 25 H        1.4920    -0.7410     1.0960 H     1 <1>   0.4200 
 26 H       -2.1010    -0.2750     0.5250 H     1 <1>   0.0800 
 27 H       -1.9400    -0.4610    -1.1900 H     1 <1>   0.0800 
 28 H       -0.6790    -2.5790    -0.8330 H     1 <1>   0.0800 
 29 H       -0.8840    -2.3940     0.8850 H     1 <1>   0.0800 
 30 H       -3.1390    -2.6820    -1.1150 H     1 <1>   0.0800 
 31 H       -3.3460    -2.5040     0.6070 H     1 <1>   0.0800 
 32 H       -5.3540    -3.8160    -0.1280 H     1 <1>   0.0800 
 33 H       -5.0530    -4.4640    -1.7370 H     1 <1>   0.0800 
 34 H       -2.9400    -7.1200    -0.5610 H     1 <1>   0.0800 
 35 H       -3.6510    -6.8000     1.0150 H     1 <1>   0.0800 
 36 H       -6.8410    -5.8990    -1.1100 H     1 <1>   0.0800 
 37 H       -5.0070    -7.3190    -1.5970 H     1 <1>   0.0800 
 38 H       -6.6080    -8.6030    -0.1830 H     1 <1>   0.0800 
 39 H       -5.6920    -8.1700     1.2320 H     1 <1>   0.0800 
 40 H       -7.9180    -5.0420     2.0970 H     1 <1>   0.0800 
 41 H       -8.4590    -5.4840     0.4830 H     1 <1>   0.0800 
 42 H       -7.4850    -4.0260     0.7300 H     1 <1>   0.0800 
 43 H       -3.7460   -10.1170     1.8190 H     1 <1>   0.1500 
 44 H       -2.7630   -12.8510     1.1100 H     1 <1>   0.0800 
 45 H       -1.4480   -11.7400     0.7740 H     1 <1>   0.0800 
 46 H       -2.0260   -12.8190    -0.4760 H     1 <1>   0.0800 
@<TRIPOS>BOND
  1   1   2  2   
  2   1   3  2   
  3   1   4  am  
  4   1   5  1   
  5   4  24  1   
  6   4  25  1   
  7   5   6  1   
  8   5  26  1   
  9   5  27  1   
 10   6   7  1   
 11   6  28  1   
 12   6  29  1   
 13   7   8  1   
 14   7  30  1   
 15   7  31  1   
 16   8   9  2   
 17   8  10  am  
 18  10  11  1   
 19  10  12  1   
 20  11  13  1   
 21  11  32  1   
 22  11  33  1   
 23  12  14  1   
 24  12  34  1   
 25  12  35  1   
 26  13  14  1   
 27  13  15  1   
 28  13  36  1   
 29  14  16  1   
 30  14  37  1   
 31  15  17  1   
 32  16  18  1   
 33  16  38  1   
 34  16  39  1   
 35  17  40  1   
 36  17  41  1   
 37  17  42  1   
 38  18  19  1   
 39  18  20  2   
 40  19  21  1   
 41  20  22  1   
 42  20  43  1   
 43  21  22  2   
 44  22  23  1   
 45  23  44  1   
 46  23  45  1   
 47  23  46  1   
@<TRIPOS>SUBSTRUCTURE
  1 ****  10 GROUP 4 **** **** 0

# MOE 2024.06 (io_trps.svl 2023.06)
