@<TRIPOS>MOLECULE
NONAME
35 37 1 0 0 
SMALL
USER_CHARGES


@<TRIPOS>ATOM
  1 CL      -3.4730    -0.2890     2.3850 Cl    1 <1>  -0.1770 
  2 C       -3.5800     0.4190     0.7890 C.ar  1 <1>   0.1770 
  3 C       -3.6070    -0.3940    -0.3430 C.ar  1 <1>   0.0820 
  4 C       -3.6350     1.7960     0.6920 C.ar  1 <1>  -0.1500 
  5 O       -3.5660    -1.7410    -0.1640 O.3   1 <1>  -0.3630 
  6 C       -3.6780     0.2060    -1.6010 C.ar  1 <1>  -0.1500 
  7 C       -3.7120     2.3650    -0.5640 C.ar  1 <1>   0.1770 
  8 C       -3.7530    -2.6440    -1.2450 C.3   1 <1>   0.1810 
  9 C       -3.7330     1.5870    -1.7080 C.ar  1 <1>  -0.1500 
 10 CL      -3.7840     4.1020    -0.7120 Cl    1 <1>  -0.1770 
 11 C       -3.9900    -4.0690    -0.7580 C.2   1 <1>   0.5690 
 12 O       -3.1620    -4.9020    -1.0550 O.2   1 <1>  -0.5700 
 13 N       -5.1240    -4.3830    -0.0650 N.am  1 <1>  -0.6600 
 14 C       -6.2320    -3.4450     0.2770 C.3   1 <1>   0.2350 
 15 C       -5.6020    -5.7810     0.1310 C.3   1 <1>   0.2350 
 16 C       -7.4990    -4.2380     0.0280 C.3   1 <1>  -0.2420 
 17 C       -7.1120    -5.6960    -0.0390 C.3   1 <1>  -0.2420 
 18 C       -8.7000    -3.4920     0.6110 C.2   1 <1>   0.9470 
 19 C       -7.7010    -5.0160    -1.2490 C.3   1 <1>  -0.2000 
 20 C       -7.7990    -6.9440     0.5250 C.2   1 <1>   0.9470 
 21 O       -9.5680    -3.0550    -0.1590 O.co2 1 <1>  -0.9000 
 22 O       -8.6880    -3.1740     1.8070 O.co2 1 <1>  -0.9000 
 23 O       -7.4570    -7.3630     1.6390 O.co2 1 <1>  -0.9000 
 24 O       -8.5670    -7.5990    -0.1950 O.co2 1 <1>  -0.9000 
 25 H       -3.6190     2.4090     1.5740 H     1 <1>   0.1500 
 26 H       -3.6900    -0.3780    -2.5020 H     1 <1>   0.1500 
 27 H       -4.6060    -2.3320    -1.8170 H     1 <1>   0.0800 
 28 H       -2.8730    -2.6160    -1.8590 H     1 <1>   0.0800 
 29 H       -3.7910     2.0620    -2.6710 H     1 <1>   0.1500 
 30 H       -6.1660    -3.1790     1.3190 H     1 <1>   0.0800 
 31 H       -6.2270    -2.5540    -0.3220 H     1 <1>   0.0800 
 32 H       -5.1700    -6.4530    -0.5890 H     1 <1>   0.0800 
 33 H       -5.3540    -6.1060     1.1270 H     1 <1>   0.0800 
 34 H       -7.0800    -4.8150    -2.1010 H     1 <1>   0.1000 
 35 H       -8.7110    -5.2710    -1.5260 H     1 <1>   0.1000 
@<TRIPOS>BOND
  1   1   2  1   
  2   2   3  ar  
  3   2   4  ar  
  4   3   5  1   
  5   3   6  ar  
  6   4   7  ar  
  7   4  25  1   
  8   5   8  1   
  9   6   9  ar  
 10   6  26  1   
 11   7   9  ar  
 12   7  10  1   
 13   8  11  1   
 14   8  27  1   
 15   8  28  1   
 16   9  29  1   
 17  11  12  2   
 18  11  13  am  
 19  13  14  1   
 20  13  15  1   
 21  14  16  1   
 22  14  30  1   
 23  14  31  1   
 24  15  17  1   
 25  15  32  1   
 26  15  33  1   
 27  16  17  1   
 28  16  18  1   
 29  16  19  1   
 30  17  19  1   
 31  17  20  1   
 32  18  21  ar  
 33  18  22  ar  
 34  19  34  1   
 35  19  35  1   
 36  20  23  ar  
 37  20  24  ar  
@<TRIPOS>SUBSTRUCTURE
  1 ****  14 GROUP 4 **** **** 0

# MOE 2024.06 (io_trps.svl 2023.06)
