@<TRIPOS>MOLECULE
NONAME
54 55 1 0 0 
SMALL
USER_CHARGES


@<TRIPOS>ATOM
  1 S       -0.7160    -0.7890     1.7340 S.o2  1 <1>   1.0900 
  2 O        0.3780     0.1380     1.9050 O.2   1 <1>  -0.6500 
  3 O       -0.9700    -1.7870     2.7460 O.2   1 <1>  -0.6500 
  4 C       -0.4930    -1.6130     0.1530 C.3   1 <1>   0.0890 
  5 C       -2.2070     0.1690     1.5250 C.3   1 <1>  -0.1350 
  6 C       -1.7530    -2.2970    -0.3590 C.ar  1 <1>  -0.1440 
  7 C       -2.3240    -3.3500     0.3410 C.ar  1 <1>   0.1600 
  8 C       -2.3590    -1.8700    -1.5270 C.ar  1 <1>  -0.1500 
  9 N       -3.4270    -3.9820    -0.0140 N.ar  1 <1>  -0.6200 
 10 C       -3.5060    -2.5260    -1.9060 C.ar  1 <1>  -0.1500 
 11 C       -4.0090    -3.5640    -1.1300 C.ar  1 <1>   0.4100 
 12 N       -5.1830    -4.1820    -1.5070 N.pl3 1 <1>  -0.8380 
 13 C       -6.4440    -3.4900    -1.1130 C.3   1 <1>   0.2090 
 14 C       -5.2900    -5.6670    -1.3320 C.3   1 <1>   0.2090 
 15 C       -6.9330    -3.9690     0.2720 C.3   1 <1>   0.2000 
 16 C       -5.9070    -6.0630     0.0340 C.3   1 <1>   0.2000 
 17 O       -7.0990    -5.3620     0.2590 O.3   1 <1>  -0.5600 
 18 C       -8.2500    -3.2960     0.7270 C.3   1 <1>  -0.0800 
 19 C       -6.2490    -7.5550     0.1340 C.3   1 <1>  -0.1600 
 20 C       -8.5730    -3.6660     2.1820 C.3   1 <1>  -0.2400 
 21 C       -9.4550    -3.6370    -0.1680 C.3   1 <1>  -0.2400 
 22 C       -5.0100    -8.4630     0.0570 C.3   1 <1>  -0.1600 
 23 C       -5.3930    -9.9340     0.2570 C.3   1 <1>  -0.1600 
 24 C       -4.1600   -10.8390     0.1800 C.3   1 <1>  -0.2400 
 25 H       -0.1670    -0.8940    -0.5730 H     1 <1>   0.0800 
 26 H        0.2870    -2.3450     0.2440 H     1 <1>   0.0800 
 27 H       -2.1020     0.8620     0.7130 H     1 <1>   0.0800 
 28 H       -2.4110     0.7250     2.4190 H     1 <1>   0.0800 
 29 H       -3.0450    -0.4720     1.3290 H     1 <1>   0.0800 
 30 H       -1.8540    -3.6920     1.2490 H     1 <1>   0.1500 
 31 H       -1.9620    -1.0660    -2.1220 H     1 <1>   0.1500 
 32 H       -4.0320    -2.2560    -2.8020 H     1 <1>   0.1500 
 33 H       -6.2800    -2.4270    -1.0830 H     1 <1>   0.0800 
 34 H       -7.1960    -3.6900    -1.8540 H     1 <1>   0.0800 
 35 H       -5.8980    -6.0680    -2.1230 H     1 <1>   0.0800 
 36 H       -4.3110    -6.1040    -1.4200 H     1 <1>   0.0800 
 37 H       -6.1690    -3.7360     0.9950 H     1 <1>   0.0800 
 38 H       -5.2200    -5.8070     0.8220 H     1 <1>   0.0800 
 39 H       -8.1010    -2.2300     0.6920 H     1 <1>   0.0800 
 40 H       -6.7410    -7.7200     1.0760 H     1 <1>   0.0800 
 41 H       -6.9350    -7.8130    -0.6540 H     1 <1>   0.0800 
 42 H       -8.7490    -4.7250     2.2690 H     1 <1>   0.0800 
 43 H       -9.4500    -3.1440     2.5190 H     1 <1>   0.0800 
 44 H       -7.7530    -3.4050     2.8270 H     1 <1>   0.0800 
 45 H       -9.6180    -4.7010    -0.1860 H     1 <1>   0.0800 
 46 H       -9.2990    -3.2980    -1.1750 H     1 <1>   0.0800 
 47 H      -10.3440    -3.1630     0.2080 H     1 <1>   0.0800 
 48 H       -4.5320    -8.3530    -0.9000 H     1 <1>   0.0800 
 49 H       -4.3070    -8.1710     0.8200 H     1 <1>   0.0800 
 50 H       -5.8640   -10.0580     1.2170 H     1 <1>   0.0800 
 51 H       -6.0990   -10.2310    -0.5010 H     1 <1>   0.0800 
 52 H       -3.4500   -10.5720     0.9430 H     1 <1>   0.0800 
 53 H       -3.6870   -10.7490    -0.7820 H     1 <1>   0.0800 
 54 H       -4.4480   -11.8660     0.3250 H     1 <1>   0.0800 
@<TRIPOS>BOND
  1   1   2  2   
  2   1   3  2   
  3   1   4  1   
  4   1   5  1   
  5   4   6  1   
  6   4  25  1   
  7   4  26  1   
  8   5  27  1   
  9   5  28  1   
 10   5  29  1   
 11   6   7  ar  
 12   6   8  ar  
 13   7   9  ar  
 14   7  30  1   
 15   8  10  ar  
 16   8  31  1   
 17   9  11  ar  
 18  10  11  ar  
 19  10  32  1   
 20  11  12  1   
 21  12  13  1   
 22  12  14  1   
 23  13  15  1   
 24  13  33  1   
 25  13  34  1   
 26  14  16  1   
 27  14  35  1   
 28  14  36  1   
 29  15  17  1   
 30  15  18  1   
 31  15  37  1   
 32  16  17  1   
 33  16  19  1   
 34  16  38  1   
 35  18  20  1   
 36  18  21  1   
 37  18  39  1   
 38  19  22  1   
 39  19  40  1   
 40  19  41  1   
 41  20  42  1   
 42  20  43  1   
 43  20  44  1   
 44  21  45  1   
 45  21  46  1   
 46  21  47  1   
 47  22  23  1   
 48  22  48  1   
 49  22  49  1   
 50  23  24  1   
 51  23  50  1   
 52  23  51  1   
 53  24  52  1   
 54  24  53  1   
 55  24  54  1   
@<TRIPOS>SUBSTRUCTURE
  1 ****   9 GROUP 4 **** **** 0

# MOE 2024.06 (io_trps.svl 2023.06)
