@<TRIPOS>MOLECULE
NONAME
44 46 1 0 0 
SMALL
USER_CHARGES


@<TRIPOS>ATOM
  1 O        0.8280     1.4720     1.4120 O.co2 1 <1>  -0.9000 
  2 C        1.5620     0.5140     1.1750 C.2   1 <1>   0.9060 
  3 O        1.8370    -0.3220     2.0540 O.co2 1 <1>  -0.9000 
  4 C        2.1540     0.3320    -0.2380 C.3   1 <1>  -0.1060 
  5 C        3.5300    -0.3480    -0.1230 C.3   1 <1>   0.4230 
  6 C        2.3820     1.7020    -0.9270 C.3   1 <1>  -0.1600 
  7 C        1.2180    -0.5280    -1.1200 C.3   1 <1>  -0.1600 
  8 N        3.3750    -1.7320     0.4440 N.4   1 <1>  -0.9590 
  9 C        4.5050     0.5610     0.6670 C.3   1 <1>   0.1100 
 10 C        3.3850     2.5680    -0.1560 C.3   1 <1>   0.1100 
 11 C        1.1450    -1.9750    -0.6090 C.3   1 <1>  -0.1600 
 12 C        2.5320    -2.5950    -0.4200 C.3   1 <1>   0.3430 
 13 C        4.6350    -2.3990     0.8630 C.3   1 <1>   0.2630 
 14 N        4.6730     1.8620    -0.0090 N.3   1 <1>  -0.8100 
 15 C        5.6610     2.6970     0.7210 C.3   1 <1>   0.2530 
 16 C        6.1330     3.9280    -0.0570 C.ar  1 <1>   0.1670 
 17 N        7.1680     3.7690    -0.8740 N.ar  1 <1>  -0.6200 
 18 C        5.4880     5.1420     0.1390 C.ar  1 <1>  -0.1500 
 19 C        7.5600     4.8520    -1.5250 C.ar  1 <1>   0.1600 
 20 C        5.9100     6.2620    -0.5440 C.ar  1 <1>  -0.1500 
 21 C        6.9770     6.1010    -1.4000 C.ar  1 <1>  -0.1500 
 22 H        3.9360    -0.4390    -1.1150 H     1 <1>   0.0800 
 23 H        1.4480     2.2340    -0.9890 H     1 <1>   0.0800 
 24 H        2.7470     1.5690    -1.9300 H     1 <1>   0.0800 
 25 H        0.2310    -0.0950    -1.1180 H     1 <1>   0.0800 
 26 H        1.5750    -0.5310    -2.1350 H     1 <1>   0.0800 
 27 H        2.7960    -1.5190     1.3020 H     1 <1>   0.4500 
 28 H        5.4690     0.0890     0.7150 H     1 <1>   0.0800 
 29 H        4.1440     0.7170     1.6700 H     1 <1>   0.0800 
 30 H        2.9840     2.8180     0.8130 H     1 <1>   0.0800 
 31 H        3.5330     3.4810    -0.7060 H     1 <1>   0.0800 
 32 H        0.5810    -2.5710    -1.3040 H     1 <1>   0.0800 
 33 H        0.6190    -2.0010     0.3320 H     1 <1>   0.0800 
 34 H        3.0050    -2.7140    -1.3810 H     1 <1>   0.0800 
 35 H        2.4230    -3.5670     0.0320 H     1 <1>   0.0800 
 36 H        5.2910    -2.5220     0.0180 H     1 <1>   0.0800 
 37 H        4.4170    -3.3660     1.2850 H     1 <1>   0.0800 
 38 H        5.1340    -1.8080     1.6140 H     1 <1>   0.0800 
 39 H        5.2420     3.0070     1.6630 H     1 <1>   0.0800 
 40 H        6.5340     2.1040     0.9350 H     1 <1>   0.0800 
 41 H        4.6590     5.2080     0.8200 H     1 <1>   0.1500 
 42 H        8.3930     4.7360    -2.1970 H     1 <1>   0.1500 
 43 H        5.4280     7.2160    -0.4150 H     1 <1>   0.1500 
 44 H        7.3570     6.9320    -1.9660 H     1 <1>   0.1500 
@<TRIPOS>BOND
  1   1   2  ar  
  2   2   3  ar  
  3   2   4  1   
  4   4   5  1   
  5   4   6  1   
  6   4   7  1   
  7   5   8  1   
  8   5   9  1   
  9   5  22  1   
 10   6  10  1   
 11   6  23  1   
 12   6  24  1   
 13   7  11  1   
 14   7  25  1   
 15   7  26  1   
 16   8  12  1   
 17   8  13  1   
 18   8  27  1   
 19   9  14  1   
 20   9  28  1   
 21   9  29  1   
 22  10  14  1   
 23  10  30  1   
 24  10  31  1   
 25  11  12  1   
 26  11  32  1   
 27  11  33  1   
 28  12  34  1   
 29  12  35  1   
 30  13  36  1   
 31  13  37  1   
 32  13  38  1   
 33  14  15  1   
 34  15  16  1   
 35  15  39  1   
 36  15  40  1   
 37  16  17  ar  
 38  16  18  ar  
 39  17  19  ar  
 40  18  20  ar  
 41  18  41  1   
 42  19  21  ar  
 43  19  42  1   
 44  20  21  ar  
 45  20  43  1   
 46  21  44  1   
@<TRIPOS>SUBSTRUCTURE
  1 ****  14 GROUP 4 **** **** 0

# MOE 2024.06 (io_trps.svl 2023.06)
