@<TRIPOS>MOLECULE
NONAME
47 48 1 0 0 
SMALL
USER_CHARGES


@<TRIPOS>ATOM
  1 CL      -2.1480    -0.9960    -2.0150 Cl    1 <1>  -0.1770 
  2 C       -2.5790     0.2510    -0.8690 C.ar  1 <1>   0.1770 
  3 C       -3.5030     0.0180     0.1540 C.ar  1 <1>   0.0860 
  4 C       -1.9480     1.4710    -1.0210 C.ar  1 <1>  -0.1500 
  5 C       -4.2190    -1.2330     0.3290 C.2   1 <1>   0.5440 
  6 C       -3.7310     1.0740     1.0420 C.ar  1 <1>  -0.1500 
  7 C       -2.2130     2.5000    -0.1380 C.ar  1 <1>  -0.1500 
  8 O       -4.5420    -1.6150     1.4360 O.2   1 <1>  -0.5700 
  9 N       -4.6930    -1.9750    -0.7150 N.am  1 <1>  -0.6600 
 10 C       -3.1040     2.3010     0.9030 C.ar  1 <1>  -0.1440 
 11 C       -4.3140    -3.4160    -0.8330 C.3   1 <1>   0.3210 
 12 C       -5.6490    -1.4150    -1.7180 C.3   1 <1>   0.1400 
 13 C       -3.3730     3.4300     1.8820 C.3   1 <1>  -0.0960 
 14 C       -5.4330    -4.3700    -0.4170 C.2   1 <1>   0.0460 
 15 C       -7.1150    -1.6630    -1.3020 C.3   1 <1>   0.3430 
 16 N       -6.4280    -4.7030    -1.2700 N.2   1 <1>  -0.5650 
 17 C       -5.5710    -5.0330     0.7560 C.2   1 <1>  -0.3320 
 18 N       -7.2810    -1.5840     0.1860 N.4   1 <1>  -0.9590 
 19 C       -7.1130    -5.5870    -0.6200 C.2   1 <1>   0.0360 
 20 N       -6.6480    -5.8280     0.6220 N.pl3 1 <1>   0.0330 
 21 C       -4.7300    -4.9990     2.0230 C.3   1 <1>  -0.0600 
 22 C       -8.3630    -2.4860     0.6590 C.3   1 <1>   0.2630 
 23 C       -7.4350    -0.1930     0.6960 C.3   1 <1>   0.2630 
 24 H       -1.2470     1.6130    -1.8250 H     1 <1>   0.1500 
 25 H       -4.4100     0.9210     1.8620 H     1 <1>   0.1500 
 26 H       -1.7200     3.4510    -0.2570 H     1 <1>   0.1500 
 27 H       -3.4530    -3.6020    -0.2150 H     1 <1>   0.0800 
 28 H       -4.0290    -3.6310    -1.8480 H     1 <1>   0.0800 
 29 H       -5.4690    -1.8570    -2.6830 H     1 <1>   0.0800 
 30 H       -5.4880    -0.3560    -1.8120 H     1 <1>   0.0800 
 31 H       -3.9970     3.1020     2.6930 H     1 <1>   0.0800 
 32 H       -3.8620     4.2460     1.3800 H     1 <1>   0.0800 
 33 H       -2.4450     3.7870     2.2940 H     1 <1>   0.0800 
 34 H       -7.3900    -2.6480    -1.6370 H     1 <1>   0.0800 
 35 H       -7.7660    -0.9630    -1.7960 H     1 <1>   0.0800 
 36 H       -6.3790    -1.9630     0.5610 H     1 <1>   0.4500 
 37 H       -7.9740    -6.1000    -1.0160 H     1 <1>   0.1500 
 38 H       -7.0140    -6.5030     1.3020 H     1 <1>   0.2700 
 39 H       -3.9340    -4.2810     1.9370 H     1 <1>   0.0800 
 40 H       -4.2960    -5.9660     2.2080 H     1 <1>   0.0800 
 41 H       -5.3370    -4.7230     2.8660 H     1 <1>   0.0800 
 42 H       -9.3180    -2.1590     0.2820 H     1 <1>   0.0800 
 43 H       -8.3950    -2.4940     1.7360 H     1 <1>   0.0800 
 44 H       -8.1770    -3.4900     0.3150 H     1 <1>   0.0800 
 45 H       -8.3510     0.2420     0.3310 H     1 <1>   0.0800 
 46 H       -6.6060     0.4150     0.3750 H     1 <1>   0.0800 
 47 H       -7.4560    -0.1970     1.7740 H     1 <1>   0.0800 
@<TRIPOS>BOND
  1   1   2  1   
  2   2   3  ar  
  3   2   4  ar  
  4   3   5  1   
  5   3   6  ar  
  6   4   7  ar  
  7   4  24  1   
  8   5   8  2   
  9   5   9  am  
 10   6  10  ar  
 11   6  25  1   
 12   7  10  ar  
 13   7  26  1   
 14   9  11  1   
 15   9  12  1   
 16  10  13  1   
 17  11  14  1   
 18  11  27  1   
 19  11  28  1   
 20  12  15  1   
 21  12  29  1   
 22  12  30  1   
 23  13  31  1   
 24  13  32  1   
 25  13  33  1   
 26  14  16  1   
 27  14  17  2   
 28  15  18  1   
 29  15  34  1   
 30  15  35  1   
 31  16  19  2   
 32  17  20  1   
 33  17  21  1   
 34  18  22  1   
 35  18  23  1   
 36  18  36  1   
 37  19  20  1   
 38  19  37  1   
 39  20  38  1   
 40  21  39  1   
 41  21  40  1   
 42  21  41  1   
 43  22  42  1   
 44  22  43  1   
 45  22  44  1   
 46  23  45  1   
 47  23  46  1   
 48  23  47  1   
@<TRIPOS>SUBSTRUCTURE
  1 ****   5 GROUP 4 **** **** 0

# MOE 2024.06 (io_trps.svl 2023.06)
