@<TRIPOS>MOLECULE
NONAME
43 46 1 0 0 
SMALL
USER_CHARGES


@<TRIPOS>ATOM
  1 O        0.6390     0.3220    -0.8040 O.3   1 <1>  -0.3630 
  2 C        0.9610    -0.7200    -0.0140 C.ar  1 <1>   0.0830 
  3 C        1.0580     1.5890    -0.3380 C.3   1 <1>   0.1200 
  4 C        2.2890    -1.0650     0.2030 C.ar  1 <1>  -0.1440 
  5 C       -0.0630    -1.4340     0.5870 C.ar  1 <1>  -0.1500 
  6 C        2.4960     1.9110    -0.7670 C.3   1 <1>   0.1100 
  7 C        2.5760    -2.1110     1.0680 C.ar  1 <1>  -0.1500 
  8 C        3.4110    -0.3410    -0.5240 C.3   1 <1>   0.2540 
  9 C        0.2330    -2.4820     1.4390 C.ar  1 <1>  -0.1500 
 10 N        3.5220     1.0690    -0.1090 N.3   1 <1>  -0.8100 
 11 C        1.5540    -2.8160     1.6840 C.ar  1 <1>  -0.1500 
 12 C        4.8950     1.5710    -0.3900 C.3   1 <1>   0.2910 
 13 C        5.1920     2.9870     0.1160 C.2   1 <1>   0.3350 
 14 N        5.6620     3.2690     1.2670 N.2   1 <1>  -0.4100 
 15 N        5.0010     4.0580    -0.6500 N.2   1 <1>  -0.5650 
 16 O        5.7900     4.5580     1.3250 O.3   1 <1>  -0.0190 
 17 C        5.3800     4.9730     0.1510 C.2   1 <1>   0.2980 
 18 C        5.3870     6.4650    -0.1560 C.3   1 <1>   0.1000 
 19 C        6.7630     7.1210    -0.0330 C.3   1 <1>  -0.1600 
 20 C        4.5110     7.2940     0.7830 C.3   1 <1>  -0.1600 
 21 C        6.4760     8.6150     0.1320 C.3   1 <1>  -0.1600 
 22 C        5.0430     8.7260     0.6700 C.3   1 <1>  -0.1600 
 23 H        0.9680     1.6190     0.7340 H     1 <1>   0.0800 
 24 H        0.3880     2.3160    -0.7610 H     1 <1>   0.0800 
 25 H       -1.0830    -1.1580     0.3890 H     1 <1>   0.1500 
 26 H        2.6660     2.9380    -0.4990 H     1 <1>   0.0800 
 27 H        2.5780     1.8370    -1.8380 H     1 <1>   0.0800 
 28 H        3.5960    -2.3870     1.2640 H     1 <1>   0.1500 
 29 H        3.2460    -0.4020    -1.5860 H     1 <1>   0.0800 
 30 H        4.3320    -0.8540    -0.3080 H     1 <1>   0.0800 
 31 H       -0.5610    -3.0340     1.9110 H     1 <1>   0.1500 
 32 H        1.7870    -3.6260     2.3530 H     1 <1>   0.1500 
 33 H        5.0800     1.5440    -1.4500 H     1 <1>   0.0800 
 34 H        5.6040     0.9170     0.0850 H     1 <1>   0.0800 
 35 H        5.0330     6.6090    -1.1620 H     1 <1>   0.0800 
 36 H        7.3800     6.9180    -0.8900 H     1 <1>   0.0800 
 37 H        7.2600     6.7590     0.8510 H     1 <1>   0.0800 
 38 H        4.6380     6.9510     1.7960 H     1 <1>   0.0800 
 39 H        3.4700     7.2270     0.5200 H     1 <1>   0.0800 
 40 H        6.5390     9.1060    -0.8250 H     1 <1>   0.0800 
 41 H        7.1850     9.0710     0.8020 H     1 <1>   0.0800 
 42 H        5.0220     9.2180     1.6280 H     1 <1>   0.0800 
 43 H        4.4400     9.2890    -0.0220 H     1 <1>   0.0800 
@<TRIPOS>BOND
  1   1   2  1   
  2   1   3  1   
  3   2   4  ar  
  4   2   5  ar  
  5   3   6  1   
  6   3  23  1   
  7   3  24  1   
  8   4   7  ar  
  9   4   8  1   
 10   5   9  ar  
 11   5  25  1   
 12   6  10  1   
 13   6  26  1   
 14   6  27  1   
 15   7  11  ar  
 16   7  28  1   
 17   8  10  1   
 18   8  29  1   
 19   8  30  1   
 20   9  11  ar  
 21   9  31  1   
 22  10  12  1   
 23  11  32  1   
 24  12  13  1   
 25  12  33  1   
 26  12  34  1   
 27  13  14  2   
 28  13  15  1   
 29  14  16  1   
 30  15  17  2   
 31  16  17  1   
 32  17  18  1   
 33  18  19  1   
 34  18  20  1   
 35  18  35  1   
 36  19  21  1   
 37  19  36  1   
 38  19  37  1   
 39  20  22  1   
 40  20  38  1   
 41  20  39  1   
 42  21  22  1   
 43  21  40  1   
 44  21  41  1   
 45  22  42  1   
 46  22  43  1   
@<TRIPOS>SUBSTRUCTURE
  1 ****  10 GROUP 4 **** **** 0

# MOE 2024.06 (io_trps.svl 2023.06)
