@<TRIPOS>MOLECULE
NONAME
43 44 1 0 0 
SMALL
USER_CHARGES


@<TRIPOS>ATOM
  1 CL       1.2290    -0.6210     3.2050 Cl    1 <1>  -0.1770 
  2 C        1.6820    -1.1980     1.6120 C.ar  1 <1>   0.1770 
  3 C        0.9370    -2.1830     0.9760 C.ar  1 <1>   0.4100 
  4 C        2.7750    -0.6940     0.9650 C.ar  1 <1>   0.1600 
  5 N        1.2660    -2.6090    -0.2290 N.ar  1 <1>  -0.6200 
  6 N       -0.1860    -2.7400     1.5500 N.pl3 1 <1>  -0.8690 
  7 N        3.1230    -1.1240    -0.2360 N.ar  1 <1>  -0.6200 
  8 C        2.3490    -2.0590    -0.7590 C.ar  1 <1>   0.4770 
  9 C       -0.4430    -4.2280     1.5700 C.3   1 <1>   0.2090 
 10 C        2.7490    -2.5490    -2.1310 C.3   1 <1>  -0.0970 
 11 C       -1.0150    -4.8610     0.2440 C.3   1 <1>   0.5030 
 12 N       -1.3940    -3.7450    -0.7050 N.4   1 <1>  -0.9590 
 13 C       -2.2600    -5.7340     0.5440 C.3   1 <1>  -0.1600 
 14 C        0.0720    -5.7690    -0.3990 C.3   1 <1>  -0.1600 
 15 C       -2.5900    -2.9450    -0.2900 C.3   1 <1>   0.2630 
 16 C       -1.4850    -4.0670    -2.1610 C.3   1 <1>   0.2630 
 17 C       -1.9450    -6.9960     1.3690 C.3   1 <1>  -0.1600 
 18 C        0.4020    -7.0300     0.4210 C.3   1 <1>  -0.1600 
 19 C       -0.8630    -7.8480     0.6980 C.3   1 <1>  -0.1600 
 20 H        3.3760     0.0690     1.4290 H     1 <1>   0.1500 
 21 H       -0.4060    -2.3090     2.4600 H     1 <1>   0.4000 
 22 H       -1.1320    -4.4280     2.3710 H     1 <1>   0.0800 
 23 H        0.4740    -4.7170     1.8430 H     1 <1>   0.0800 
 24 H        2.4170    -3.5590    -2.2820 H     1 <1>   0.0800 
 25 H        3.8190    -2.5210    -2.2310 H     1 <1>   0.0800 
 26 H        2.3140    -1.9130    -2.8780 H     1 <1>   0.0800 
 27 H       -0.5790    -3.1060    -0.5640 H     1 <1>   0.4500 
 28 H       -2.7000    -6.0500    -0.3850 H     1 <1>   0.0800 
 29 H       -2.9960    -5.1680     1.0860 H     1 <1>   0.0800 
 30 H        0.9780    -5.2120    -0.5510 H     1 <1>   0.0800 
 31 H       -0.2600    -6.1300    -1.3540 H     1 <1>   0.0800 
 32 H       -3.4900    -3.5260    -0.4060 H     1 <1>   0.0800 
 33 H       -2.6710    -2.0570    -0.8960 H     1 <1>   0.0800 
 34 H       -2.5000    -2.6430     0.7400 H     1 <1>   0.0800 
 35 H       -2.2360    -4.8200    -2.3320 H     1 <1>   0.0800 
 36 H       -0.5370    -4.4280    -2.5250 H     1 <1>   0.0800 
 37 H       -1.7440    -3.1840    -2.7210 H     1 <1>   0.0800 
 38 H       -2.8400    -7.5860     1.4750 H     1 <1>   0.0800 
 39 H       -1.6220    -6.7280     2.3600 H     1 <1>   0.0800 
 40 H        0.8770    -6.7760     1.3530 H     1 <1>   0.0800 
 41 H        1.1000    -7.6390    -0.1290 H     1 <1>   0.0800 
 42 H       -1.2430    -8.2440    -0.2290 H     1 <1>   0.0800 
 43 H       -0.6190    -8.6850     1.3300 H     1 <1>   0.0800 
@<TRIPOS>BOND
  1   1   2  1   
  2   2   3  ar  
  3   2   4  ar  
  4   3   5  ar  
  5   3   6  1   
  6   4   7  ar  
  7   4  20  1   
  8   5   8  ar  
  9   6   9  1   
 10   6  21  1   
 11   7   8  ar  
 12   8  10  1   
 13   9  11  1   
 14   9  22  1   
 15   9  23  1   
 16  10  24  1   
 17  10  25  1   
 18  10  26  1   
 19  11  12  1   
 20  11  13  1   
 21  11  14  1   
 22  12  15  1   
 23  12  16  1   
 24  12  27  1   
 25  13  17  1   
 26  13  28  1   
 27  13  29  1   
 28  14  18  1   
 29  14  30  1   
 30  14  31  1   
 31  15  32  1   
 32  15  33  1   
 33  15  34  1   
 34  16  35  1   
 35  16  36  1   
 36  16  37  1   
 37  17  19  1   
 38  17  38  1   
 39  17  39  1   
 40  18  19  1   
 41  18  40  1   
 42  18  41  1   
 43  19  42  1   
 44  19  43  1   
@<TRIPOS>SUBSTRUCTURE
  1 ****   9 GROUP 4 **** **** 0

# MOE 2024.06 (io_trps.svl 2023.06)
