@<TRIPOS>MOLECULE
NONAME
51 52 1 0 0 
SMALL
USER_CHARGES


@<TRIPOS>ATOM
  1 O       -0.6510     1.0210     1.9100 O.2   1 <1>  -0.5700 
  2 C        0.0790     0.1120     1.5810 C.2   1 <1>   0.5690 
  3 N        1.0440     0.2480     0.6190 N.am  1 <1>  -0.4940 
  4 C       -0.0640    -1.2740     2.2640 C.3   1 <1>   0.3410 
  5 C        1.3470     1.3380    -0.2260 C.2   1 <1>  -0.0880 
  6 O        0.5710    -2.3050     1.5040 O.3   1 <1>  -0.3620 
  7 C        0.7030    -1.2520     3.5930 C.3   1 <1>  -0.2400 
  8 C       -1.5150    -1.7020     2.5550 C.3   1 <1>  -0.2400 
  9 N        2.0210     1.2360    -1.4020 N.pl3 1 <1>   0.3140 
 10 C        1.0490     2.6480    -0.0750 C.2   1 <1>  -0.1500 
 11 C        0.3520    -2.6590     0.2030 C.ar  1 <1>   0.0830 
 12 N        2.1670     2.4420    -1.9960 N.2   1 <1>  -0.7070 
 13 C        2.5020    -0.0050    -2.0430 C.3   1 <1>   0.0960 
 14 C        1.5820     3.2740    -1.1950 C.2   1 <1>   0.1080 
 15 C        1.1490    -3.6780    -0.3240 C.ar  1 <1>  -0.1430 
 16 C       -0.5910    -2.0330    -0.6090 C.ar  1 <1>  -0.1500 
 17 C        3.8120    -0.4870    -1.4020 C.3   1 <1>  -0.1600 
 18 C        1.5070     4.7550    -1.4810 C.3   1 <1>  -0.0590 
 19 C        1.0090    -4.0430    -1.6620 C.ar  1 <1>  -0.1430 
 20 C        2.1740    -4.3790     0.5710 C.3   1 <1>  -0.0970 
 21 C       -0.7300    -2.4050    -1.9300 C.ar  1 <1>  -0.1500 
 22 C        4.2950    -1.7920    -2.0440 C.3   1 <1>  -0.2400 
 23 C        0.0680    -3.4030    -2.4530 C.ar  1 <1>  -0.1500 
 24 C        1.8560    -5.1350    -2.3030 C.3   1 <1>  -0.0970 
 25 H        1.5100    -0.6380     0.4020 H     1 <1>   0.3700 
 26 H        1.7350    -1.0000     3.4230 H     1 <1>   0.0800 
 27 H        0.6480    -2.2100     4.0790 H     1 <1>   0.0800 
 28 H        0.2810    -0.5100     4.2480 H     1 <1>   0.0800 
 29 H       -2.1160    -1.7100     1.6680 H     1 <1>   0.0800 
 30 H       -1.9660    -1.0070     3.2410 H     1 <1>   0.0800 
 31 H       -1.5350    -2.6800     3.0000 H     1 <1>   0.0800 
 32 H        0.5130     3.1140     0.7320 H     1 <1>   0.1500 
 33 H        2.6570     0.1970    -3.0880 H     1 <1>   0.0800 
 34 H        1.7390    -0.7560    -1.9520 H     1 <1>   0.0800 
 35 H       -1.2240    -1.2470    -0.2480 H     1 <1>   0.1500 
 36 H        3.6660    -0.6480    -0.3490 H     1 <1>   0.0800 
 37 H        4.5660     0.2720    -1.5300 H     1 <1>   0.0800 
 38 H        0.9760     5.2620    -0.6980 H     1 <1>   0.0800 
 39 H        0.9980     4.9130    -2.4140 H     1 <1>   0.0800 
 40 H        2.5010     5.1560    -1.5530 H     1 <1>   0.0800 
 41 H        1.8530    -4.3900     1.5970 H     1 <1>   0.0800 
 42 H        3.1170    -3.8670     0.5120 H     1 <1>   0.0800 
 43 H        2.3150    -5.4030     0.2810 H     1 <1>   0.0800 
 44 H       -1.4600    -1.9170    -2.5540 H     1 <1>   0.1500 
 45 H        3.5570    -2.5650    -1.9220 H     1 <1>   0.0800 
 46 H        5.2100    -2.1150    -1.5800 H     1 <1>   0.0800 
 47 H        4.4760    -1.6500    -3.0950 H     1 <1>   0.0800 
 48 H       -0.0530    -3.6810    -3.4860 H     1 <1>   0.1500 
 49 H        2.8960    -4.9880    -2.0770 H     1 <1>   0.0800 
 50 H        1.7450    -5.1330    -3.3720 H     1 <1>   0.0800 
 51 H        1.5490    -6.0970    -1.9330 H     1 <1>   0.0800 
@<TRIPOS>BOND
  1   1   2  2   
  2   2   3  am  
  3   2   4  1   
  4   3   5  1   
  5   3  25  1   
  6   4   6  1   
  7   4   7  1   
  8   4   8  1   
  9   5   9  1   
 10   5  10  2   
 11   6  11  1   
 12   7  26  1   
 13   7  27  1   
 14   7  28  1   
 15   8  29  1   
 16   8  30  1   
 17   8  31  1   
 18   9  12  1   
 19   9  13  1   
 20  10  14  1   
 21  10  32  1   
 22  11  15  ar  
 23  11  16  ar  
 24  12  14  2   
 25  13  17  1   
 26  13  33  1   
 27  13  34  1   
 28  14  18  1   
 29  15  19  ar  
 30  15  20  1   
 31  16  21  ar  
 32  16  35  1   
 33  17  22  1   
 34  17  36  1   
 35  17  37  1   
 36  18  38  1   
 37  18  39  1   
 38  18  40  1   
 39  19  23  ar  
 40  19  24  1   
 41  20  41  1   
 42  20  42  1   
 43  20  43  1   
 44  21  23  ar  
 45  21  44  1   
 46  22  45  1   
 47  22  46  1   
 48  22  47  1   
 49  23  48  1   
 50  24  49  1   
 51  24  50  1   
 52  24  51  1   
@<TRIPOS>SUBSTRUCTURE
  1 ****   3 GROUP 4 **** **** 0

# MOE 2024.06 (io_trps.svl 2023.06)
