@<TRIPOS>MOLECULE
NONAME
45 47 1 0 0 
SMALL
USER_CHARGES


@<TRIPOS>ATOM
  1 S        0.9690     1.4500     0.3850 S.3   1 <1>  -0.2860 
  2 C        0.1090    -0.1050     0.1540 C.2   1 <1>   0.2420 
  3 C       -0.3560     2.5400     1.1090 C.3   1 <1>   0.1310 
  4 N        0.7070    -1.1690    -0.3600 N.pl3 1 <1>   0.0330 
  5 N       -1.1220    -0.3090     0.4590 N.2   1 <1>  -0.3380 
  6 C        0.1650     3.9350     1.4180 C.2   1 <1>   0.5690 
  7 C       -0.2740    -2.0760    -0.3520 C.2   1 <1>   0.0060 
  8 N       -1.3680    -1.5840     0.1320 N.2   1 <1>  -0.3380 
  9 O       -0.6310     4.8210     1.6110 O.2   1 <1>  -0.5700 
 10 N        1.5010     4.1650     1.4830 N.am  1 <1>  -0.7300 
 11 C       -0.1110    -3.5020    -0.8470 C.3   1 <1>   0.0200 
 12 C        2.1070     5.4980     1.5980 C.3   1 <1>   0.2840 
 13 C        0.1640    -3.5460    -2.3540 C.3   1 <1>  -0.2400 
 14 C        3.5020     5.4380     0.9920 C.ar  1 <1>  -0.1430 
 15 C        3.6960     5.4540    -0.3910 C.ar  1 <1>  -0.0230 
 16 C        4.5990     5.3580     1.8360 C.ar  1 <1>  -0.1500 
 17 N        2.6080     5.5360    -1.2980 N.pl3 1 <1>   0.3260 
 18 C        4.9900     5.3910    -0.8960 C.ar  1 <1>  -0.1500 
 19 C        5.8820     5.2970     1.3220 C.ar  1 <1>  -0.1500 
 20 C        2.0420     6.6430    -1.8560 C.2   1 <1>   0.0070 
 21 C        1.9110     4.5130    -1.8400 C.2   1 <1>  -0.3020 
 22 C        6.0780     5.3140    -0.0470 C.ar  1 <1>  -0.1500 
 23 N        1.0740     6.3920    -2.6750 N.2   1 <1>  -0.5650 
 24 C        2.5130     8.0490    -1.5400 C.3   1 <1>  -0.0600 
 25 C        0.9880     5.0480    -2.6640 C.2   1 <1>   0.0770 
 26 H       -0.7080     2.0650     2.0050 H     1 <1>   0.0800 
 27 H       -1.1520     2.5920     0.3890 H     1 <1>   0.0800 
 28 H        1.6720    -1.2520    -0.6770 H     1 <1>   0.2700 
 29 H        2.1550     3.4050     1.2870 H     1 <1>   0.3700 
 30 H       -1.0160    -4.0470    -0.6370 H     1 <1>   0.0800 
 31 H        0.6910    -3.9790    -0.3110 H     1 <1>   0.0800 
 32 H        2.1550     5.7760     2.6370 H     1 <1>   0.0800 
 33 H        1.4970     6.2240     1.0860 H     1 <1>   0.0800 
 34 H       -0.6370    -3.0640    -2.8860 H     1 <1>   0.0800 
 35 H        0.2300    -4.5670    -2.6850 H     1 <1>   0.0800 
 36 H        1.0880    -3.0480    -2.5890 H     1 <1>   0.0800 
 37 H        4.4630     5.3410     2.9040 H     1 <1>   0.1500 
 38 H        5.1470     5.4030    -1.9610 H     1 <1>   0.1500 
 39 H        6.7280     5.2370     1.9860 H     1 <1>   0.1500 
 40 H        2.1160     3.4870    -1.6030 H     1 <1>   0.1500 
 41 H        7.0760     5.2670    -0.4480 H     1 <1>   0.1500 
 42 H        3.5470     8.1610    -1.8110 H     1 <1>   0.0800 
 43 H        2.3980     8.2500    -0.4910 H     1 <1>   0.0800 
 44 H        1.9300     8.7630    -2.0940 H     1 <1>   0.0800 
 45 H        0.2520     4.5340    -3.2610 H     1 <1>   0.1500 
@<TRIPOS>BOND
  1   1   2  1   
  2   1   3  1   
  3   2   4  1   
  4   2   5  2   
  5   3   6  1   
  6   3  26  1   
  7   3  27  1   
  8   4   7  1   
  9   4  28  1   
 10   5   8  1   
 11   6   9  2   
 12   6  10  am  
 13   7   8  2   
 14   7  11  1   
 15  10  12  1   
 16  10  29  1   
 17  11  13  1   
 18  11  30  1   
 19  11  31  1   
 20  12  14  1   
 21  12  32  1   
 22  12  33  1   
 23  13  34  1   
 24  13  35  1   
 25  13  36  1   
 26  14  15  ar  
 27  14  16  ar  
 28  15  17  1   
 29  15  18  ar  
 30  16  19  ar  
 31  16  37  1   
 32  17  20  1   
 33  17  21  1   
 34  18  22  ar  
 35  18  38  1   
 36  19  22  ar  
 37  19  39  1   
 38  20  23  2   
 39  20  24  1   
 40  21  25  2   
 41  21  40  1   
 42  22  41  1   
 43  23  25  1   
 44  24  42  1   
 45  24  43  1   
 46  24  44  1   
 47  25  45  1   
@<TRIPOS>SUBSTRUCTURE
  1 ****   1 GROUP 4 **** **** 0

# MOE 2024.06 (io_trps.svl 2023.06)
