@<TRIPOS>MOLECULE
NONAME
54 58 1 0 0 
SMALL
USER_CHARGES


@<TRIPOS>ATOM
  1 O       -0.6820    -0.2320     0.7020 O.3   1 <1>  -0.5600 
  2 C        0.1270     0.9130     0.7320 C.3   1 <1>   0.1200 
  3 C       -1.7820    -0.0160    -0.1210 C.3   1 <1>   0.1200 
  4 C       -0.6520     2.0290     0.0290 C.3   1 <1>   0.2890 
  5 C       -2.0740     1.4810    -0.0250 C.3   1 <1>  -0.0800 
  6 N       -0.5410     3.3250     0.7350 N.pl3 1 <1>  -0.8690 
  7 C       -2.9290     1.8010     1.2250 C.3   1 <1>  -0.0170 
  8 C        0.4770     4.1850     0.5230 C.ar  1 <1>   0.7200 
  9 C       -4.3120     1.1620     1.1480 C.ar  1 <1>  -0.1440 
 10 N        1.6270     3.6960     0.0870 N.ar  1 <1>  -0.6200 
 11 N        0.1780     5.4440     0.7770 N.ar  1 <1>  -0.6200 
 12 C       -5.3420     1.6750     0.3230 C.ar  1 <1>   0.0000 
 13 C       -4.5920     0.0520     1.8900 C.ar  1 <1>  -0.1500 
 14 C        2.5830     4.5740    -0.0960 C.ar  1 <1>   0.1670 
 15 C        1.1430     6.3090     0.5850 C.ar  1 <1>   0.1670 
 16 C       -6.5770     0.9830     0.3110 C.ar  1 <1>   0.3100 
 17 C       -5.2210     2.8300    -0.4850 C.ar  1 <1>  -0.1500 
 18 C       -5.8520    -0.5500     1.8110 C.ar  1 <1>   0.1600 
 19 C        2.3980     5.9230     0.1480 C.ar  1 <1>  -0.1430 
 20 C        3.9130     4.0100    -0.5780 C.3   1 <1>  -0.0170 
 21 C        0.7920     7.7570     0.8770 C.3   1 <1>  -0.0970 
 22 N       -6.8160    -0.1240     1.0580 N.ar  1 <1>  -0.6200 
 23 C       -7.6130     1.4590    -0.5090 C.ar  1 <1>  -0.1500 
 24 C       -6.2510     3.2680    -1.2710 C.ar  1 <1>  -0.1500 
 25 C        3.5250     6.9360    -0.0660 C.3   1 <1>  -0.0170 
 26 C        4.8690     5.0840    -1.1130 C.3   1 <1>  -0.1600 
 27 C       -7.4630     2.5740    -1.2870 C.ar  1 <1>  -0.1500 
 28 C        4.9080     6.2800    -0.1600 C.3   1 <1>  -0.1600 
 29 H        0.3180     1.1590     1.7610 H     1 <1>   0.0800 
 30 H        1.0500     0.7020     0.2210 H     1 <1>   0.0800 
 31 H       -1.4980    -0.2860    -1.1240 H     1 <1>   0.0800 
 32 H       -2.5950    -0.6410     0.2000 H     1 <1>   0.0800 
 33 H       -0.2670     2.1330    -0.9720 H     1 <1>   0.0800 
 34 H       -2.5730     1.8120    -0.9160 H     1 <1>   0.0800 
 35 H       -1.4080     3.8260     0.9050 H     1 <1>   0.4000 
 36 H       -3.0500     2.8620     1.3450 H     1 <1>   0.0800 
 37 H       -2.4160     1.4470     2.1030 H     1 <1>   0.0800 
 38 H       -3.8580    -0.3870     2.5420 H     1 <1>   0.1500 
 39 H       -4.3010     3.3820    -0.4830 H     1 <1>   0.1500 
 40 H       -6.0300    -1.4250     2.4130 H     1 <1>   0.1500 
 41 H        4.3740     3.5020     0.2500 H     1 <1>   0.0800 
 42 H        3.7310     3.2820    -1.3490 H     1 <1>   0.0800 
 43 H        1.2000     8.4080     0.1260 H     1 <1>   0.0800 
 44 H        1.1780     8.0340     1.8410 H     1 <1>   0.0800 
 45 H       -0.2750     7.8860     0.8870 H     1 <1>   0.0800 
 46 H       -8.5370     0.9110    -0.5030 H     1 <1>   0.1500 
 47 H       -6.1450     4.1480    -1.8820 H     1 <1>   0.1500 
 48 H        3.3300     7.4710    -0.9790 H     1 <1>   0.0800 
 49 H        3.5410     7.6480     0.7400 H     1 <1>   0.0800 
 50 H        5.8540     4.6650    -1.2230 H     1 <1>   0.0800 
 51 H        4.5330     5.4090    -2.0830 H     1 <1>   0.0800 
 52 H       -8.2670     2.9270    -1.9110 H     1 <1>   0.1500 
 53 H        5.6270     7.0030    -0.5060 H     1 <1>   0.0800 
 54 H        5.2130     5.9480     0.8180 H     1 <1>   0.0800 
@<TRIPOS>BOND
  1   1   2  1   
  2   1   3  1   
  3   2   4  1   
  4   2  29  1   
  5   2  30  1   
  6   3   5  1   
  7   3  31  1   
  8   3  32  1   
  9   4   5  1   
 10   4   6  1   
 11   4  33  1   
 12   5   7  1   
 13   5  34  1   
 14   6   8  1   
 15   6  35  1   
 16   7   9  1   
 17   7  36  1   
 18   7  37  1   
 19   8  10  ar  
 20   8  11  ar  
 21   9  12  ar  
 22   9  13  ar  
 23  10  14  ar  
 24  11  15  ar  
 25  12  16  ar  
 26  12  17  ar  
 27  13  18  ar  
 28  13  38  1   
 29  14  19  ar  
 30  14  20  1   
 31  15  19  ar  
 32  15  21  1   
 33  16  22  ar  
 34  16  23  ar  
 35  17  24  ar  
 36  17  39  1   
 37  18  22  ar  
 38  18  40  1   
 39  19  25  1   
 40  20  26  1   
 41  20  41  1   
 42  20  42  1   
 43  21  43  1   
 44  21  44  1   
 45  21  45  1   
 46  23  27  ar  
 47  23  46  1   
 48  24  27  ar  
 49  24  47  1   
 50  25  28  1   
 51  25  48  1   
 52  25  49  1   
 53  26  28  1   
 54  26  50  1   
 55  26  51  1   
 56  27  52  1   
 57  28  53  1   
 58  28  54  1   
@<TRIPOS>SUBSTRUCTURE
  1 ****   6 GROUP 4 **** **** 0

# MOE 2024.06 (io_trps.svl 2023.06)
