@<TRIPOS>MOLECULE
NONAME
51 54 1 0 0 
SMALL
USER_CHARGES


@<TRIPOS>ATOM
  1 O       -1.4370    -0.9970     2.3770 O.2   1 <1>  -0.5700 
  2 C       -1.8700    -1.1880     1.2570 C.2   1 <1>   0.7160 
  3 N       -1.4990    -2.3510     0.6140 N.am  1 <1>  -0.6600 
  4 C       -2.8420    -0.2760     0.6670 C.2   1 <1>   0.2030 
  5 C       -1.6120    -3.6340     1.3870 C.3   1 <1>   0.2200 
  6 C       -1.2990    -2.4050    -0.8680 C.3   1 <1>   0.1400 
  7 N       -3.8350    -0.6370    -0.1450 N.2   1 <1>  -0.7070 
  8 C       -2.8620     1.0960     0.9090 C.2   1 <1>  -0.1500 
  9 C       -0.5700    -4.6880     0.9820 C.3   1 <1>   0.1200 
 10 C       -3.0520    -4.1910     1.2690 C.3   1 <1>   0.3430 
 11 C       -1.8230    -3.6880    -1.5430 C.3   1 <1>  -0.0800 
 12 N       -4.4750     0.5190    -0.4290 N.pl3 1 <1>   0.6010 
 13 C       -3.9020     1.5940     0.2030 C.2   1 <1>  -0.0260 
 14 O       -1.0270    -5.4480    -0.0980 O.3   1 <1>  -0.5600 
 15 N       -3.8170    -3.6420     0.0850 N.4   1 <1>  -0.9590 
 16 C       -0.8640    -4.8720    -1.3490 C.3   1 <1>   0.1200 
 17 C       -3.2870    -4.0820    -1.2450 C.3   1 <1>   0.3430 
 18 C       -5.5770     0.7220    -1.2380 C.2   1 <1>  -0.1810 
 19 N       -4.3680     2.8860     0.0800 N.2   1 <1>  -0.5760 
 20 C       -5.2870    -3.8470     0.2150 C.3   1 <1>   0.3430 
 21 C       -6.0460     1.9910    -1.3680 C.2   1 <1>  -0.1360 
 22 C       -5.3990     3.0570    -0.6790 C.2   1 <1>   0.3760 
 23 C       -5.6780    -5.3300     0.1960 C.3   1 <1>  -0.1600 
 24 C       -7.1970    -5.4880     0.3460 C.3   1 <1>  -0.1600 
 25 C       -7.5990    -6.9650     0.3270 C.3   1 <1>  -0.2400 
 26 H       -1.4260    -3.4230     2.4270 H     1 <1>   0.0800 
 27 H       -1.7680    -1.5550    -1.3330 H     1 <1>   0.0800 
 28 H       -0.2440    -2.3120    -1.0650 H     1 <1>   0.0800 
 29 H       -2.1820     1.6440     1.5380 H     1 <1>   0.1500 
 30 H       -0.4310    -5.3750     1.7980 H     1 <1>   0.0800 
 31 H        0.3840    -4.2430     0.7530 H     1 <1>   0.0800 
 32 H       -3.5760    -3.9300     2.1730 H     1 <1>   0.0800 
 33 H       -3.0130    -5.2660     1.2190 H     1 <1>   0.0800 
 34 H       -1.7840    -3.4900    -2.5990 H     1 <1>   0.0800 
 35 H       -3.6640    -2.6120     0.1060 H     1 <1>   0.4500 
 36 H        0.1670    -4.5810    -1.4730 H     1 <1>   0.0800 
 37 H       -1.0800    -5.6400    -2.0730 H     1 <1>   0.0800 
 38 H       -3.3770    -5.1530    -1.3310 H     1 <1>   0.0800 
 39 H       -3.9060    -3.6450    -2.0110 H     1 <1>   0.0800 
 40 H       -5.9950    -0.1410    -1.7170 H     1 <1>   0.1500 
 41 H       -5.6270    -3.4050     1.1390 H     1 <1>   0.0800 
 42 H       -5.7900    -3.3390    -0.5920 H     1 <1>   0.0800 
 43 H       -6.8980     2.2330    -1.9790 H     1 <1>   0.1500 
 44 H       -5.7980     4.0490    -0.8050 H     1 <1>   0.0600 
 45 H       -5.3790    -5.7810    -0.7330 H     1 <1>   0.0800 
 46 H       -5.2000    -5.8520     1.0050 H     1 <1>   0.0800 
 47 H       -7.5230    -5.0500     1.2750 H     1 <1>   0.0800 
 48 H       -7.7020    -4.9790    -0.4580 H     1 <1>   0.0800 
 49 H       -7.1320    -7.4980     1.1370 H     1 <1>   0.0800 
 50 H       -7.3140    -7.4270    -0.6020 H     1 <1>   0.0800 
 51 H       -8.6660    -7.0570     0.4350 H     1 <1>   0.0800 
@<TRIPOS>BOND
  1   1   2  2   
  2   2   3  am  
  3   2   4  1   
  4   3   5  1   
  5   3   6  1   
  6   4   7  2   
  7   4   8  1   
  8   5   9  1   
  9   5  10  1   
 10   5  26  1   
 11   6  11  1   
 12   6  27  1   
 13   6  28  1   
 14   7  12  1   
 15   8  13  2   
 16   8  29  1   
 17   9  14  1   
 18   9  30  1   
 19   9  31  1   
 20  10  15  1   
 21  10  32  1   
 22  10  33  1   
 23  11  16  1   
 24  11  17  1   
 25  11  34  1   
 26  12  13  1   
 27  12  18  1   
 28  13  19  1   
 29  14  16  1   
 30  15  17  1   
 31  15  20  1   
 32  15  35  1   
 33  16  36  1   
 34  16  37  1   
 35  17  38  1   
 36  17  39  1   
 37  18  21  2   
 38  18  40  1   
 39  19  22  2   
 40  20  23  1   
 41  20  41  1   
 42  20  42  1   
 43  21  22  1   
 44  21  43  1   
 45  22  44  1   
 46  23  24  1   
 47  23  45  1   
 48  23  46  1   
 49  24  25  1   
 50  24  47  1   
 51  24  48  1   
 52  25  49  1   
 53  25  50  1   
 54  25  51  1   
@<TRIPOS>SUBSTRUCTURE
  1 ****   7 GROUP 4 **** **** 0

# MOE 2024.06 (io_trps.svl 2023.06)
