@<TRIPOS>MOLECULE
NONAME
42 45 1 0 0 
SMALL
USER_CHARGES


@<TRIPOS>ATOM
  1 O       -0.4680     0.2680    -0.1660 O.2   1 <1>  -0.5700 
  2 C       -1.5120     0.9050    -0.1350 C.2   1 <1>   0.7160 
  3 N       -2.6860     0.1790    -0.2530 N.am  1 <1>  -0.6600 
  4 C       -1.4700     2.3620     0.0220 C.2   1 <1>   0.2030 
  5 C       -4.0590     0.7390    -0.2310 C.3   1 <1>   0.1400 
  6 C       -2.7250    -1.2990    -0.3520 C.3   1 <1>   0.1400 
  7 N       -2.4910     3.2110     0.1320 N.2   1 <1>  -0.7070 
  8 C       -0.2750     3.0940     0.0820 C.2   1 <1>  -0.1810 
  9 C       -4.9860    -0.4720    -0.3530 C.3   1 <1>   0.2000 
 10 C       -4.1460    -1.6770     0.0650 C.3   1 <1>  -0.0800 
 11 N       -1.9450     4.4370     0.2560 N.pl3 1 <1>   0.3000 
 12 C       -0.6050     4.3680     0.2260 C.2   1 <1>  -0.3320 
 13 C        1.2140     2.8910     0.0370 C.3   1 <1>   0.0210 
 14 O       -6.0910    -0.3600     0.4780 O.3   1 <1>  -0.6800 
 15 C       -4.6540    -2.9940    -0.5450 C.3   1 <1>  -0.0170 
 16 C        0.5640     5.3070     0.3110 C.3   1 <1>   0.0200 
 17 C        1.7610     4.3400     0.1250 C.3   1 <1>  -0.1600 
 18 C       -3.8120    -4.1760    -0.0950 C.ar  1 <1>   0.1670 
 19 N       -2.7390    -4.4500    -0.8200 N.ar  1 <1>  -0.6200 
 20 C       -4.1840    -4.9030     1.0340 C.ar  1 <1>   0.1600 
 21 C       -2.0690    -5.4860    -0.3440 C.ar  1 <1>   0.1600 
 22 N       -3.5160    -5.9390     1.5130 N.ar  1 <1>  -0.6200 
 23 C       -2.4450    -6.2060     0.7840 C.ar  1 <1>   0.1600 
 24 H       -4.2170     1.2580     0.6980 H     1 <1>   0.0800 
 25 H       -4.1980     1.4140    -1.0580 H     1 <1>   0.0800 
 26 H       -2.5310    -1.5880    -1.3710 H     1 <1>   0.0800 
 27 H       -1.9900    -1.7540     0.2910 H     1 <1>   0.0800 
 28 H       -5.3310    -0.5660    -1.3690 H     1 <1>   0.0800 
 29 H       -4.1480    -1.7560     1.1390 H     1 <1>   0.0800 
 30 H       -2.5050     5.2910     0.3600 H     1 <1>   0.2700 
 31 H        1.5310     2.2970     0.8770 H     1 <1>   0.0800 
 32 H        1.5040     2.4110    -0.8810 H     1 <1>   0.0800 
 33 H       -5.8050    -0.1640     1.3910 H     1 <1>   0.4000 
 34 H       -4.6330    -2.9350    -1.6190 H     1 <1>   0.0800 
 35 H       -5.6760    -3.1490    -0.2500 H     1 <1>   0.0800 
 36 H        0.5300     6.0420    -0.4740 H     1 <1>   0.0800 
 37 H        0.5970     5.7870     1.2730 H     1 <1>   0.0800 
 38 H        2.2810     4.5810    -0.7850 H     1 <1>   0.0800 
 39 H        2.4460     4.4300     0.9480 H     1 <1>   0.0800 
 40 H       -5.0730    -4.6130     1.5670 H     1 <1>   0.1500 
 41 H       -1.1800    -5.7810    -0.8710 H     1 <1>   0.1500 
 42 H       -1.8340    -7.0350     1.0950 H     1 <1>   0.1500 
@<TRIPOS>BOND
  1   1   2  2   
  2   2   3  am  
  3   2   4  1   
  4   3   5  1   
  5   3   6  1   
  6   4   7  2   
  7   4   8  1   
  8   5   9  1   
  9   5  24  1   
 10   5  25  1   
 11   6  10  1   
 12   6  26  1   
 13   6  27  1   
 14   7  11  1   
 15   8  12  2   
 16   8  13  1   
 17   9  10  1   
 18   9  14  1   
 19   9  28  1   
 20  10  15  1   
 21  10  29  1   
 22  11  12  1   
 23  11  30  1   
 24  12  16  1   
 25  13  17  1   
 26  13  31  1   
 27  13  32  1   
 28  14  33  1   
 29  15  18  1   
 30  15  34  1   
 31  15  35  1   
 32  16  17  1   
 33  16  36  1   
 34  16  37  1   
 35  17  38  1   
 36  17  39  1   
 37  18  19  ar  
 38  18  20  ar  
 39  19  21  ar  
 40  20  22  ar  
 41  20  40  1   
 42  21  23  ar  
 43  21  41  1   
 44  22  23  ar  
 45  23  42  1   
@<TRIPOS>SUBSTRUCTURE
  1 ****   3 GROUP 4 **** **** 0

# MOE 2024.06 (io_trps.svl 2023.06)
