@<TRIPOS>MOLECULE
NONAME
54 57 1 0 0 
SMALL
USER_CHARGES


@<TRIPOS>ATOM
  1 O       -1.5800     0.7680    -1.8290 O.2   1 <1>  -0.5700 
  2 C       -2.1090     1.3150    -0.8800 C.2   1 <1>   0.5440 
  3 N       -3.0540     0.6050    -0.1780 N.am  1 <1>  -0.6600 
  4 C       -1.7510     2.6740    -0.5070 C.ar  1 <1>   0.0860 
  5 C       -4.4790     0.6460    -0.6030 C.3   1 <1>   0.2200 
  6 C       -2.6320    -0.7080     0.3820 C.3   1 <1>   0.0600 
  7 C       -1.0800     3.5170    -1.3930 C.ar  1 <1>  -0.1500 
  8 C       -2.0600     3.2050     0.7470 C.ar  1 <1>  -0.1500 
  9 C       -4.9060     1.9670    -1.2480 C.3   1 <1>  -0.1600 
 10 C       -5.4270     0.5120     0.5870 C.3   1 <1>  -0.1600 
 11 C       -0.7480     4.8150    -1.0540 C.ar  1 <1>  -0.1500 
 12 C       -1.7290     4.5030     1.0870 C.ar  1 <1>  -0.1500 
 13 C       -6.4310     2.0010    -1.0910 C.3   1 <1>  -0.0800 
 14 C       -6.7600     1.0940     0.0970 C.3   1 <1>  -0.0800 
 15 C       -1.0670     5.3440     0.1950 C.ar  1 <1>   0.0530 
 16 C       -7.0230     3.3780    -0.7500 C.3   1 <1>  -0.1600 
 17 C       -7.5020     1.9820     1.1070 C.3   1 <1>  -0.1600 
 18 C       -0.7220     6.7030     0.5470 C.2   1 <1>   0.0870 
 19 C       -8.1290     3.1060     0.2750 C.3   1 <1>   0.4230 
 20 O       -1.1000     7.2300     1.6880 O.3   1 <1>  -0.2800 
 21 C       -0.0270     7.6720    -0.0900 C.2   1 <1>   0.0770 
 22 N       -9.3800     2.6340    -0.4030 N.4   1 <1>  -0.9590 
 23 C       -0.6370     8.4550     1.7020 C.2   1 <1>   0.3280 
 24 N        0.0240     8.7910     0.6550 N.2   1 <1>  -0.5650 
 25 C       -9.9560     3.6600    -1.3330 C.3   1 <1>   0.2630 
 26 C      -10.4470     2.2250     0.5670 C.3   1 <1>   0.2630 
 27 H       -4.6630    -0.1550    -1.3010 H     1 <1>   0.0800 
 28 H       -3.0650    -0.8530     1.3550 H     1 <1>   0.0800 
 29 H       -1.5590    -0.7420     0.4720 H     1 <1>   0.0800 
 30 H       -2.9430    -1.5040    -0.2730 H     1 <1>   0.0800 
 31 H       -0.8180     3.1380    -2.3670 H     1 <1>   0.1500 
 32 H       -2.5660     2.5850     1.4660 H     1 <1>   0.1500 
 33 H       -4.4660     2.7860    -0.7110 H     1 <1>   0.0800 
 34 H       -4.6100     2.0120    -2.2820 H     1 <1>   0.0800 
 35 H       -5.5360    -0.5140     0.8890 H     1 <1>   0.0800 
 36 H       -5.0360     1.0870     1.4080 H     1 <1>   0.0800 
 37 H       -0.2330     5.4240    -1.7750 H     1 <1>   0.1500 
 38 H       -1.9850     4.8720     2.0650 H     1 <1>   0.1500 
 39 H       -6.8930     1.6000    -1.9790 H     1 <1>   0.0800 
 40 H       -7.3990     0.2950    -0.2410 H     1 <1>   0.0800 
 41 H       -7.3330     3.9170    -1.6240 H     1 <1>   0.0800 
 42 H       -6.2770     3.9780    -0.2570 H     1 <1>   0.0800 
 43 H       -6.7900     2.4390     1.7710 H     1 <1>   0.0800 
 44 H       -8.1910     1.4260     1.7140 H     1 <1>   0.0800 
 45 H       -8.3330     3.9780     0.8780 H     1 <1>   0.0800 
 46 H        0.4460     7.6240    -1.0550 H     1 <1>   0.1500 
 47 H       -9.1090     1.8100    -0.9580 H     1 <1>   0.4500 
 48 H       -0.8340     9.0750     2.5600 H     1 <1>   0.1500 
 49 H      -10.1650     4.5740    -0.7990 H     1 <1>   0.0800 
 50 H      -10.8740     3.2970    -1.7650 H     1 <1>   0.0800 
 51 H       -9.2720     3.8770    -2.1360 H     1 <1>   0.0800 
 52 H      -10.6890     3.0430     1.2260 H     1 <1>   0.0800 
 53 H      -10.1240     1.3860     1.1610 H     1 <1>   0.0800 
 54 H      -11.3400     1.9340     0.0380 H     1 <1>   0.0800 
@<TRIPOS>BOND
  1   1   2  2   
  2   2   3  am  
  3   2   4  1   
  4   3   5  1   
  5   3   6  1   
  6   4   7  ar  
  7   4   8  ar  
  8   5   9  1   
  9   5  10  1   
 10   5  27  1   
 11   6  28  1   
 12   6  29  1   
 13   6  30  1   
 14   7  11  ar  
 15   7  31  1   
 16   8  12  ar  
 17   8  32  1   
 18   9  13  1   
 19   9  33  1   
 20   9  34  1   
 21  10  14  1   
 22  10  35  1   
 23  10  36  1   
 24  11  15  ar  
 25  11  37  1   
 26  12  15  ar  
 27  12  38  1   
 28  13  14  1   
 29  13  16  1   
 30  13  39  1   
 31  14  17  1   
 32  14  40  1   
 33  15  18  1   
 34  16  19  1   
 35  16  41  1   
 36  16  42  1   
 37  17  19  1   
 38  17  43  1   
 39  17  44  1   
 40  18  20  1   
 41  18  21  2   
 42  19  22  1   
 43  19  45  1   
 44  20  23  1   
 45  21  24  1   
 46  21  46  1   
 47  22  25  1   
 48  22  26  1   
 49  22  47  1   
 50  23  24  2   
 51  23  48  1   
 52  25  49  1   
 53  25  50  1   
 54  25  51  1   
 55  26  52  1   
 56  26  53  1   
 57  26  54  1   
@<TRIPOS>SUBSTRUCTURE
  1 ****   8 GROUP 4 **** **** 0

# MOE 2024.06 (io_trps.svl 2023.06)
