@<TRIPOS>MOLECULE
NONAME
46 48 1 0 0 
SMALL
USER_CHARGES


@<TRIPOS>ATOM
  1 O        5.4210     0.6740     2.8280 O.2   1 <1>  -0.5700 
  2 C        4.8440     0.4200     1.7940 C.2   1 <1>   0.5440 
  3 N        4.4670     1.3850     0.9290 N.am  1 <1>  -0.7300 
  4 C        4.4370    -0.8570     1.2860 C.ar  1 <1>   0.0860 
  5 C        3.7350     0.8320    -0.2310 C.3   1 <1>   0.3640 
  6 C        3.7670    -0.6580     0.0910 C.ar  1 <1>  -0.1440 
  7 C        4.5990    -2.1440     1.7820 C.ar  1 <1>  -0.1500 
  8 C        4.4800     1.1450    -1.5250 C.3   1 <1>  -0.0990 
  9 C        3.2470    -1.7230    -0.6230 C.ar  1 <1>  -0.1500 
 10 C        4.0840    -3.2160     1.0720 C.ar  1 <1>  -0.1500 
 11 C        4.6110     2.6360    -1.6920 C.2   1 <1>   0.5690 
 12 C        3.4110    -3.0070    -0.1240 C.ar  1 <1>  -0.1500 
 13 O        3.7410     3.2190    -2.2900 O.2   1 <1>  -0.5700 
 14 N        5.6910     3.2420    -1.1160 N.am  1 <1>  -0.4940 
 15 C        6.0060     4.6050    -0.9110 C.2   1 <1>  -0.0880 
 16 N        5.7460     5.6640    -1.7280 N.pl3 1 <1>   0.3140 
 17 C        6.6630     5.1030     0.1630 C.2   1 <1>  -0.1810 
 18 N        6.2210     6.8140    -1.2030 N.2   1 <1>  -0.7070 
 19 C        5.1270     5.6730    -3.0590 C.3   1 <1>   0.0160 
 20 C        6.7630     6.4720    -0.0770 C.2   1 <1>   0.1080 
 21 C        7.1780     4.3420     1.3760 C.3   1 <1>   0.0210 
 22 C        7.4170     7.4940     0.8360 C.3   1 <1>   0.0210 
 23 C        8.6150     3.8730     1.1440 C.3   1 <1>  -0.2400 
 24 C        6.4100     8.0600     1.8430 C.3   1 <1>  -0.2400 
 25 H        4.3570     2.3580     1.2260 H     1 <1>   0.3700 
 26 H        2.7240     1.2070    -0.2520 H     1 <1>   0.0800 
 27 H        5.1210    -2.2910     2.7120 H     1 <1>   0.1500 
 28 H        3.9300     0.7470    -2.3580 H     1 <1>   0.0800 
 29 H        5.4500     0.6840    -1.5170 H     1 <1>   0.0800 
 30 H        2.7220    -1.5670    -1.5490 H     1 <1>   0.1500 
 31 H        4.2050    -4.2170     1.4500 H     1 <1>   0.1500 
 32 H        3.0120    -3.8480    -0.6660 H     1 <1>   0.1500 
 33 H        6.2740     2.6120    -0.5610 H     1 <1>   0.3700 
 34 H        5.4190     4.7910    -3.5940 H     1 <1>   0.0800 
 35 H        5.4540     6.5450    -3.5930 H     1 <1>   0.0800 
 36 H        4.0600     5.6980    -2.9460 H     1 <1>   0.0800 
 37 H        6.5490     3.4900     1.5660 H     1 <1>   0.0800 
 38 H        7.1350     4.9720     2.2470 H     1 <1>   0.0800 
 39 H        7.8060     8.2940     0.2310 H     1 <1>   0.0800 
 40 H        8.2420     7.0420     1.3540 H     1 <1>   0.0800 
 41 H        8.6620     3.2320     0.2820 H     1 <1>   0.0800 
 42 H        8.9670     3.3280     2.0020 H     1 <1>   0.0800 
 43 H        9.2600     4.7170     0.9800 H     1 <1>   0.0800 
 44 H        5.5960     8.5270     1.3160 H     1 <1>   0.0800 
 45 H        6.8840     8.7920     2.4720 H     1 <1>   0.0800 
 46 H        6.0140     7.2720     2.4580 H     1 <1>   0.0800 
@<TRIPOS>BOND
  1   1   2  2   
  2   2   3  am  
  3   2   4  1   
  4   3   5  1   
  5   3  25  1   
  6   4   6  ar  
  7   4   7  ar  
  8   5   6  1   
  9   5   8  1   
 10   5  26  1   
 11   6   9  ar  
 12   7  10  ar  
 13   7  27  1   
 14   8  11  1   
 15   8  28  1   
 16   8  29  1   
 17   9  12  ar  
 18   9  30  1   
 19  10  12  ar  
 20  10  31  1   
 21  11  13  2   
 22  11  14  am  
 23  12  32  1   
 24  14  15  1   
 25  14  33  1   
 26  15  16  1   
 27  15  17  2   
 28  16  18  1   
 29  16  19  1   
 30  17  20  1   
 31  17  21  1   
 32  18  20  2   
 33  19  34  1   
 34  19  35  1   
 35  19  36  1   
 36  20  22  1   
 37  21  23  1   
 38  21  37  1   
 39  21  38  1   
 40  22  24  1   
 41  22  39  1   
 42  22  40  1   
 43  23  41  1   
 44  23  42  1   
 45  23  43  1   
 46  24  44  1   
 47  24  45  1   
 48  24  46  1   
@<TRIPOS>SUBSTRUCTURE
  1 ****  14 GROUP 4 **** **** 0

# MOE 2024.06 (io_trps.svl 2023.06)
