@<TRIPOS>MOLECULE
NONAME
51 54 1 0 0 
SMALL
USER_CHARGES


@<TRIPOS>ATOM
  1 O        1.3730     0.4420    -0.2740 O.2   1 <1>  -0.5700 
  2 C        2.1530    -0.5010    -0.2850 C.2   1 <1>   0.6160 
  3 N        1.6720    -1.7700     0.0250 N.am  1 <1>  -0.4770 
  4 C        3.5470    -0.3200    -0.6150 C.2   1 <1>   0.0290 
  5 C        2.5050    -2.9020    -0.0250 C.ar  1 <1>   0.1170 
  6 C        0.2370    -1.9390     0.4200 C.3   1 <1>   0.0600 
  7 C        4.0880     0.9960    -0.9040 C.2   1 <1>   0.6160 
  8 C        4.3440    -1.4300    -0.6460 C.2   1 <1>  -0.1780 
  9 C        3.8590    -2.7340    -0.3630 C.ar  1 <1>   0.0280 
 10 C        2.0470    -4.1980     0.2450 C.ar  1 <1>  -0.1500 
 11 O        5.2680     1.1010    -1.1940 O.2   1 <1>  -0.5700 
 12 N        3.3300     2.1460    -0.8550 N.am  1 <1>  -0.4940 
 13 C        4.7010    -3.8490    -0.4150 C.ar  1 <1>  -0.1500 
 14 C        2.8920    -5.2860     0.1890 C.ar  1 <1>  -0.1500 
 15 C        3.5700     3.4820    -1.2630 C.2   1 <1>  -0.0880 
 16 C        4.2270    -5.1110    -0.1420 C.ar  1 <1>  -0.1500 
 17 N        4.6990     4.2380    -1.1250 N.pl3 1 <1>   0.3140 
 18 C        2.6610     4.2770    -1.8750 C.2   1 <1>  -0.1500 
 19 N        4.5260     5.4780    -1.6480 N.2   1 <1>  -0.7070 
 20 C        5.9820     3.8790    -0.4700 C.3   1 <1>   0.1760 
 21 C        3.3070     5.4860    -2.0900 C.2   1 <1>   0.1390 
 22 C        6.4270     4.9510     0.5380 C.3   1 <1>  -0.1600 
 23 C        7.0670     3.6730    -1.5370 C.3   1 <1>  -0.1600 
 24 C        7.7740     4.5840     1.1510 C.3   1 <1>   0.3430 
 25 C        8.3910     3.3080    -0.8840 C.3   1 <1>   0.3430 
 26 N        8.7850     4.3870     0.0700 N.4   1 <1>  -0.9590 
 27 C       10.1390     4.1230     0.6430 C.3   1 <1>   0.2630 
 28 H       -0.2780    -0.9970     0.4890 H     1 <1>   0.0800 
 29 H        0.1810    -2.4160     1.3820 H     1 <1>   0.0800 
 30 H       -0.2670    -2.5460    -0.3120 H     1 <1>   0.0800 
 31 H        5.3890    -1.3510    -0.8950 H     1 <1>   0.1500 
 32 H        1.0210    -4.3740     0.5020 H     1 <1>   0.1500 
 33 H        2.3370     1.9390    -0.6640 H     1 <1>   0.3700 
 34 H        5.7370    -3.7150    -0.6730 H     1 <1>   0.1500 
 35 H        2.5220    -6.2750     0.4010 H     1 <1>   0.1500 
 36 H        4.8840    -5.9630    -0.1850 H     1 <1>   0.1500 
 37 H        1.6490     4.0460    -2.1520 H     1 <1>   0.1500 
 38 H        5.8320     2.9710     0.0800 H     1 <1>   0.0800 
 39 H        2.8550     6.3390    -2.5680 H     1 <1>   0.1500 
 40 H        5.6920     5.0310     1.3200 H     1 <1>   0.0800 
 41 H        6.5070     5.9120     0.0590 H     1 <1>   0.0800 
 42 H        7.1860     4.5670    -2.1250 H     1 <1>   0.0800 
 43 H        6.7760     2.8810    -2.2030 H     1 <1>   0.0800 
 44 H        7.6740     3.6770     1.7260 H     1 <1>   0.0800 
 45 H        8.0920     5.3730     1.8150 H     1 <1>   0.0800 
 46 H        9.1450     3.1920    -1.6460 H     1 <1>   0.0800 
 47 H        8.2880     2.3690    -0.3620 H     1 <1>   0.0800 
 48 H        8.8250     5.2650    -0.4710 H     1 <1>   0.4500 
 49 H       10.1330     3.2090     1.2150 H     1 <1>   0.0800 
 50 H       10.4370     4.9320     1.2900 H     1 <1>   0.0800 
 51 H       10.8680     4.0300    -0.1470 H     1 <1>   0.0800 
@<TRIPOS>BOND
  1   1   2  2   
  2   2   3  am  
  3   2   4  1   
  4   3   5  1   
  5   3   6  1   
  6   4   7  1   
  7   4   8  2   
  8   5   9  ar  
  9   5  10  ar  
 10   6  28  1   
 11   6  29  1   
 12   6  30  1   
 13   7  11  2   
 14   7  12  am  
 15   8   9  1   
 16   8  31  1   
 17   9  13  ar  
 18  10  14  ar  
 19  10  32  1   
 20  12  15  1   
 21  12  33  1   
 22  13  16  ar  
 23  13  34  1   
 24  14  16  ar  
 25  14  35  1   
 26  15  17  1   
 27  15  18  2   
 28  16  36  1   
 29  17  19  1   
 30  17  20  1   
 31  18  21  1   
 32  18  37  1   
 33  19  21  2   
 34  20  22  1   
 35  20  23  1   
 36  20  38  1   
 37  21  39  1   
 38  22  24  1   
 39  22  40  1   
 40  22  41  1   
 41  23  25  1   
 42  23  42  1   
 43  23  43  1   
 44  24  26  1   
 45  24  44  1   
 46  24  45  1   
 47  25  26  1   
 48  25  46  1   
 49  25  47  1   
 50  26  27  1   
 51  26  48  1   
 52  27  49  1   
 53  27  50  1   
 54  27  51  1   
@<TRIPOS>SUBSTRUCTURE
  1 ****   7 GROUP 4 **** **** 0

# MOE 2024.06 (io_trps.svl 2023.06)
