@<TRIPOS>MOLECULE
NONAME
39 41 1 0 0 
SMALL
USER_CHARGES


@<TRIPOS>ATOM
  1 F        1.0260    -2.4790    -1.0310 F     1 <1>  -0.3400 
  2 C        0.2750    -1.6480    -0.3210 C.3   1 <1>   1.1640 
  3 F        1.0590    -1.1580     0.6330 F     1 <1>  -0.3400 
  4 F       -0.0160    -0.6320    -1.1220 F     1 <1>  -0.3400 
  5 C       -0.9750    -2.3310     0.2180 C.ar  1 <1>  -0.1440 
  6 C       -1.9090    -2.8070    -0.6880 C.ar  1 <1>   0.1600 
  7 C       -1.2240    -2.5020     1.5730 C.ar  1 <1>  -0.1500 
  8 N       -3.0350    -3.4210    -0.3710 N.ar  1 <1>  -0.6200 
  9 C       -2.3930    -3.1390     1.9160 C.ar  1 <1>  -0.1500 
 10 C       -3.2640    -3.5790     0.9270 C.ar  1 <1>   0.4100 
 11 N       -4.4300    -4.2170     1.2850 N.pl3 1 <1>  -0.8380 
 12 C       -5.6890    -3.5490     0.8520 C.3   1 <1>   0.2090 
 13 C       -4.5050    -5.6610     0.9250 C.3   1 <1>   0.2090 
 14 C       -6.3420    -4.5140    -0.1320 C.3   1 <1>   0.2000 
 15 C       -5.8900    -5.8960     0.3190 C.3   1 <1>  -0.0800 
 16 O       -7.7280    -4.4310    -0.1110 O.3   1 <1>  -0.6800 
 17 C       -5.8900    -6.9200    -0.8260 C.3   1 <1>   0.0200 
 18 C       -5.3070    -8.2450    -0.3740 C.2   1 <1>  -0.0400 
 19 O       -5.8840    -8.9240     0.5810 O.3   1 <1>  -0.0190 
 20 C       -4.2240    -8.9280    -0.7720 C.2   1 <1>  -0.1500 
 21 N       -5.2420   -10.0250     0.8470 N.2   1 <1>  -0.4100 
 22 C       -4.2370   -10.0540     0.0460 C.2   1 <1>   0.1080 
 23 C       -3.2130   -11.1660     0.0060 C.3   1 <1>  -0.0590 
 24 H       -1.7230    -2.6780    -1.7430 H     1 <1>   0.1500 
 25 H       -0.5410    -2.1580     2.3320 H     1 <1>   0.1500 
 26 H       -2.6570    -3.3100     2.9430 H     1 <1>   0.1500 
 27 H       -6.3150    -3.4010     1.7140 H     1 <1>   0.0800 
 28 H       -5.4880    -2.6020     0.3800 H     1 <1>   0.0800 
 29 H       -3.7340    -5.9000     0.2100 H     1 <1>   0.0800 
 30 H       -4.3630    -6.2710     1.8000 H     1 <1>   0.0800 
 31 H       -5.9980    -4.2910    -1.1280 H     1 <1>   0.0800 
 32 H       -6.5270    -6.2450     1.1130 H     1 <1>   0.0800 
 33 H       -8.0700    -4.6740     0.7710 H     1 <1>   0.4000 
 34 H       -5.3090    -6.5440    -1.6500 H     1 <1>   0.0800 
 35 H       -6.8970    -7.0750    -1.1710 H     1 <1>   0.0800 
 36 H       -3.5000    -8.6940    -1.5300 H     1 <1>   0.1500 
 37 H       -2.2320   -10.7640     0.1770 H     1 <1>   0.0800 
 38 H       -3.2380   -11.6500    -0.9530 H     1 <1>   0.0800 
 39 H       -3.4300   -11.8920     0.7680 H     1 <1>   0.0800 
@<TRIPOS>BOND
  1   1   2  1   
  2   2   3  1   
  3   2   4  1   
  4   2   5  1   
  5   5   6  ar  
  6   5   7  ar  
  7   6   8  ar  
  8   6  24  1   
  9   7   9  ar  
 10   7  25  1   
 11   8  10  ar  
 12   9  10  ar  
 13   9  26  1   
 14  10  11  1   
 15  11  12  1   
 16  11  13  1   
 17  12  14  1   
 18  12  27  1   
 19  12  28  1   
 20  13  15  1   
 21  13  29  1   
 22  13  30  1   
 23  14  15  1   
 24  14  16  1   
 25  14  31  1   
 26  15  17  1   
 27  15  32  1   
 28  16  33  1   
 29  17  18  1   
 30  17  34  1   
 31  17  35  1   
 32  18  19  1   
 33  18  20  2   
 34  19  21  1   
 35  20  22  1   
 36  20  36  1   
 37  21  22  2   
 38  22  23  1   
 39  23  37  1   
 40  23  38  1   
 41  23  39  1   
@<TRIPOS>SUBSTRUCTURE
  1 ****  13 GROUP 4 **** **** 0

# MOE 2024.06 (io_trps.svl 2023.06)
