@<TRIPOS>MOLECULE
NONAME
45 47 1 0 0 
SMALL
USER_CHARGES


@<TRIPOS>ATOM
  1 F        2.3850     0.5530     2.6010 F     1 <1>  -0.1900 
  2 C        3.2640     1.2440     1.9210 C.ar  1 <1>   0.1900 
  3 C        4.5720     0.8230     1.9030 C.ar  1 <1>  -0.1500 
  4 C        2.8180     2.3830     1.2450 C.ar  1 <1>  -0.1500 
  5 C        5.4810     1.5830     1.1700 C.ar  1 <1>   0.2270 
  6 C        3.7190     3.1330     0.5200 C.ar  1 <1>  -0.1500 
  7 N        6.8180     1.3950     0.9890 N.2   1 <1>  -0.5650 
  8 C        5.0540     2.7150     0.4940 C.ar  1 <1>  -0.1520 
  9 C        7.1790     2.3760     0.2360 C.2   1 <1>   0.0060 
 10 N        6.1660     3.2110    -0.1030 N.pl3 1 <1>   0.0330 
 11 C        8.5970     2.6120    -0.2530 C.3   1 <1>   0.3000 
 12 O        8.7550     3.9650    -0.5750 O.3   1 <1>  -0.5600 
 13 C       10.0330     4.2820    -1.0770 C.3   1 <1>   0.1810 
 14 C       10.2040     5.7850    -1.2920 C.2   1 <1>   0.5690 
 15 O       11.1030     6.1760    -1.9970 O.2   1 <1>  -0.5700 
 16 N        9.3630     6.6420    -0.6650 N.am  1 <1>  -0.7300 
 17 C        9.4200     8.1000    -0.7280 C.3   1 <1>   0.4000 
 18 C        9.8210     8.5770     0.6560 C.2   1 <1>  -0.3320 
 19 C        8.0500     8.6180    -1.1840 C.3   1 <1>  -0.1600 
 20 N       11.1030     8.5720     1.0890 N.pl3 1 <1>   0.3140 
 21 C        9.0740     9.0610     1.6750 C.2   1 <1>  -0.1500 
 22 C        8.0350    10.1370    -1.4210 C.3   1 <1>  -0.2400 
 23 N       11.1980     9.0370     2.3460 N.2   1 <1>  -0.7070 
 24 C       12.3040     8.1300     0.3620 C.3   1 <1>   0.0160 
 25 C        9.9820     9.3270     2.6900 C.2   1 <1>   0.1390 
 26 H        4.9030    -0.0520     2.4270 H     1 <1>   0.1500 
 27 H        1.7790     2.6540     1.3020 H     1 <1>   0.1500 
 28 H        3.4110     4.0150    -0.0130 H     1 <1>   0.1500 
 29 H        6.2570     4.0570    -0.6710 H     1 <1>   0.2700 
 30 H        8.7820     2.0180    -1.1310 H     1 <1>   0.0800 
 31 H        9.2970     2.3500     0.5220 H     1 <1>   0.0800 
 32 H       10.1700     3.7740    -2.0150 H     1 <1>   0.0800 
 33 H       10.7750     3.9480    -0.3740 H     1 <1>   0.0800 
 34 H        8.6810     6.2610    -0.0080 H     1 <1>   0.3700 
 35 H       10.1580     8.4070    -1.4510 H     1 <1>   0.0800 
 36 H        7.3040     8.3640    -0.4530 H     1 <1>   0.0800 
 37 H        7.7940     8.1330    -2.1100 H     1 <1>   0.0800 
 38 H        8.0120     9.2200     1.7310 H     1 <1>   0.1500 
 39 H        8.2690    10.6700    -0.5160 H     1 <1>   0.0800 
 40 H        7.0610    10.4490    -1.7560 H     1 <1>   0.0800 
 41 H        8.7560    10.4070    -2.1730 H     1 <1>   0.0800 
 42 H       12.3000     8.5420    -0.6290 H     1 <1>   0.0800 
 43 H       12.3090     7.0580     0.3120 H     1 <1>   0.0800 
 44 H       13.1770     8.4690     0.8880 H     1 <1>   0.0800 
 45 H        9.7200     9.7280     3.6550 H     1 <1>   0.1500 
@<TRIPOS>BOND
  1   1   2  1   
  2   2   3  ar  
  3   2   4  ar  
  4   3   5  ar  
  5   3  26  1   
  6   4   6  ar  
  7   4  27  1   
  8   5   7  1   
  9   5   8  ar  
 10   6   8  ar  
 11   6  28  1   
 12   7   9  2   
 13   8  10  1   
 14   9  10  1   
 15   9  11  1   
 16  10  29  1   
 17  11  12  1   
 18  11  30  1   
 19  11  31  1   
 20  12  13  1   
 21  13  14  1   
 22  13  32  1   
 23  13  33  1   
 24  14  15  2   
 25  14  16  am  
 26  16  17  1   
 27  16  34  1   
 28  17  18  1   
 29  17  19  1   
 30  17  35  1   
 31  18  20  1   
 32  18  21  2   
 33  19  22  1   
 34  19  36  1   
 35  19  37  1   
 36  20  23  1   
 37  20  24  1   
 38  21  25  1   
 39  21  38  1   
 40  22  39  1   
 41  22  40  1   
 42  22  41  1   
 43  23  25  2   
 44  24  42  1   
 45  24  43  1   
 46  24  44  1   
 47  25  45  1   
@<TRIPOS>SUBSTRUCTURE
  1 ****  12 GROUP 4 **** **** 0

# MOE 2024.06 (io_trps.svl 2023.06)
