@<TRIPOS>MOLECULE
NONAME
52 54 1 0 0 
SMALL
USER_CHARGES


@<TRIPOS>ATOM
  1 O        1.7780    -0.6000    -1.6200 O.3   1 <1>  -0.6800 
  2 C        1.8260     0.0850    -0.4200 C.3   1 <1>   0.2800 
  3 C        3.3050     0.3560    -0.0070 C.3   1 <1>  -0.0800 
  4 C        1.1410    -0.8150     0.6260 C.3   1 <1>  -0.1600 
  5 C        1.0120     1.3840    -0.6100 C.3   1 <1>  -0.1600 
  6 C        3.9130    -0.6700     0.9610 C.3   1 <1>  -0.0800 
  7 C        4.3240     0.4290    -1.1480 C.3   1 <1>   0.2090 
  8 C        1.8550    -2.1660     0.8430 C.3   1 <1>  -0.1600 
  9 C        1.5370     2.3490    -1.6880 C.3   1 <1>  -0.2400 
 10 C        3.3840    -2.0840     0.6710 C.3   1 <1>  -0.1600 
 11 C        5.4280    -0.5510     0.7600 C.3   1 <1>   0.2090 
 12 N        5.6440     0.1720    -0.5210 N.pl3 1 <1>  -0.8380 
 13 C        6.5320     1.2220    -0.5380 C.ar  1 <1>   0.4100 
 14 N        6.3540     2.1990     0.3440 N.ar  1 <1>  -0.6200 
 15 C        7.5550     1.2230    -1.4780 C.ar  1 <1>  -0.1500 
 16 C        7.2160     3.1950     0.2870 C.ar  1 <1>   0.1600 
 17 C        8.4540     2.2620    -1.5240 C.ar  1 <1>  -0.1500 
 18 C        8.2790     3.2770    -0.5990 C.ar  1 <1>  -0.1440 
 19 C        9.2270     4.4540    -0.5410 C.3   1 <1>   0.4860 
 20 N       10.5310     3.9960     0.0240 N.4   1 <1>  -0.9590 
 21 C       10.3900     3.5040     1.4330 C.3   1 <1>   0.2630 
 22 C       11.5740     5.0630    -0.0720 C.3   1 <1>   0.2630 
 23 H        0.8520    -0.8080    -1.8330 H     1 <1>   0.4000 
 24 H        3.3430     1.3020     0.5020 H     1 <1>   0.0800 
 25 H        1.1360    -0.2840     1.5620 H     1 <1>   0.0800 
 26 H        0.1130    -0.9870     0.3620 H     1 <1>   0.0800 
 27 H       -0.0050     1.1260    -0.8480 H     1 <1>   0.0800 
 28 H        0.9850     1.9120     0.3270 H     1 <1>   0.0800 
 29 H        3.6730    -0.4150     1.9780 H     1 <1>   0.0800 
 30 H        4.3010     1.3880    -1.6340 H     1 <1>   0.0800 
 31 H        4.1510    -0.3390    -1.8810 H     1 <1>   0.0800 
 32 H        1.6230    -2.5230     1.8310 H     1 <1>   0.0800 
 33 H        1.4750    -2.8890     0.1410 H     1 <1>   0.0800 
 34 H        1.6360     1.8470    -2.6340 H     1 <1>   0.0800 
 35 H        2.4920     2.7540    -1.4060 H     1 <1>   0.0800 
 36 H        0.8510     3.1680    -1.8090 H     1 <1>   0.0800 
 37 H        3.6340    -2.3430    -0.3440 H     1 <1>   0.0800 
 38 H        3.8590    -2.8030     1.3160 H     1 <1>   0.0800 
 39 H        5.8930    -1.5210     0.7130 H     1 <1>   0.0800 
 40 H        5.8630     0.0000     1.5760 H     1 <1>   0.0800 
 41 H        7.6160     0.3950    -2.1590 H     1 <1>   0.1500 
 42 H        7.0570     3.9870     0.9990 H     1 <1>   0.1500 
 43 H        9.2450     2.2650    -2.2550 H     1 <1>   0.1500 
 44 H        8.8090     5.2360     0.0710 H     1 <1>   0.0800 
 45 H        9.3700     4.8410    -1.5370 H     1 <1>   0.0800 
 46 H       10.8240     3.1910    -0.5510 H     1 <1>   0.4500 
 47 H       10.0480     4.2960     2.0780 H     1 <1>   0.0800 
 48 H       11.3380     3.1450     1.8010 H     1 <1>   0.0800 
 49 H        9.6810     2.6920     1.4780 H     1 <1>   0.0800 
 50 H       11.2910     5.9210     0.5170 H     1 <1>   0.0800 
 51 H       11.7010     5.3740    -1.0970 H     1 <1>   0.0800 
 52 H       12.5200     4.6940     0.2920 H     1 <1>   0.0800 
@<TRIPOS>BOND
  1   1   2  1   
  2   1  23  1   
  3   2   3  1   
  4   2   4  1   
  5   2   5  1   
  6   3   6  1   
  7   3   7  1   
  8   3  24  1   
  9   4   8  1   
 10   4  25  1   
 11   4  26  1   
 12   5   9  1   
 13   5  27  1   
 14   5  28  1   
 15   6  10  1   
 16   6  11  1   
 17   6  29  1   
 18   7  12  1   
 19   7  30  1   
 20   7  31  1   
 21   8  10  1   
 22   8  32  1   
 23   8  33  1   
 24   9  34  1   
 25   9  35  1   
 26   9  36  1   
 27  10  37  1   
 28  10  38  1   
 29  11  12  1   
 30  11  39  1   
 31  11  40  1   
 32  12  13  1   
 33  13  14  ar  
 34  13  15  ar  
 35  14  16  ar  
 36  15  17  ar  
 37  15  41  1   
 38  16  18  ar  
 39  16  42  1   
 40  17  18  ar  
 41  17  43  1   
 42  18  19  1   
 43  19  20  1   
 44  19  44  1   
 45  19  45  1   
 46  20  21  1   
 47  20  22  1   
 48  20  46  1   
 49  21  47  1   
 50  21  48  1   
 51  21  49  1   
 52  22  50  1   
 53  22  51  1   
 54  22  52  1   
@<TRIPOS>SUBSTRUCTURE
  1 ****  13 GROUP 4 **** **** 0

# MOE 2024.06 (io_trps.svl 2023.06)
