@<TRIPOS>MOLECULE
NONAME
61 63 1 0 0 
SMALL
USER_CHARGES


@<TRIPOS>ATOM
  1 O        0.9510    -0.4050     1.7860 O.2   1 <1>  -0.5700 
  2 C        1.4400    -0.6510     0.7020 C.2   1 <1>   0.5440 
  3 N        2.0000     0.3770    -0.0260 N.am  1 <1>  -0.6600 
  4 C        1.4090    -2.0200     0.2200 C.ar  1 <1>   0.0860 
  5 C        1.9160     1.7930     0.4690 C.3   1 <1>   0.3200 
  6 C        2.8630     0.1830    -1.2280 C.3   1 <1>   0.0600 
  7 C        1.9530    -3.0520     0.9810 C.ar  1 <1>  -0.1500 
  8 C        0.8230    -2.3600    -0.9980 C.ar  1 <1>  -0.1500 
  9 C        3.2550     2.3070     0.9780 C.2   1 <1>   0.2980 
 10 C        1.9140    -4.3660     0.5500 C.ar  1 <1>  -0.1500 
 11 C        0.7780    -3.6710    -1.4360 C.ar  1 <1>  -0.1500 
 12 O        3.7510     1.7950     2.0770 O.3   1 <1>  -0.0190 
 13 N        3.9660     3.2070     0.4220 N.2   1 <1>  -0.5650 
 14 C        1.3160    -4.6870    -0.6600 C.ar  1 <1>  -0.1430 
 15 N        4.8770     2.4230     2.2340 N.2   1 <1>  -0.4100 
 16 C        4.9910     3.2370     1.2630 C.2   1 <1>   0.3350 
 17 C        1.2400    -6.1310    -1.1200 C.3   1 <1>   0.4860 
 18 C        6.1670     4.1730     1.0460 C.3   1 <1>   0.0210 
 19 N        0.2470    -6.8510    -0.2770 N.4   1 <1>  -0.9590 
 20 C        6.9980     3.8130    -0.2020 C.3   1 <1>  -0.0800 
 21 C        0.3580    -8.3230    -0.4760 C.3   1 <1>   0.3430 
 22 C       -1.1260    -6.3030    -0.4860 C.3   1 <1>   0.3430 
 23 C        7.6200     2.4130    -0.0860 C.3   1 <1>  -0.2400 
 24 C        8.1050     4.8510    -0.4260 C.3   1 <1>  -0.2400 
 25 C       -0.0570    -9.0510     0.8020 C.3   1 <1>  -0.1600 
 26 C       -2.1320    -6.8470     0.5300 C.3   1 <1>  -0.1600 
 27 C       -1.5630    -9.3310     0.9350 C.3   1 <1>  -0.1600 
 28 C       -2.5100    -8.3140     0.2830 C.3   1 <1>  -0.1600 
 29 H        1.1910     1.8830     1.2580 H     1 <1>   0.0800 
 30 H        1.5900     2.4220    -0.3390 H     1 <1>   0.0800 
 31 H        3.0790    -0.8580    -1.3890 H     1 <1>   0.0800 
 32 H        3.8000     0.6990    -1.0990 H     1 <1>   0.0800 
 33 H        2.3670     0.5770    -2.0990 H     1 <1>   0.0800 
 34 H        2.4090    -2.8060     1.9260 H     1 <1>   0.1500 
 35 H        0.3930    -1.5770    -1.5990 H     1 <1>   0.1500 
 36 H        2.3560    -5.1250     1.1730 H     1 <1>   0.1500 
 37 H        0.3160    -3.8850    -2.3860 H     1 <1>   0.1500 
 38 H        2.2130    -6.5840    -1.0150 H     1 <1>   0.0800 
 39 H        0.9530    -6.1770    -2.1580 H     1 <1>   0.0800 
 40 H        6.7940     4.1500     1.9190 H     1 <1>   0.0800 
 41 H        5.7800     5.1710     0.9450 H     1 <1>   0.0800 
 42 H        0.4940    -6.6460     0.6980 H     1 <1>   0.4500 
 43 H        6.3450     3.8260    -1.0590 H     1 <1>   0.0800 
 44 H        1.3860    -8.5760    -0.6840 H     1 <1>   0.0800 
 45 H       -0.2430    -8.6480    -1.3100 H     1 <1>   0.0800 
 46 H       -1.4650    -6.5280    -1.4840 H     1 <1>   0.0800 
 47 H       -1.0980    -5.2290    -0.3810 H     1 <1>   0.0800 
 48 H        8.2610     2.3510     0.7750 H     1 <1>   0.0800 
 49 H        8.2000     2.1880    -0.9630 H     1 <1>   0.0800 
 50 H        6.8520     1.6640     0.0050 H     1 <1>   0.0800 
 51 H        8.7850     4.8690     0.4080 H     1 <1>   0.0800 
 52 H        7.6810     5.8320    -0.5450 H     1 <1>   0.0800 
 53 H        8.6620     4.6160    -1.3160 H     1 <1>   0.0800 
 54 H        0.2910    -8.5050     1.6610 H     1 <1>   0.0800 
 55 H        0.4480   -10.0020     0.8210 H     1 <1>   0.0800 
 56 H       -3.0280    -6.2610     0.4210 H     1 <1>   0.0800 
 57 H       -1.7850    -6.6960     1.5380 H     1 <1>   0.0800 
 58 H       -1.8000    -9.4060     1.9830 H     1 <1>   0.0800 
 59 H       -1.7770   -10.2970     0.5060 H     1 <1>   0.0800 
 60 H       -2.5780    -8.5010    -0.7750 H     1 <1>   0.0800 
 61 H       -3.4950    -8.4860     0.6870 H     1 <1>   0.0800 
@<TRIPOS>BOND
  1   1   2  2   
  2   2   3  am  
  3   2   4  1   
  4   3   5  1   
  5   3   6  1   
  6   4   7  ar  
  7   4   8  ar  
  8   5   9  1   
  9   5  29  1   
 10   5  30  1   
 11   6  31  1   
 12   6  32  1   
 13   6  33  1   
 14   7  10  ar  
 15   7  34  1   
 16   8  11  ar  
 17   8  35  1   
 18   9  12  1   
 19   9  13  2   
 20  10  14  ar  
 21  10  36  1   
 22  11  14  ar  
 23  11  37  1   
 24  12  15  1   
 25  13  16  1   
 26  14  17  1   
 27  15  16  2   
 28  16  18  1   
 29  17  19  1   
 30  17  38  1   
 31  17  39  1   
 32  18  20  1   
 33  18  40  1   
 34  18  41  1   
 35  19  21  1   
 36  19  22  1   
 37  19  42  1   
 38  20  23  1   
 39  20  24  1   
 40  20  43  1   
 41  21  25  1   
 42  21  44  1   
 43  21  45  1   
 44  22  26  1   
 45  22  46  1   
 46  22  47  1   
 47  23  48  1   
 48  23  49  1   
 49  23  50  1   
 50  24  51  1   
 51  24  52  1   
 52  24  53  1   
 53  25  27  1   
 54  25  54  1   
 55  25  55  1   
 56  26  28  1   
 57  26  56  1   
 58  26  57  1   
 59  27  28  1   
 60  27  58  1   
 61  27  59  1   
 62  28  60  1   
 63  28  61  1   
@<TRIPOS>SUBSTRUCTURE
  1 ****   4 GROUP 4 **** **** 0

# MOE 2024.06 (io_trps.svl 2023.06)
