@<TRIPOS>MOLECULE
NONAME
48 51 1 0 0 
SMALL
USER_CHARGES


@<TRIPOS>ATOM
  1 CL      -0.5040    -2.5800     2.3070 Cl    1 <1>  -0.1240 
  2 C       -1.9730    -2.0460     1.5390 C.2   1 <1>   0.1640 
  3 S       -3.3860    -1.9020     2.5620 S.3   1 <1>  -0.0800 
  4 C       -2.2390    -1.7100     0.2660 C.2   1 <1>  -0.1500 
  5 C       -4.3580    -1.3700     1.1930 C.2   1 <1>  -0.1400 
  6 C       -3.6050    -1.3220     0.0690 C.2   1 <1>  -0.1500 
  7 C       -5.8080    -1.0700     1.5220 C.3   1 <1>   0.5230 
  8 N       -6.6070    -0.9520     0.2730 N.4   1 <1>  -0.9590 
  9 C       -7.9500    -0.3430     0.5620 C.3   1 <1>   0.3430 
 10 C       -6.7510    -2.2780    -0.4000 C.3   1 <1>   0.3430 
 11 C       -8.7840    -0.1370    -0.7150 C.3   1 <1>   0.1430 
 12 C       -7.5140    -2.1130    -1.7180 C.3   1 <1>  -0.1600 
 13 C      -10.1550     0.3360    -0.3020 C.ar  1 <1>   0.1670 
 14 C       -8.8900    -1.4570    -1.5080 C.3   1 <1>  -0.1600 
 15 C       -8.2780     1.0360    -1.5990 C.3   1 <1>  -0.1600 
 16 N      -10.8610    -0.2070     0.6540 N.ar  1 <1>  -0.6200 
 17 C      -10.5610     1.4140    -1.0250 C.ar  1 <1>  -0.1430 
 18 C       -9.5270     1.8240    -2.0430 C.3   1 <1>  -0.0170 
 19 C      -12.0450     0.3740     0.8750 C.ar  1 <1>   0.7200 
 20 C      -11.7910     1.9450    -0.7270 C.ar  1 <1>   0.1600 
 21 N      -12.5360     1.4330     0.2240 N.ar  1 <1>  -0.6200 
 22 N      -12.8240    -0.1650     1.8770 N.pl3 1 <1>  -0.8380 
 23 C      -13.9800     0.5800     2.4490 C.3   1 <1>   0.1290 
 24 C      -12.7340    -1.5970     2.2730 C.3   1 <1>   0.1290 
 25 H       -1.5240    -1.7210    -0.5380 H     1 <1>   0.1500 
 26 H       -3.9280    -1.0270    -0.9150 H     1 <1>   0.1500 
 27 H       -5.8540    -0.1500     2.0820 H     1 <1>   0.0800 
 28 H       -6.2080    -1.8590     2.1380 H     1 <1>   0.0800 
 29 H       -6.0920    -0.3240    -0.3550 H     1 <1>   0.4500 
 30 H       -7.8340     0.6070     1.0590 H     1 <1>   0.0800 
 31 H       -8.5050    -0.9920     1.2220 H     1 <1>   0.0800 
 32 H       -7.2930    -2.9550     0.2420 H     1 <1>   0.0800 
 33 H       -5.7810    -2.7070    -0.5970 H     1 <1>   0.0800 
 34 H       -7.6540    -3.0850    -2.1600 H     1 <1>   0.0800 
 35 H       -6.9210    -1.5370    -2.4060 H     1 <1>   0.0800 
 36 H       -9.3680    -1.2820    -2.4570 H     1 <1>   0.0800 
 37 H       -9.5190    -2.1400    -0.9600 H     1 <1>   0.0800 
 38 H       -7.7080     0.7090    -2.4500 H     1 <1>   0.0800 
 39 H       -7.6650     1.6970    -1.0100 H     1 <1>   0.0800 
 40 H       -9.8470     1.5160    -3.0240 H     1 <1>   0.0800 
 41 H       -9.3560     2.8860    -2.0320 H     1 <1>   0.0800 
 42 H      -12.1670     2.7970    -1.2680 H     1 <1>   0.1500 
 43 H      -13.7860     1.6390     2.4420 H     1 <1>   0.0800 
 44 H      -14.1510     0.2740     3.4660 H     1 <1>   0.0800 
 45 H      -14.8610     0.3830     1.8640 H     1 <1>   0.0800 
 46 H      -12.1760    -2.1620     1.5470 H     1 <1>   0.0800 
 47 H      -13.7210    -2.0200     2.3420 H     1 <1>   0.0800 
 48 H      -12.2480    -1.6760     3.2300 H     1 <1>   0.0800 
@<TRIPOS>BOND
  1   1   2  1   
  2   2   3  1   
  3   2   4  2   
  4   3   5  1   
  5   4   6  1   
  6   4  25  1   
  7   5   6  2   
  8   5   7  1   
  9   6  26  1   
 10   7   8  1   
 11   7  27  1   
 12   7  28  1   
 13   8   9  1   
 14   8  10  1   
 15   8  29  1   
 16   9  11  1   
 17   9  30  1   
 18   9  31  1   
 19  10  12  1   
 20  10  32  1   
 21  10  33  1   
 22  11  13  1   
 23  11  14  1   
 24  11  15  1   
 25  12  14  1   
 26  12  34  1   
 27  12  35  1   
 28  13  16  ar  
 29  13  17  ar  
 30  14  36  1   
 31  14  37  1   
 32  15  18  1   
 33  15  38  1   
 34  15  39  1   
 35  16  19  ar  
 36  17  18  1   
 37  17  20  ar  
 38  18  40  1   
 39  18  41  1   
 40  19  21  ar  
 41  19  22  1   
 42  20  21  ar  
 43  20  42  1   
 44  22  23  1   
 45  22  24  1   
 46  23  43  1   
 47  23  44  1   
 48  23  45  1   
 49  24  46  1   
 50  24  47  1   
 51  24  48  1   
@<TRIPOS>SUBSTRUCTURE
  1 ****   9 GROUP 4 **** **** 0

# MOE 2024.06 (io_trps.svl 2023.06)
