@<TRIPOS>MOLECULE
NONAME
55 57 1 0 0 
SMALL
USER_CHARGES


@<TRIPOS>ATOM
  1 O       -0.0800     1.0370     0.5530 O.2   1 <1>  -0.5700 
  2 C       -0.1610     2.1620     0.1300 C.2   1 <1>   0.5690 
  3 N       -0.4770     3.1870     0.9510 N.am  1 <1>  -0.7300 
  4 C        0.0630     2.4450    -1.3570 C.3   1 <1>   0.1810 
  5 C       -0.6640     4.5850     0.4920 C.3   1 <1>   0.3640 
  6 O        0.3790     3.7960    -1.6040 O.3   1 <1>  -0.5600 
  7 C       -2.0110     5.0990     0.9910 C.ar  1 <1>  -0.1440 
  8 C       -0.5430     4.7260    -1.0470 C.3   1 <1>   0.2610 
  9 C       -3.1490     4.3010     0.9610 C.ar  1 <1>  -0.1500 
 10 C       -2.1130     6.3940     1.4790 C.ar  1 <1>  -0.1500 
 11 C       -0.1810     6.1770    -1.3940 C.2   1 <1>   0.5690 
 12 C       -4.3610     4.7870     1.4170 C.ar  1 <1>  -0.1500 
 13 C       -3.3260     6.8810     1.9340 C.ar  1 <1>  -0.1500 
 14 O       -1.0740     6.8660    -1.8330 O.2   1 <1>  -0.5700 
 15 N        1.0790     6.7060    -1.1950 N.am  1 <1>  -0.6600 
 16 C       -4.4510     6.0770     1.9060 C.ar  1 <1>  -0.1500 
 17 C        2.2930     5.9450    -0.7630 C.3   1 <1>   0.1400 
 18 C        1.3990     8.1050    -1.6120 C.3   1 <1>   0.1400 
 19 C        3.0960     6.7290     0.2910 C.3   1 <1>   0.1100 
 20 C        2.2170     8.8330    -0.5320 C.3   1 <1>   0.1100 
 21 N        3.4510     8.0890    -0.1750 N.3   1 <1>  -0.8100 
 22 C        4.2760     8.7950     0.8140 C.3   1 <1>   0.1100 
 23 C        5.0770     9.9150     0.1270 C.3   1 <1>   0.3430 
 24 N        6.1150    10.5260     1.0250 N.4   1 <1>  -0.9590 
 25 C        5.5100    11.2720     2.1740 C.3   1 <1>   0.2630 
 26 C        7.0080    11.4280     0.2330 C.3   1 <1>   0.2630 
 27 H       -0.6930     2.9840     1.9290 H     1 <1>   0.3700 
 28 H       -0.8230     2.1940    -1.9120 H     1 <1>   0.0800 
 29 H        0.8800     1.8450    -1.7160 H     1 <1>   0.0800 
 30 H        0.1090     5.1770     0.9490 H     1 <1>   0.0800 
 31 H       -1.5010     4.5190    -1.4900 H     1 <1>   0.0800 
 32 H       -3.1030     3.2940     0.5830 H     1 <1>   0.1500 
 33 H       -1.2520     7.0400     1.5020 H     1 <1>   0.1500 
 34 H       -5.2370     4.1610     1.3920 H     1 <1>   0.1500 
 35 H       -3.3960     7.8880     2.3090 H     1 <1>   0.1500 
 36 H       -5.3940     6.4560     2.2590 H     1 <1>   0.1500 
 37 H        2.0300     4.9920    -0.3460 H     1 <1>   0.0800 
 38 H        2.9160     5.7660    -1.6220 H     1 <1>   0.0800 
 39 H        1.9630     8.0760    -2.5280 H     1 <1>   0.0800 
 40 H        0.4960     8.6600    -1.8010 H     1 <1>   0.0800 
 41 H        3.9950     6.1770     0.5060 H     1 <1>   0.0800 
 42 H        2.5170     6.7900     1.1970 H     1 <1>   0.0800 
 43 H        1.5970     8.9610     0.3400 H     1 <1>   0.0800 
 44 H        2.4710     9.8090    -0.9070 H     1 <1>   0.0800 
 45 H        3.6510     9.1890     1.5970 H     1 <1>   0.0800 
 46 H        4.9750     8.0980     1.2430 H     1 <1>   0.0800 
 47 H        4.3970    10.6760    -0.2170 H     1 <1>   0.0800 
 48 H        5.5620     9.4850    -0.7340 H     1 <1>   0.0800 
 49 H        6.6970     9.7600     1.3980 H     1 <1>   0.4500 
 50 H        4.8840    12.0730     1.8140 H     1 <1>   0.0800 
 51 H        6.2850    11.6930     2.7950 H     1 <1>   0.0800 
 52 H        4.9110    10.6110     2.7800 H     1 <1>   0.0800 
 53 H        6.4420    12.2440    -0.1860 H     1 <1>   0.0800 
 54 H        7.4730    10.8820    -0.5720 H     1 <1>   0.0800 
 55 H        7.7840    11.8340     0.8630 H     1 <1>   0.0800 
@<TRIPOS>BOND
  1   1   2  2   
  2   2   3  am  
  3   2   4  1   
  4   3   5  1   
  5   3  27  1   
  6   4   6  1   
  7   4  28  1   
  8   4  29  1   
  9   5   7  1   
 10   5   8  1   
 11   5  30  1   
 12   6   8  1   
 13   7   9  ar  
 14   7  10  ar  
 15   8  11  1   
 16   8  31  1   
 17   9  12  ar  
 18   9  32  1   
 19  10  13  ar  
 20  10  33  1   
 21  11  14  2   
 22  11  15  am  
 23  12  16  ar  
 24  12  34  1   
 25  13  16  ar  
 26  13  35  1   
 27  15  17  1   
 28  15  18  1   
 29  16  36  1   
 30  17  19  1   
 31  17  37  1   
 32  17  38  1   
 33  18  20  1   
 34  18  39  1   
 35  18  40  1   
 36  19  21  1   
 37  19  41  1   
 38  19  42  1   
 39  20  21  1   
 40  20  43  1   
 41  20  44  1   
 42  21  22  1   
 43  22  23  1   
 44  22  45  1   
 45  22  46  1   
 46  23  24  1   
 47  23  47  1   
 48  23  48  1   
 49  24  25  1   
 50  24  26  1   
 51  24  49  1   
 52  25  50  1   
 53  25  51  1   
 54  25  52  1   
 55  26  53  1   
 56  26  54  1   
 57  26  55  1   
@<TRIPOS>SUBSTRUCTURE
  1 ****  15 GROUP 4 **** **** 0

# MOE 2024.06 (io_trps.svl 2023.06)
