@<TRIPOS>MOLECULE
NONAME
43 44 1 0 0 
SMALL
USER_CHARGES


@<TRIPOS>ATOM
  1 S        0.6830     0.9760    -1.5760 S.o2  1 <1>   1.3330 
  2 O        1.3370    -0.2760    -1.8790 O.2   1 <1>  -0.6500 
  3 O        0.5910     2.0100    -2.5800 O.2   1 <1>  -0.6500 
  4 N        1.4380     1.6300    -0.2030 N.am  1 <1>  -0.8490 
  5 C       -0.9710     0.6470    -1.0040 C.3   1 <1>  -0.1350 
  6 C        2.6020     2.4620    -0.5730 C.3   1 <1>   0.1960 
  7 C        1.8230     0.5930     0.7690 C.3   1 <1>   0.1160 
  8 C        3.0050     3.4300     0.5500 C.3   1 <1>   0.2090 
  9 N        4.1090     4.3180     0.0980 N.pl3 1 <1>  -0.8690 
 10 C        4.8850     4.9860     1.0070 C.ar  1 <1>   0.4100 
 11 N        4.9510     6.2800     0.7800 N.ar  1 <1>  -0.6200 
 12 C        5.5490     4.3580     2.0720 C.ar  1 <1>   0.1600 
 13 C        5.6980     6.9500     1.6760 C.ar  1 <1>   0.3960 
 14 N        6.2810     4.9810     2.9720 N.ar  1 <1>  -0.6200 
 15 C        5.8790     8.4010     1.5850 C.2   1 <1>   0.5440 
 16 C        6.3250     6.2860     2.7380 C.ar  1 <1>   0.1600 
 17 O        6.0480     9.0400     2.6120 O.2   1 <1>  -0.5700 
 18 N        5.9000     9.1100     0.3970 N.am  1 <1>  -0.6600 
 19 C        5.8390     8.5350    -0.9650 C.3   1 <1>   0.1400 
 20 C        6.0640    10.5790     0.3440 C.3   1 <1>   0.1400 
 21 C        6.2590     9.6740    -1.8860 C.3   1 <1>  -0.1600 
 22 C        5.8810    10.9420    -1.1260 C.3   1 <1>  -0.1600 
 23 H       -1.5640     0.2600    -1.8100 H     1 <1>   0.0800 
 24 H       -1.4230     1.5520    -0.6500 H     1 <1>   0.0800 
 25 H       -0.9610    -0.0730    -0.2110 H     1 <1>   0.0800 
 26 H        2.3580     3.0690    -1.4280 H     1 <1>   0.0800 
 27 H        3.4350     1.8340    -0.8400 H     1 <1>   0.0800 
 28 H        0.9750    -0.0220     1.0140 H     1 <1>   0.0800 
 29 H        2.1810     1.0380     1.6800 H     1 <1>   0.0800 
 30 H        2.5950    -0.0400     0.3600 H     1 <1>   0.0800 
 31 H        3.3190     2.8760     1.4150 H     1 <1>   0.0800 
 32 H        2.1550     4.0360     0.8150 H     1 <1>   0.0800 
 33 H        3.8000     4.9710    -0.6300 H     1 <1>   0.4000 
 34 H        5.4580     3.2920     2.1590 H     1 <1>   0.1500 
 35 H        6.9000     6.8770     3.4310 H     1 <1>   0.1500 
 36 H        4.8250     8.2380    -1.1750 H     1 <1>   0.0800 
 37 H        6.4940     7.6860    -1.0610 H     1 <1>   0.0800 
 38 H        7.0560    10.8320     0.6780 H     1 <1>   0.0800 
 39 H        5.3370    11.0680     0.9700 H     1 <1>   0.0800 
 40 H        5.7780     9.6110    -2.8460 H     1 <1>   0.0800 
 41 H        7.3260     9.6360    -2.0250 H     1 <1>   0.0800 
 42 H        6.4850    11.7860    -1.4070 H     1 <1>   0.0800 
 43 H        4.8460    11.1780    -1.2990 H     1 <1>   0.0800 
@<TRIPOS>BOND
  1   1   2  2   
  2   1   3  2   
  3   1   4  am  
  4   1   5  1   
  5   4   6  1   
  6   4   7  1   
  7   5  23  1   
  8   5  24  1   
  9   5  25  1   
 10   6   8  1   
 11   6  26  1   
 12   6  27  1   
 13   7  28  1   
 14   7  29  1   
 15   7  30  1   
 16   8   9  1   
 17   8  31  1   
 18   8  32  1   
 19   9  10  1   
 20   9  33  1   
 21  10  11  ar  
 22  10  12  ar  
 23  11  13  ar  
 24  12  14  ar  
 25  12  34  1   
 26  13  15  1   
 27  13  16  ar  
 28  14  16  ar  
 29  15  17  2   
 30  15  18  am  
 31  16  35  1   
 32  18  19  1   
 33  18  20  1   
 34  19  21  1   
 35  19  36  1   
 36  19  37  1   
 37  20  22  1   
 38  20  38  1   
 39  20  39  1   
 40  21  22  1   
 41  21  40  1   
 42  21  41  1   
 43  22  42  1   
 44  22  43  1   
@<TRIPOS>SUBSTRUCTURE
  1 ****   9 GROUP 4 **** **** 0

# MOE 2024.06 (io_trps.svl 2023.06)
