@<TRIPOS>MOLECULE
NONAME
44 45 1 0 0 
SMALL
USER_CHARGES


@<TRIPOS>ATOM
  1 S        0.3180    -0.0810     0.5700 S.o2  1 <1>   1.3330 
  2 O        0.8030    -0.8430     1.6990 O.2   1 <1>  -0.6500 
  3 O       -0.5880     1.0230     0.7930 O.2   1 <1>  -0.6500 
  4 N       -0.4300    -1.1680    -0.4990 N.am  1 <1>  -0.8490 
  5 C        1.6950     0.5340    -0.4000 C.3   1 <1>  -0.0550 
  6 C        0.1960    -2.4950    -0.5080 C.3   1 <1>   0.1160 
  7 C       -1.8670    -1.2980    -0.2430 C.3   1 <1>   0.1160 
  8 C        2.5420     1.5980     0.3280 C.3   1 <1>  -0.0800 
  9 C        3.5250     2.2530    -0.6270 C.3   1 <1>   0.2200 
 10 C        3.4930     0.9670     1.3440 C.3   1 <1>   0.1200 
 11 N        3.9060     3.5800    -0.0970 N.am  1 <1>  -0.7300 
 12 C        4.7260     1.3070    -0.5710 C.3   1 <1>   0.1200 
 13 O        4.6130     0.5720     0.6150 O.3   1 <1>  -0.5600 
 14 C        3.9450     4.7350    -0.8090 C.2   1 <1>   0.5690 
 15 O        3.6190     4.7780    -1.9700 O.2   1 <1>  -0.5700 
 16 C        4.4180     6.0120    -0.1210 C.3   1 <1>   0.2010 
 17 N        5.8530     5.9400     0.3060 N.am  1 <1>  -0.4690 
 18 C        6.1930     5.2380     1.4530 C.2   1 <1>   0.6900 
 19 C        6.8390     6.5430    -0.4690 C.2   1 <1>  -0.0410 
 20 O        5.3620     4.6570     2.1210 O.2   1 <1>  -0.5700 
 21 N        7.5000     5.1870     1.8220 N.am  1 <1>  -0.4900 
 22 C        8.1330     6.4670    -0.0850 C.2   1 <1>  -0.1360 
 23 C        8.4950     5.7730     1.1040 C.2   1 <1>   0.6160 
 24 O        9.6370     5.6790     1.5010 O.2   1 <1>  -0.5700 
 25 H        2.3220    -0.2850    -0.6920 H     1 <1>   0.0800 
 26 H        1.2930     0.9710    -1.2940 H     1 <1>   0.0800 
 27 H       -0.2550    -3.1110    -1.2670 H     1 <1>   0.0800 
 28 H        0.0760    -2.9750     0.4500 H     1 <1>   0.0800 
 29 H        1.2480    -2.4100    -0.7210 H     1 <1>   0.0800 
 30 H       -2.3120    -1.9810    -0.9450 H     1 <1>   0.0800 
 31 H       -2.3500    -0.3410    -0.3560 H     1 <1>   0.0800 
 32 H       -2.0390    -1.6550     0.7590 H     1 <1>   0.0800 
 33 H        1.8900     2.3240     0.7840 H     1 <1>   0.0800 
 34 H        3.1410     2.3530    -1.6290 H     1 <1>   0.0800 
 35 H        3.0860     0.1120     1.8550 H     1 <1>   0.0800 
 36 H        3.8150     1.6940     2.0700 H     1 <1>   0.0800 
 37 H        4.2780     3.5880     0.8650 H     1 <1>   0.3700 
 38 H        5.6630     1.8350    -0.5760 H     1 <1>   0.0800 
 39 H        4.6970     0.6080    -1.3870 H     1 <1>   0.0800 
 40 H        3.7990     6.1890     0.7400 H     1 <1>   0.0800 
 41 H        4.2850     6.8370    -0.7970 H     1 <1>   0.0800 
 42 H        6.5300     7.0560    -1.3660 H     1 <1>   0.1500 
 43 H        7.7480     4.6750     2.6610 H     1 <1>   0.3700 
 44 H        8.9360     6.9120    -0.6410 H     1 <1>   0.1500 
@<TRIPOS>BOND
  1   1   2  2   
  2   1   3  2   
  3   1   4  am  
  4   1   5  1   
  5   4   6  1   
  6   4   7  1   
  7   5   8  1   
  8   5  25  1   
  9   5  26  1   
 10   6  27  1   
 11   6  28  1   
 12   6  29  1   
 13   7  30  1   
 14   7  31  1   
 15   7  32  1   
 16   8   9  1   
 17   8  10  1   
 18   8  33  1   
 19   9  11  1   
 20   9  12  1   
 21   9  34  1   
 22  10  13  1   
 23  10  35  1   
 24  10  36  1   
 25  11  14  am  
 26  11  37  1   
 27  12  13  1   
 28  12  38  1   
 29  12  39  1   
 30  14  15  2   
 31  14  16  1   
 32  16  17  1   
 33  16  40  1   
 34  16  41  1   
 35  17  18  am  
 36  17  19  1   
 37  18  20  2   
 38  18  21  am  
 39  19  22  2   
 40  19  42  1   
 41  21  23  am  
 42  21  43  1   
 43  22  23  1   
 44  22  44  1   
 45  23  24  2   
@<TRIPOS>SUBSTRUCTURE
  1 ****  11 GROUP 4 **** **** 0

# MOE 2024.06 (io_trps.svl 2023.06)
