@<TRIPOS>MOLECULE
NONAME
51 53 1 0 0 
SMALL
USER_CHARGES


@<TRIPOS>ATOM
  1 F        1.6190    -1.9860    -2.5710 F     1 <1>  -0.1900 
  2 C        1.6820    -1.5810    -1.3310 C.ar  1 <1>   0.1900 
  3 C        0.8090    -2.1290    -0.4100 C.ar  1 <1>  -0.1440 
  4 C        2.6100    -0.6120    -0.9960 C.ar  1 <1>  -0.1500 
  5 C        0.9030    -1.6560     0.8860 C.ar  1 <1>   0.1900 
  6 C       -0.1950    -3.1920    -0.7960 C.3   1 <1>   0.4860 
  7 C        2.6780    -0.1600     0.3140 C.ar  1 <1>   0.0830 
  8 F        0.0900    -2.1410     1.7860 F     1 <1>  -0.1900 
  9 C        1.8130    -0.6880     1.2710 C.ar  1 <1>  -0.1500 
 10 N       -1.5390    -2.5750    -0.9320 N.4   1 <1>  -0.9590 
 11 O        3.6040     0.7900     0.5810 O.3   1 <1>  -0.3620 
 12 C       -2.6390    -3.5620    -1.0280 C.3   1 <1>   0.3430 
 13 C       -1.6180    -1.5330    -1.9970 C.3   1 <1>   0.3430 
 14 C        3.7900     1.2970     1.8850 C.3   1 <1>   0.0400 
 15 C       -3.9880    -2.8640    -0.8020 C.3   1 <1>  -0.1600 
 16 C       -3.0460    -0.9810    -2.1280 C.3   1 <1>  -0.1600 
 17 C       -3.9410    -1.3250    -0.9220 C.3   1 <1>   0.2800 
 18 O       -3.2990    -0.8690     0.2430 O.3   1 <1>  -0.5600 
 19 C       -5.3600    -0.7120    -1.0520 C.3   1 <1>  -0.1600 
 20 C       -3.4720     0.4830     0.5950 C.3   1 <1>   0.1200 
 21 C       -5.9290    -0.2150     0.2860 C.3   1 <1>   0.2800 
 22 C       -4.9430     0.8100     0.9160 C.3   1 <1>   0.2000 
 23 O       -7.1050     0.4480     0.0030 O.3   1 <1>  -0.6800 
 24 C       -6.3260    -1.3720     1.2160 C.3   1 <1>  -0.2400 
 25 O       -5.1090     0.9050     2.2960 O.3   1 <1>  -0.6800 
 26 H        3.2760    -0.2090    -1.7380 H     1 <1>   0.1500 
 27 H       -0.2150    -3.9490    -0.0290 H     1 <1>   0.0800 
 28 H        0.0970    -3.6560    -1.7250 H     1 <1>   0.0800 
 29 H        1.8300    -0.3670     2.2960 H     1 <1>   0.1500 
 30 H       -1.7400    -2.0540    -0.0530 H     1 <1>   0.4500 
 31 H       -2.6270    -4.0200    -2.0040 H     1 <1>   0.0800 
 32 H       -2.5130    -4.3360    -0.2870 H     1 <1>   0.0800 
 33 H       -0.9560    -0.7210    -1.7420 H     1 <1>   0.0800 
 34 H       -1.2980    -1.9380    -2.9440 H     1 <1>   0.0800 
 35 H        4.5820     2.0220     1.8510 H     1 <1>   0.0800 
 36 H        4.0640     0.4890     2.5400 H     1 <1>   0.0800 
 37 H        2.8800     1.7680     2.2120 H     1 <1>   0.0800 
 38 H       -4.3630    -3.1430     0.1650 H     1 <1>   0.0800 
 39 H       -4.6760    -3.2650    -1.5240 H     1 <1>   0.0800 
 40 H       -3.4890    -1.3940    -3.0170 H     1 <1>   0.0800 
 41 H       -3.0000     0.0820    -2.2800 H     1 <1>   0.0800 
 42 H       -5.3080     0.1330    -1.7160 H     1 <1>   0.0800 
 43 H       -6.0330    -1.4160    -1.5060 H     1 <1>   0.0800 
 44 H       -2.8520     0.6910     1.4490 H     1 <1>   0.0800 
 45 H       -3.1360     1.0910    -0.2260 H     1 <1>   0.0800 
 46 H       -5.1500     1.7890     0.5180 H     1 <1>   0.0800 
 47 H       -7.8030    -0.1940    -0.2270 H     1 <1>   0.4000 
 48 H       -6.8720    -2.1300     0.6850 H     1 <1>   0.0800 
 49 H       -6.9290    -1.0140     2.0320 H     1 <1>   0.0800 
 50 H       -5.4470    -1.8180     1.6450 H     1 <1>   0.0800 
 51 H       -6.0480     1.1050     2.4860 H     1 <1>   0.4000 
@<TRIPOS>BOND
  1   1   2  1   
  2   2   3  ar  
  3   2   4  ar  
  4   3   5  ar  
  5   3   6  1   
  6   4   7  ar  
  7   4  26  1   
  8   5   8  1   
  9   5   9  ar  
 10   6  10  1   
 11   6  27  1   
 12   6  28  1   
 13   7   9  ar  
 14   7  11  1   
 15   9  29  1   
 16  10  12  1   
 17  10  13  1   
 18  10  30  1   
 19  11  14  1   
 20  12  15  1   
 21  12  31  1   
 22  12  32  1   
 23  13  16  1   
 24  13  33  1   
 25  13  34  1   
 26  14  35  1   
 27  14  36  1   
 28  14  37  1   
 29  15  17  1   
 30  15  38  1   
 31  15  39  1   
 32  16  17  1   
 33  16  40  1   
 34  16  41  1   
 35  17  18  1   
 36  17  19  1   
 37  18  20  1   
 38  19  21  1   
 39  19  42  1   
 40  19  43  1   
 41  20  22  1   
 42  20  44  1   
 43  20  45  1   
 44  21  22  1   
 45  21  23  1   
 46  21  24  1   
 47  22  25  1   
 48  22  46  1   
 49  23  47  1   
 50  24  48  1   
 51  24  49  1   
 52  24  50  1   
 53  25  51  1   
@<TRIPOS>SUBSTRUCTURE
  1 ****  10 GROUP 4 **** **** 0

# MOE 2024.06 (io_trps.svl 2023.06)
