@<TRIPOS>MOLECULE
NONAME
54 58 1 0 0 
SMALL
USER_CHARGES


@<TRIPOS>ATOM
  1 O       -0.3490    -0.5160    -0.4530 O.2   1 <1>  -0.5700 
  2 C       -0.2740    -1.4860     0.2690 C.2   1 <1>   0.5690 
  3 N        0.5670    -1.5400     1.3400 N.am  1 <1>  -0.5790 
  4 C       -1.1870    -2.6790    -0.0720 C.3   1 <1>   0.4040 
  5 C        1.4760    -0.4560     1.7460 C.3   1 <1>   0.0490 
  6 N       -2.2810    -2.3110    -1.0480 N.4   1 <1>  -0.9590 
  7 C        2.7980    -0.8320     2.3260 C.3   1 <1>  -0.2000 
  8 C        1.7250    -0.2620     3.2050 C.3   1 <1>  -0.2000 
  9 C       -3.3290    -1.4490    -0.3990 C.3   1 <1>   0.3430 
 10 C       -2.8790    -3.4820    -1.7470 C.3   1 <1>   0.3430 
 11 C       -4.3280    -0.9000    -1.4310 C.3   1 <1>   0.1430 
 12 C       -3.8460    -2.9910    -2.8280 C.3   1 <1>  -0.1600 
 13 C       -5.4250    -0.1610    -0.7010 C.ar  1 <1>   0.1670 
 14 C       -4.9300    -2.0550    -2.2610 C.3   1 <1>  -0.1600 
 15 C       -3.7120     0.2090    -2.3270 C.3   1 <1>  -0.1600 
 16 N       -6.0720    -0.6260     0.3380 N.ar  1 <1>  -0.6200 
 17 C       -5.6650     1.0590    -1.2500 C.ar  1 <1>  -0.1440 
 18 C       -4.7610     1.3330    -2.4260 C.3   1 <1>  -0.0170 
 19 C       -7.0270     0.1790     0.8310 C.ar  1 <1>   0.6200 
 20 C       -6.6480     1.8270    -0.6820 C.ar  1 <1>   0.1600 
 21 N       -7.3310     1.3940     0.3530 N.ar  1 <1>  -0.6200 
 22 C       -7.7930    -0.3040     1.9710 C.ar  1 <1>   0.0000 
 23 C       -9.1330     0.0490     2.1510 C.ar  1 <1>  -0.1500 
 24 C       -7.2270    -1.1430     2.9360 C.ar  1 <1>  -0.1500 
 25 C       -9.8690    -0.4070     3.2290 C.ar  1 <1>  -0.1500 
 26 C       -7.9570    -1.6050     4.0170 C.ar  1 <1>  -0.1500 
 27 C       -9.2810    -1.2370     4.1660 C.ar  1 <1>  -0.1500 
 28 H        0.6400    -2.3660     1.9380 H     1 <1>   0.3700 
 29 H       -1.6200    -3.0630     0.8350 H     1 <1>   0.0800 
 30 H       -0.5680    -3.4460    -0.5030 H     1 <1>   0.0800 
 31 H        1.4230     0.4160     1.1110 H     1 <1>   0.1000 
 32 H       -1.8170    -1.7040    -1.7450 H     1 <1>   0.4500 
 33 H        3.6530    -0.2150     2.1090 H     1 <1>   0.1000 
 34 H        3.0580    -1.8710     2.4300 H     1 <1>   0.1000 
 35 H        1.2420    -0.9060     3.9180 H     1 <1>   0.1000 
 36 H        1.8600     0.7390     3.5780 H     1 <1>   0.1000 
 37 H       -2.8670    -0.6180     0.1100 H     1 <1>   0.0800 
 38 H       -3.8740    -2.0250     0.3310 H     1 <1>   0.0800 
 39 H       -3.4130    -4.0970    -1.0400 H     1 <1>   0.0800 
 40 H       -2.1050    -4.0800    -2.2030 H     1 <1>   0.0800 
 41 H       -4.3230    -3.8440    -3.2810 H     1 <1>   0.0800 
 42 H       -3.2900    -2.4940    -3.6040 H     1 <1>   0.0800 
 43 H       -5.5340    -1.6600    -3.0600 H     1 <1>   0.0800 
 44 H       -5.5840    -2.6310    -1.6270 H     1 <1>   0.0800 
 45 H       -3.4330    -0.1440    -3.3040 H     1 <1>   0.0800 
 46 H       -2.8350     0.6160    -1.8510 H     1 <1>   0.0800 
 47 H       -5.3240     1.2540    -3.3410 H     1 <1>   0.0800 
 48 H       -4.3070     2.3080    -2.3620 H     1 <1>   0.0800 
 49 H       -6.8790     2.8030    -1.0760 H     1 <1>   0.1500 
 50 H       -9.6070     0.6950     1.4320 H     1 <1>   0.1500 
 51 H       -6.1980    -1.4370     2.8390 H     1 <1>   0.1500 
 52 H      -10.8990    -0.1160     3.3400 H     1 <1>   0.1500 
 53 H       -7.4960    -2.2500     4.7450 H     1 <1>   0.1500 
 54 H       -9.8520    -1.5950     5.0060 H     1 <1>   0.1500 
@<TRIPOS>BOND
  1   1   2  2   
  2   2   3  am  
  3   2   4  1   
  4   3   5  1   
  5   3  28  1   
  6   4   6  1   
  7   4  29  1   
  8   4  30  1   
  9   5   7  1   
 10   5   8  1   
 11   5  31  1   
 12   6   9  1   
 13   6  10  1   
 14   6  32  1   
 15   7   8  1   
 16   7  33  1   
 17   7  34  1   
 18   8  35  1   
 19   8  36  1   
 20   9  11  1   
 21   9  37  1   
 22   9  38  1   
 23  10  12  1   
 24  10  39  1   
 25  10  40  1   
 26  11  13  1   
 27  11  14  1   
 28  11  15  1   
 29  12  14  1   
 30  12  41  1   
 31  12  42  1   
 32  13  16  ar  
 33  13  17  ar  
 34  14  43  1   
 35  14  44  1   
 36  15  18  1   
 37  15  45  1   
 38  15  46  1   
 39  16  19  ar  
 40  17  18  1   
 41  17  20  ar  
 42  18  47  1   
 43  18  48  1   
 44  19  21  ar  
 45  19  22  1   
 46  20  21  ar  
 47  20  49  1   
 48  22  23  ar  
 49  22  24  ar  
 50  23  25  ar  
 51  23  50  1   
 52  24  26  ar  
 53  24  51  1   
 54  25  27  ar  
 55  25  52  1   
 56  26  27  ar  
 57  26  53  1   
 58  27  54  1   
@<TRIPOS>SUBSTRUCTURE
  1 ****   9 GROUP 4 **** **** 0

# MOE 2024.06 (io_trps.svl 2023.06)
