@<TRIPOS>MOLECULE
NONAME
47 49 1 0 0 
SMALL
USER_CHARGES


@<TRIPOS>ATOM
  1 O       -0.1090     0.8770     1.0210 O.2   1 <1>  -0.5700 
  2 C       -0.0470     2.0700     0.8660 C.2   1 <1>   0.5690 
  3 N       -1.0420     2.8740     1.2990 N.am  1 <1>  -0.7300 
  4 C        1.1500     2.6870     0.1360 C.3   1 <1>   0.1810 
  5 C       -1.0330     4.3480     1.1440 C.3   1 <1>   0.3640 
  6 O        1.2700     4.0800     0.3370 O.3   1 <1>  -0.5600 
  7 C       -2.4110     4.7980     0.6610 C.ar  1 <1>  -0.1440 
  8 C        0.0680     4.8160     0.1580 C.3   1 <1>   0.2610 
  9 C       -3.0120     5.9080     1.2380 C.ar  1 <1>  -0.1500 
 10 C       -3.0770     4.1250    -0.3570 C.ar  1 <1>  -0.1500 
 11 C        0.3220     6.3300     0.2760 C.2   1 <1>   0.5690 
 12 C       -4.2550     6.3390     0.8070 C.ar  1 <1>  -0.1500 
 13 C       -4.3200     4.5560    -0.7880 C.ar  1 <1>  -0.1500 
 14 O        0.0420     6.8890     1.3160 O.2   1 <1>  -0.5700 
 15 N        0.8360     7.0450    -0.7850 N.am  1 <1>  -0.6600 
 16 C       -4.9100     5.6630    -0.2060 C.ar  1 <1>  -0.1500 
 17 C        0.9130     8.5280    -0.7250 C.3   1 <1>   0.1400 
 18 C        1.3710     6.4280    -2.0320 C.3   1 <1>   0.0600 
 19 C        2.2630     8.9540    -0.1450 C.3   1 <1>  -0.1600 
 20 C        2.3430    10.4820    -0.0310 C.3   1 <1>   0.0960 
 21 N        3.6430    10.9090     0.5210 N.pl3 1 <1>   0.3140 
 22 N        3.7540    11.4300     1.7550 N.2   1 <1>  -0.7070 
 23 C        4.8410    10.8620    -0.0980 C.2   1 <1>  -0.3020 
 24 C        5.0170    11.6950     1.8940 C.2   1 <1>   0.1390 
 25 C        5.7510    11.3620     0.7640 C.2   1 <1>  -0.1500 
 26 H       -1.8400     2.4610     1.7830 H     1 <1>   0.3700 
 27 H        1.0550     2.5040    -0.9190 H     1 <1>   0.0800 
 28 H        2.0550     2.2270     0.4870 H     1 <1>   0.0800 
 29 H       -0.8410     4.7740     2.1150 H     1 <1>   0.0800 
 30 H       -0.2780     4.6230    -0.8400 H     1 <1>   0.0800 
 31 H       -2.5130     6.4500     2.0240 H     1 <1>   0.1500 
 32 H       -2.6360     3.2600    -0.8200 H     1 <1>   0.1500 
 33 H       -4.7110     7.2010     1.2610 H     1 <1>   0.1500 
 34 H       -4.8290     4.0280    -1.5760 H     1 <1>   0.1500 
 35 H       -5.8760     5.9980    -0.5410 H     1 <1>   0.1500 
 36 H        0.7800     8.9370    -1.7120 H     1 <1>   0.0800 
 37 H        0.1180     8.9040    -0.1020 H     1 <1>   0.0800 
 38 H        2.2140     6.9920    -2.3910 H     1 <1>   0.0800 
 39 H        0.6070     6.4210    -2.7890 H     1 <1>   0.0800 
 40 H        1.7020     5.4210    -1.8500 H     1 <1>   0.0800 
 41 H        3.0560     8.5960    -0.7760 H     1 <1>   0.0800 
 42 H        2.3720     8.5270     0.8380 H     1 <1>   0.0800 
 43 H        1.5690    10.8420     0.6240 H     1 <1>   0.0800 
 44 H        2.2200    10.9400    -0.9940 H     1 <1>   0.0800 
 45 H        4.9760    10.4850    -1.0940 H     1 <1>   0.1500 
 46 H        5.4350    12.1250     2.7890 H     1 <1>   0.1500 
 47 H        6.8120    11.4870     0.6360 H     1 <1>   0.1500 
@<TRIPOS>BOND
  1   1   2  2   
  2   2   3  am  
  3   2   4  1   
  4   3   5  1   
  5   3  26  1   
  6   4   6  1   
  7   4  27  1   
  8   4  28  1   
  9   5   7  1   
 10   5   8  1   
 11   5  29  1   
 12   6   8  1   
 13   7   9  ar  
 14   7  10  ar  
 15   8  11  1   
 16   8  30  1   
 17   9  12  ar  
 18   9  31  1   
 19  10  13  ar  
 20  10  32  1   
 21  11  14  2   
 22  11  15  am  
 23  12  16  ar  
 24  12  33  1   
 25  13  16  ar  
 26  13  34  1   
 27  15  17  1   
 28  15  18  1   
 29  16  35  1   
 30  17  19  1   
 31  17  36  1   
 32  17  37  1   
 33  18  38  1   
 34  18  39  1   
 35  18  40  1   
 36  19  20  1   
 37  19  41  1   
 38  19  42  1   
 39  20  21  1   
 40  20  43  1   
 41  20  44  1   
 42  21  22  1   
 43  21  23  1   
 44  22  24  2   
 45  23  25  2   
 46  23  45  1   
 47  24  25  1   
 48  24  46  1   
 49  25  47  1   
@<TRIPOS>SUBSTRUCTURE
  1 ****  11 GROUP 4 **** **** 0

# MOE 2024.06 (io_trps.svl 2023.06)
