@<TRIPOS>MOLECULE
NONAME
54 57 1 0 0 
SMALL
USER_CHARGES


@<TRIPOS>ATOM
  1 CL      -1.1510     0.9940    -1.7280 Cl    1 <1>  -0.1770 
  2 C       -2.4540     0.5480    -0.6520 C.ar  1 <1>   0.1770 
  3 C       -3.3280    -0.4460    -1.0200 C.ar  1 <1>  -0.1500 
  4 C       -2.5710     1.2240     0.5660 C.ar  1 <1>  -0.1500 
  5 C       -4.3640    -0.7860    -0.1440 C.ar  1 <1>   0.0000 
  6 C       -3.5870     0.8960     1.4350 C.ar  1 <1>  -0.1500 
  7 C       -4.4840    -0.1140     1.0690 C.ar  1 <1>  -0.1520 
  8 C       -5.4150    -1.7280    -0.1880 C.2   1 <1>  -0.1810 
  9 N       -5.5620    -0.6250     1.7400 N.pl3 1 <1>   0.0330 
 10 C       -6.1320    -1.5980     0.9580 C.2   1 <1>  -0.3320 
 11 C       -5.6020    -2.6790    -1.3580 C.3   1 <1>  -0.0590 
 12 C       -7.3660    -2.3510     1.3900 C.3   1 <1>   0.5230 
 13 N       -8.4280    -1.9450     0.4480 N.4   1 <1>  -0.9590 
 14 C       -8.8230    -0.5190     0.6280 C.3   1 <1>   0.3430 
 15 C       -9.5880    -2.8740     0.4790 C.3   1 <1>   0.3430 
 16 C       -9.8160    -0.1140    -0.4580 C.3   1 <1>  -0.1600 
 17 C      -10.5700    -2.4940    -0.6240 C.3   1 <1>  -0.1600 
 18 C      -11.0460    -1.0410    -0.4940 C.3   1 <1>   0.2800 
 19 O      -11.7550    -0.7990    -1.6660 O.3   1 <1>  -0.5600 
 20 C      -11.9830    -0.8640     0.7290 C.3   1 <1>  -0.1600 
 21 C      -12.3390     0.4620    -1.8700 C.3   1 <1>   0.1200 
 22 C      -13.2890    -0.1250     0.4040 C.3   1 <1>   0.2800 
 23 C      -13.0130     0.9970    -0.5980 C.3   1 <1>  -0.1600 
 24 O      -13.7080     0.4730     1.5740 O.3   1 <1>  -0.6800 
 25 C      -14.4090    -1.0790    -0.0880 C.3   1 <1>   0.1200 
 26 O      -15.6610    -0.4600    -0.0570 O.3   1 <1>  -0.6800 
 27 H       -3.2200    -0.9540    -1.9590 H     1 <1>   0.1500 
 28 H       -1.8590     1.9930     0.8040 H     1 <1>   0.1500 
 29 H       -3.6900     1.4030     2.3780 H     1 <1>   0.1500 
 30 H       -5.8300    -0.3250     2.6850 H     1 <1>   0.2700 
 31 H       -4.6920    -3.2290    -1.5210 H     1 <1>   0.0800 
 32 H       -5.8280    -2.1240    -2.2510 H     1 <1>   0.0800 
 33 H       -6.3900    -3.3840    -1.1710 H     1 <1>   0.0800 
 34 H       -7.6370    -2.1140     2.4060 H     1 <1>   0.0800 
 35 H       -7.1810    -3.4110     1.3110 H     1 <1>   0.0800 
 36 H       -7.9780    -2.0000    -0.4750 H     1 <1>   0.4500 
 37 H       -7.9510     0.1140     0.5620 H     1 <1>   0.0800 
 38 H       -9.2700    -0.3820     1.5990 H     1 <1>   0.0800 
 39 H      -10.0800    -2.8170     1.4370 H     1 <1>   0.0800 
 40 H       -9.2560    -3.8880     0.3250 H     1 <1>   0.0800 
 41 H       -9.3160    -0.1380    -1.4110 H     1 <1>   0.0800 
 42 H      -10.1170     0.9000    -0.2690 H     1 <1>   0.0800 
 43 H      -11.4180    -3.1550    -0.5870 H     1 <1>   0.0800 
 44 H      -10.0940    -2.6340    -1.5780 H     1 <1>   0.0800 
 45 H      -11.4600    -0.3170     1.4920 H     1 <1>   0.0800 
 46 H      -12.2310    -1.8170     1.1590 H     1 <1>   0.0800 
 47 H      -13.0740     0.3400    -2.6480 H     1 <1>   0.0800 
 48 H      -11.5850     1.1430    -2.2240 H     1 <1>   0.0800 
 49 H      -13.9270     1.4940    -0.8720 H     1 <1>   0.0800 
 50 H      -12.3670     1.7300    -0.1500 H     1 <1>   0.0800 
 51 H      -14.5370     0.9550     1.3790 H     1 <1>   0.4000 
 52 H      -14.4600    -1.9580     0.5290 H     1 <1>   0.0800 
 53 H      -14.2210    -1.3900    -1.1010 H     1 <1>   0.0800 
 54 H      -16.0520    -0.5380     0.8360 H     1 <1>   0.4000 
@<TRIPOS>BOND
  1   1   2  1   
  2   2   3  ar  
  3   2   4  ar  
  4   3   5  ar  
  5   3  27  1   
  6   4   6  ar  
  7   4  28  1   
  8   5   7  ar  
  9   5   8  1   
 10   6   7  ar  
 11   6  29  1   
 12   7   9  1   
 13   8  10  2   
 14   8  11  1   
 15   9  10  1   
 16   9  30  1   
 17  10  12  1   
 18  11  31  1   
 19  11  32  1   
 20  11  33  1   
 21  12  13  1   
 22  12  34  1   
 23  12  35  1   
 24  13  14  1   
 25  13  15  1   
 26  13  36  1   
 27  14  16  1   
 28  14  37  1   
 29  14  38  1   
 30  15  17  1   
 31  15  39  1   
 32  15  40  1   
 33  16  18  1   
 34  16  41  1   
 35  16  42  1   
 36  17  18  1   
 37  17  43  1   
 38  17  44  1   
 39  18  19  1   
 40  18  20  1   
 41  19  21  1   
 42  20  22  1   
 43  20  45  1   
 44  20  46  1   
 45  21  23  1   
 46  21  47  1   
 47  21  48  1   
 48  22  23  1   
 49  22  24  1   
 50  22  25  1   
 51  23  49  1   
 52  23  50  1   
 53  24  51  1   
 54  25  26  1   
 55  25  52  1   
 56  25  53  1   
 57  26  54  1   
@<TRIPOS>SUBSTRUCTURE
  1 ****  14 GROUP 4 **** **** 0

# MOE 2024.06 (io_trps.svl 2023.06)
