@<TRIPOS>MOLECULE
NONAME
54 56 1 0 0 
SMALL
USER_CHARGES


@<TRIPOS>ATOM
  1 F        1.4070    -0.1900     2.2830 F     1 <1>  -0.1900 
  2 C        2.0800    -0.9930     1.5010 C.ar  1 <1>   0.1900 
  3 C        1.8710    -2.3540     1.6080 C.ar  1 <1>  -0.1500 
  4 C        2.9710    -0.4500     0.5980 C.ar  1 <1>  -0.1500 
  5 C        2.5760    -3.2120     0.7760 C.ar  1 <1>  -0.1440 
  6 C        3.6820    -1.3060    -0.2250 C.ar  1 <1>  -0.1500 
  7 C        3.4920    -2.6870    -0.1380 C.ar  1 <1>   0.0830 
  8 C        2.3490    -4.7170     0.8820 C.3   1 <1>   0.2540 
  9 O        4.1790    -3.5660    -0.9160 O.3   1 <1>  -0.3630 
 10 N        1.3920    -5.2000    -0.1390 N.3   1 <1>  -0.8100 
 11 C        5.0330    -3.1400    -1.9530 C.3   1 <1>   0.0400 
 12 C        1.2970    -6.6820    -0.1590 C.3   1 <1>   0.3330 
 13 C        0.0530    -4.5980     0.0280 C.3   1 <1>   0.1100 
 14 C        2.6600    -7.3060    -0.4670 C.ar  1 <1>  -0.1430 
 15 C        0.2330    -7.1620    -1.1860 C.3   1 <1>   0.2000 
 16 C       -0.9490    -5.1550    -0.9960 C.3   1 <1>   0.1200 
 17 C        3.1410    -8.3500     0.3120 C.ar  1 <1>  -0.1500 
 18 C        3.4250    -6.8520    -1.5330 C.ar  1 <1>  -0.1500 
 19 O       -1.0010    -6.5490    -0.9160 O.3   1 <1>  -0.5600 
 20 C       -0.0040    -8.6820    -1.1680 C.3   1 <1>   0.1200 
 21 C        4.3580    -8.9430     0.0260 C.ar  1 <1>   0.0830 
 22 C        4.6520    -7.4260    -1.8150 C.ar  1 <1>  -0.1500 
 23 O        1.0350    -9.3670    -1.7940 O.3   1 <1>  -0.6800 
 24 O        4.7340    -9.9910     0.7990 O.3   1 <1>  -0.3630 
 25 C        5.1340    -8.4610    -1.0330 C.ar  1 <1>   0.0830 
 26 C        4.8060   -11.2440     0.1540 C.3   1 <1>   0.0400 
 27 O        6.3580    -8.9580    -1.3370 O.3   1 <1>  -0.3630 
 28 C        7.3700    -8.7510    -0.3770 C.3   1 <1>   0.0400 
 29 H        1.1670    -2.7260     2.3290 H     1 <1>   0.1500 
 30 H        3.1040     0.6150     0.5460 H     1 <1>   0.1500 
 31 H        4.3780    -0.8820    -0.9230 H     1 <1>   0.1500 
 32 H        1.9850    -4.9650     1.8640 H     1 <1>   0.0800 
 33 H        3.3000    -5.2060     0.7600 H     1 <1>   0.0800 
 34 H        5.4140    -4.0150    -2.4490 H     1 <1>   0.0800 
 35 H        5.8450    -2.5780    -1.5290 H     1 <1>   0.0800 
 36 H        4.4670    -2.5440    -2.6470 H     1 <1>   0.0800 
 37 H        0.9810    -7.0160     0.8140 H     1 <1>   0.0800 
 38 H       -0.3180    -4.7880     1.0200 H     1 <1>   0.0800 
 39 H        0.1170    -3.5330    -0.1120 H     1 <1>   0.0800 
 40 H        0.5270    -6.8730    -2.1800 H     1 <1>   0.0800 
 41 H       -0.6630    -4.8730    -1.9950 H     1 <1>   0.0800 
 42 H       -1.9350    -4.7750    -0.7970 H     1 <1>   0.0800 
 43 H        2.5720    -8.7230     1.1450 H     1 <1>   0.1500 
 44 H        3.0640    -6.0350    -2.1380 H     1 <1>   0.1500 
 45 H       -0.9070    -8.9170    -1.7060 H     1 <1>   0.0800 
 46 H       -0.0870    -9.0420    -0.1580 H     1 <1>   0.0800 
 47 H        5.2430    -7.0670    -2.6380 H     1 <1>   0.1500 
 48 H        1.9070    -9.0570    -1.4630 H     1 <1>   0.4000 
 49 H        5.0060   -11.9940     0.8980 H     1 <1>   0.0800 
 50 H        5.5990   -11.2280    -0.5710 H     1 <1>   0.0800 
 51 H        3.8640   -11.4430    -0.3270 H     1 <1>   0.0800 
 52 H        8.3010    -9.0960    -0.7880 H     1 <1>   0.0800 
 53 H        7.1350    -9.3040     0.5150 H     1 <1>   0.0800 
 54 H        7.4300    -7.6990    -0.1580 H     1 <1>   0.0800 
@<TRIPOS>BOND
  1   1   2  1   
  2   2   3  ar  
  3   2   4  ar  
  4   3   5  ar  
  5   3  29  1   
  6   4   6  ar  
  7   4  30  1   
  8   5   7  ar  
  9   5   8  1   
 10   6   7  ar  
 11   6  31  1   
 12   7   9  1   
 13   8  10  1   
 14   8  32  1   
 15   8  33  1   
 16   9  11  1   
 17  10  12  1   
 18  10  13  1   
 19  11  34  1   
 20  11  35  1   
 21  11  36  1   
 22  12  14  1   
 23  12  15  1   
 24  12  37  1   
 25  13  16  1   
 26  13  38  1   
 27  13  39  1   
 28  14  17  ar  
 29  14  18  ar  
 30  15  19  1   
 31  15  20  1   
 32  15  40  1   
 33  16  19  1   
 34  16  41  1   
 35  16  42  1   
 36  17  21  ar  
 37  17  43  1   
 38  18  22  ar  
 39  18  44  1   
 40  20  23  1   
 41  20  45  1   
 42  20  46  1   
 43  21  24  1   
 44  21  25  ar  
 45  22  25  ar  
 46  22  47  1   
 47  23  48  1   
 48  24  26  1   
 49  25  27  1   
 50  26  49  1   
 51  26  50  1   
 52  26  51  1   
 53  27  28  1   
 54  28  52  1   
 55  28  53  1   
 56  28  54  1   
@<TRIPOS>SUBSTRUCTURE
  1 ****  14 GROUP 4 **** **** 0

# MOE 2024.06 (io_trps.svl 2023.06)
