@<TRIPOS>MOLECULE
NONAME
52 55 1 0 0 
SMALL
USER_CHARGES


@<TRIPOS>ATOM
  1 O       -0.5490     0.2330    -0.7340 O.2   1 <1>  -0.5700 
  2 C       -1.6010     0.8260    -0.6670 C.2   1 <1>   0.5690 
  3 N       -2.7960     0.1910    -0.8920 N.am  1 <1>  -0.6600 
  4 C       -1.5780     2.3120    -0.3190 C.3   1 <1>  -0.0990 
  5 C       -4.1560     0.8030    -0.7710 C.3   1 <1>   0.1400 
  6 C       -2.8520    -1.2640    -1.2370 C.3   1 <1>   0.1400 
  7 C       -0.1650     2.9100    -0.1740 C.3   1 <1>  -0.1600 
  8 C       -5.0340    -0.0030     0.2070 C.3   1 <1>   0.1900 
  9 C       -3.7710    -2.0260    -0.2690 C.3   1 <1>   0.1100 
 10 C       -0.2020     4.4050     0.1670 C.3   1 <1>   0.0210 
 11 N       -5.1230    -1.4230    -0.2140 N.3   1 <1>  -0.8100 
 12 C       -6.4400     0.6190     0.3060 C.3   1 <1>   0.1200 
 13 C        1.1910     4.9960     0.3120 C.2   1 <1>  -0.1810 
 14 C       -6.0220    -2.1660     0.7020 C.3   1 <1>   0.3330 
 15 O       -7.2330    -0.1100     1.1980 O.3   1 <1>  -0.5600 
 16 C        1.4780     6.3270     0.6060 C.2   1 <1>   0.1390 
 17 C        2.4020     4.4090     0.1970 C.2   1 <1>  -0.3020 
 18 C       -6.2420    -3.5980     0.2150 C.ar  1 <1>  -0.1440 
 19 C       -7.3870    -1.4540     0.8270 C.3   1 <1>   0.1200 
 20 N        2.7540     6.5570     0.6710 N.2   1 <1>  -0.7070 
 21 N        3.3250     5.3650     0.4170 N.pl3 1 <1>   0.3000 
 22 C       -6.1370    -4.6590     1.1040 C.ar  1 <1>  -0.1500 
 23 C       -6.5550    -3.8600    -1.1120 C.ar  1 <1>  -0.1500 
 24 C       -6.3410    -5.9580     0.6740 C.ar  1 <1>  -0.1500 
 25 C       -6.7610    -5.1580    -1.5440 C.ar  1 <1>  -0.1500 
 26 C       -6.6540    -6.2090    -0.6500 C.ar  1 <1>  -0.1500 
 27 H       -2.0990     2.8430    -1.0940 H     1 <1>   0.0800 
 28 H       -2.1070     2.4450     0.6060 H     1 <1>   0.0800 
 29 H       -4.0940     1.8180    -0.4290 H     1 <1>   0.0800 
 30 H       -4.6230     0.8060    -1.7400 H     1 <1>   0.0800 
 31 H       -3.2270    -1.3740    -2.2390 H     1 <1>   0.0800 
 32 H       -1.8690    -1.7020    -1.2050 H     1 <1>   0.0800 
 33 H        0.3640     2.3820     0.6020 H     1 <1>   0.0800 
 34 H        0.3740     2.7690    -1.0960 H     1 <1>   0.0800 
 35 H       -4.5800     0.0530     1.1820 H     1 <1>   0.0800 
 36 H       -3.3260    -2.0260     0.7110 H     1 <1>   0.0800 
 37 H       -3.8410    -3.0470    -0.6030 H     1 <1>   0.0800 
 38 H       -0.7340     4.5510     1.0910 H     1 <1>   0.0800 
 39 H       -0.7220     4.9390    -0.6090 H     1 <1>   0.0800 
 40 H       -6.9220     0.6270    -0.6560 H     1 <1>   0.0800 
 41 H       -6.3810     1.6270     0.6760 H     1 <1>   0.0800 
 42 H       -5.5760    -2.1950     1.6810 H     1 <1>   0.0800 
 43 H        0.7340     7.0900     0.7650 H     1 <1>   0.1500 
 44 H        2.6580     3.3880    -0.0230 H     1 <1>   0.1500 
 45 H       -7.9840    -1.9380     1.5780 H     1 <1>   0.0800 
 46 H       -7.9140    -1.4940    -0.1100 H     1 <1>   0.0800 
 47 H        4.3440     5.2380     0.4010 H     1 <1>   0.2700 
 48 H       -5.8950    -4.4800     2.1370 H     1 <1>   0.1500 
 49 H       -6.6330    -3.0450    -1.8110 H     1 <1>   0.1500 
 50 H       -6.2580    -6.7750     1.3690 H     1 <1>   0.1500 
 51 H       -7.0020    -5.3490    -2.5750 H     1 <1>   0.1500 
 52 H       -6.8130    -7.2190    -0.9850 H     1 <1>   0.1500 
@<TRIPOS>BOND
  1   1   2  2   
  2   2   3  am  
  3   2   4  1   
  4   3   5  1   
  5   3   6  1   
  6   4   7  1   
  7   4  27  1   
  8   4  28  1   
  9   5   8  1   
 10   5  29  1   
 11   5  30  1   
 12   6   9  1   
 13   6  31  1   
 14   6  32  1   
 15   7  10  1   
 16   7  33  1   
 17   7  34  1   
 18   8  11  1   
 19   8  12  1   
 20   8  35  1   
 21   9  11  1   
 22   9  36  1   
 23   9  37  1   
 24  10  13  1   
 25  10  38  1   
 26  10  39  1   
 27  11  14  1   
 28  12  15  1   
 29  12  40  1   
 30  12  41  1   
 31  13  16  1   
 32  13  17  2   
 33  14  18  1   
 34  14  19  1   
 35  14  42  1   
 36  15  19  1   
 37  16  20  2   
 38  16  43  1   
 39  17  21  1   
 40  17  44  1   
 41  18  22  ar  
 42  18  23  ar  
 43  19  45  1   
 44  19  46  1   
 45  20  21  1   
 46  21  47  1   
 47  22  24  ar  
 48  22  48  1   
 49  23  25  ar  
 50  23  49  1   
 51  24  26  ar  
 52  24  50  1   
 53  25  26  ar  
 54  25  51  1   
 55  26  52  1   
@<TRIPOS>SUBSTRUCTURE
  1 ****   3 GROUP 4 **** **** 0

# MOE 2024.06 (io_trps.svl 2023.06)
