@<TRIPOS>MOLECULE
NONAME
58 60 1 0 0 
SMALL
USER_CHARGES


@<TRIPOS>ATOM
  1 O        1.1450     0.5450    -4.3490 O.2   1 <1>  -0.5700 
  2 C        0.8380     0.3870    -3.1920 C.2   1 <1>   0.5690 
  3 N        1.0450     1.3800    -2.2560 N.am  1 <1>  -0.6600 
  4 C        0.3180    -0.9930    -2.7780 C.3   1 <1>   0.1810 
  5 C        0.5330     1.3570    -0.8520 C.3   1 <1>   0.1400 
  6 C        2.0200     2.4610    -2.5270 C.3   1 <1>   0.1400 
  7 O        1.1170    -1.4760    -1.7300 O.3   1 <1>  -0.5600 
  8 C        1.5030     0.7190     0.1720 C.3   1 <1>   0.3430 
  9 C        3.4380     1.9470    -2.2470 C.3   1 <1>  -0.1600 
 10 C        0.8440    -2.7460    -1.2430 C.3   1 <1>   0.2640 
 11 N        2.9590     1.0930     0.0660 N.4   1 <1>  -0.9590 
 12 C        3.5360     0.7630    -1.2770 C.3   1 <1>   0.3430 
 13 C        1.6790    -2.8650     0.0230 C.ar  1 <1>  -0.1440 
 14 C        3.6900     0.3490     1.1320 C.3   1 <1>   0.4860 
 15 C        3.0340    -3.1490    -0.0650 C.ar  1 <1>  -0.1500 
 16 C        1.1060    -2.6650     1.2700 C.ar  1 <1>  -0.1500 
 17 C        5.1280     0.8190     1.2060 C.ar  1 <1>  -0.1440 
 18 C        3.8080    -3.2310     1.0800 C.ar  1 <1>  -0.1500 
 19 C        1.8810    -2.7400     2.4150 C.ar  1 <1>  -0.1500 
 20 C        5.4400     2.0400     1.7850 C.ar  1 <1>   0.1600 
 21 C        6.1540     0.0380     0.7060 C.ar  1 <1>  -0.1500 
 22 C        3.2320    -3.0230     2.3200 C.ar  1 <1>  -0.1500 
 23 N        6.6550     2.5450     1.8790 N.ar  1 <1>  -0.6200 
 24 C        7.4290     0.5470     0.8040 C.ar  1 <1>  -0.1500 
 25 C        7.6320     1.7890     1.3880 C.ar  1 <1>   0.3930 
 26 O        8.9030     2.2320     1.4510 O.3   1 <1>  -0.3630 
 27 C        9.2140     3.4690     2.0580 C.3   1 <1>   0.1200 
 28 C       10.7240     3.6740     1.9750 C.3   1 <1>  -0.2400 
 29 H        0.3910    -1.6710    -3.6110 H     1 <1>   0.0800 
 30 H       -0.7020    -0.9250    -2.4490 H     1 <1>   0.0800 
 31 H       -0.3970     0.8160    -0.8220 H     1 <1>   0.0800 
 32 H        0.3090     2.3640    -0.5440 H     1 <1>   0.0800 
 33 H        1.8020     3.3140    -1.9060 H     1 <1>   0.0800 
 34 H        1.9410     2.7810    -3.5540 H     1 <1>   0.0800 
 35 H        1.4210    -0.3490     0.0890 H     1 <1>   0.0800 
 36 H        1.1470     0.9700     1.1570 H     1 <1>   0.0800 
 37 H        4.0620     2.7570    -1.9130 H     1 <1>   0.0800 
 38 H        3.8470     1.6190    -3.1870 H     1 <1>   0.0800 
 39 H        1.1360    -3.4760    -1.9790 H     1 <1>   0.0800 
 40 H       -0.2080    -2.8320    -1.0290 H     1 <1>   0.0800 
 41 H        3.0820     2.1000     0.2160 H     1 <1>   0.4500 
 42 H        4.5770     0.5050    -1.1800 H     1 <1>   0.0800 
 43 H        3.0280    -0.0930    -1.6920 H     1 <1>   0.0800 
 44 H        3.6610    -0.7080     0.9240 H     1 <1>   0.0800 
 45 H        3.2170     0.5110     2.0870 H     1 <1>   0.0800 
 46 H        3.4870    -3.3130    -1.0280 H     1 <1>   0.1500 
 47 H        0.0530    -2.4580     1.3590 H     1 <1>   0.1500 
 48 H        4.8560    -3.4700     1.0070 H     1 <1>   0.1500 
 49 H        1.4300    -2.5960     3.3830 H     1 <1>   0.1500 
 50 H        4.6510     2.6470     2.1960 H     1 <1>   0.1500 
 51 H        5.9830    -0.9280     0.2580 H     1 <1>   0.1500 
 52 H        3.8320    -3.0970     3.2130 H     1 <1>   0.1500 
 53 H        8.2800     0.0010     0.4390 H     1 <1>   0.1500 
 54 H        8.8860     3.4360     3.0840 H     1 <1>   0.0800 
 55 H        8.6900     4.2480     1.5320 H     1 <1>   0.0800 
 56 H       11.2340     2.8830     2.4940 H     1 <1>   0.0800 
 57 H       10.9880     4.6100     2.4310 H     1 <1>   0.0800 
 58 H       11.0380     3.6920     0.9470 H     1 <1>   0.0800 
@<TRIPOS>BOND
  1   1   2  2   
  2   2   3  am  
  3   2   4  1   
  4   3   5  1   
  5   3   6  1   
  6   4   7  1   
  7   4  29  1   
  8   4  30  1   
  9   5   8  1   
 10   5  31  1   
 11   5  32  1   
 12   6   9  1   
 13   6  33  1   
 14   6  34  1   
 15   7  10  1   
 16   8  11  1   
 17   8  35  1   
 18   8  36  1   
 19   9  12  1   
 20   9  37  1   
 21   9  38  1   
 22  10  13  1   
 23  10  39  1   
 24  10  40  1   
 25  11  12  1   
 26  11  14  1   
 27  11  41  1   
 28  12  42  1   
 29  12  43  1   
 30  13  15  ar  
 31  13  16  ar  
 32  14  17  1   
 33  14  44  1   
 34  14  45  1   
 35  15  18  ar  
 36  15  46  1   
 37  16  19  ar  
 38  16  47  1   
 39  17  20  ar  
 40  17  21  ar  
 41  18  22  ar  
 42  18  48  1   
 43  19  22  ar  
 44  19  49  1   
 45  20  23  ar  
 46  20  50  1   
 47  21  24  ar  
 48  21  51  1   
 49  22  52  1   
 50  23  25  ar  
 51  24  25  ar  
 52  24  53  1   
 53  25  26  1   
 54  26  27  1   
 55  27  28  1   
 56  27  54  1   
 57  27  55  1   
 58  28  56  1   
 59  28  57  1   
 60  28  58  1   
@<TRIPOS>SUBSTRUCTURE
  1 ****  14 GROUP 4 **** **** 0

# MOE 2024.06 (io_trps.svl 2023.06)
