@<TRIPOS>MOLECULE
NONAME
44 46 1 0 0 
SMALL
USER_CHARGES


@<TRIPOS>ATOM
  1 O        0.8310     0.0060     0.3970 O.2   1 <1>  -0.5700 
  2 C        1.8070    -0.6380     0.0600 C.2   1 <1>   0.5440 
  3 N        2.9850     0.0300    -0.2020 N.am  1 <1>  -0.6600 
  4 C        1.7060    -2.0820    -0.0410 C.ar  1 <1>   0.0860 
  5 C        3.0390     1.5240    -0.3110 C.3   1 <1>   0.1400 
  6 C        4.3400    -0.6050    -0.1110 C.3   1 <1>   0.1400 
  7 C        2.1470    -2.7700    -1.1720 C.ar  1 <1>  -0.1500 
  8 C        1.1570    -2.8340     0.9970 C.ar  1 <1>  -0.1500 
  9 C        3.8730     2.1390     0.8240 C.3   1 <1>   0.2090 
 10 C        5.1800     0.0230     1.0160 C.3   1 <1>   0.2090 
 11 C        2.0610    -4.1480    -1.2570 C.ar  1 <1>  -0.1500 
 12 C        1.0680    -4.2120     0.9200 C.ar  1 <1>  -0.1500 
 13 N        5.2360     1.5130     0.8770 N.pl3 1 <1>  -0.8380 
 14 C        1.5230    -4.8720    -0.2080 C.ar  1 <1>  -0.1500 
 15 C        6.4040     2.2220     0.7490 C.ar  1 <1>   0.7200 
 16 N        6.3170     3.5500     0.6730 N.ar  1 <1>  -0.6200 
 17 N        7.5430     1.5350     0.7110 N.ar  1 <1>  -0.6200 
 18 C        7.4280     4.2280     0.5460 C.ar  1 <1>   0.1670 
 19 C        8.6420     2.2320     0.5740 C.ar  1 <1>   0.1600 
 20 C        8.6730     3.6100     0.4530 C.ar  1 <1>   0.0860 
 21 C        7.2560     5.7380     0.5380 C.3   1 <1>  -0.0970 
 22 C        9.9370     4.2610     0.2480 C.2   1 <1>   0.4230 
 23 O       10.9310     3.9410     0.8440 O.2   1 <1>  -0.5700 
 24 C       10.0940     5.3500    -0.7960 C.3   1 <1>  -0.1790 
 25 H        2.0480     1.9430    -0.2880 H     1 <1>   0.0800 
 26 H        3.4830     1.7920    -1.2530 H     1 <1>   0.0800 
 27 H        4.8560    -0.4700    -1.0460 H     1 <1>   0.0800 
 28 H        4.2570    -1.6600     0.0730 H     1 <1>   0.0800 
 29 H        2.5570    -2.2100    -1.9940 H     1 <1>   0.1500 
 30 H        0.7950    -2.3200     1.8710 H     1 <1>   0.1500 
 31 H        3.3710     1.9690     1.7600 H     1 <1>   0.0800 
 32 H        3.9290     3.2010     0.6750 H     1 <1>   0.0800 
 33 H        6.1610    -0.4150     1.0020 H     1 <1>   0.0800 
 34 H        4.7330    -0.2210     1.9630 H     1 <1>   0.0800 
 35 H        2.4080    -4.6590    -2.1390 H     1 <1>   0.1500 
 36 H        0.6410    -4.7710     1.7350 H     1 <1>   0.1500 
 37 H        1.4540    -5.9440    -0.2700 H     1 <1>   0.1500 
 38 H        9.5760     1.6940     0.5490 H     1 <1>   0.1500 
 39 H        6.3530     6.0060     1.0590 H     1 <1>   0.0800 
 40 H        7.1800     6.0960    -0.4720 H     1 <1>   0.0800 
 41 H        8.0750     6.2220     1.0370 H     1 <1>   0.0800 
 42 H        9.2970     5.3110    -1.5140 H     1 <1>   0.0800 
 43 H       11.0260     5.2110    -1.3140 H     1 <1>   0.0800 
 44 H       10.1110     6.3130    -0.3200 H     1 <1>   0.0800 
@<TRIPOS>BOND
  1   1   2  2   
  2   2   3  am  
  3   2   4  1   
  4   3   5  1   
  5   3   6  1   
  6   4   7  ar  
  7   4   8  ar  
  8   5   9  1   
  9   5  25  1   
 10   5  26  1   
 11   6  10  1   
 12   6  27  1   
 13   6  28  1   
 14   7  11  ar  
 15   7  29  1   
 16   8  12  ar  
 17   8  30  1   
 18   9  13  1   
 19   9  31  1   
 20   9  32  1   
 21  10  13  1   
 22  10  33  1   
 23  10  34  1   
 24  11  14  ar  
 25  11  35  1   
 26  12  14  ar  
 27  12  36  1   
 28  13  15  1   
 29  14  37  1   
 30  15  16  ar  
 31  15  17  ar  
 32  16  18  ar  
 33  17  19  ar  
 34  18  20  ar  
 35  18  21  1   
 36  19  20  ar  
 37  19  38  1   
 38  20  22  1   
 39  21  39  1   
 40  21  40  1   
 41  21  41  1   
 42  22  23  2   
 43  22  24  1   
 44  24  42  1   
 45  24  43  1   
 46  24  44  1   
@<TRIPOS>SUBSTRUCTURE
  1 ****  13 GROUP 4 **** **** 0

# MOE 2024.06 (io_trps.svl 2023.06)
