@<TRIPOS>MOLECULE
NONAME
52 54 1 0 0 
SMALL
USER_CHARGES


@<TRIPOS>ATOM
  1 O        0.8560    -0.7760     1.2160 O.3   1 <1>  -0.0190 
  2 N        0.8410     0.5200     1.1720 N.2   1 <1>  -0.4100 
  3 C        1.3260    -1.2920     0.1150 C.2   1 <1>  -0.0400 
  4 C        1.3270     0.8530     0.0260 C.2   1 <1>   0.1080 
  5 C        1.6630    -0.2840    -0.7060 C.2   1 <1>  -0.1500 
  6 C        1.3770    -2.7970    -0.0050 C.3   1 <1>   0.5230 
  7 C        1.4960     2.2860    -0.4700 C.3   1 <1>   0.1010 
  8 N       -0.0120    -3.3330     0.0300 N.4   1 <1>  -0.9590 
  9 C        2.3180     3.1290     0.5220 C.3   1 <1>  -0.1600 
 10 C        0.1250     2.9340    -0.7290 C.3   1 <1>  -0.1600 
 11 C       -0.0590    -4.7510     0.4640 C.3   1 <1>   0.4230 
 12 C       -0.7710    -2.9890    -1.2020 C.3   1 <1>   0.5240 
 13 C        2.4650     4.5800     0.0410 C.3   1 <1>  -0.1600 
 14 C        0.2690     4.3850    -1.2100 C.3   1 <1>  -0.1600 
 15 C        0.5330    -5.6840    -0.5940 C.3   1 <1>  -0.2400 
 16 C       -1.4920    -5.1490     0.8040 C.3   1 <1>  -0.2400 
 17 C       -2.0450    -2.3120    -0.7620 C.2   1 <1>  -0.1810 
 18 C        1.0940     5.2180    -0.2210 C.3   1 <1>  -0.1600 
 19 C       -3.3350    -2.7880    -0.9700 C.2   1 <1>   0.1390 
 20 C       -2.2180    -1.1470    -0.0970 C.2   1 <1>  -0.3020 
 21 N       -4.2290    -2.0000    -0.4680 N.2   1 <1>  -0.7070 
 22 N       -3.5440    -0.9790     0.0690 N.pl3 1 <1>   0.3140 
 23 C       -4.2220     0.1440     0.7290 C.3   1 <1>   0.0160 
 24 H        2.0860    -0.2900    -1.6950 H     1 <1>   0.1500 
 25 H        1.9450    -3.1870     0.8240 H     1 <1>   0.0800 
 26 H        1.8670    -3.0810    -0.9210 H     1 <1>   0.0800 
 27 H        2.0330     2.2570    -1.4020 H     1 <1>   0.0800 
 28 H       -0.4970    -2.7840     0.7560 H     1 <1>   0.4500 
 29 H        3.2920     2.6900     0.6480 H     1 <1>   0.0800 
 30 H        1.8300     3.1240     1.4820 H     1 <1>   0.0800 
 31 H       -0.4490     2.9200     0.1820 H     1 <1>   0.0800 
 32 H       -0.4120     2.3630    -1.4650 H     1 <1>   0.0800 
 33 H        0.5260    -4.8500     1.3660 H     1 <1>   0.0800 
 34 H       -0.9980    -3.8700    -1.7780 H     1 <1>   0.0800 
 35 H       -0.2100    -2.3060    -1.8180 H     1 <1>   0.0800 
 36 H        3.0480     4.6020    -0.8640 H     1 <1>   0.0800 
 37 H        2.9910     5.1530     0.7850 H     1 <1>   0.0800 
 38 H       -0.7070     4.8260    -1.3230 H     1 <1>   0.0800 
 39 H        0.7490     4.3990    -2.1740 H     1 <1>   0.0800 
 40 H       -0.0460    -5.6870    -1.4990 H     1 <1>   0.0800 
 41 H        0.5330    -6.6900    -0.2120 H     1 <1>   0.0800 
 42 H        1.5530    -5.4300    -0.8180 H     1 <1>   0.0800 
 43 H       -2.1070    -5.2140    -0.0740 H     1 <1>   0.0800 
 44 H       -1.9290    -4.4540     1.4990 H     1 <1>   0.0800 
 45 H       -1.4900    -6.1190     1.2690 H     1 <1>   0.0800 
 46 H        1.2280     6.2130    -0.6100 H     1 <1>   0.0800 
 47 H        0.5570     5.2990     0.7100 H     1 <1>   0.0800 
 48 H       -3.5920    -3.7010    -1.4830 H     1 <1>   0.1500 
 49 H       -1.5070    -0.4240     0.2620 H     1 <1>   0.1500 
 50 H       -3.4950     0.7880     1.1880 H     1 <1>   0.0800 
 51 H       -4.8900    -0.2420     1.4750 H     1 <1>   0.0800 
 52 H       -4.7830     0.6910    -0.0050 H     1 <1>   0.0800 
@<TRIPOS>BOND
  1   1   2  1   
  2   1   3  1   
  3   2   4  2   
  4   3   5  2   
  5   3   6  1   
  6   4   5  1   
  7   4   7  1   
  8   5  24  1   
  9   6   8  1   
 10   6  25  1   
 11   6  26  1   
 12   7   9  1   
 13   7  10  1   
 14   7  27  1   
 15   8  11  1   
 16   8  12  1   
 17   8  28  1   
 18   9  13  1   
 19   9  29  1   
 20   9  30  1   
 21  10  14  1   
 22  10  31  1   
 23  10  32  1   
 24  11  15  1   
 25  11  16  1   
 26  11  33  1   
 27  12  17  1   
 28  12  34  1   
 29  12  35  1   
 30  13  18  1   
 31  13  36  1   
 32  13  37  1   
 33  14  18  1   
 34  14  38  1   
 35  14  39  1   
 36  15  40  1   
 37  15  41  1   
 38  15  42  1   
 39  16  43  1   
 40  16  44  1   
 41  16  45  1   
 42  17  19  1   
 43  17  20  2   
 44  18  46  1   
 45  18  47  1   
 46  19  21  2   
 47  19  48  1   
 48  20  22  1   
 49  20  49  1   
 50  21  22  1   
 51  22  23  1   
 52  23  50  1   
 53  23  51  1   
 54  23  52  1   
@<TRIPOS>SUBSTRUCTURE
  1 ****   1 GROUP 4 **** **** 0

# MOE 2024.06 (io_trps.svl 2023.06)
