@<TRIPOS>MOLECULE
NONAME
39 41 1 0 0 
SMALL
USER_CHARGES


@<TRIPOS>ATOM
  1 O       -1.1200     0.6050    -1.4820 O.co2 1 <1>  -0.9000 
  2 C       -1.0770     0.2570    -0.2940 C.2   1 <1>   0.9060 
  3 O       -0.1410    -0.3750     0.1930 O.co2 1 <1>  -0.9000 
  4 C       -2.1850     0.7890     0.6490 C.3   1 <1>   0.3170 
  5 N       -2.3840     2.2940     0.5880 N.4   1 <1>  -0.9590 
  6 C       -3.5600     0.2010     0.2750 C.3   1 <1>  -0.1600 
  7 C       -3.3430     2.4570    -0.5310 C.3   1 <1>   0.3430 
  8 C       -1.1110     3.0310     0.3450 C.3   1 <1>   0.5230 
  9 C       -4.3830     1.3750    -0.2520 C.3   1 <1>   0.2000 
 10 C       -1.3260     4.5280     0.5280 C.2   1 <1>  -0.0400 
 11 O       -5.1980     1.8210     0.7830 O.3   1 <1>  -0.6800 
 12 O       -0.3510     5.3400     0.1770 O.3   1 <1>  -0.2800 
 13 C       -2.3710     5.2430     1.0020 C.2   1 <1>  -0.1500 
 14 C       -0.7260     6.5940     0.3940 C.2   1 <1>   0.0870 
 15 C       -1.9810     6.5800     0.9170 C.2   1 <1>  -0.1500 
 16 C        0.1830     7.6720     0.0720 C.ar  1 <1>   0.0530 
 17 C       -0.2380     8.8840    -0.5000 C.ar  1 <1>   0.0730 
 18 C        1.5420     7.5070     0.3350 C.ar  1 <1>  -0.1500 
 19 C       -1.6130     9.1240    -0.8290 C.1   1 <1>   0.4840 
 20 C        0.6980     9.8770    -0.7700 C.ar  1 <1>  -0.1500 
 21 C        2.4620     8.5000     0.0600 C.ar  1 <1>  -0.1500 
 22 N       -2.7090     9.3190    -1.0750 N.1   1 <1>  -0.5570 
 23 C        2.0390     9.6930    -0.4930 C.ar  1 <1>  -0.1500 
 24 H       -1.9110     0.4910     1.6450 H     1 <1>   0.0800 
 25 H       -2.8420     2.6060     1.4490 H     1 <1>   0.4500 
 26 H       -4.0170    -0.2800     1.1210 H     1 <1>   0.0800 
 27 H       -3.4350    -0.5350    -0.5010 H     1 <1>   0.0800 
 28 H       -3.7850     3.4380    -0.5570 H     1 <1>   0.0800 
 29 H       -2.8480     2.2490    -1.4680 H     1 <1>   0.0800 
 30 H       -0.3520     2.6950     1.0320 H     1 <1>   0.0800 
 31 H       -0.7610     2.8350    -0.6570 H     1 <1>   0.0800 
 32 H       -4.9880     1.1400    -1.1120 H     1 <1>   0.0800 
 33 H       -5.9160     1.1770     0.9540 H     1 <1>   0.4000 
 34 H       -3.3240     4.9090     1.3750 H     1 <1>   0.1500 
 35 H       -2.5880     7.4170     1.2190 H     1 <1>   0.1500 
 36 H        1.8830     6.5810     0.7660 H     1 <1>   0.1500 
 37 H        0.3760    10.8090    -1.2050 H     1 <1>   0.1500 
 38 H        3.5060     8.3460     0.2760 H     1 <1>   0.1500 
 39 H        2.7510    10.4720    -0.7080 H     1 <1>   0.1500 
@<TRIPOS>BOND
  1   1   2  ar  
  2   2   3  ar  
  3   2   4  1   
  4   4   5  1   
  5   4   6  1   
  6   4  24  1   
  7   5   7  1   
  8   5   8  1   
  9   5  25  1   
 10   6   9  1   
 11   6  26  1   
 12   6  27  1   
 13   7   9  1   
 14   7  28  1   
 15   7  29  1   
 16   8  10  1   
 17   8  30  1   
 18   8  31  1   
 19   9  11  1   
 20   9  32  1   
 21  10  12  1   
 22  10  13  2   
 23  11  33  1   
 24  12  14  1   
 25  13  15  1   
 26  13  34  1   
 27  14  15  2   
 28  14  16  1   
 29  15  35  1   
 30  16  17  ar  
 31  16  18  ar  
 32  17  19  1   
 33  17  20  ar  
 34  18  21  ar  
 35  18  36  1   
 36  19  22  3   
 37  20  23  ar  
 38  20  37  1   
 39  21  23  ar  
 40  21  38  1   
 41  23  39  1   
@<TRIPOS>SUBSTRUCTURE
  1 ****  10 GROUP 4 **** **** 0

# MOE 2024.06 (io_trps.svl 2023.06)
