@<TRIPOS>MOLECULE
NONAME
60 61 1 0 0 
SMALL
USER_CHARGES


@<TRIPOS>ATOM
  1 O        0.1370    -0.0010    -2.5250 O.2   1 <1>  -0.5700 
  2 C        0.0740    -0.8140    -1.6330 C.2   1 <1>   0.5690 
  3 N        0.6410    -0.5890    -0.4210 N.am  1 <1>  -0.7300 
  4 C       -0.6790    -2.1470    -1.8600 C.3   1 <1>   0.2510 
  5 C        1.3790     0.6130    -0.0290 C.3   1 <1>   0.2780 
  6 N       -1.4030    -2.6360    -0.6280 N.3   1 <1>  -0.8100 
  7 C        0.3370    -3.1820    -2.3700 C.3   1 <1>  -0.2400 
  8 C        2.3530     0.2080     1.0560 C.2   1 <1>  -0.2880 
  9 C       -1.9440    -4.0100    -0.7570 C.3   1 <1>   0.1100 
 10 C       -2.4400    -1.6550    -0.2290 C.3   1 <1>   0.1100 
 11 C        2.3310     0.6420     2.3200 C.2   1 <1>  -0.3000 
 12 C       -2.6020    -4.5570     0.5230 C.3   1 <1>   0.1400 
 13 C       -2.7080    -1.7450     1.2760 C.3   1 <1>  -0.1600 
 14 N       -3.9220    -3.9090     0.7990 N.am  1 <1>  -0.6600 
 15 C       -3.8570    -2.6870     1.6570 C.3   1 <1>   0.1400 
 16 C       -5.1250    -4.3420     0.2980 C.2   1 <1>   0.5690 
 17 O       -6.1690    -3.7830     0.5490 O.2   1 <1>  -0.5700 
 18 C       -5.2300    -5.5800    -0.6120 C.3   1 <1>   0.4040 
 19 N       -6.6090    -6.2050    -0.6070 N.4   1 <1>  -0.9590 
 20 C       -6.9290    -6.8010     0.7290 C.3   1 <1>   0.4230 
 21 C       -6.8380    -7.0840    -1.7950 C.3   1 <1>   0.2630 
 22 C       -6.2110    -8.1290     0.9800 C.3   1 <1>  -0.1600 
 23 C       -8.4120    -7.1500     0.8330 C.3   1 <1>  -0.1600 
 24 C       -7.1620    -9.2510     0.5450 C.3   1 <1>  -0.1600 
 25 C       -8.5640    -8.6350     0.4800 C.3   1 <1>  -0.1600 
 26 H        0.4640    -1.2740     0.3170 H     1 <1>   0.3700 
 27 H       -1.4010    -1.9720    -2.6390 H     1 <1>   0.0800 
 28 H        0.6870     1.3510     0.3380 H     1 <1>   0.0800 
 29 H        1.9040     1.0190    -0.8790 H     1 <1>   0.0800 
 30 H        0.9900    -3.4900    -1.5730 H     1 <1>   0.0800 
 31 H        0.9400    -2.7370    -3.1430 H     1 <1>   0.0800 
 32 H       -0.1520    -4.0330    -2.8040 H     1 <1>   0.0800 
 33 H        3.0890    -0.4910     0.6950 H     1 <1>   0.1500 
 34 H       -1.1330    -4.6810    -0.9730 H     1 <1>   0.0800 
 35 H       -2.6380    -4.0530    -1.5780 H     1 <1>   0.0800 
 36 H       -3.3450    -1.7990    -0.7970 H     1 <1>   0.0800 
 37 H       -2.1010    -0.6530    -0.4260 H     1 <1>   0.0800 
 38 H        3.0390     0.3350     3.0710 H     1 <1>   0.1500 
 39 H        1.6100     1.3390     2.7120 H     1 <1>   0.1500 
 40 H       -1.9350    -4.4050     1.3550 H     1 <1>   0.0800 
 41 H       -2.7330    -5.6180     0.4220 H     1 <1>   0.0800 
 42 H       -2.9690    -0.7650     1.6320 H     1 <1>   0.0800 
 43 H       -1.8060    -2.0260     1.7900 H     1 <1>   0.0800 
 44 H       -4.7790    -2.1360     1.5720 H     1 <1>   0.0800 
 45 H       -3.7520    -2.9810     2.6870 H     1 <1>   0.0800 
 46 H       -4.5030    -6.3080    -0.3020 H     1 <1>   0.0800 
 47 H       -4.9860    -5.2640    -1.6110 H     1 <1>   0.0800 
 48 H       -7.2450    -5.3910    -0.6690 H     1 <1>   0.4500 
 49 H       -6.6770    -6.0900     1.5010 H     1 <1>   0.0800 
 50 H       -6.1870    -7.9420    -1.7580 H     1 <1>   0.0800 
 51 H       -6.6470    -6.5420    -2.7070 H     1 <1>   0.0800 
 52 H       -7.8590    -7.4280    -1.8120 H     1 <1>   0.0800 
 53 H       -6.0600    -8.2200     2.0430 H     1 <1>   0.0800 
 54 H       -5.2510    -8.2000     0.5020 H     1 <1>   0.0800 
 55 H       -9.0370    -6.5150     0.2290 H     1 <1>   0.0800 
 56 H       -8.7060    -7.0210     1.8600 H     1 <1>   0.0800 
 57 H       -7.1330   -10.0680     1.2470 H     1 <1>   0.0800 
 58 H       -6.8830    -9.6320    -0.4220 H     1 <1>   0.0800 
 59 H       -8.9770    -8.7540    -0.5070 H     1 <1>   0.0800 
 60 H       -9.2270    -9.1200     1.1790 H     1 <1>   0.0800 
@<TRIPOS>BOND
  1   1   2  2   
  2   2   3  am  
  3   2   4  1   
  4   3   5  1   
  5   3  26  1   
  6   4   6  1   
  7   4   7  1   
  8   4  27  1   
  9   5   8  1   
 10   5  28  1   
 11   5  29  1   
 12   6   9  1   
 13   6  10  1   
 14   7  30  1   
 15   7  31  1   
 16   7  32  1   
 17   8  11  2   
 18   8  33  1   
 19   9  12  1   
 20   9  34  1   
 21   9  35  1   
 22  10  13  1   
 23  10  36  1   
 24  10  37  1   
 25  11  38  1   
 26  11  39  1   
 27  12  14  1   
 28  12  40  1   
 29  12  41  1   
 30  13  15  1   
 31  13  42  1   
 32  13  43  1   
 33  14  15  1   
 34  14  16  am  
 35  15  44  1   
 36  15  45  1   
 37  16  17  2   
 38  16  18  1   
 39  18  19  1   
 40  18  46  1   
 41  18  47  1   
 42  19  20  1   
 43  19  21  1   
 44  19  48  1   
 45  20  22  1   
 46  20  23  1   
 47  20  49  1   
 48  21  50  1   
 49  21  51  1   
 50  21  52  1   
 51  22  24  1   
 52  22  53  1   
 53  22  54  1   
 54  23  25  1   
 55  23  55  1   
 56  23  56  1   
 57  24  25  1   
 58  24  57  1   
 59  24  58  1   
 60  25  59  1   
 61  25  60  1   
@<TRIPOS>SUBSTRUCTURE
  1 ****  14 GROUP 4 **** **** 0

# MOE 2024.06 (io_trps.svl 2023.06)
