@<TRIPOS>MOLECULE
NONAME
45 47 1 0 0 
SMALL
USER_CHARGES


@<TRIPOS>ATOM
  1 CL       0.5370     1.1840     0.2730 Cl    1 <1>  -0.1770 
  2 C        2.1410     1.6510     0.7850 C.ar  1 <1>   0.1770 
  3 C        2.6630     1.1700     1.9760 C.ar  1 <1>  -0.1440 
  4 C        2.8580     2.5060    -0.0270 C.ar  1 <1>  -0.1500 
  5 C        3.9390     1.5680     2.3390 C.ar  1 <1>  -0.1500 
  6 C        1.8660     0.2270     2.8660 C.3   1 <1>  -0.0960 
  7 C        4.1390     2.9240     0.3320 C.ar  1 <1>   0.0860 
  8 C        4.6610     2.4270     1.5280 C.ar  1 <1>  -0.1500 
  9 C        4.9030     3.8370    -0.5010 C.2   1 <1>   0.5440 
 10 O        6.1210     3.8250    -0.4970 O.2   1 <1>  -0.5700 
 11 N        4.3020     4.8130    -1.2640 N.am  1 <1>  -0.6600 
 12 C        4.9030     5.2500    -2.5700 C.3   1 <1>   0.1400 
 13 C        3.3600     5.7800    -0.6430 C.3   1 <1>   0.1400 
 14 C        6.1470     6.1530    -2.4010 C.3   1 <1>   0.3430 
 15 C        4.1320     6.8070     0.1990 C.3   1 <1>  -0.1600 
 16 N        6.2980     6.6250    -0.9930 N.4   1 <1>  -0.9590 
 17 C        5.2350     7.5670    -0.5470 C.3   1 <1>   0.3430 
 18 C        7.6750     7.0340    -0.6410 C.3   1 <1>   0.5240 
 19 C        7.7750     7.0080     0.8690 C.2   1 <1>  -0.1810 
 20 C        7.8560     5.8870     1.6130 C.2   1 <1>  -0.1100 
 21 C        7.7770     8.2120     1.6500 C.2   1 <1>  -0.1500 
 22 S        7.9220     6.2760     3.3210 S.3   1 <1>  -0.0800 
 23 C        7.8490     7.9940     2.9760 C.2   1 <1>  -0.1100 
 24 H        2.4160     2.8440    -0.9460 H     1 <1>   0.1500 
 25 H        4.3790     1.2100     3.2540 H     1 <1>   0.1500 
 26 H        1.6260    -0.6720     2.3270 H     1 <1>   0.0800 
 27 H        0.9500     0.6990     3.1750 H     1 <1>   0.0800 
 28 H        2.4240    -0.0410     3.7440 H     1 <1>   0.0800 
 29 H        5.6530     2.7190     1.8280 H     1 <1>   0.1500 
 30 H        4.1610     5.7680    -3.1520 H     1 <1>   0.0800 
 31 H        5.1880     4.3770    -3.1320 H     1 <1>   0.0800 
 32 H        2.6620     5.2560    -0.0110 H     1 <1>   0.0800 
 33 H        2.7900     6.2770    -1.4100 H     1 <1>   0.0800 
 34 H        6.0950     6.9870    -3.0810 H     1 <1>   0.0800 
 35 H        7.0110     5.5660    -2.6680 H     1 <1>   0.0800 
 36 H        4.5530     6.3250     1.0640 H     1 <1>   0.0800 
 37 H        3.4240     7.5280     0.5670 H     1 <1>   0.0800 
 38 H        6.1480     5.7490    -0.4520 H     1 <1>   0.4500 
 39 H        5.6560     8.2980     0.1240 H     1 <1>   0.0800 
 40 H        4.8200     8.0900    -1.3930 H     1 <1>   0.0800 
 41 H        7.8970     8.0160    -1.0240 H     1 <1>   0.0800 
 42 H        8.3810     6.3290    -1.0500 H     1 <1>   0.0800 
 43 H        7.8800     4.8420     1.3510 H     1 <1>   0.1500 
 44 H        7.7310     9.1880     1.1980 H     1 <1>   0.1500 
 45 H        7.8730     8.6650     3.8180 H     1 <1>   0.1500 
@<TRIPOS>BOND
  1   1   2  1   
  2   2   3  ar  
  3   2   4  ar  
  4   3   5  ar  
  5   3   6  1   
  6   4   7  ar  
  7   4  24  1   
  8   5   8  ar  
  9   5  25  1   
 10   6  26  1   
 11   6  27  1   
 12   6  28  1   
 13   7   8  ar  
 14   7   9  1   
 15   8  29  1   
 16   9  10  2   
 17   9  11  am  
 18  11  12  1   
 19  11  13  1   
 20  12  14  1   
 21  12  30  1   
 22  12  31  1   
 23  13  15  1   
 24  13  32  1   
 25  13  33  1   
 26  14  16  1   
 27  14  34  1   
 28  14  35  1   
 29  15  17  1   
 30  15  36  1   
 31  15  37  1   
 32  16  17  1   
 33  16  18  1   
 34  16  38  1   
 35  17  39  1   
 36  17  40  1   
 37  18  19  1   
 38  18  41  1   
 39  18  42  1   
 40  19  20  2   
 41  19  21  1   
 42  20  22  1   
 43  20  43  1   
 44  21  23  2   
 45  21  44  1   
 46  22  23  1   
 47  23  45  1   
@<TRIPOS>SUBSTRUCTURE
  1 ****   9 GROUP 4 **** **** 0

# MOE 2024.06 (io_trps.svl 2023.06)
