@<TRIPOS>MOLECULE
NONAME
51 53 1 0 0 
SMALL
USER_CHARGES


@<TRIPOS>ATOM
  1 CL      -0.4580    -3.9980    -5.1390 Cl    1 <1>  -0.1770 
  2 C       -1.3680    -4.5330    -3.7510 C.ar  1 <1>   0.1770 
  3 C       -2.7350    -4.7010    -3.8530 C.ar  1 <1>  -0.1500 
  4 C       -0.7110    -4.7830    -2.5620 C.ar  1 <1>  -0.1500 
  5 C       -3.4500    -5.1240    -2.7470 C.ar  1 <1>  -0.1500 
  6 C       -1.4380    -5.2080    -1.4640 C.ar  1 <1>  -0.1500 
  7 C       -2.8230    -5.3910    -1.5270 C.ar  1 <1>   0.0530 
  8 C       -3.5630    -5.8250    -0.3650 C.2   1 <1>   0.0870 
  9 O       -3.0660    -5.6180     0.8340 O.3   1 <1>  -0.0190 
 10 C       -4.7530    -6.4580    -0.1850 C.2   1 <1>  -0.2330 
 11 N       -3.8410    -6.0540     1.7920 N.2   1 <1>  -0.4100 
 12 C       -4.8710    -6.5360     1.1990 C.2   1 <1>   0.3720 
 13 C       -5.6860    -7.0520    -1.0870 C.2   1 <1>   1.0330 
 14 N       -5.9620    -7.0850     1.8530 N.pl3 1 <1>  -0.8520 
 15 O       -6.8540    -7.3210    -0.7360 O.co2 1 <1>  -0.9000 
 16 O       -5.3220    -7.5170    -2.1760 O.co2 1 <1>  -0.9000 
 17 C       -5.7200    -8.2720     2.6960 C.3   1 <1>   0.2090 
 18 C       -6.3840    -9.5320     2.1140 C.3   1 <1>  -0.0800 
 19 C       -5.7420    -9.9620     0.7760 C.3   1 <1>   0.3430 
 20 C       -7.9200    -9.4100     2.0460 C.3   1 <1>  -0.1600 
 21 N       -6.7160    -9.9920    -0.3520 N.4   1 <1>  -0.9590 
 22 C       -8.4950   -10.6260     1.3110 C.3   1 <1>  -0.1600 
 23 C       -7.9680   -10.7640    -0.1240 C.3   1 <1>   0.3430 
 24 C       -6.0530   -10.3160    -1.6570 C.3   1 <1>   0.3430 
 25 C       -6.9340   -10.0110    -2.8810 C.3   1 <1>   0.1200 
 26 O       -7.9910   -10.9270    -2.9690 O.3   1 <1>  -0.5600 
 27 C       -8.8610   -10.6590    -4.0220 C.3   1 <1>   0.0400 
 28 H       -3.2320    -4.5050    -4.7860 H     1 <1>   0.1500 
 29 H        0.3540    -4.6460    -2.5020 H     1 <1>   0.1500 
 30 H       -4.5150    -5.2510    -2.8350 H     1 <1>   0.1500 
 31 H       -0.9240    -5.4030    -0.5390 H     1 <1>   0.1500 
 32 H       -6.7060    -7.2410     1.1450 H     1 <1>   0.4000 
 33 H       -6.1200    -8.0730     3.6760 H     1 <1>   0.0800 
 34 H       -4.6590    -8.4300     2.8080 H     1 <1>   0.0800 
 35 H       -6.1620   -10.3220     2.8090 H     1 <1>   0.0800 
 36 H       -5.3100   -10.9410     0.8940 H     1 <1>   0.0800 
 37 H       -4.9460    -9.2750     0.5330 H     1 <1>   0.0800 
 38 H       -8.2080    -8.5140     1.5200 H     1 <1>   0.0800 
 39 H       -8.3290    -9.3500     3.0410 H     1 <1>   0.0800 
 40 H       -7.0070    -8.9880    -0.4810 H     1 <1>   0.4500 
 41 H       -9.5680   -10.5590     1.2780 H     1 <1>   0.0800 
 42 H       -8.2520   -11.5220     1.8540 H     1 <1>   0.0800 
 43 H       -7.8040   -11.8050    -0.3490 H     1 <1>   0.0800 
 44 H       -8.7190   -10.4000    -0.8080 H     1 <1>   0.0800 
 45 H       -5.7600   -11.3510    -1.6820 H     1 <1>   0.0800 
 46 H       -5.1610    -9.7180    -1.7460 H     1 <1>   0.0800 
 47 H       -6.3410   -10.0890    -3.7750 H     1 <1>   0.0800 
 48 H       -7.3270    -9.0100    -2.8110 H     1 <1>   0.0800 
 49 H       -9.6380   -11.4040    -4.0170 H     1 <1>   0.0800 
 50 H       -8.3200   -10.7060    -4.9520 H     1 <1>   0.0800 
 51 H       -9.2930    -9.6820    -3.8870 H     1 <1>   0.0800 
@<TRIPOS>BOND
  1   1   2  1   
  2   2   3  ar  
  3   2   4  ar  
  4   3   5  ar  
  5   3  28  1   
  6   4   6  ar  
  7   4  29  1   
  8   5   7  ar  
  9   5  30  1   
 10   6   7  ar  
 11   6  31  1   
 12   7   8  1   
 13   8   9  1   
 14   8  10  2   
 15   9  11  1   
 16  10  12  1   
 17  10  13  1   
 18  11  12  2   
 19  12  14  1   
 20  13  15  ar  
 21  13  16  ar  
 22  14  17  1   
 23  14  32  1   
 24  17  18  1   
 25  17  33  1   
 26  17  34  1   
 27  18  19  1   
 28  18  20  1   
 29  18  35  1   
 30  19  21  1   
 31  19  36  1   
 32  19  37  1   
 33  20  22  1   
 34  20  38  1   
 35  20  39  1   
 36  21  23  1   
 37  21  24  1   
 38  21  40  1   
 39  22  23  1   
 40  22  41  1   
 41  22  42  1   
 42  23  43  1   
 43  23  44  1   
 44  24  25  1   
 45  24  45  1   
 46  24  46  1   
 47  25  26  1   
 48  25  47  1   
 49  25  48  1   
 50  26  27  1   
 51  27  49  1   
 52  27  50  1   
 53  27  51  1   
@<TRIPOS>SUBSTRUCTURE
  1 ****  13 GROUP 4 **** **** 0

# MOE 2024.06 (io_trps.svl 2023.06)
