@<TRIPOS>MOLECULE
NONAME
47 49 1 0 0 
SMALL
USER_CHARGES


@<TRIPOS>ATOM
  1 F       -0.8800    -0.6490    -0.8440 F     1 <1>  -0.1900 
  2 C       -2.0340    -1.1950    -0.5700 C.ar  1 <1>   0.1900 
  3 C       -3.0710    -1.0500    -1.4700 C.ar  1 <1>  -0.1500 
  4 C       -2.1750    -1.8980     0.6110 C.ar  1 <1>  -0.1500 
  5 C       -4.2930    -1.6310    -1.1740 C.ar  1 <1>  -0.1500 
  6 C       -3.4030    -2.4740     0.8930 C.ar  1 <1>  -0.1500 
  7 C       -4.4660    -2.3440     0.0080 C.ar  1 <1>  -0.0320 
  8 C       -5.8050    -2.9950     0.3540 C.3   1 <1>   0.0320 
  9 C       -5.7170    -4.5320     0.3070 C.2   1 <1>   0.6300 
 10 C       -6.6840    -2.3340     1.3940 C.3   1 <1>  -0.1900 
 11 C       -7.0950    -2.2940    -0.0340 C.3   1 <1>  -0.2000 
 12 O       -5.3000    -5.1020     1.2970 O.2   1 <1>  -0.5700 
 13 N       -6.0990    -5.2330    -0.8080 N.am  1 <1>  -0.6600 
 14 C       -7.5600    -3.1720     2.3360 C.3   1 <1>  -0.1450 
 15 C       -6.2520    -1.0170     2.0550 C.3   1 <1>  -0.1450 
 16 C       -6.3800    -6.6900    -0.7580 C.3   1 <1>   0.3200 
 17 C       -6.2440    -4.6260    -2.1920 C.3   1 <1>   0.0340 
 18 C       -7.5540    -6.9800     0.1580 C.2   1 <1>  -0.3320 
 19 C       -7.6230    -4.6950    -2.8510 C.2   1 <1>   0.9060 
 20 N       -7.4930    -6.8370     1.4890 N.pl3 1 <1>   0.0330 
 21 C       -8.8050    -7.4070    -0.1180 C.2   1 <1>   0.0770 
 22 O       -8.2810    -3.6520    -2.9550 O.co2 1 <1>  -0.9000 
 23 O       -8.0030    -5.7720    -3.3290 O.co2 1 <1>  -0.9000 
 24 C       -8.7080    -7.2010     1.9490 C.2   1 <1>   0.0070 
 25 N       -9.5250    -7.5630     1.0150 N.2   1 <1>  -0.5650 
 26 C       -9.0650    -7.1690     3.4180 C.3   1 <1>  -0.0600 
 27 H       -2.9250    -0.4960    -2.3800 H     1 <1>   0.1500 
 28 H       -1.3460    -1.9930     1.2880 H     1 <1>   0.1500 
 29 H       -5.1100    -1.5270    -1.8670 H     1 <1>   0.1500 
 30 H       -3.5400    -3.0320     1.8040 H     1 <1>   0.1500 
 31 H       -7.9160    -2.9050    -0.3710 H     1 <1>   0.1000 
 32 H       -7.0570    -1.3580    -0.5600 H     1 <1>   0.1000 
 33 H       -7.9750    -4.0220     1.8220 H     1 <1>   0.0800 
 34 H       -8.3770    -2.5830     2.7090 H     1 <1>   0.0800 
 35 H       -6.9740    -3.5260     3.1660 H     1 <1>   0.0800 
 36 H       -5.7310    -0.3840     1.3590 H     1 <1>   0.0800 
 37 H       -5.6000    -1.2200     2.8850 H     1 <1>   0.0800 
 38 H       -7.1130    -0.4810     2.4110 H     1 <1>   0.0800 
 39 H       -5.5060    -7.2050    -0.4010 H     1 <1>   0.0800 
 40 H       -6.6010    -7.0600    -1.7450 H     1 <1>   0.0800 
 41 H       -5.5650    -5.1280    -2.8540 H     1 <1>   0.0800 
 42 H       -5.9610    -3.5950    -2.1770 H     1 <1>   0.0800 
 43 H       -6.6850    -6.4560     2.0000 H     1 <1>   0.2700 
 44 H       -9.2240    -7.6050    -1.0930 H     1 <1>   0.1500 
 45 H       -8.4180    -7.8270     3.9680 H     1 <1>   0.0800 
 46 H      -10.0830    -7.4910     3.5500 H     1 <1>   0.0800 
 47 H       -8.9660    -6.1680     3.7960 H     1 <1>   0.0800 
@<TRIPOS>BOND
  1   1   2  1   
  2   2   3  ar  
  3   2   4  ar  
  4   3   5  ar  
  5   3  27  1   
  6   4   6  ar  
  7   4  28  1   
  8   5   7  ar  
  9   5  29  1   
 10   6   7  ar  
 11   6  30  1   
 12   7   8  1   
 13   8   9  1   
 14   8  10  1   
 15   8  11  1   
 16   9  12  2   
 17   9  13  am  
 18  10  11  1   
 19  10  14  1   
 20  10  15  1   
 21  11  31  1   
 22  11  32  1   
 23  13  16  1   
 24  13  17  1   
 25  14  33  1   
 26  14  34  1   
 27  14  35  1   
 28  15  36  1   
 29  15  37  1   
 30  15  38  1   
 31  16  18  1   
 32  16  39  1   
 33  16  40  1   
 34  17  19  1   
 35  17  41  1   
 36  17  42  1   
 37  18  20  1   
 38  18  21  2   
 39  19  22  ar  
 40  19  23  ar  
 41  20  24  1   
 42  20  43  1   
 43  21  25  1   
 44  21  44  1   
 45  24  25  2   
 46  24  26  1   
 47  26  45  1   
 48  26  46  1   
 49  26  47  1   
@<TRIPOS>SUBSTRUCTURE
  1 ****   9 GROUP 4 **** **** 0

# MOE 2024.06 (io_trps.svl 2023.06)
