@<TRIPOS>MOLECULE
NONAME
56 59 1 0 0 
SMALL
USER_CHARGES


@<TRIPOS>ATOM
  1 O        0.1500     1.1240     2.4880 O.2   1 <1>  -0.5700 
  2 C        0.2780     2.2240     2.0040 C.2   1 <1>   0.5690 
  3 N       -0.8020     3.0130     1.6950 N.am  1 <1>  -0.6600 
  4 C        1.7000     2.6670     1.7190 C.3   1 <1>  -0.0990 
  5 C       -2.1950     2.5130     1.9000 C.3   1 <1>   0.1400 
  6 C       -0.7700     4.3480     1.0360 C.3   1 <1>   0.1400 
  7 C        2.0890     2.3300     0.2730 C.3   1 <1>  -0.0220 
  8 C       -2.8950     2.3210     0.5420 C.3   1 <1>   0.0000 
  9 C       -1.4410     4.2580    -0.3390 C.3   1 <1>  -0.1600 
 10 C        3.5710     2.6180     0.0130 C.2   1 <1>  -0.1240 
 11 C       -4.3240     1.7870     0.7480 C.3   1 <1>   0.2000 
 12 C       -2.8570     3.6590    -0.2490 C.3   1 <1>  -0.1600 
 13 C       -2.2650     1.1800    -0.2790 C.3   1 <1>  -0.1600 
 14 C        3.9710     3.8890    -0.5350 C.2   1 <1>   0.3750 
 15 C        4.5330     1.6850     0.2920 C.2   1 <1>  -0.1690 
 16 O       -5.2180     2.8090     1.0760 O.3   1 <1>  -0.5600 
 17 C       -4.7010     1.1080    -0.5710 C.3   1 <1>  -0.1600 
 18 C       -3.3740     0.6740    -1.2090 C.3   1 <1>  -0.1600 
 19 N        5.1960     4.1980    -0.7950 N.2   1 <1>  -0.5760 
 20 C        2.9460     4.9660    -0.8450 C.3   1 <1>  -0.1790 
 21 N        5.8460     2.0300     0.0000 N.pl3 1 <1>   0.6010 
 22 C        4.3250     0.2950     0.9000 C.3   1 <1>  -0.1020 
 23 C       -6.4510     2.3790     1.5600 C.3   1 <1>   0.0400 
 24 C        6.1440     3.2490    -0.5250 C.2   1 <1>   0.3120 
 25 N        6.9760     1.3410     0.1430 N.2   1 <1>  -0.7070 
 26 N        7.4190     3.3670    -0.7220 N.2   1 <1>  -0.5650 
 27 C        7.8580     2.1840    -0.2990 C.2   1 <1>   0.3660 
 28 H        1.8230     3.7120     1.9260 H     1 <1>   0.0800 
 29 H        2.3510     2.1380     2.3910 H     1 <1>   0.0800 
 30 H       -2.1910     1.5860     2.4460 H     1 <1>   0.0800 
 31 H       -2.7430     3.2320     2.4850 H     1 <1>   0.0800 
 32 H       -1.3080     5.0480     1.6530 H     1 <1>   0.0800 
 33 H        0.2320     4.7120     0.9250 H     1 <1>   0.0800 
 34 H        1.4570     2.8660    -0.4100 H     1 <1>   0.0800 
 35 H        1.8820     1.2910     0.0880 H     1 <1>   0.0800 
 36 H       -1.5020     5.2440    -0.7650 H     1 <1>   0.0800 
 37 H       -0.8290     3.6660    -0.9940 H     1 <1>   0.0800 
 38 H       -4.3180     1.0590     1.5420 H     1 <1>   0.0800 
 39 H       -3.2570     3.5260    -1.2380 H     1 <1>   0.0800 
 40 H       -3.4820     4.3780     0.2510 H     1 <1>   0.0800 
 41 H       -1.3900     1.4800    -0.8240 H     1 <1>   0.0800 
 42 H       -1.9820     0.3810     0.3860 H     1 <1>   0.0800 
 43 H       -5.3390     0.2610    -0.3960 H     1 <1>   0.0800 
 44 H       -5.1970     1.8110    -1.2170 H     1 <1>   0.0800 
 45 H       -3.3200    -0.3960    -1.3180 H     1 <1>   0.0800 
 46 H       -3.2750     1.1270    -2.1810 H     1 <1>   0.0800 
 47 H        2.3790     5.2050     0.0340 H     1 <1>   0.0800 
 48 H        2.2890     4.6390    -1.6290 H     1 <1>   0.0800 
 49 H        3.4390     5.8630    -1.1770 H     1 <1>   0.0800 
 50 H        4.9730     0.1700     1.7510 H     1 <1>   0.0800 
 51 H        4.5770    -0.4600     0.1760 H     1 <1>   0.0800 
 52 H        3.3200     0.1240     1.2340 H     1 <1>   0.0800 
 53 H       -7.0360     3.2500     1.8000 H     1 <1>   0.0800 
 54 H       -6.3000     1.7890     2.4460 H     1 <1>   0.0800 
 55 H       -6.9550     1.8060     0.8010 H     1 <1>   0.0800 
 56 H        8.9110     1.9530    -0.3310 H     1 <1>   0.1500 
@<TRIPOS>BOND
  1   1   2  2   
  2   2   3  am  
  3   2   4  1   
  4   3   5  1   
  5   3   6  1   
  6   4   7  1   
  7   4  28  1   
  8   4  29  1   
  9   5   8  1   
 10   5  30  1   
 11   5  31  1   
 12   6   9  1   
 13   6  32  1   
 14   6  33  1   
 15   7  10  1   
 16   7  34  1   
 17   7  35  1   
 18   8  11  1   
 19   8  12  1   
 20   8  13  1   
 21   9  12  1   
 22   9  36  1   
 23   9  37  1   
 24  10  14  1   
 25  10  15  2   
 26  11  16  1   
 27  11  17  1   
 28  11  38  1   
 29  12  39  1   
 30  12  40  1   
 31  13  18  1   
 32  13  41  1   
 33  13  42  1   
 34  14  19  2   
 35  14  20  1   
 36  15  21  1   
 37  15  22  1   
 38  16  23  1   
 39  17  18  1   
 40  17  43  1   
 41  17  44  1   
 42  18  45  1   
 43  18  46  1   
 44  19  24  1   
 45  20  47  1   
 46  20  48  1   
 47  20  49  1   
 48  21  24  1   
 49  21  25  1   
 50  22  50  1   
 51  22  51  1   
 52  22  52  1   
 53  23  53  1   
 54  23  54  1   
 55  23  55  1   
 56  24  26  2   
 57  25  27  2   
 58  26  27  1   
 59  27  56  1   
@<TRIPOS>SUBSTRUCTURE
  1 ****   7 GROUP 4 **** **** 0

# MOE 2024.06 (io_trps.svl 2023.06)
