@<TRIPOS>MOLECULE
NONAME
42 44 1 0 0 
SMALL
USER_CHARGES


@<TRIPOS>ATOM
  1 O       -0.1530     0.4060    -0.4420 O.2   1 <1>  -0.5700 
  2 C       -0.1160     1.5930    -0.1670 C.2   1 <1>   0.7160 
  3 N       -1.3100     2.2800    -0.0710 N.am  1 <1>  -0.6600 
  4 C        1.1660     2.2410     0.0340 C.2   1 <1>  -0.0860 
  5 C       -2.5990     1.5340    -0.0070 C.3   1 <1>   0.1400 
  6 C       -1.3930     3.7590    -0.2320 C.3   1 <1>   0.1400 
  7 C        1.5190     3.3030     0.8330 C.2   1 <1>  -0.3020 
  8 C        2.3670     1.8490    -0.5920 C.2   1 <1>  -0.1500 
  9 C       -3.6940     2.3880     0.6400 C.3   1 <1>  -0.1600 
 10 C       -2.7020     4.1350    -0.9250 C.3   1 <1>  -0.1600 
 11 N        2.8400     3.5690     0.7130 N.pl3 1 <1>   0.0330 
 12 C        3.3560     2.6720    -0.1650 C.2   1 <1>  -0.3020 
 13 C       -3.9200     3.7490    -0.0620 C.3   1 <1>   0.2800 
 14 O       -3.9980     4.6970     0.9700 O.3   1 <1>  -0.5600 
 15 C       -5.2110     3.7550    -0.9200 C.3   1 <1>  -0.1600 
 16 C       -4.7690     5.8380     0.7530 C.3   1 <1>   0.1200 
 17 C       -6.4750     4.1720    -0.1480 C.3   1 <1>   0.2800 
 18 C       -6.2410     5.4270     0.7150 C.3   1 <1>  -0.1600 
 19 O       -7.4220     4.4840    -1.0950 O.3   1 <1>  -0.6800 
 20 C       -7.0830     3.0360     0.6760 C.3   1 <1>  -0.2400 
 21 H       -2.4620     0.6310     0.5650 H     1 <1>   0.0800 
 22 H       -2.8890     1.2540    -1.0050 H     1 <1>   0.0800 
 23 H       -0.5620     4.1100    -0.8210 H     1 <1>   0.0800 
 24 H       -1.3500     4.2250     0.7380 H     1 <1>   0.0800 
 25 H        0.8790     3.8670     1.4880 H     1 <1>   0.1500 
 26 H        2.4400     1.0260    -1.2840 H     1 <1>   0.1500 
 27 H       -3.4130     2.5480     1.6670 H     1 <1>   0.0800 
 28 H       -4.5960     1.8080     0.6450 H     1 <1>   0.0800 
 29 H       -2.7390     3.6230    -1.8700 H     1 <1>   0.0800 
 30 H       -2.7100     5.1880    -1.1320 H     1 <1>   0.0800 
 31 H        3.3640     4.3030     1.2030 H     1 <1>   0.2700 
 32 H        4.3980     2.6640    -0.4350 H     1 <1>   0.1500 
 33 H       -5.3520     2.7910    -1.3750 H     1 <1>   0.0800 
 34 H       -5.0660     4.4530    -1.7250 H     1 <1>   0.0800 
 35 H       -4.4620     6.3030    -0.1680 H     1 <1>   0.0800 
 36 H       -4.5880     6.5210     1.5650 H     1 <1>   0.0800 
 37 H       -6.8270     6.2590     0.3670 H     1 <1>   0.0800 
 38 H       -6.5450     5.2340     1.7290 H     1 <1>   0.0800 
 39 H       -7.1130     5.2290    -1.6400 H     1 <1>   0.4000 
 40 H       -6.4490     2.7960     1.5090 H     1 <1>   0.0800 
 41 H       -7.2110     2.1570     0.0710 H     1 <1>   0.0800 
 42 H       -8.0410     3.3340     1.0650 H     1 <1>   0.0800 
@<TRIPOS>BOND
  1   1   2  2   
  2   2   3  am  
  3   2   4  1   
  4   3   5  1   
  5   3   6  1   
  6   4   7  2   
  7   4   8  1   
  8   5   9  1   
  9   5  21  1   
 10   5  22  1   
 11   6  10  1   
 12   6  23  1   
 13   6  24  1   
 14   7  11  1   
 15   7  25  1   
 16   8  12  2   
 17   8  26  1   
 18   9  13  1   
 19   9  27  1   
 20   9  28  1   
 21  10  13  1   
 22  10  29  1   
 23  10  30  1   
 24  11  12  1   
 25  11  31  1   
 26  12  32  1   
 27  13  14  1   
 28  13  15  1   
 29  14  16  1   
 30  15  17  1   
 31  15  33  1   
 32  15  34  1   
 33  16  18  1   
 34  16  35  1   
 35  16  36  1   
 36  17  18  1   
 37  17  19  1   
 38  17  20  1   
 39  18  37  1   
 40  18  38  1   
 41  19  39  1   
 42  20  40  1   
 43  20  41  1   
 44  20  42  1   
@<TRIPOS>SUBSTRUCTURE
  1 ****   6 GROUP 4 **** **** 0

# MOE 2024.06 (io_trps.svl 2023.06)
