@<TRIPOS>MOLECULE
NONAME
50 52 1 0 0 
SMALL
USER_CHARGES


@<TRIPOS>ATOM
  1 O       -0.4880     1.3620    -1.1540 O.2   1 <1>  -0.5700 
  2 C       -0.6760     2.5320    -0.9170 C.2   1 <1>   0.5690 
  3 N       -1.5200     2.9870     0.0640 N.am  1 <1>  -0.6600 
  4 C        0.0660     3.5520    -1.7750 C.3   1 <1>   0.1810 
  5 C       -1.7210     4.4620     0.2760 C.3   1 <1>   0.3640 
  6 C       -2.2340     2.1170     1.0400 C.3   1 <1>   0.2200 
  7 O        0.3710     4.7150    -1.0500 O.3   1 <1>  -0.5600 
  8 C       -3.1750     4.8190    -0.0470 C.ar  1 <1>  -0.1440 
  9 C       -0.7670     5.3910    -0.5330 C.3   1 <1>   0.2610 
 10 C       -1.2280     1.3800     1.9220 C.3   1 <1>  -0.2400 
 11 C       -3.1900     1.1540     0.3350 C.3   1 <1>  -0.2400 
 12 C       -3.9050     5.6090     0.8300 C.ar  1 <1>  -0.1500 
 13 C       -3.7840     4.3730    -1.2140 C.ar  1 <1>  -0.1500 
 14 C       -0.3280     6.5840     0.3300 C.2   1 <1>   0.5690 
 15 C       -5.2180     5.9450     0.5500 C.ar  1 <1>  -0.1500 
 16 C       -5.0980     4.7070    -1.4950 C.ar  1 <1>  -0.1500 
 17 O       -1.1370     7.1470     1.0310 O.2   1 <1>  -0.5700 
 18 N        0.9710     6.9860     0.2940 N.am  1 <1>  -0.7300 
 19 C       -5.8160     5.4930    -0.6130 C.ar  1 <1>  -0.1500 
 20 C        1.5530     8.1200     1.0390 C.3   1 <1>   0.1400 
 21 C        2.5940     8.8200     0.1680 C.3   1 <1>  -0.1600 
 22 C        3.2240    10.0130     0.9060 C.3   1 <1>   0.0080 
 23 C        4.3060    10.6730     0.0830 C.2   1 <1>   0.5690 
 24 N        4.1190    11.7350    -0.6140 N.2   1 <1>  -0.6190 
 25 N        5.5110    10.2230     0.0140 N.2   1 <1>  -0.6190 
 26 N        5.2610    11.9800    -1.1570 N.2   1 <1>  -0.2500 
 27 N        6.1060    11.0620    -0.7760 N.2   1 <1>  -0.2500 
 28 H       -0.5300     3.8180    -2.6280 H     1 <1>   0.0800 
 29 H        0.9920     3.1250    -2.1130 H     1 <1>   0.0800 
 30 H       -1.5510     4.6530     1.3220 H     1 <1>   0.0800 
 31 H       -2.8330     2.7410     1.6840 H     1 <1>   0.0800 
 32 H       -1.3010     5.7900    -1.3750 H     1 <1>   0.0800 
 33 H       -0.6480     0.6850     1.3430 H     1 <1>   0.0800 
 34 H       -1.7470     0.8290     2.6850 H     1 <1>   0.0800 
 35 H       -0.5680     2.0820     2.3990 H     1 <1>   0.0800 
 36 H       -2.6540     0.4410    -0.2650 H     1 <1>   0.0800 
 37 H       -3.8760     1.6990    -0.2870 H     1 <1>   0.0800 
 38 H       -3.7600     0.6110     1.0660 H     1 <1>   0.0800 
 39 H       -3.4540     5.9770     1.7360 H     1 <1>   0.1500 
 40 H       -3.2430     3.7540    -1.9080 H     1 <1>   0.1500 
 41 H       -5.7720     6.5600     1.2370 H     1 <1>   0.1500 
 42 H       -5.5610     4.3540    -2.4000 H     1 <1>   0.1500 
 43 H        1.6180     6.4380    -0.2840 H     1 <1>   0.3700 
 44 H       -6.8370     5.7550    -0.8300 H     1 <1>   0.1500 
 45 H        0.7740     8.8120     1.3130 H     1 <1>   0.0800 
 46 H        2.0140     7.7490     1.9390 H     1 <1>   0.0800 
 47 H        3.3760     8.1300    -0.0950 H     1 <1>   0.0800 
 48 H        2.1340     9.1800    -0.7360 H     1 <1>   0.0800 
 49 H        3.6680     9.6880     1.8280 H     1 <1>   0.0800 
 50 H        2.4750    10.7500     1.1290 H     1 <1>   0.0800 
@<TRIPOS>BOND
  1   1   2  2   
  2   2   3  am  
  3   2   4  1   
  4   3   5  1   
  5   3   6  1   
  6   4   7  1   
  7   4  28  1   
  8   4  29  1   
  9   5   8  1   
 10   5   9  1   
 11   5  30  1   
 12   6  10  1   
 13   6  11  1   
 14   6  31  1   
 15   7   9  1   
 16   8  12  ar  
 17   8  13  ar  
 18   9  14  1   
 19   9  32  1   
 20  10  33  1   
 21  10  34  1   
 22  10  35  1   
 23  11  36  1   
 24  11  37  1   
 25  11  38  1   
 26  12  15  ar  
 27  12  39  1   
 28  13  16  ar  
 29  13  40  1   
 30  14  17  2   
 31  14  18  am  
 32  15  19  ar  
 33  15  41  1   
 34  16  19  ar  
 35  16  42  1   
 36  18  20  1   
 37  18  43  1   
 38  19  44  1   
 39  20  21  1   
 40  20  45  1   
 41  20  46  1   
 42  21  22  1   
 43  21  47  1   
 44  21  48  1   
 45  22  23  1   
 46  22  49  1   
 47  22  50  1   
 48  23  24  1   
 49  23  25  2   
 50  24  26  1   
 51  25  27  1   
 52  26  27  2   
@<TRIPOS>SUBSTRUCTURE
  1 ****  14 GROUP 4 **** **** 0

# MOE 2024.06 (io_trps.svl 2023.06)
