@<TRIPOS>MOLECULE
NONAME
53 56 1 0 0 
SMALL
USER_CHARGES


@<TRIPOS>ATOM
  1 CL       1.5740    -3.4710     2.5040 Cl    1 <1>  -0.1770 
  2 C        1.7950    -2.8470     0.8790 C.ar  1 <1>   0.1770 
  3 C        0.7380    -2.8600    -0.0410 C.ar  1 <1>   0.1000 
  4 C        3.0400    -2.3480     0.5480 C.ar  1 <1>  -0.1500 
  5 N       -0.5440    -3.3530     0.2320 N.pl3 1 <1>  -0.8380 
  6 C        0.9860    -2.3480    -1.3090 C.ar  1 <1>  -0.1500 
  7 C        3.2610    -1.8440    -0.7230 C.ar  1 <1>  -0.1500 
  8 C       -1.3630    -2.5510     1.1660 C.3   1 <1>   0.2090 
  9 C       -0.6530    -4.8160     0.4120 C.3   1 <1>   0.2090 
 10 C        2.2310    -1.8460    -1.6490 C.ar  1 <1>  -0.1500 
 11 C       -2.8270    -2.8980     0.9160 C.3   1 <1>  -0.1600 
 12 C       -2.1000    -5.2110     0.1370 C.3   1 <1>  -0.1600 
 13 C       -3.0410    -4.4090     1.0500 C.3   1 <1>   0.4230 
 14 N       -4.4740    -4.7350     0.7970 N.4   1 <1>  -0.9590 
 15 C       -5.0110    -4.4320    -0.5660 C.3   1 <1>   0.3430 
 16 C       -4.8640    -6.1450     1.1130 C.3   1 <1>   0.3430 
 17 C       -6.2300    -5.3440    -0.7070 C.3   1 <1>   0.2000 
 18 C       -5.7650    -6.6330    -0.0340 C.3   1 <1>  -0.0800 
 19 O       -7.2570    -4.8060     0.0580 O.3   1 <1>  -0.6800 
 20 C       -5.0140    -7.5500    -1.0260 C.3   1 <1>   0.0200 
 21 C       -4.1920    -8.6020    -0.3070 C.2   1 <1>  -0.0400 
 22 O       -4.6940    -9.2310     0.7210 O.3   1 <1>  -0.0190 
 23 C       -2.9430    -9.0530    -0.4970 C.2   1 <1>  -0.1500 
 24 N       -3.8420   -10.0610     1.2420 N.2   1 <1>  -0.4100 
 25 C       -2.7800    -9.9860     0.5230 C.2   1 <1>   0.1080 
 26 C       -1.5320   -10.8070     0.7630 C.3   1 <1>  -0.0590 
 27 H        3.8280    -2.3530     1.2790 H     1 <1>   0.1500 
 28 H        0.1900    -2.3460    -2.0300 H     1 <1>   0.1500 
 29 H        4.2280    -1.4530    -0.9900 H     1 <1>   0.1500 
 30 H       -1.0870    -2.7740     2.1830 H     1 <1>   0.0800 
 31 H       -1.1930    -1.5010     0.9890 H     1 <1>   0.0800 
 32 H        0.0090    -5.3160    -0.2760 H     1 <1>   0.0800 
 33 H       -0.3690    -5.0860     1.4160 H     1 <1>   0.0800 
 34 H        2.3980    -1.4540    -2.6380 H     1 <1>   0.1500 
 35 H       -3.0780    -2.5570    -0.0720 H     1 <1>   0.0800 
 36 H       -3.4330    -2.3710     1.6310 H     1 <1>   0.0800 
 37 H       -2.1960    -6.2640     0.3190 H     1 <1>   0.0800 
 38 H       -2.2980    -5.0130    -0.8990 H     1 <1>   0.0800 
 39 H       -2.8070    -4.6760     2.0690 H     1 <1>   0.0800 
 40 H       -5.0460    -4.1530     1.4270 H     1 <1>   0.4500 
 41 H       -5.2860    -3.3950    -0.6720 H     1 <1>   0.0800 
 42 H       -4.2850    -4.6880    -1.3190 H     1 <1>   0.0800 
 43 H       -4.0010    -6.7790     1.2300 H     1 <1>   0.0800 
 44 H       -5.4220    -6.1630     2.0360 H     1 <1>   0.0800 
 45 H       -6.5660    -5.4580    -1.7240 H     1 <1>   0.0800 
 46 H       -6.5940    -7.1890     0.3680 H     1 <1>   0.0800 
 47 H       -8.1060    -5.2720    -0.1010 H     1 <1>   0.4000 
 48 H       -4.3540    -6.9830    -1.6580 H     1 <1>   0.0800 
 49 H       -5.7290    -8.0470    -1.6590 H     1 <1>   0.0800 
 50 H       -2.2100    -8.7910    -1.2390 H     1 <1>   0.1500 
 51 H       -0.6780   -10.1620     0.8560 H     1 <1>   0.0800 
 52 H       -1.3780   -11.4830    -0.0580 H     1 <1>   0.0800 
 53 H       -1.6360   -11.3790     1.6670 H     1 <1>   0.0800 
@<TRIPOS>BOND
  1   1   2  1   
  2   2   3  ar  
  3   2   4  ar  
  4   3   5  1   
  5   3   6  ar  
  6   4   7  ar  
  7   4  27  1   
  8   5   8  1   
  9   5   9  1   
 10   6  10  ar  
 11   6  28  1   
 12   7  10  ar  
 13   7  29  1   
 14   8  11  1   
 15   8  30  1   
 16   8  31  1   
 17   9  12  1   
 18   9  32  1   
 19   9  33  1   
 20  10  34  1   
 21  11  13  1   
 22  11  35  1   
 23  11  36  1   
 24  12  13  1   
 25  12  37  1   
 26  12  38  1   
 27  13  14  1   
 28  13  39  1   
 29  14  15  1   
 30  14  16  1   
 31  14  40  1   
 32  15  17  1   
 33  15  41  1   
 34  15  42  1   
 35  16  18  1   
 36  16  43  1   
 37  16  44  1   
 38  17  18  1   
 39  17  19  1   
 40  17  45  1   
 41  18  20  1   
 42  18  46  1   
 43  19  47  1   
 44  20  21  1   
 45  20  48  1   
 46  20  49  1   
 47  21  22  1   
 48  21  23  2   
 49  22  24  1   
 50  23  25  1   
 51  23  50  1   
 52  24  25  2   
 53  25  26  1   
 54  26  51  1   
 55  26  52  1   
 56  26  53  1   
@<TRIPOS>SUBSTRUCTURE
  1 ****  12 GROUP 4 **** **** 0

# MOE 2024.06 (io_trps.svl 2023.06)
