@<TRIPOS>MOLECULE
NONAME
39 40 1 0 0 
SMALL
USER_CHARGES


@<TRIPOS>ATOM
  1 S       -0.1810    -0.5900    -1.6450 S.3   1 <1>  -0.0800 
  2 C        1.0460    -0.7900    -0.4170 C.2   1 <1>   0.2280 
  3 C       -0.7190    -2.2130    -1.3240 C.2   1 <1>  -0.1100 
  4 N        1.0430    -1.9290     0.1540 N.2   1 <1>  -0.5650 
  5 C        0.0440    -2.7450    -0.3540 C.2   1 <1>   0.0460 
  6 C       -0.0510    -4.1340     0.2560 C.3   1 <1>   0.0210 
  7 C       -1.2780    -4.9110    -0.2270 C.3   1 <1>   0.1400 
  8 N       -1.3330    -6.2430     0.4250 N.am  1 <1>  -0.7300 
  9 C       -1.2670    -7.4350    -0.2310 C.2   1 <1>   0.5690 
 10 O       -1.1520    -7.4900    -1.4330 O.2   1 <1>  -0.5700 
 11 C       -1.3370    -8.7400     0.5760 C.3   1 <1>   0.1710 
 12 N       -2.6980    -9.3120     0.7770 N.3   1 <1>  -0.8100 
 13 C       -3.2940    -9.7070    -0.5160 C.3   1 <1>   0.2530 
 14 C       -3.5730    -8.4300     1.5600 C.3   1 <1>   0.0300 
 15 C       -4.5570   -10.5330    -0.3180 C.ar  1 <1>  -0.1430 
 16 C       -4.4970   -11.8900    -0.0320 C.ar  1 <1>   0.1900 
 17 C       -5.8120    -9.9500    -0.4270 C.ar  1 <1>  -0.1500 
 18 F       -3.3350   -12.4830     0.0590 F     1 <1>  -0.1900 
 19 C       -5.6290   -12.6610     0.1530 C.ar  1 <1>  -0.1500 
 20 C       -6.9600   -10.7080    -0.2460 C.ar  1 <1>  -0.1500 
 21 C       -6.8720   -12.0600     0.0450 C.ar  1 <1>  -0.1500 
 22 H        1.7010     0.0440    -0.2370 H     1 <1>   0.1500 
 23 H       -1.5460    -2.5860    -1.9010 H     1 <1>   0.1500 
 24 H       -0.0950    -4.0290     1.3240 H     1 <1>   0.0800 
 25 H        0.8400    -4.6780     0.0010 H     1 <1>   0.0800 
 26 H       -1.2290    -5.0300    -1.2970 H     1 <1>   0.0800 
 27 H       -2.1740    -4.3650     0.0120 H     1 <1>   0.0800 
 28 H       -1.4570    -6.2410     1.4390 H     1 <1>   0.3700 
 29 H       -0.8890    -8.5730     1.5390 H     1 <1>   0.0800 
 30 H       -0.7290    -9.4710     0.0730 H     1 <1>   0.0800 
 31 H       -2.5820   -10.2930    -1.0730 H     1 <1>   0.0800 
 32 H       -3.5180    -8.8300    -1.1000 H     1 <1>   0.0800 
 33 H       -3.0830    -8.1440     2.4750 H     1 <1>   0.0800 
 34 H       -4.4790    -8.9510     1.8200 H     1 <1>   0.0800 
 35 H       -3.8260    -7.5470     0.9990 H     1 <1>   0.0800 
 36 H       -5.9000    -8.9010    -0.6530 H     1 <1>   0.1500 
 37 H       -5.5340   -13.7080     0.3760 H     1 <1>   0.1500 
 38 H       -7.9260   -10.2420    -0.3320 H     1 <1>   0.1500 
 39 H       -7.7660   -12.6420     0.1860 H     1 <1>   0.1500 
@<TRIPOS>BOND
  1   1   2  1   
  2   1   3  1   
  3   2   4  2   
  4   2  22  1   
  5   3   5  2   
  6   3  23  1   
  7   4   5  1   
  8   5   6  1   
  9   6   7  1   
 10   6  24  1   
 11   6  25  1   
 12   7   8  1   
 13   7  26  1   
 14   7  27  1   
 15   8   9  am  
 16   8  28  1   
 17   9  10  2   
 18   9  11  1   
 19  11  12  1   
 20  11  29  1   
 21  11  30  1   
 22  12  13  1   
 23  12  14  1   
 24  13  15  1   
 25  13  31  1   
 26  13  32  1   
 27  14  33  1   
 28  14  34  1   
 29  14  35  1   
 30  15  16  ar  
 31  15  17  ar  
 32  16  18  1   
 33  16  19  ar  
 34  17  20  ar  
 35  17  36  1   
 36  19  21  ar  
 37  19  37  1   
 38  20  21  ar  
 39  20  38  1   
 40  21  39  1   
@<TRIPOS>SUBSTRUCTURE
  1 ****   9 GROUP 4 **** **** 0

# MOE 2024.06 (io_trps.svl 2023.06)
