@<TRIPOS>MOLECULE
NONAME
48 49 1 0 0 
SMALL
USER_CHARGES


@<TRIPOS>ATOM
  1 S        1.0680     1.3030    -1.1280 S.o2  1 <1>   1.3330 
  2 O        1.7000     0.0530    -1.4830 O.2   1 <1>  -0.6500 
  3 O        0.3570     2.0400    -2.1480 O.2   1 <1>  -0.6500 
  4 N        2.2920     2.3100    -0.5250 N.am  1 <1>  -0.8490 
  5 C       -0.0700     0.9790     0.2350 C.3   1 <1>  -0.0550 
  6 C        3.2200     1.6380     0.3890 C.3   1 <1>   0.1160 
  7 C        3.0530     2.9490    -1.6030 C.3   1 <1>   0.1160 
  8 C       -0.7990     2.1430     0.9570 C.3   1 <1>  -0.0800 
  9 C       -1.4350     3.1920     0.0360 C.3   1 <1>   0.2000 
 10 C        0.1090     2.9550     1.8860 C.3   1 <1>   0.1400 
 11 O       -2.5550     3.6890     0.6850 O.3   1 <1>  -0.6800 
 12 C       -0.4060     4.3220    -0.0650 C.3   1 <1>   0.1400 
 13 N        0.4380     4.1960     1.1530 N.am  1 <1>  -0.6600 
 14 C        1.6090     4.8630     1.3830 C.2   1 <1>   0.5690 
 15 O        2.3080     4.5930     2.3330 O.2   1 <1>  -0.5700 
 16 C        2.0500     5.9630     0.4330 C.3   1 <1>  -0.0990 
 17 C        3.4990     6.3800     0.6740 C.3   1 <1>   0.1200 
 18 O        3.8650     7.3110    -0.3200 O.3   1 <1>  -0.3630 
 19 C        5.1120     7.8450    -0.3530 C.ar  1 <1>   0.0820 
 20 C        6.1160     7.5250     0.5580 C.ar  1 <1>  -0.1500 
 21 C        5.3740     8.7600    -1.3600 C.ar  1 <1>  -0.1500 
 22 C        7.3630     8.1180     0.4510 C.ar  1 <1>  -0.1500 
 23 C        6.6210     9.3520    -1.4660 C.ar  1 <1>  -0.1500 
 24 C        7.6160     9.0310    -0.5590 C.ar  1 <1>  -0.1500 
 25 H       -0.8350     0.3350    -0.1550 H     1 <1>   0.0800 
 26 H        0.4480     0.4030     0.9760 H     1 <1>   0.0800 
 27 H        3.9040     2.3550     0.8110 H     1 <1>   0.0800 
 28 H        3.7820     0.8790    -0.1320 H     1 <1>   0.0800 
 29 H        2.6830     1.1750     1.1970 H     1 <1>   0.0800 
 30 H        3.8010     3.6070    -1.1950 H     1 <1>   0.0800 
 31 H        2.3950     3.5320    -2.2250 H     1 <1>   0.0800 
 32 H        3.5330     2.2030    -2.2150 H     1 <1>   0.0800 
 33 H       -1.5640     1.6800     1.5560 H     1 <1>   0.0800 
 34 H       -1.7460     2.8100    -0.9220 H     1 <1>   0.0800 
 35 H        1.0010     2.4170     2.1550 H     1 <1>   0.0800 
 36 H       -0.4190     3.2190     2.7860 H     1 <1>   0.0800 
 37 H       -2.2740     4.1840     1.4790 H     1 <1>   0.4000 
 38 H       -0.8810     5.2860    -0.1170 H     1 <1>   0.0800 
 39 H        0.2050     4.1850    -0.9380 H     1 <1>   0.0800 
 40 H        1.9640     5.6090    -0.5760 H     1 <1>   0.0800 
 41 H        1.4070     6.8110     0.5690 H     1 <1>   0.0800 
 42 H        4.1530     5.5280     0.6000 H     1 <1>   0.0800 
 43 H        3.6050     6.8450     1.6390 H     1 <1>   0.0800 
 44 H        5.9490     6.8230     1.3520 H     1 <1>   0.1500 
 45 H        4.5960     9.0060    -2.0600 H     1 <1>   0.1500 
 46 H        8.1370     7.8690     1.1560 H     1 <1>   0.1500 
 47 H        6.8150    10.0620    -2.2510 H     1 <1>   0.1500 
 48 H        8.5860     9.4900    -0.6390 H     1 <1>   0.1500 
@<TRIPOS>BOND
  1   1   2  2   
  2   1   3  2   
  3   1   4  am  
  4   1   5  1   
  5   4   6  1   
  6   4   7  1   
  7   5   8  1   
  8   5  25  1   
  9   5  26  1   
 10   6  27  1   
 11   6  28  1   
 12   6  29  1   
 13   7  30  1   
 14   7  31  1   
 15   7  32  1   
 16   8   9  1   
 17   8  10  1   
 18   8  33  1   
 19   9  11  1   
 20   9  12  1   
 21   9  34  1   
 22  10  13  1   
 23  10  35  1   
 24  10  36  1   
 25  11  37  1   
 26  12  13  1   
 27  12  38  1   
 28  12  39  1   
 29  13  14  am  
 30  14  15  2   
 31  14  16  1   
 32  16  17  1   
 33  16  40  1   
 34  16  41  1   
 35  17  18  1   
 36  17  42  1   
 37  17  43  1   
 38  18  19  1   
 39  19  20  ar  
 40  19  21  ar  
 41  20  22  ar  
 42  20  44  1   
 43  21  23  ar  
 44  21  45  1   
 45  22  24  ar  
 46  22  46  1   
 47  23  24  ar  
 48  23  47  1   
 49  24  48  1   
@<TRIPOS>SUBSTRUCTURE
  1 ****  16 GROUP 4 **** **** 0

# MOE 2024.06 (io_trps.svl 2023.06)
