@<TRIPOS>MOLECULE
NONAME
44 47 1 0 0 
SMALL
USER_CHARGES


@<TRIPOS>ATOM
  1 O       -3.2600     0.1710    -2.7690 O.2   1 <1>  -0.5700 
  2 C       -3.1110    -0.4200    -1.7350 C.2   1 <1>   0.5690 
  3 N       -2.8640     0.2520    -0.5980 N.am  1 <1>  -0.7300 
  4 C       -3.2380    -1.9190    -1.7070 C.3   1 <1>  -0.0190 
  5 C       -2.6560    -0.3560     0.7360 C.3   1 <1>   0.2200 
  6 C       -1.9210    -2.5930    -1.2600 C.3   1 <1>   0.1200 
  7 C       -4.5030    -2.2850    -0.9200 C.3   1 <1>   0.3430 
  8 C       -1.4350    -1.3110     0.7090 C.3   1 <1>   0.1200 
  9 C       -3.9650    -1.0290     1.2380 C.3   1 <1>   0.3430 
 10 O       -1.7220    -2.5590     0.1290 O.3   1 <1>  -0.5600 
 11 N       -4.3100    -2.3340     0.5700 N.4   1 <1>  -0.9590 
 12 C       -5.4230    -3.0450     1.2560 C.3   1 <1>   0.4860 
 13 C       -5.4870    -4.4730     0.7450 C.ar  1 <1>  -0.1440 
 14 C       -6.5510    -4.9030    -0.0580 C.ar  1 <1>   0.0530 
 15 C       -4.4690    -5.3490     1.0940 C.ar  1 <1>  -0.1500 
 16 C       -7.6470    -4.0490    -0.4600 C.2   1 <1>   0.0870 
 17 C       -6.5450    -6.2290    -0.4880 C.ar  1 <1>  -0.1500 
 18 C       -4.4860    -6.6580     0.6500 C.ar  1 <1>  -0.1500 
 19 O       -7.4310    -2.8050    -0.8710 O.3   1 <1>  -0.2800 
 20 C       -8.9810    -4.3020    -0.5220 C.2   1 <1>  -0.1500 
 21 C       -5.5280    -7.0970    -0.1430 C.ar  1 <1>  -0.1500 
 22 C       -8.5860    -2.2620    -1.1950 C.2   1 <1>  -0.0100 
 23 C       -9.5900    -3.1400    -0.9990 C.2   1 <1>  -0.1500 
 24 H       -2.7430     1.2660    -0.6940 H     1 <1>   0.3700 
 25 H       -3.4100    -2.2170    -2.7260 H     1 <1>   0.0800 
 26 H       -2.4220     0.4500     1.4110 H     1 <1>   0.0800 
 27 H       -1.0730    -2.1350    -1.7430 H     1 <1>   0.0800 
 28 H       -1.9410    -3.6320    -1.5440 H     1 <1>   0.0800 
 29 H       -4.8210    -3.2570    -1.2590 H     1 <1>   0.0800 
 30 H       -5.2900    -1.5900    -1.1650 H     1 <1>   0.0800 
 31 H       -1.1200    -1.5080     1.7190 H     1 <1>   0.0800 
 32 H       -0.6060    -0.8620     0.1870 H     1 <1>   0.0800 
 33 H       -4.7780    -0.3330     1.1160 H     1 <1>   0.0800 
 34 H       -3.8490    -1.2100     2.2940 H     1 <1>   0.0800 
 35 H       -3.4590    -2.9210     0.6760 H     1 <1>   0.4500 
 36 H       -5.2440    -3.0670     2.3180 H     1 <1>   0.0800 
 37 H       -6.3560    -2.5330     1.0870 H     1 <1>   0.0800 
 38 H       -3.6490    -5.0320     1.7170 H     1 <1>   0.1500 
 39 H       -7.3490    -6.5860    -1.1080 H     1 <1>   0.1500 
 40 H       -3.6940    -7.3360     0.9220 H     1 <1>   0.1500 
 41 H       -9.4940    -5.2110    -0.2630 H     1 <1>   0.1500 
 42 H       -5.5460    -8.1170    -0.4890 H     1 <1>   0.1500 
 43 H       -8.6130    -1.2490    -1.5600 H     1 <1>   0.1500 
 44 H      -10.6450    -3.0060    -1.1670 H     1 <1>   0.1500 
@<TRIPOS>BOND
  1   1   2  2   
  2   2   3  am  
  3   2   4  1   
  4   3   5  1   
  5   3  24  1   
  6   4   6  1   
  7   4   7  1   
  8   4  25  1   
  9   5   8  1   
 10   5   9  1   
 11   5  26  1   
 12   6  10  1   
 13   6  27  1   
 14   6  28  1   
 15   7  11  1   
 16   7  29  1   
 17   7  30  1   
 18   8  10  1   
 19   8  31  1   
 20   8  32  1   
 21   9  11  1   
 22   9  33  1   
 23   9  34  1   
 24  11  12  1   
 25  11  35  1   
 26  12  13  1   
 27  12  36  1   
 28  12  37  1   
 29  13  14  ar  
 30  13  15  ar  
 31  14  16  1   
 32  14  17  ar  
 33  15  18  ar  
 34  15  38  1   
 35  16  19  1   
 36  16  20  2   
 37  17  21  ar  
 38  17  39  1   
 39  18  21  ar  
 40  18  40  1   
 41  19  22  1   
 42  20  23  1   
 43  20  41  1   
 44  21  42  1   
 45  22  23  2   
 46  22  43  1   
 47  23  44  1   
@<TRIPOS>SUBSTRUCTURE
  1 ****   7 GROUP 4 **** **** 0

# MOE 2024.06 (io_trps.svl 2023.06)
