@<TRIPOS>MOLECULE
NONAME
51 53 1 0 0 
SMALL
USER_CHARGES


@<TRIPOS>ATOM
  1 O       -0.4150     0.5730     0.2690 O.3   1 <1>  -0.3630 
  2 C       -1.2180    -0.4470    -0.1310 C.ar  1 <1>   0.0830 
  3 C       -0.0500     1.6050    -0.6230 C.3   1 <1>   0.1200 
  4 C       -1.7100    -0.5870    -1.4260 C.ar  1 <1>  -0.1500 
  5 C       -1.5520    -1.3900     0.8290 C.ar  1 <1>  -0.1500 
  6 C        0.8300     2.6240     0.1130 C.3   1 <1>  -0.0800 
  7 C       -2.5260    -1.6600    -1.7420 C.ar  1 <1>  -0.1500 
  8 C       -2.3680    -2.4620     0.5130 C.ar  1 <1>  -0.1500 
  9 C        1.1400     3.8230    -0.7990 C.3   1 <1>  -0.1600 
 10 C        2.1500     1.9940     0.5920 C.3   1 <1>  -0.1600 
 11 C       -2.8600    -2.6010    -0.7820 C.ar  1 <1>   0.0830 
 12 C        2.0330     4.8540    -0.1040 C.3   1 <1>   0.2090 
 13 C        3.0610     3.0190     1.2730 C.3   1 <1>   0.2090 
 14 O       -3.6660    -3.6200    -1.1810 O.3   1 <1>  -0.3630 
 15 N        3.2700     4.2000     0.3910 N.pl3 1 <1>  -0.8380 
 16 C       -4.0630    -4.6280    -0.2780 C.3   1 <1>   0.0400 
 17 C        4.4470     4.3470    -0.3670 C.ar  1 <1>   0.4100 
 18 N        4.9920     3.2060    -0.7630 N.ar  1 <1>  -0.6200 
 19 C        5.0090     5.6360    -0.7040 C.ar  1 <1>   0.4100 
 20 C        6.0700     3.3780    -1.5110 C.ar  1 <1>   0.1600 
 21 N        6.0850     5.7680    -1.4660 N.ar  1 <1>  -0.6200 
 22 N        4.4760     6.8520    -0.2310 N.pl3 1 <1>  -0.8380 
 23 C        6.5920     4.6080    -1.8530 C.ar  1 <1>   0.1600 
 24 C        4.4300     7.0360     1.2430 C.3   1 <1>   0.1290 
 25 C        4.7150     8.1080    -0.9940 C.3   1 <1>   0.1290 
 26 H       -0.9510     2.0740    -0.9770 H     1 <1>   0.0800 
 27 H        0.4880     1.1670    -1.4470 H     1 <1>   0.0800 
 28 H       -1.4720     0.1210    -2.1970 H     1 <1>   0.1500 
 29 H       -1.1670    -1.2750     1.8260 H     1 <1>   0.1500 
 30 H        0.2830     2.9840     0.9680 H     1 <1>   0.0800 
 31 H       -2.9110    -1.7760    -2.7390 H     1 <1>   0.1500 
 32 H       -2.6060    -3.1720     1.2810 H     1 <1>   0.1500 
 33 H        0.2250     4.3030    -1.0980 H     1 <1>   0.0800 
 34 H        1.6440     3.4870    -1.6890 H     1 <1>   0.0800 
 35 H        2.6810     1.5730    -0.2440 H     1 <1>   0.0800 
 36 H        1.9480     1.1960     1.2840 H     1 <1>   0.0800 
 37 H        1.5140     5.2950     0.7280 H     1 <1>   0.0800 
 38 H        2.2770     5.6380    -0.8000 H     1 <1>   0.0800 
 39 H        4.0080     2.5660     1.5140 H     1 <1>   0.0800 
 40 H        2.6100     3.3500     2.1920 H     1 <1>   0.0800 
 41 H       -4.6910    -5.3210    -0.8080 H     1 <1>   0.0800 
 42 H       -4.6150    -4.1770     0.5280 H     1 <1>   0.0800 
 43 H       -3.1870    -5.1340     0.0870 H     1 <1>   0.0800 
 44 H        6.5560     2.4890    -1.8690 H     1 <1>   0.1500 
 45 H        7.4700     4.6470    -2.4710 H     1 <1>   0.1500 
 46 H        4.5520     6.0920     1.7470 H     1 <1>   0.0800 
 47 H        3.4800     7.4550     1.5250 H     1 <1>   0.0800 
 48 H        5.2200     7.6960     1.5570 H     1 <1>   0.0800 
 49 H        4.6240     7.9160    -2.0490 H     1 <1>   0.0800 
 50 H        5.7070     8.4740    -0.7920 H     1 <1>   0.0800 
 51 H        3.9920     8.8530    -0.7140 H     1 <1>   0.0800 
@<TRIPOS>BOND
  1   1   2  1   
  2   1   3  1   
  3   2   4  ar  
  4   2   5  ar  
  5   3   6  1   
  6   3  26  1   
  7   3  27  1   
  8   4   7  ar  
  9   4  28  1   
 10   5   8  ar  
 11   5  29  1   
 12   6   9  1   
 13   6  10  1   
 14   6  30  1   
 15   7  11  ar  
 16   7  31  1   
 17   8  11  ar  
 18   8  32  1   
 19   9  12  1   
 20   9  33  1   
 21   9  34  1   
 22  10  13  1   
 23  10  35  1   
 24  10  36  1   
 25  11  14  1   
 26  12  15  1   
 27  12  37  1   
 28  12  38  1   
 29  13  15  1   
 30  13  39  1   
 31  13  40  1   
 32  14  16  1   
 33  15  17  1   
 34  16  41  1   
 35  16  42  1   
 36  16  43  1   
 37  17  18  ar  
 38  17  19  ar  
 39  18  20  ar  
 40  19  21  ar  
 41  19  22  1   
 42  20  23  ar  
 43  20  44  1   
 44  21  23  ar  
 45  22  24  1   
 46  22  25  1   
 47  23  45  1   
 48  24  46  1   
 49  24  47  1   
 50  24  48  1   
 51  25  49  1   
 52  25  50  1   
 53  25  51  1   
@<TRIPOS>SUBSTRUCTURE
  1 ****   6 GROUP 4 **** **** 0

# MOE 2024.06 (io_trps.svl 2023.06)
