@<TRIPOS>MOLECULE
Untitled Document
34 34 1 0 0 
SMALL
USER_CHARGES


@<TRIPOS>ATOM
  1 S        0.4960     0.7590     0.3820 S.3   1 <1>  -0.4100 
  2 C        2.1480     0.0520     0.6250 C.3   1 <1>   0.0700 
  3 C        2.8780     0.0680    -0.7180 C.3   1 <1>   0.1400 
  4 N        4.1680    -0.6600    -0.6140 N.am  1 <1>  -0.7300 
  5 C        5.2870    -0.1700     0.0010 C.2   1 <1>   0.5440 
  6 O        5.2150     0.8990     0.5730 O.2   1 <1>  -0.5700 
  7 C        6.5370    -0.9080    -0.0360 C.ar  1 <1>   0.0860 
  8 C        7.7580    -0.2410    -0.0960 C.ar  1 <1>  -0.1500 
  9 C        6.5680    -2.3020    -0.0110 C.ar  1 <1>  -0.1500 
 10 C        8.9820    -0.9040    -0.1360 C.ar  1 <1>   0.0860 
 11 C        7.7640    -2.9910    -0.0570 C.ar  1 <1>  -0.1500 
 12 C       10.2290    -0.1610    -0.1940 C.2   1 <1>   0.5440 
 13 C        8.9580    -2.2980    -0.1220 C.ar  1 <1>  -0.1500 
 14 O       10.2980     0.8900    -0.7980 O.2   1 <1>  -0.5700 
 15 N       11.3510    -0.6270     0.4330 N.am  1 <1>  -0.7300 
 16 C       12.6400     0.1060     0.4940 C.3   1 <1>   0.1400 
 17 C       13.4160    -0.0890    -0.8080 C.3   1 <1>   0.0700 
 18 S       15.0030     0.7760    -0.6620 S.3   1 <1>  -0.4100 
 19 H        0.0040     0.7970     1.6560 H     1 <1>   0.1800 
 20 H        2.0140    -0.9500     0.9910 H     1 <1>   0.0800 
 21 H        2.6570     0.6600     1.3520 H     1 <1>   0.0800 
 22 H        3.0660     1.0880    -1.0090 H     1 <1>   0.0800 
 23 H        2.2670    -0.3990    -1.4700 H     1 <1>   0.0800 
 24 H        4.2540    -1.4890    -1.2030 H     1 <1>   0.3700 
 25 H        7.7560     0.8370    -0.1110 H     1 <1>   0.1500 
 26 H        5.6450    -2.8530     0.0530 H     1 <1>   0.1500 
 27 H        7.7670    -4.0690    -0.0410 H     1 <1>   0.1500 
 28 H        9.8830    -2.8470    -0.1700 H     1 <1>   0.1500 
 29 H       11.2790    -1.4510     1.0310 H     1 <1>   0.3700 
 30 H       13.2190    -0.2570     1.3250 H     1 <1>   0.0800 
 31 H       12.4450     1.1550     0.6410 H     1 <1>   0.0800 
 32 H       12.8930     0.3380    -1.6460 H     1 <1>   0.0800 
 33 H       13.6370    -1.1260    -0.9850 H     1 <1>   0.0800 
 34 H       14.6210     2.0880    -0.6750 H     1 <1>   0.1800 
@<TRIPOS>BOND
  1   1   2  1   
  2   1  19  1   
  3   2   3  1   
  4   2  20  1   
  5   2  21  1   
  6   3   4  1   
  7   3  22  1   
  8   3  23  1   
  9   4   5  am  
 10   4  24  1   
 11   5   6  2   
 12   5   7  1   
 13   7   8  ar  
 14   7   9  ar  
 15   8  10  ar  
 16   8  25  1   
 17   9  11  ar  
 18   9  26  1   
 19  10  12  1   
 20  10  13  ar  
 21  11  13  ar  
 22  11  27  1   
 23  12  14  2   
 24  12  15  am  
 25  13  28  1   
 26  15  16  1   
 27  15  29  1   
 28  16  17  1   
 29  16  30  1   
 30  16  31  1   
 31  17  18  1   
 32  17  32  1   
 33  17  33  1   
 34  18  34  1   
@<TRIPOS>SUBSTRUCTURE
  1 ****   8 GROUP 4 **** **** 0

# MOE 2024.06 (io_trps.svl 2023.06)
