@<TRIPOS>MOLECULE
NONAME
53 56 1 0 0 
SMALL
USER_CHARGES


@<TRIPOS>ATOM
  1 O       -1.2330     0.7020    -2.4880 O.2   1 <1>  -0.5700 
  2 C       -1.9300     1.1130    -1.5790 C.2   1 <1>   0.5440 
  3 N       -2.9460     0.3080    -1.0990 N.am  1 <1>  -0.6600 
  4 C       -1.6940     2.4470    -1.0730 C.ar  1 <1>   0.0860 
  5 C       -3.0520    -1.1390    -1.4760 C.3   1 <1>   0.1400 
  6 C       -4.0770     0.8310    -0.2860 C.3   1 <1>   0.1400 
  7 C       -1.2720     2.6830     0.2390 C.ar  1 <1>   0.0820 
  8 C       -1.8840     3.5500    -1.9070 C.ar  1 <1>  -0.1500 
  9 C       -3.1760    -2.0440    -0.2250 C.3   1 <1>   0.0000 
 10 C       -4.2410    -0.0150     0.9760 C.3   1 <1>  -0.1600 
 11 O       -1.0800     1.6340     1.0810 O.3   1 <1>  -0.3630 
 12 C       -1.0480     3.9890     0.6830 C.ar  1 <1>   0.0820 
 13 C       -1.6800     4.8430    -1.4600 C.ar  1 <1>  -0.1500 
 14 C       -4.3670    -1.4950     0.6060 C.3   1 <1>   0.2000 
 15 C       -3.5540    -3.4810    -0.6640 C.3   1 <1>   0.1200 
 16 C       -1.8510    -2.0300     0.6030 C.3   1 <1>  -0.0160 
 17 C       -0.8700     1.8980     2.4550 C.3   1 <1>   0.1200 
 18 O       -0.6060     4.2380     1.9410 O.3   1 <1>  -0.3630 
 19 C       -1.2620     5.0630    -0.1590 C.ar  1 <1>  -0.1500 
 20 O       -4.5430    -2.2140     1.7760 O.3   1 <1>  -0.6800 
 21 O       -2.7420    -3.9370    -1.6920 O.3   1 <1>  -0.6800 
 22 C       -0.6720    -2.7660    -0.0240 C.ar  1 <1>  -0.1440 
 23 C       -0.0130     3.1560     2.6310 C.3   1 <1>   0.1200 
 24 C       -0.4170    -4.0900     0.3020 C.ar  1 <1>  -0.1500 
 25 C        0.1620    -2.1200    -0.9230 C.ar  1 <1>  -0.1500 
 26 C        0.6450    -4.7640    -0.2760 C.ar  1 <1>  -0.1500 
 27 C        1.2240    -2.7920    -1.5030 C.ar  1 <1>  -0.1500 
 28 C        1.4650    -4.1150    -1.1810 C.ar  1 <1>  -0.1500 
 29 H       -3.9190    -1.2660    -2.1000 H     1 <1>   0.0800 
 30 H       -2.2000    -1.4390    -2.0610 H     1 <1>   0.0800 
 31 H       -3.9180     1.8590    -0.0120 H     1 <1>   0.0800 
 32 H       -4.9760     0.7820    -0.8760 H     1 <1>   0.0800 
 33 H       -2.1950     3.3780    -2.9240 H     1 <1>   0.1500 
 34 H       -5.1300     0.3030     1.4900 H     1 <1>   0.0800 
 35 H       -3.3980     0.1520     1.6200 H     1 <1>   0.0800 
 36 H       -1.8380     5.6770    -2.1230 H     1 <1>   0.1500 
 37 H       -5.2720    -1.6210     0.0330 H     1 <1>   0.0800 
 38 H       -4.5660    -3.5120    -1.0290 H     1 <1>   0.0800 
 39 H       -3.4710    -4.1660     0.1620 H     1 <1>   0.0800 
 40 H       -1.5480    -1.0160     0.7860 H     1 <1>   0.0800 
 41 H       -2.0240    -2.4760     1.5650 H     1 <1>   0.0800 
 42 H       -1.8300     2.0330     2.9210 H     1 <1>   0.0800 
 43 H       -0.3830     1.0420     2.8860 H     1 <1>   0.0800 
 44 H       -1.0930     6.0630     0.2010 H     1 <1>   0.1500 
 45 H       -3.8330    -2.0040     2.4110 H     1 <1>   0.4000 
 46 H       -1.7940    -3.8430    -1.4350 H     1 <1>   0.4000 
 47 H        0.9720     3.0000     2.2300 H     1 <1>   0.0800 
 48 H        0.0650     3.4270     3.6690 H     1 <1>   0.0800 
 49 H       -1.0470    -4.6080     1.0050 H     1 <1>   0.1500 
 50 H       -0.0090    -1.0890    -1.1800 H     1 <1>   0.1500 
 51 H        0.8330    -5.7920    -0.0220 H     1 <1>   0.1500 
 52 H        1.8590    -2.2790    -2.2050 H     1 <1>   0.1500 
 53 H        2.2900    -4.6370    -1.6340 H     1 <1>   0.1500 
@<TRIPOS>BOND
  1   1   2  2   
  2   2   3  am  
  3   2   4  1   
  4   3   5  1   
  5   3   6  1   
  6   4   7  ar  
  7   4   8  ar  
  8   5   9  1   
  9   5  29  1   
 10   5  30  1   
 11   6  10  1   
 12   6  31  1   
 13   6  32  1   
 14   7  11  1   
 15   7  12  ar  
 16   8  13  ar  
 17   8  33  1   
 18   9  14  1   
 19   9  15  1   
 20   9  16  1   
 21  10  14  1   
 22  10  34  1   
 23  10  35  1   
 24  11  17  1   
 25  12  18  1   
 26  12  19  ar  
 27  13  19  ar  
 28  13  36  1   
 29  14  20  1   
 30  14  37  1   
 31  15  21  1   
 32  15  38  1   
 33  15  39  1   
 34  16  22  1   
 35  16  40  1   
 36  16  41  1   
 37  17  23  1   
 38  17  42  1   
 39  17  43  1   
 40  18  23  1   
 41  19  44  1   
 42  20  45  1   
 43  21  46  1   
 44  22  24  ar  
 45  22  25  ar  
 46  23  47  1   
 47  23  48  1   
 48  24  26  ar  
 49  24  49  1   
 50  25  27  ar  
 51  25  50  1   
 52  26  28  ar  
 53  26  51  1   
 54  27  28  ar  
 55  27  52  1   
 56  28  53  1   
@<TRIPOS>SUBSTRUCTURE
  1 ****   3 GROUP 4 **** **** 0

# MOE 2024.06 (io_trps.svl 2023.06)
