@<TRIPOS>MOLECULE
NONAME
52 54 1 0 0 
SMALL
USER_CHARGES


@<TRIPOS>ATOM
  1 O       -0.0950     1.0260    -1.9090 O.2   1 <1>  -0.5700 
  2 C       -0.1140     2.2110    -1.6940 C.2   1 <1>   0.5690 
  3 N       -0.7470     2.7010    -0.6040 N.am  1 <1>  -0.7300 
  4 C        0.5600     3.1830    -2.6670 C.3   1 <1>   0.1810 
  5 C       -0.8000     4.1440    -0.2640 C.3   1 <1>   0.3640 
  6 O        0.8390     4.4330    -2.0750 O.3   1 <1>  -0.5600 
  7 C       -2.2250     4.5220     0.1140 C.ar  1 <1>  -0.1440 
  8 C       -0.2660     5.0320    -1.4160 C.3   1 <1>   0.2610 
  9 C       -3.3140     4.0510    -0.6100 C.ar  1 <1>   0.1600 
 10 C       -2.4600     5.3590     1.1880 C.ar  1 <1>  -0.1500 
 11 C        0.0490     6.4390    -0.8870 C.2   1 <1>   0.5690 
 12 N       -4.5790     4.3380    -0.3520 N.ar  1 <1>  -0.6200 
 13 C       -3.7730     5.6700     1.4680 C.ar  1 <1>  -0.1500 
 14 O       -0.7200     7.3070    -1.2330 O.2   1 <1>  -0.5700 
 15 N        1.0940     6.7260    -0.0300 N.am  1 <1>  -0.6600 
 16 C       -4.7790     5.1420     0.6790 C.ar  1 <1>   0.1600 
 17 C        2.1620     5.7570     0.3830 C.3   1 <1>   0.3210 
 18 C        1.2540     8.1080     0.5150 C.3   1 <1>   0.1400 
 19 C        3.5590     6.3040     0.1360 C.2   1 <1>  -0.1810 
 20 C        0.6900     8.1700     1.9320 C.3   1 <1>  -0.2400 
 21 C        4.1370     6.5440    -1.1080 C.2   1 <1>   0.1080 
 22 C        4.5110     6.6620     1.0290 C.2   1 <1>  -0.3320 
 23 N        5.3410     7.0060    -1.0070 N.2   1 <1>  -0.7070 
 24 C        3.4850     6.3140    -2.4530 C.3   1 <1>  -0.0590 
 25 N        5.5760     7.0810     0.3090 N.pl3 1 <1>   0.3140 
 26 C        4.4850     6.6380     2.5510 C.3   1 <1>  -0.0600 
 27 C        6.8630     7.5730     0.8170 C.3   1 <1>   0.0160 
 28 H       -1.1960     2.0420     0.0360 H     1 <1>   0.3700 
 29 H       -0.0780     3.3420    -3.5170 H     1 <1>   0.0800 
 30 H        1.4900     2.7630    -3.0040 H     1 <1>   0.0800 
 31 H       -0.1760     4.2920     0.5990 H     1 <1>   0.0800 
 32 H       -1.0430     5.1390    -2.1520 H     1 <1>   0.0800 
 33 H       -3.1420     3.4010    -1.4510 H     1 <1>   0.1500 
 34 H       -1.6610     5.7640     1.7850 H     1 <1>   0.1500 
 35 H       -4.0180     6.3200     2.2890 H     1 <1>   0.1500 
 36 H       -5.8010     5.3940     0.9070 H     1 <1>   0.1500 
 37 H        2.0440     5.5450     1.4290 H     1 <1>   0.0800 
 38 H        2.0760     4.8240    -0.1380 H     1 <1>   0.0800 
 39 H        2.2890     8.4030     0.5150 H     1 <1>   0.0800 
 40 H        0.7310     8.8160    -0.1060 H     1 <1>   0.0800 
 41 H        1.2190     7.5000     2.5840 H     1 <1>   0.0800 
 42 H       -0.3560     7.9220     1.9220 H     1 <1>   0.0800 
 43 H        0.7960     9.1690     2.3140 H     1 <1>   0.0800 
 44 H        2.5350     6.8110    -2.4930 H     1 <1>   0.0800 
 45 H        3.3470     5.2620    -2.6130 H     1 <1>   0.0800 
 46 H        4.1120     6.7050    -3.2330 H     1 <1>   0.0800 
 47 H        3.5400     6.2830     2.9160 H     1 <1>   0.0800 
 48 H        4.6460     7.6290     2.9370 H     1 <1>   0.0800 
 49 H        5.2580     5.9890     2.9220 H     1 <1>   0.0800 
 50 H        6.6950     8.4500     1.4110 H     1 <1>   0.0800 
 51 H        7.4980     7.8170    -0.0150 H     1 <1>   0.0800 
 52 H        7.3250     6.8060     1.4090 H     1 <1>   0.0800 
@<TRIPOS>BOND
  1   1   2  2   
  2   2   3  am  
  3   2   4  1   
  4   3   5  1   
  5   3  28  1   
  6   4   6  1   
  7   4  29  1   
  8   4  30  1   
  9   5   7  1   
 10   5   8  1   
 11   5  31  1   
 12   6   8  1   
 13   7   9  ar  
 14   7  10  ar  
 15   8  11  1   
 16   8  32  1   
 17   9  12  ar  
 18   9  33  1   
 19  10  13  ar  
 20  10  34  1   
 21  11  14  2   
 22  11  15  am  
 23  12  16  ar  
 24  13  16  ar  
 25  13  35  1   
 26  15  17  1   
 27  15  18  1   
 28  16  36  1   
 29  17  19  1   
 30  17  37  1   
 31  17  38  1   
 32  18  20  1   
 33  18  39  1   
 34  18  40  1   
 35  19  21  1   
 36  19  22  2   
 37  20  41  1   
 38  20  42  1   
 39  20  43  1   
 40  21  23  2   
 41  21  24  1   
 42  22  25  1   
 43  22  26  1   
 44  23  25  1   
 45  24  44  1   
 46  24  45  1   
 47  24  46  1   
 48  25  27  1   
 49  26  47  1   
 50  26  48  1   
 51  26  49  1   
 52  27  50  1   
 53  27  51  1   
 54  27  52  1   
@<TRIPOS>SUBSTRUCTURE
  1 ****  15 GROUP 4 **** **** 0

# MOE 2024.06 (io_trps.svl 2023.06)
