@<TRIPOS>MOLECULE
NONAME
50 52 1 0 0 
SMALL
USER_CHARGES


@<TRIPOS>ATOM
  1 O        0.0990     0.1300    -0.6820 O.2   1 <1>  -0.5700 
  2 C       -0.9110     0.7880    -0.6160 C.2   1 <1>   0.5690 
  3 N       -2.1380     0.2060    -0.4550 N.am  1 <1>  -0.6600 
  4 C       -0.7780     2.2960    -0.7000 C.3   1 <1>  -0.0990 
  5 C       -3.4510     0.8950    -0.3730 C.3   1 <1>   0.1400 
  6 C       -2.3020    -1.2570    -0.2820 C.3   1 <1>   0.1400 
  7 C       -0.6230     2.9120     0.6940 C.3   1 <1>  -0.0160 
  8 C       -4.4820    -0.2300    -0.2860 C.3   1 <1>   0.2000 
  9 C       -3.7210    -1.4360     0.2590 C.3   1 <1>  -0.0800 
 10 C       -0.6300     4.4290     0.6090 C.ar  1 <1>  -0.1440 
 11 O       -5.5260     0.1020     0.5620 O.3   1 <1>  -0.6800 
 12 C       -4.3590    -2.7810    -0.1180 C.3   1 <1>   0.0210 
 13 C        0.5440     5.1190     0.3500 C.ar  1 <1>  -0.1500 
 14 C       -1.8080     5.1370     0.7830 C.ar  1 <1>  -0.1500 
 15 C       -3.5060    -3.9380     0.3640 C.2   1 <1>   0.1080 
 16 C        0.5510     6.5020     0.2660 C.ar  1 <1>   0.0820 
 17 C       -1.8120     6.5190     0.7000 C.ar  1 <1>  -0.1500 
 18 N       -3.2200    -4.1250     1.6140 N.2   1 <1>  -0.7070 
 19 C       -2.9330    -4.9030    -0.4580 C.2   1 <1>  -0.1500 
 20 O        1.7460     7.0930     0.0100 O.3   1 <1>  -0.3630 
 21 C       -0.6380     7.2040     0.4430 C.ar  1 <1>  -0.1500 
 22 N       -2.4480    -5.2280     1.6250 N.pl3 1 <1>   0.3000 
 23 C       -2.2590    -5.7170     0.3810 C.2   1 <1>  -0.3320 
 24 C        1.8650     8.4950    -0.0820 C.3   1 <1>   0.0400 
 25 C       -1.4310    -6.9490     0.0660 C.3   1 <1>  -0.0600 
 26 H        0.0890     2.5320    -1.2890 H     1 <1>   0.0800 
 27 H       -1.6300     2.7170    -1.2000 H     1 <1>   0.0800 
 28 H       -3.4780     1.5070     0.5110 H     1 <1>   0.0800 
 29 H       -3.6210     1.4930    -1.2510 H     1 <1>   0.0800 
 30 H       -2.1880    -1.7370    -1.2400 H     1 <1>   0.0800 
 31 H       -1.5690    -1.6520     0.4020 H     1 <1>   0.0800 
 32 H        0.3000     2.5740     1.1330 H     1 <1>   0.0800 
 33 H       -1.4240     2.5830     1.3330 H     1 <1>   0.0800 
 34 H       -4.8870    -0.4270    -1.2640 H     1 <1>   0.0800 
 35 H       -3.6560    -1.3680     1.3310 H     1 <1>   0.0800 
 36 H       -5.2290     0.0700     1.4920 H     1 <1>   0.4000 
 37 H       -4.4810    -2.8480    -1.1840 H     1 <1>   0.0800 
 38 H       -5.3310    -2.8570     0.3360 H     1 <1>   0.0800 
 39 H        1.4690     4.5900     0.2100 H     1 <1>   0.1500 
 40 H       -2.7290     4.6170     0.9850 H     1 <1>   0.1500 
 41 H       -2.7310     7.0610     0.8380 H     1 <1>   0.1500 
 42 H       -3.0230    -4.9630    -1.5270 H     1 <1>   0.1500 
 43 H       -0.6680     8.2740     0.3830 H     1 <1>   0.1500 
 44 H       -2.0660    -5.6200     2.4940 H     1 <1>   0.2700 
 45 H        2.8950     8.7290    -0.2830 H     1 <1>   0.0800 
 46 H        1.5660     8.9330     0.8530 H     1 <1>   0.0800 
 47 H        1.2460     8.8450    -0.8890 H     1 <1>   0.0800 
 48 H       -1.4330    -7.1340    -0.9940 H     1 <1>   0.0800 
 49 H       -1.8400    -7.8100     0.5650 H     1 <1>   0.0800 
 50 H       -0.4140    -6.8060     0.3860 H     1 <1>   0.0800 
@<TRIPOS>BOND
  1   1   2  2   
  2   2   3  am  
  3   2   4  1   
  4   3   5  1   
  5   3   6  1   
  6   4   7  1   
  7   4  26  1   
  8   4  27  1   
  9   5   8  1   
 10   5  28  1   
 11   5  29  1   
 12   6   9  1   
 13   6  30  1   
 14   6  31  1   
 15   7  10  1   
 16   7  32  1   
 17   7  33  1   
 18   8   9  1   
 19   8  11  1   
 20   8  34  1   
 21   9  12  1   
 22   9  35  1   
 23  10  13  ar  
 24  10  14  ar  
 25  11  36  1   
 26  12  15  1   
 27  12  37  1   
 28  12  38  1   
 29  13  16  ar  
 30  13  39  1   
 31  14  17  ar  
 32  14  40  1   
 33  15  18  2   
 34  15  19  1   
 35  16  20  1   
 36  16  21  ar  
 37  17  21  ar  
 38  17  41  1   
 39  18  22  1   
 40  19  23  2   
 41  19  42  1   
 42  20  24  1   
 43  21  43  1   
 44  22  23  1   
 45  22  44  1   
 46  23  25  1   
 47  24  45  1   
 48  24  46  1   
 49  24  47  1   
 50  25  48  1   
 51  25  49  1   
 52  25  50  1   
@<TRIPOS>SUBSTRUCTURE
  1 ****   3 GROUP 4 **** **** 0

# MOE 2024.06 (io_trps.svl 2023.06)
