@<TRIPOS>MOLECULE
NONAME
40 42 1 0 0 
SMALL
USER_CHARGES


@<TRIPOS>ATOM
  1 S        0.6740     0.2370     0.6860 S.o2  1 <1>   1.3330 
  2 O        1.9350     0.7650     1.1570 O.2   1 <1>  -0.6500 
  3 O       -0.4290     0.1030     1.6100 O.2   1 <1>  -0.6500 
  4 N        0.9730    -1.2740    -0.0260 N.am  1 <1>  -0.8490 
  5 C        0.1090     1.2280    -0.6940 C.3   1 <1>  -0.0550 
  6 C        2.2930    -1.3730    -0.6560 C.3   1 <1>   0.1160 
  7 C        0.7870    -2.3800     0.9190 C.3   1 <1>   0.1160 
  8 C       -0.2850     2.6580    -0.2840 C.3   1 <1>  -0.0800 
  9 C       -0.8020     3.4730    -1.4620 C.3   1 <1>   0.2000 
 10 C        0.8770     3.4890     0.2670 C.3   1 <1>   0.2090 
 11 O       -2.1450     3.1950    -1.6800 O.3   1 <1>  -0.6800 
 12 C       -0.5620     4.9270    -1.0660 C.3   1 <1>   0.2090 
 13 N        0.6340     4.8850    -0.1760 N.pl3 1 <1>  -0.8380 
 14 C        1.7430     5.6530    -0.4520 C.ar  1 <1>   0.4100 
 15 N        2.0630     5.8440    -1.7200 N.ar  1 <1>  -0.6200 
 16 C        2.5270     6.1800     0.5730 C.ar  1 <1>   0.0000 
 17 C        3.1600     6.5560    -1.9520 C.ar  1 <1>   0.4700 
 18 C        3.6290     6.8850     0.1610 C.ar  1 <1>   0.2970 
 19 C        2.3960     6.1230     2.0050 C.2   1 <1>  -0.1500 
 20 N        3.9910     7.1030    -1.0850 N.ar  1 <1>  -0.5670 
 21 S        4.5290     7.4830     1.5560 S.3   1 <1>  -0.0800 
 22 C        3.3720     6.7600     2.6770 C.2   1 <1>  -0.1100 
 23 H        0.8760     1.2720    -1.4420 H     1 <1>   0.0800 
 24 H       -0.7470     0.7510    -1.1310 H     1 <1>   0.0800 
 25 H        2.3900    -2.3170    -1.1660 H     1 <1>   0.0800 
 26 H        3.0720    -1.2940     0.0850 H     1 <1>   0.0800 
 27 H        2.4220    -0.5840    -1.3770 H     1 <1>   0.0800 
 28 H        0.9660    -3.3230     0.4310 H     1 <1>   0.0800 
 29 H       -0.2250    -2.3820     1.2900 H     1 <1>   0.0800 
 30 H        1.4610    -2.2770     1.7530 H     1 <1>   0.0800 
 31 H       -1.0400     2.6170     0.4820 H     1 <1>   0.0800 
 32 H       -0.2560     3.2550    -2.3640 H     1 <1>   0.0800 
 33 H        1.8180     3.1480    -0.1360 H     1 <1>   0.0800 
 34 H        0.9170     3.4340     1.3420 H     1 <1>   0.0800 
 35 H       -2.6670     3.3700    -0.8730 H     1 <1>   0.4000 
 36 H       -1.3950     5.3110    -0.5040 H     1 <1>   0.0800 
 37 H       -0.4010     5.5400    -1.9360 H     1 <1>   0.0800 
 38 H        3.4050     6.7040    -2.9900 H     1 <1>   0.1500 
 39 H        1.5630     5.6030     2.4450 H     1 <1>   0.1500 
 40 H        3.5560     6.8970     3.7280 H     1 <1>   0.1500 
@<TRIPOS>BOND
  1   1   2  2   
  2   1   3  2   
  3   1   4  am  
  4   1   5  1   
  5   4   6  1   
  6   4   7  1   
  7   5   8  1   
  8   5  23  1   
  9   5  24  1   
 10   6  25  1   
 11   6  26  1   
 12   6  27  1   
 13   7  28  1   
 14   7  29  1   
 15   7  30  1   
 16   8   9  1   
 17   8  10  1   
 18   8  31  1   
 19   9  11  1   
 20   9  12  1   
 21   9  32  1   
 22  10  13  1   
 23  10  33  1   
 24  10  34  1   
 25  11  35  1   
 26  12  13  1   
 27  12  36  1   
 28  12  37  1   
 29  13  14  1   
 30  14  15  ar  
 31  14  16  ar  
 32  15  17  ar  
 33  16  18  ar  
 34  16  19  1   
 35  17  20  ar  
 36  17  38  1   
 37  18  20  ar  
 38  18  21  1   
 39  19  22  2   
 40  19  39  1   
 41  21  22  1   
 42  22  40  1   
@<TRIPOS>SUBSTRUCTURE
  1 ****  10 GROUP 4 **** **** 0

# MOE 2024.06 (io_trps.svl 2023.06)
