@<TRIPOS>MOLECULE
NONAME
52 55 1 0 0 
SMALL
USER_CHARGES


@<TRIPOS>ATOM
  1 O       -1.2150     0.7210    -2.5720 O.2   1 <1>  -0.5700 
  2 C       -1.6530     1.1220    -1.5140 C.2   1 <1>   0.5440 
  3 N       -2.3420     0.2360    -0.7080 N.am  1 <1>  -0.6600 
  4 C       -1.4100     2.4940    -1.1260 C.ar  1 <1>   0.0860 
  5 C       -2.8970     0.5860     0.6400 C.3   1 <1>   0.1400 
  6 C       -2.4310    -1.2190    -1.0360 C.3   1 <1>   0.1400 
  7 C       -0.5170     2.7920    -0.0860 C.ar  1 <1>   0.0530 
  8 C       -2.0650     3.5400    -1.7740 C.ar  1 <1>  -0.1500 
  9 C       -4.3360     0.0630     0.8220 C.3   1 <1>   0.4230 
 10 C       -3.8680    -1.7380    -0.8570 C.3   1 <1>   0.3430 
 11 C        0.2030     1.7410     0.5800 C.2   1 <1>   0.1330 
 12 C       -0.3480     4.1180     0.3020 C.ar  1 <1>  -0.1500 
 13 C       -1.8750     4.8520    -1.3860 C.ar  1 <1>  -0.1500 
 14 N       -4.4440    -1.4170     0.5060 N.4   1 <1>  -0.9590 
 15 C       -5.3290     0.8840    -0.0310 C.3   1 <1>   0.1200 
 16 N        0.0030     1.3420     1.8030 N.2   1 <1>  -0.3380 
 17 N        1.1470     0.9910     0.0000 N.pl3 1 <1>   0.0330 
 18 C       -1.0180     5.1410    -0.3390 C.ar  1 <1>  -0.1500 
 19 C       -5.8790    -1.8420     0.6630 C.3   1 <1>   0.4230 
 20 O       -6.6330     0.4070     0.1470 O.3   1 <1>  -0.5600 
 21 N        0.8070     0.3060     2.0230 N.2   1 <1>  -0.3380 
 22 C        1.4830     0.1180     0.9420 C.2   1 <1>   0.0360 
 23 C       -6.8260    -0.9440    -0.1720 C.3   1 <1>   0.1200 
 24 C       -6.0370    -3.3380     0.3440 C.3   1 <1>  -0.1600 
 25 C       -7.3780    -3.9040     0.8390 C.3   1 <1>  -0.1600 
 26 C       -7.4630    -5.4100     0.5770 C.3   1 <1>  -0.2400 
 27 H       -2.2730     0.1470     1.3990 H     1 <1>   0.0800 
 28 H       -2.8880     1.6510     0.7950 H     1 <1>   0.0800 
 29 H       -2.1240    -1.4000    -2.0520 H     1 <1>   0.0800 
 30 H       -1.7620    -1.7660    -0.3940 H     1 <1>   0.0800 
 31 H       -2.7280     3.3180    -2.5930 H     1 <1>   0.1500 
 32 H       -4.6070     0.2210     1.8530 H     1 <1>   0.0800 
 33 H       -3.8700    -2.8030    -1.0150 H     1 <1>   0.0800 
 34 H       -4.4810    -1.2930    -1.6230 H     1 <1>   0.0800 
 35 H        0.3200     4.3440     1.1170 H     1 <1>   0.1500 
 36 H       -2.3900     5.6500    -1.8950 H     1 <1>   0.1500 
 37 H       -3.8870    -1.9180     1.2080 H     1 <1>   0.4500 
 38 H       -5.0810     0.8420    -1.0770 H     1 <1>   0.0800 
 39 H       -5.3190     1.9150     0.2780 H     1 <1>   0.0800 
 40 H        1.5000     1.0700    -0.9570 H     1 <1>   0.2700 
 41 H       -0.8730     6.1620    -0.0280 H     1 <1>   0.1500 
 42 H       -6.1560    -1.7070     1.6960 H     1 <1>   0.0800 
 43 H        2.2280    -0.6460     0.8060 H     1 <1>   0.1500 
 44 H       -7.8530    -1.1760     0.0500 H     1 <1>   0.0800 
 45 H       -6.6690    -1.0770    -1.2280 H     1 <1>   0.0800 
 46 H       -5.9680    -3.5050    -0.7160 H     1 <1>   0.0800 
 47 H       -5.2490    -3.8860     0.8310 H     1 <1>   0.0800 
 48 H       -7.4870    -3.7290     1.8970 H     1 <1>   0.0800 
 49 H       -8.2020    -3.4250     0.3360 H     1 <1>   0.0800 
 50 H       -6.6790    -5.9340     1.0950 H     1 <1>   0.0800 
 51 H       -7.3860    -5.6210    -0.4750 H     1 <1>   0.0800 
 52 H       -8.4080    -5.7900     0.9270 H     1 <1>   0.0800 
@<TRIPOS>BOND
  1   1   2  2   
  2   2   3  am  
  3   2   4  1   
  4   3   5  1   
  5   3   6  1   
  6   4   7  ar  
  7   4   8  ar  
  8   5   9  1   
  9   5  27  1   
 10   5  28  1   
 11   6  10  1   
 12   6  29  1   
 13   6  30  1   
 14   7  11  1   
 15   7  12  ar  
 16   8  13  ar  
 17   8  31  1   
 18   9  14  1   
 19   9  15  1   
 20   9  32  1   
 21  10  14  1   
 22  10  33  1   
 23  10  34  1   
 24  11  16  2   
 25  11  17  1   
 26  12  18  ar  
 27  12  35  1   
 28  13  18  ar  
 29  13  36  1   
 30  14  19  1   
 31  14  37  1   
 32  15  20  1   
 33  15  38  1   
 34  15  39  1   
 35  16  21  1   
 36  17  22  1   
 37  17  40  1   
 38  18  41  1   
 39  19  23  1   
 40  19  24  1   
 41  19  42  1   
 42  20  23  1   
 43  21  22  2   
 44  22  43  1   
 45  23  44  1   
 46  23  45  1   
 47  24  25  1   
 48  24  46  1   
 49  24  47  1   
 50  25  26  1   
 51  25  48  1   
 52  25  49  1   
 53  26  50  1   
 54  26  51  1   
 55  26  52  1   
@<TRIPOS>SUBSTRUCTURE
  1 ****   5 GROUP 4 **** **** 0

# MOE 2024.06 (io_trps.svl 2023.06)
