@<TRIPOS>MOLECULE
NONAME
56 58 1 0 0 
SMALL
USER_CHARGES


@<TRIPOS>ATOM
  1 O        0.2580     1.1550     0.1620 O.2   1 <1>  -0.5700 
  2 C        0.0000     2.2730    -0.2170 C.2   1 <1>   0.5690 
  3 N       -0.8300     3.1130     0.4760 N.am  1 <1>  -0.6600 
  4 C        0.6130     2.7480    -1.5350 C.3   1 <1>   0.1810 
  5 C       -1.1730     4.4770    -0.0480 C.3   1 <1>   0.3640 
  6 C       -1.4000     2.7550     1.8070 C.3   1 <1>   0.0600 
  7 O        0.7080     4.1490    -1.6080 O.3   1 <1>  -0.5600 
  8 C       -2.6970     4.6890    -0.0720 C.ar  1 <1>  -0.1430 
  9 C       -0.5280     4.8250    -1.4160 C.3   1 <1>   0.2610 
 10 C       -3.6160     3.8180    -0.6680 C.ar  1 <1>  -0.1430 
 11 C       -3.1730     5.8390     0.5490 C.ar  1 <1>  -0.1500 
 12 C       -0.3160     6.3390    -1.5010 C.2   1 <1>   0.5690 
 13 C       -4.9700     4.1150    -0.6160 C.ar  1 <1>  -0.1500 
 14 C       -3.2220     2.5290    -1.3820 C.3   1 <1>  -0.0960 
 15 C       -4.5240     6.1250     0.5920 C.ar  1 <1>  -0.1500 
 16 O       -1.2560     7.0640    -1.7220 O.2   1 <1>  -0.5700 
 17 N        0.9370     6.8380    -1.3110 N.am  1 <1>  -0.7300 
 18 C       -5.4260     5.2600     0.0100 C.ar  1 <1>  -0.1500 
 19 C        1.3190     8.2630    -1.3370 C.3   1 <1>   0.1400 
 20 C        1.9960     8.6190    -0.0120 C.3   1 <1>  -0.1600 
 21 C        2.5280    10.0650     0.0270 C.3   1 <1>  -0.0800 
 22 C        3.3380    10.2830     1.3170 C.3   1 <1>  -0.1600 
 23 C        1.3940    11.1040    -0.0730 C.3   1 <1>  -0.1600 
 24 C        3.8760    11.7170     1.4150 C.3   1 <1>  -0.1600 
 25 C        1.9290    12.5390     0.0320 C.3   1 <1>  -0.1600 
 26 C        2.7390    12.7410     1.3170 C.3   1 <1>  -0.1600 
 27 H        0.0210     2.3980    -2.3600 H     1 <1>   0.0800 
 28 H        1.6060     2.3480    -1.6260 H     1 <1>   0.0800 
 29 H       -0.7610     5.1730     0.6620 H     1 <1>   0.0800 
 30 H       -1.1600     3.5180     2.5260 H     1 <1>   0.0800 
 31 H       -0.9990     1.8180     2.1530 H     1 <1>   0.0800 
 32 H       -2.4700     2.6640     1.7350 H     1 <1>   0.0800 
 33 H       -1.1860     4.5430    -2.2170 H     1 <1>   0.0800 
 34 H       -2.4910     6.5370     1.0020 H     1 <1>   0.1500 
 35 H       -5.6890     3.4530    -1.0650 H     1 <1>   0.1500 
 36 H       -4.0450     2.1380    -1.9500 H     1 <1>   0.0800 
 37 H       -2.9320     1.7840    -0.6630 H     1 <1>   0.0800 
 38 H       -2.4110     2.6960    -2.0620 H     1 <1>   0.0800 
 39 H       -4.8700     7.0220     1.0750 H     1 <1>   0.1500 
 40 H        1.6980     6.1570    -1.2270 H     1 <1>   0.3700 
 41 H       -6.4800     5.4760     0.0400 H     1 <1>   0.1500 
 42 H        1.9940     8.4340    -2.1590 H     1 <1>   0.0800 
 43 H        0.4410     8.8690    -1.4850 H     1 <1>   0.0800 
 44 H        1.2920     8.4770     0.7900 H     1 <1>   0.0800 
 45 H        2.8210     7.9460     0.1400 H     1 <1>   0.0800 
 46 H        3.1930    10.2060    -0.8100 H     1 <1>   0.0800 
 47 H        2.7130    10.0860     2.1720 H     1 <1>   0.0800 
 48 H        4.1660     9.5960     1.3490 H     1 <1>   0.0800 
 49 H        0.8750    11.0050    -1.0090 H     1 <1>   0.0800 
 50 H        0.6820    10.9360     0.7180 H     1 <1>   0.0800 
 51 H        4.3960    11.8440     2.3490 H     1 <1>   0.0800 
 52 H        4.5810    11.8890     0.6190 H     1 <1>   0.0800 
 53 H        2.5540    12.7480    -0.8190 H     1 <1>   0.0800 
 54 H        1.1060    13.2320     0.0130 H     1 <1>   0.0800 
 55 H        3.1480    13.7370     1.3340 H     1 <1>   0.0800 
 56 H        2.0900    12.6350     2.1690 H     1 <1>   0.0800 
@<TRIPOS>BOND
  1   1   2  2   
  2   2   3  am  
  3   2   4  1   
  4   3   5  1   
  5   3   6  1   
  6   4   7  1   
  7   4  27  1   
  8   4  28  1   
  9   5   8  1   
 10   5   9  1   
 11   5  29  1   
 12   6  30  1   
 13   6  31  1   
 14   6  32  1   
 15   7   9  1   
 16   8  10  ar  
 17   8  11  ar  
 18   9  12  1   
 19   9  33  1   
 20  10  13  ar  
 21  10  14  1   
 22  11  15  ar  
 23  11  34  1   
 24  12  16  2   
 25  12  17  am  
 26  13  18  ar  
 27  13  35  1   
 28  14  36  1   
 29  14  37  1   
 30  14  38  1   
 31  15  18  ar  
 32  15  39  1   
 33  17  19  1   
 34  17  40  1   
 35  18  41  1   
 36  19  20  1   
 37  19  42  1   
 38  19  43  1   
 39  20  21  1   
 40  20  44  1   
 41  20  45  1   
 42  21  22  1   
 43  21  23  1   
 44  21  46  1   
 45  22  24  1   
 46  22  47  1   
 47  22  48  1   
 48  23  25  1   
 49  23  49  1   
 50  23  50  1   
 51  24  26  1   
 52  24  51  1   
 53  24  52  1   
 54  25  26  1   
 55  25  53  1   
 56  25  54  1   
 57  26  55  1   
 58  26  56  1   
@<TRIPOS>SUBSTRUCTURE
  1 ****  12 GROUP 4 **** **** 0

# MOE 2024.06 (io_trps.svl 2023.06)
