@<TRIPOS>MOLECULE
NONAME
46 48 1 0 0 
SMALL
USER_CHARGES


@<TRIPOS>ATOM
  1 S        1.2680     0.4010    -0.0100 S.o2  1 <1>   1.3330 
  2 O        2.2650     0.3000     1.0330 O.2   1 <1>  -0.6500 
  3 O        1.6750     0.3930    -1.3970 O.2   1 <1>  -0.6500 
  4 N        0.1350    -0.8440     0.2080 N.am  1 <1>  -0.8490 
  5 C        0.3040     1.8770     0.3040 C.3   1 <1>  -0.0550 
  6 C        0.7570    -2.0850     0.6790 C.3   1 <1>   0.1160 
  7 C       -0.6730    -1.1130    -0.9860 C.3   1 <1>   0.1160 
  8 C        1.1410     3.1680     0.2790 C.3   1 <1>  -0.0800 
  9 C        0.3140     4.3980     0.6380 C.3   1 <1>   0.2000 
 10 C        1.7360     3.5120    -1.0890 C.3   1 <1>   0.1400 
 11 O        0.2080     4.5160     2.0140 O.3   1 <1>  -0.6800 
 12 C        1.0560     5.5810     0.0200 C.3   1 <1>   0.1400 
 13 N        1.8100     4.9940    -1.1180 N.am  1 <1>  -0.6600 
 14 C        2.5320     5.6660    -2.0720 C.2   1 <1>   0.5690 
 15 O        3.0860     5.0670    -2.9620 O.2   1 <1>  -0.5700 
 16 C        2.6250     7.1780    -2.0770 C.3   1 <1>   0.0810 
 17 C        3.7760     7.6640    -1.2260 C.2   1 <1>   0.2980 
 18 O        3.7810     7.3720     0.0660 O.3   1 <1>  -0.2800 
 19 N        4.7640     8.3690    -1.6290 N.2   1 <1>  -0.5650 
 20 C        4.8780     7.9270     0.5430 C.ar  1 <1>   0.1400 
 21 C        5.5060     8.5530    -0.5040 C.ar  1 <1>   0.2270 
 22 C        5.3920     7.9380     1.8330 C.ar  1 <1>  -0.1500 
 23 C        6.7020     9.2290    -0.2900 C.ar  1 <1>  -0.1500 
 24 C        6.5810     8.6100     2.0450 C.ar  1 <1>  -0.1500 
 25 C        7.2330     9.2530     0.9870 C.ar  1 <1>  -0.1500 
 26 H       -0.4850     1.9490    -0.4180 H     1 <1>   0.0800 
 27 H       -0.1480     1.7870     1.2730 H     1 <1>   0.0800 
 28 H        0.0100    -2.8470     0.8220 H     1 <1>   0.0800 
 29 H        1.2480    -1.9160     1.6230 H     1 <1>   0.0800 
 30 H        1.4870    -2.4320    -0.0330 H     1 <1>   0.0800 
 31 H       -1.4300    -1.8450    -0.7630 H     1 <1>   0.0800 
 32 H       -0.0520    -1.4850    -1.7860 H     1 <1>   0.0800 
 33 H       -1.1590    -0.2120    -1.3180 H     1 <1>   0.0800 
 34 H        1.9630     3.0750     0.9690 H     1 <1>   0.0800 
 35 H       -0.6790     4.3390     0.2260 H     1 <1>   0.0800 
 36 H        1.0960     3.1800    -1.8900 H     1 <1>   0.0800 
 37 H        2.7140     3.0770    -1.2180 H     1 <1>   0.0800 
 38 H        1.0920     4.5020     2.4300 H     1 <1>   0.4000 
 39 H        1.7480     6.0040     0.7270 H     1 <1>   0.0800 
 40 H        0.3610     6.3270    -0.3220 H     1 <1>   0.0800 
 41 H        2.7810     7.5070    -3.0880 H     1 <1>   0.0800 
 42 H        1.7110     7.6140    -1.7280 H     1 <1>   0.0800 
 43 H        4.8720     7.4350     2.6270 H     1 <1>   0.1500 
 44 H        7.1850     9.7150    -1.1180 H     1 <1>   0.1500 
 45 H        7.0150     8.6430     3.0300 H     1 <1>   0.1500 
 46 H        8.1590     9.7710     1.1740 H     1 <1>   0.1500 
@<TRIPOS>BOND
  1   1   2  2   
  2   1   3  2   
  3   1   4  am  
  4   1   5  1   
  5   4   6  1   
  6   4   7  1   
  7   5   8  1   
  8   5  26  1   
  9   5  27  1   
 10   6  28  1   
 11   6  29  1   
 12   6  30  1   
 13   7  31  1   
 14   7  32  1   
 15   7  33  1   
 16   8   9  1   
 17   8  10  1   
 18   8  34  1   
 19   9  11  1   
 20   9  12  1   
 21   9  35  1   
 22  10  13  1   
 23  10  36  1   
 24  10  37  1   
 25  11  38  1   
 26  12  13  1   
 27  12  39  1   
 28  12  40  1   
 29  13  14  am  
 30  14  15  2   
 31  14  16  1   
 32  16  17  1   
 33  16  41  1   
 34  16  42  1   
 35  17  18  1   
 36  17  19  2   
 37  18  20  1   
 38  19  21  1   
 39  20  21  ar  
 40  20  22  ar  
 41  21  23  ar  
 42  22  24  ar  
 43  22  43  1   
 44  23  25  ar  
 45  23  44  1   
 46  24  25  ar  
 47  24  45  1   
 48  25  46  1   
@<TRIPOS>SUBSTRUCTURE
  1 ****  13 GROUP 4 **** **** 0

# MOE 2024.06 (io_trps.svl 2023.06)
