@<TRIPOS>MOLECULE
NONAME
43 45 1 0 0 
SMALL
USER_CHARGES


@<TRIPOS>ATOM
  1 F        2.4470     0.2180     2.8160 F     1 <1>  -0.3400 
  2 C        1.9970     0.9020     1.7670 C.3   1 <1>   0.8560 
  3 F        0.7600     0.4530     1.5680 F     1 <1>  -0.3400 
  4 N        2.8560     0.6070     0.5590 N.pl3 1 <1>   0.0480 
  5 C        3.5930     1.5240    -0.1750 C.2   1 <1>  -0.2370 
  6 C        3.0680    -0.6230    -0.0090 C.2   1 <1>  -0.3320 
  7 C        3.6590     2.9360     0.0940 C.2   1 <1>   0.7150 
  8 C        4.2330     0.8410    -1.1800 C.2   1 <1>  -0.1500 
  9 C        3.9040    -0.5020    -1.0710 C.2   1 <1>  -0.1500 
 10 C        2.4510    -1.9220     0.4890 C.3   1 <1>  -0.0600 
 11 O        2.8600     3.4720     0.8380 O.2   1 <1>  -0.5700 
 12 N        4.6600     3.6660    -0.4880 N.am  1 <1>  -0.4940 
 13 C        4.8990     5.0610    -0.4520 C.2   1 <1>  -0.0880 
 14 N        6.1070     5.6390    -0.2000 N.pl3 1 <1>   0.3140 
 15 C        4.0270     6.0770    -0.6610 C.2   1 <1>  -0.1810 
 16 N        6.0260     6.9920    -0.2590 N.2   1 <1>  -0.7070 
 17 C        7.3720     4.9250     0.1440 C.3   1 <1>   0.1760 
 18 C        4.7820     7.2360    -0.5260 C.2   1 <1>   0.1390 
 19 C        2.5440     6.0250    -0.9810 C.3   1 <1>  -0.0590 
 20 C        7.9950     5.3890     1.4610 C.3   1 <1>  -0.1600 
 21 C        8.4840     5.1420    -0.8830 C.3   1 <1>  -0.1600 
 22 C        9.4590     4.9540     1.3690 C.3   1 <1>  -0.1600 
 23 C        9.7900     4.8730    -0.1280 C.3   1 <1>  -0.1600 
 24 H        1.9380     1.9340     2.0440 H     1 <1>   0.0800 
 25 H        4.8780     1.2330    -1.9460 H     1 <1>   0.1500 
 26 H        4.2570    -1.2850    -1.7220 H     1 <1>   0.1500 
 27 H        2.7400    -2.1110     1.5070 H     1 <1>   0.0800 
 28 H        2.7830    -2.7460    -0.1160 H     1 <1>   0.0800 
 29 H        1.3780    -1.8730     0.4320 H     1 <1>   0.0800 
 30 H        5.3250     3.1010    -1.0100 H     1 <1>   0.3700 
 31 H        7.1720     3.8730     0.2210 H     1 <1>   0.0800 
 32 H        4.3880     8.2330    -0.6330 H     1 <1>   0.1500 
 33 H        2.2860     5.0720    -1.4050 H     1 <1>   0.0800 
 34 H        2.2880     6.7950    -1.6850 H     1 <1>   0.0800 
 35 H        1.9750     6.1670    -0.0800 H     1 <1>   0.0800 
 36 H        7.4990     4.9580     2.3130 H     1 <1>   0.0800 
 37 H        7.9530     6.4630     1.5260 H     1 <1>   0.0800 
 38 H        8.4760     6.1690    -1.2090 H     1 <1>   0.0800 
 39 H        8.3730     4.4950    -1.7350 H     1 <1>   0.0800 
 40 H        9.5780     3.9820     1.8170 H     1 <1>   0.0800 
 41 H       10.1010     5.6520     1.8780 H     1 <1>   0.0800 
 42 H       10.5350     5.6020    -0.3980 H     1 <1>   0.0800 
 43 H       10.1650     3.8920    -0.3650 H     1 <1>   0.0800 
@<TRIPOS>BOND
  1   1   2  1   
  2   2   3  1   
  3   2   4  1   
  4   2  24  1   
  5   4   5  1   
  6   4   6  1   
  7   5   7  1   
  8   5   8  2   
  9   6   9  2   
 10   6  10  1   
 11   7  11  2   
 12   7  12  am  
 13   8   9  1   
 14   8  25  1   
 15   9  26  1   
 16  10  27  1   
 17  10  28  1   
 18  10  29  1   
 19  12  13  1   
 20  12  30  1   
 21  13  14  1   
 22  13  15  2   
 23  14  16  1   
 24  14  17  1   
 25  15  18  1   
 26  15  19  1   
 27  16  18  2   
 28  17  20  1   
 29  17  21  1   
 30  17  31  1   
 31  18  32  1   
 32  19  33  1   
 33  19  34  1   
 34  19  35  1   
 35  20  22  1   
 36  20  36  1   
 37  20  37  1   
 38  21  23  1   
 39  21  38  1   
 40  21  39  1   
 41  22  23  1   
 42  22  40  1   
 43  22  41  1   
 44  23  42  1   
 45  23  43  1   
@<TRIPOS>SUBSTRUCTURE
  1 ****  12 GROUP 4 **** **** 0

# MOE 2024.06 (io_trps.svl 2023.06)
