@<TRIPOS>MOLECULE
NONAME
58 61 1 0 0 
SMALL
USER_CHARGES


@<TRIPOS>ATOM
  1 O        0.3840     0.4170     0.8320 O.3   1 <1>  -0.6800 
  2 C        1.1950     0.0080    -0.2190 C.3   1 <1>   0.2000 
  3 C        1.9810    -1.2140     0.2360 C.3   1 <1>  -0.0800 
  4 C        2.2890     1.0650    -0.4210 C.3   1 <1>   0.3430 
  5 C        3.0320    -0.5820     1.1540 C.3   1 <1>   0.3430 
  6 C        2.5940    -1.9700    -0.9680 C.3   1 <1>  -0.0170 
  7 N        3.3750     0.7560     0.5710 N.4   1 <1>  -0.9590 
  8 C        3.6890    -2.9460    -0.5650 C.ar  1 <1>   0.1670 
  9 C        4.7690     0.8250     0.0300 C.3   1 <1>   0.4230 
 10 N        4.9060    -2.4360    -0.4320 N.ar  1 <1>  -0.6200 
 11 C        3.3880    -4.2920    -0.3640 C.ar  1 <1>   0.1600 
 12 C        5.7740     0.6100     1.1720 C.3   1 <1>  -0.1600 
 13 C        5.0010     2.1770    -0.6650 C.3   1 <1>  -0.1600 
 14 C        5.7950    -3.3630    -0.1020 C.ar  1 <1>   0.1600 
 15 N        4.2740    -5.2080    -0.0170 N.ar  1 <1>  -0.6200 
 16 C        7.2040     0.7720     0.6710 C.3   1 <1>   0.2090 
 17 C        6.4500     2.3140    -1.1210 C.3   1 <1>   0.2090 
 18 C        5.4890    -4.7030     0.1000 C.ar  1 <1>   0.1600 
 19 N        7.3130     2.1060     0.0550 N.pl3 1 <1>  -0.8380 
 20 C        8.5940     2.6440    -0.0130 C.ar  1 <1>   0.1000 
 21 C        8.9540     3.6700     0.8480 C.ar  1 <1>  -0.1500 
 22 C        9.5320     2.1750    -0.9270 C.ar  1 <1>  -0.1500 
 23 C       10.2210     4.2240     0.8060 C.ar  1 <1>  -0.1440 
 24 C       10.8030     2.7210    -0.9820 C.ar  1 <1>  -0.1440 
 25 C       11.1420     3.7450    -0.1120 C.ar  1 <1>  -0.1500 
 26 C       10.6120     5.3470     1.7490 C.3   1 <1>  -0.0970 
 27 C       11.8260     2.2090    -1.9800 C.3   1 <1>  -0.0970 
 28 H       -0.4370    -0.1160     0.8850 H     1 <1>   0.4000 
 29 H        0.5860    -0.1430    -1.0950 H     1 <1>   0.0800 
 30 H        1.3660    -1.8990     0.7950 H     1 <1>   0.0800 
 31 H        1.8930     2.0580    -0.2860 H     1 <1>   0.0800 
 32 H        2.6770     0.9710    -1.4210 H     1 <1>   0.0800 
 33 H        3.8930    -1.2150     1.2710 H     1 <1>   0.0800 
 34 H        2.5870    -0.4330     2.1250 H     1 <1>   0.0800 
 35 H        3.0180    -1.2820    -1.6780 H     1 <1>   0.0800 
 36 H        1.8140    -2.5050    -1.4820 H     1 <1>   0.0800 
 37 H        3.3040     1.4460     1.3310 H     1 <1>   0.4500 
 38 H        4.9090     0.0410    -0.6970 H     1 <1>   0.0800 
 39 H        2.3750    -4.6300    -0.4940 H     1 <1>   0.1500 
 40 H        5.6120     1.3280     1.9560 H     1 <1>   0.0800 
 41 H        5.6900    -0.3780     1.5840 H     1 <1>   0.0800 
 42 H        4.3810     2.2790    -1.5350 H     1 <1>   0.0800 
 43 H        4.7880     2.9860     0.0120 H     1 <1>   0.0800 
 44 H        6.8190    -3.0530     0.0140 H     1 <1>   0.1500 
 45 H        7.4460     0.0130    -0.0550 H     1 <1>   0.0800 
 46 H        7.8990     0.6960     1.4920 H     1 <1>   0.0800 
 47 H        6.6240     3.2990    -1.5240 H     1 <1>   0.0800 
 48 H        6.6870     1.5870    -1.8800 H     1 <1>   0.0800 
 49 H        6.2790    -5.3830     0.3680 H     1 <1>   0.1500 
 50 H        8.2230     4.0240     1.5490 H     1 <1>   0.1500 
 51 H        9.2570     1.3800    -1.5910 H     1 <1>   0.1500 
 52 H       12.1290     4.1720    -0.1490 H     1 <1>   0.1500 
 53 H       11.4460     5.0410     2.3550 H     1 <1>   0.0800 
 54 H        9.7940     5.6050     2.3970 H     1 <1>   0.0800 
 55 H       10.8910     6.2180     1.1840 H     1 <1>   0.0800 
 56 H       12.3030     3.0360    -2.4740 H     1 <1>   0.0800 
 57 H       11.3580     1.5910    -2.7240 H     1 <1>   0.0800 
 58 H       12.5730     1.6300    -1.4680 H     1 <1>   0.0800 
@<TRIPOS>BOND
  1   1   2  1   
  2   1  28  1   
  3   2   3  1   
  4   2   4  1   
  5   2  29  1   
  6   3   5  1   
  7   3   6  1   
  8   3  30  1   
  9   4   7  1   
 10   4  31  1   
 11   4  32  1   
 12   5   7  1   
 13   5  33  1   
 14   5  34  1   
 15   6   8  1   
 16   6  35  1   
 17   6  36  1   
 18   7   9  1   
 19   7  37  1   
 20   8  10  ar  
 21   8  11  ar  
 22   9  12  1   
 23   9  13  1   
 24   9  38  1   
 25  10  14  ar  
 26  11  15  ar  
 27  11  39  1   
 28  12  16  1   
 29  12  40  1   
 30  12  41  1   
 31  13  17  1   
 32  13  42  1   
 33  13  43  1   
 34  14  18  ar  
 35  14  44  1   
 36  15  18  ar  
 37  16  19  1   
 38  16  45  1   
 39  16  46  1   
 40  17  19  1   
 41  17  47  1   
 42  17  48  1   
 43  18  49  1   
 44  19  20  1   
 45  20  21  ar  
 46  20  22  ar  
 47  21  23  ar  
 48  21  50  1   
 49  22  24  ar  
 50  22  51  1   
 51  23  25  ar  
 52  23  26  1   
 53  24  25  ar  
 54  24  27  1   
 55  25  52  1   
 56  26  53  1   
 57  26  54  1   
 58  26  55  1   
 59  27  56  1   
 60  27  57  1   
 61  27  58  1   
@<TRIPOS>SUBSTRUCTURE
  1 ****  12 GROUP 4 **** **** 0

# MOE 2024.06 (io_trps.svl 2023.06)
