@<TRIPOS>MOLECULE
Upadacitinib (ABT-494)
47 50 1 0 0 
SMALL
USER_CHARGES


@<TRIPOS>ATOM
  1 F        1.6940    -1.0390     0.2190 F     1 <1>  -0.3400 
  2 C        2.9850    -0.7710     0.3540 C.3   1 <1>   1.0200 
  3 F        3.4650    -1.6580     1.2200 F     1 <1>  -0.3400 
  4 F        3.5570    -1.0550    -0.8110 F     1 <1>  -0.3400 
  5 C        3.2420     0.6810     0.8180 C.3   1 <1>   0.1400 
  6 N        4.6900     1.0210     1.0590 N.am  1 <1>  -0.7300 
  7 C        5.4900     1.5800     0.1250 C.2   1 <1>   0.6900 
  8 O        5.0050     2.1760    -0.8150 O.2   1 <1>  -0.5700 
  9 N        6.8380     1.4070     0.2340 N.am  1 <1>  -0.6600 
 10 C        7.4190     0.1030     0.6250 C.3   1 <1>   0.1400 
 11 C        7.7700     2.1010    -0.6960 C.3   1 <1>   0.1400 
 12 C        8.4770    -0.1480    -0.4480 C.3   1 <1>   0.0880 
 13 C        9.0600     1.2640    -0.6590 C.3   1 <1>  -0.0800 
 14 C        9.3850    -1.3450    -0.1560 C.2   1 <1>   0.1820 
 15 C        9.9680     1.8060     0.4770 C.3   1 <1>  -0.1600 
 16 N        8.8870    -2.6320    -0.0430 N.pl3 1 <1>  -0.5830 
 17 C       10.7240    -1.4200     0.0190 C.2   1 <1>   0.2000 
 18 C       10.7210     3.0730     0.0480 C.3   1 <1>  -0.2400 
 19 C        9.9140    -3.4550     0.2790 C.cat 1 <1>   0.7510 
 20 C        7.6610    -3.2670    -0.2630 C.2   1 <1>   0.3330 
 21 N       11.0460    -2.7190     0.3040 N.pl3 1 <1>  -0.7000 
 22 C        9.7020    -4.8530     0.5220 C.2   1 <1>   0.4390 
 23 C        7.5520    -4.6260    -0.0070 C.2   1 <1>  -0.0260 
 24 C        6.4170    -2.8480    -0.7550 C.2   1 <1>  -0.1500 
 25 N        8.5540    -5.4530     0.4040 N.2   1 <1>  -0.5760 
 26 N        6.2730    -5.0180    -0.2840 N.pl3 1 <1>   0.0330 
 27 C        5.5940    -3.9320    -0.7450 C.2   1 <1>  -0.3020 
 28 H        2.6930     0.8470     1.7260 H     1 <1>   0.0800 
 29 H        2.8400     1.3410     0.0700 H     1 <1>   0.0800 
 30 H        5.1320     0.6450     1.8960 H     1 <1>   0.3700 
 31 H        7.8710     0.1930     1.5970 H     1 <1>   0.0800 
 32 H        6.6700    -0.6670     0.6550 H     1 <1>   0.0800 
 33 H        7.3530     2.1010    -1.6910 H     1 <1>   0.0800 
 34 H        7.9190     3.1210    -0.3850 H     1 <1>   0.0800 
 35 H        7.9520    -0.3980    -1.3550 H     1 <1>   0.0800 
 36 H        9.5740     1.3240    -1.6030 H     1 <1>   0.0800 
 37 H        9.3770     2.0400     1.3470 H     1 <1>   0.0800 
 38 H       10.6990     1.0920     0.7880 H     1 <1>   0.0800 
 39 H       11.4740    -0.6480    -0.0380 H     1 <1>   0.1500 
 40 H       10.0400     3.8660    -0.2050 H     1 <1>   0.0800 
 41 H       11.3480     2.8750    -0.8030 H     1 <1>   0.0800 
 42 H       11.3450     3.4180     0.8540 H     1 <1>   0.0800 
 43 H       11.9890    -3.0720     0.5000 H     1 <1>   0.4500 
 44 H       10.5540    -5.4330     0.8230 H     1 <1>   0.0600 
 45 H        6.1550    -1.8620    -1.0920 H     1 <1>   0.1500 
 46 H        5.9210    -5.9770    -0.1760 H     1 <1>   0.2700 
 47 H        4.5600    -3.9850    -1.0490 H     1 <1>   0.1500 
@<TRIPOS>BOND
  1   1   2  1   
  2   2   3  1   
  3   2   4  1   
  4   2   5  1   
  5   5   6  1   
  6   5  28  1   
  7   5  29  1   
  8   6   7  am  
  9   6  30  1   
 10   7   8  2   
 11   7   9  am  
 12   9  10  1   
 13   9  11  1   
 14  10  12  1   
 15  10  31  1   
 16  10  32  1   
 17  11  13  1   
 18  11  33  1   
 19  11  34  1   
 20  12  13  1   
 21  12  14  1   
 22  12  35  1   
 23  13  15  1   
 24  13  36  1   
 25  14  16  1   
 26  14  17  2   
 27  15  18  1   
 28  15  37  1   
 29  15  38  1   
 30  16  19  ar  
 31  16  20  1   
 32  17  21  1   
 33  17  39  1   
 34  18  40  1   
 35  18  41  1   
 36  18  42  1   
 37  19  21  ar  
 38  19  22  1   
 39  20  23  2   
 40  20  24  1   
 41  21  43  1   
 42  22  25  2   
 43  22  44  1   
 44  23  25  1   
 45  23  26  1   
 46  24  27  2   
 47  24  45  1   
 48  26  27  1   
 49  26  46  1   
 50  27  47  1   
@<TRIPOS>SUBSTRUCTURE
  1 ****  10 GROUP 4 **** **** 0

# MOE 2024.06 (io_trps.svl 2023.06)
