@<TRIPOS>MOLECULE
NONAME
37 38 1 0 0 
SMALL
USER_CHARGES


@<TRIPOS>ATOM
  1 S       -0.0280     0.7030    -1.8280 S.3   1 <1>  -0.0800 
  2 C       -1.2590     1.3250    -0.7630 C.2   1 <1>  -0.1400 
  3 C       -0.7330    -0.8880    -1.6690 C.2   1 <1>   0.2280 
  4 C       -2.0600     0.3100    -0.3960 C.2   1 <1>   0.0460 
  5 C       -1.2250     2.8110    -0.4510 C.3   1 <1>   0.0200 
  6 N       -1.7550    -0.9380    -0.9130 N.2   1 <1>  -0.5650 
  7 C       -3.2620     0.3700     0.5220 C.3   1 <1>  -0.0590 
  8 C       -0.0720     3.1380     0.5040 C.3   1 <1>  -0.0990 
  9 C       -0.0330     4.6200     0.8070 C.2   1 <1>   0.5690 
 10 O       -0.8850     5.0730     1.5320 O.2   1 <1>  -0.5700 
 11 N        0.9510     5.3690     0.2380 N.am  1 <1>  -0.4930 
 12 C        1.1820     6.7630     0.3550 C.2   1 <1>   0.0630 
 13 C        0.4750     7.7220     1.0820 C.2   1 <1>   0.1390 
 14 C        2.1740     7.4550    -0.2410 C.2   1 <1>  -0.3020 
 15 N        0.9810     8.9120     0.9500 N.2   1 <1>  -0.7070 
 16 N        2.0390     8.7500     0.1280 N.pl3 1 <1>   0.3140 
 17 C        2.9220     9.8740    -0.2980 C.3   1 <1>   0.1760 
 18 C        3.6130    10.5100     0.9170 C.3   1 <1>  -0.2400 
 19 C        2.1240    10.9240    -1.0830 C.3   1 <1>  -0.2400 
 20 H       -0.2630    -1.6910    -2.2080 H     1 <1>   0.1500 
 21 H       -2.1550     3.1080     0.0020 H     1 <1>   0.0800 
 22 H       -1.1170     3.3640    -1.3680 H     1 <1>   0.0800 
 23 H       -3.4150     1.3630     0.8990 H     1 <1>   0.0800 
 24 H       -3.1130    -0.2970     1.3520 H     1 <1>   0.0800 
 25 H       -4.1400     0.0600    -0.0150 H     1 <1>   0.0800 
 26 H        0.8620     2.8250     0.0780 H     1 <1>   0.0800 
 27 H       -0.2130     2.6050     1.4270 H     1 <1>   0.0800 
 28 H        1.6180     4.8800    -0.3550 H     1 <1>   0.3700 
 29 H       -0.3920     7.5080     1.6840 H     1 <1>   0.1500 
 30 H        2.9530     7.1130    -0.8930 H     1 <1>   0.1500 
 31 H        3.6780     9.4650    -0.9440 H     1 <1>   0.0800 
 32 H        2.8810    10.9350     1.5820 H     1 <1>   0.0800 
 33 H        4.2810    11.2900     0.6000 H     1 <1>   0.0800 
 34 H        4.1810     9.7690     1.4500 H     1 <1>   0.0800 
 35 H        1.3620    11.3570    -0.4590 H     1 <1>   0.0800 
 36 H        1.6580    10.4700    -1.9400 H     1 <1>   0.0800 
 37 H        2.7750    11.7090    -1.4240 H     1 <1>   0.0800 
@<TRIPOS>BOND
  1   1   2  1   
  2   1   3  1   
  3   2   4  2   
  4   2   5  1   
  5   3   6  2   
  6   3  20  1   
  7   4   6  1   
  8   4   7  1   
  9   5   8  1   
 10   5  21  1   
 11   5  22  1   
 12   7  23  1   
 13   7  24  1   
 14   7  25  1   
 15   8   9  1   
 16   8  26  1   
 17   8  27  1   
 18   9  10  2   
 19   9  11  am  
 20  11  12  1   
 21  11  28  1   
 22  12  13  1   
 23  12  14  2   
 24  13  15  2   
 25  13  29  1   
 26  14  16  1   
 27  14  30  1   
 28  15  16  1   
 29  16  17  1   
 30  17  18  1   
 31  17  19  1   
 32  17  31  1   
 33  18  32  1   
 34  18  33  1   
 35  18  34  1   
 36  19  35  1   
 37  19  36  1   
 38  19  37  1   
@<TRIPOS>SUBSTRUCTURE
  1 ****  11 GROUP 4 **** **** 0

# MOE 2024.06 (io_trps.svl 2023.06)
