@<TRIPOS>MOLECULE
NONAME
52 56 1 0 0 
SMALL
USER_CHARGES


@<TRIPOS>ATOM
  1 S       -0.1240    -0.1060     1.9800 S.o2  1 <1>   1.4470 
  2 O       -0.8210    -1.3420     2.2640 O.2   1 <1>  -0.6500 
  3 O       -0.0240     0.9120     3.0020 O.2   1 <1>  -0.6500 
  4 N       -0.9080     0.6010     0.6530 N.am  1 <1>  -0.8490 
  5 C        1.5350    -0.4590     1.3370 C.ar  1 <1>  -0.0090 
  6 C       -2.1710     1.2430     1.0660 C.3   1 <1>   0.1960 
  7 C       -1.1700    -0.3700    -0.4150 C.3   1 <1>   0.1960 
  8 C        2.3120     0.5500     0.7780 C.ar  1 <1>  -0.1500 
  9 C        2.0750    -1.7400     1.3880 C.ar  1 <1>  -0.1500 
 10 C       -2.7910     2.0550    -0.0890 C.3   1 <1>   0.1440 
 11 C       -1.7320     0.3420    -1.6510 C.3   1 <1>  -0.1600 
 12 C        3.5790     0.2980     0.2790 C.ar  1 <1>  -0.1430 
 13 C        3.3380    -2.0070     0.8920 C.ar  1 <1>  -0.1500 
 14 C       -4.1130     2.6670     0.3350 C.ar  1 <1>   0.1660 
 15 C       -3.0020     1.1450    -1.3170 C.3   1 <1>  -0.1600 
 16 C       -1.9390     3.3080    -0.4370 C.3   1 <1>  -0.1600 
 17 C        4.0970    -0.9930     0.3290 C.ar  1 <1>   0.1170 
 18 C        4.4270     1.4270    -0.3010 C.3   1 <1>  -0.0170 
 19 N       -5.0930     2.0220     0.9220 N.ar  1 <1>  -0.6200 
 20 C       -4.1760     3.9940     0.0280 C.ar  1 <1>  -0.1430 
 21 C       -2.9170     4.4770    -0.6470 C.3   1 <1>  -0.0170 
 22 N        5.3660    -1.2440    -0.1920 N.am  1 <1>  -0.5470 
 23 C        5.3840     0.9120    -1.3890 C.3   1 <1>  -0.0990 
 24 C       -6.1440     2.7790     1.2020 C.ar  1 <1>   0.7200 
 25 C       -5.3250     4.6730     0.3560 C.ar  1 <1>   0.1600 
 26 C        6.0610    -0.3800    -0.9720 C.2   1 <1>   0.5690 
 27 N       -6.3290     4.0660     0.9470 N.ar  1 <1>  -0.6200 
 28 N       -7.1620     2.1560     1.7970 N.pl3 1 <1>  -0.9000 
 29 O        7.1770    -0.6320    -1.3450 O.2   1 <1>  -0.5700 
 30 H       -1.9970     1.9060     1.8970 H     1 <1>   0.0800 
 31 H       -2.8690     0.4900     1.3950 H     1 <1>   0.0800 
 32 H       -1.8720    -1.1140    -0.0730 H     1 <1>   0.0800 
 33 H       -0.2560    -0.8710    -0.6880 H     1 <1>   0.0800 
 34 H        1.9090     1.5480     0.7430 H     1 <1>   0.1500 
 35 H        1.4960    -2.5390     1.8230 H     1 <1>   0.1500 
 36 H       -1.9620    -0.3890    -2.4060 H     1 <1>   0.0800 
 37 H       -0.9730     0.9900    -2.0520 H     1 <1>   0.0800 
 38 H        3.7330    -3.0060     0.9400 H     1 <1>   0.1500 
 39 H       -3.3100     1.7290    -2.1660 H     1 <1>   0.0800 
 40 H       -3.7960     0.4520    -1.0950 H     1 <1>   0.0800 
 41 H       -1.3140     3.1600    -1.2980 H     1 <1>   0.0800 
 42 H       -1.3030     3.5480     0.3980 H     1 <1>   0.0800 
 43 H        5.0060     1.8560     0.4990 H     1 <1>   0.0800 
 44 H        3.7990     2.2000    -0.7090 H     1 <1>   0.0800 
 45 H       -3.1050     4.6320    -1.6950 H     1 <1>   0.0800 
 46 H       -2.5490     5.3850    -0.2010 H     1 <1>   0.0800 
 47 H        5.8410    -2.1210     0.0180 H     1 <1>   0.3700 
 48 H        6.1300     1.6530    -1.6070 H     1 <1>   0.0800 
 49 H        4.8300     0.7150    -2.2890 H     1 <1>   0.0800 
 50 H       -5.4210     5.7220     0.1310 H     1 <1>   0.1500 
 51 H       -8.0560     2.6320     1.7320 H     1 <1>   0.4000 
 52 H       -7.1660     1.1450     1.7080 H     1 <1>   0.4000 
@<TRIPOS>BOND
  1   1   2  2   
  2   1   3  2   
  3   1   4  am  
  4   1   5  1   
  5   4   6  1   
  6   4   7  1   
  7   5   8  ar  
  8   5   9  ar  
  9   6  10  1   
 10   6  30  1   
 11   6  31  1   
 12   7  11  1   
 13   7  32  1   
 14   7  33  1   
 15   8  12  ar  
 16   8  34  1   
 17   9  13  ar  
 18   9  35  1   
 19  10  14  1   
 20  10  15  1   
 21  10  16  1   
 22  11  15  1   
 23  11  36  1   
 24  11  37  1   
 25  12  17  ar  
 26  12  18  1   
 27  13  17  ar  
 28  13  38  1   
 29  14  19  ar  
 30  14  20  ar  
 31  15  39  1   
 32  15  40  1   
 33  16  21  1   
 34  16  41  1   
 35  16  42  1   
 36  17  22  1   
 37  18  23  1   
 38  18  43  1   
 39  18  44  1   
 40  19  24  ar  
 41  20  21  1   
 42  20  25  ar  
 43  21  45  1   
 44  21  46  1   
 45  22  26  am  
 46  22  47  1   
 47  23  26  1   
 48  23  48  1   
 49  23  49  1   
 50  24  27  ar  
 51  24  28  1   
 52  25  27  ar  
 53  25  50  1   
 54  26  29  2   
 55  28  51  1   
 56  28  52  1   
@<TRIPOS>SUBSTRUCTURE
  1 ****   4 GROUP 4 **** **** 0

# MOE 2024.06 (io_trps.svl 2023.06)
