@<TRIPOS>MOLECULE
NONAME
43 45 1 0 0 
SMALL
USER_CHARGES


@<TRIPOS>ATOM
  1 S       -0.0530    -0.1260     0.1500 S.3   1 <1>  -0.0800 
  2 C        1.1110     1.0840    -0.3850 C.2   1 <1>  -0.0450 
  3 C        0.7220    -1.4310    -0.7460 C.2   1 <1>  -0.0450 
  4 C        0.9720     2.4440     0.0680 C.2   1 <1>   0.7150 
  5 C        2.0130     0.4720    -1.1980 C.2   1 <1>  -0.1500 
  6 C        0.1910    -2.7620    -0.7010 C.2   1 <1>   0.5940 
  7 C        1.7970    -0.9150    -1.3950 C.2   1 <1>  -0.1500 
  8 O        0.0460     2.7760     0.7880 O.2   1 <1>  -0.5700 
  9 N        1.9140     3.3540    -0.3140 N.am  1 <1>  -0.4930 
 10 O        0.6940    -3.6800    -1.2990 O.2   1 <1>  -0.5700 
 11 C       -1.0470    -3.0660     0.1180 C.3   1 <1>  -0.1790 
 12 C        2.1180     4.6990     0.0740 C.2   1 <1>   0.0630 
 13 C        3.3970     5.2220     0.2910 C.2   1 <1>   0.3720 
 14 C        1.2760     5.7320     0.2990 C.2   1 <1>  -0.3320 
 15 N        3.3720     6.4670     0.6470 N.2   1 <1>  -0.7070 
 16 N        4.5800     4.4700     0.1450 N.pl3 1 <1>  -0.8210 
 17 N        2.0570     6.7820     0.6600 N.pl3 1 <1>   0.3140 
 18 C       -0.2410     5.7990     0.1840 C.3   1 <1>  -0.0600 
 19 C        5.2040     4.1930     1.4680 C.3   1 <1>   0.2090 
 20 C        5.5920     5.1620    -0.7030 C.3   1 <1>   0.2090 
 21 C        1.6120     8.1300     1.0330 C.3   1 <1>   0.0160 
 22 C        6.6990     4.4000     1.2810 C.3   1 <1>  -0.1600 
 23 C        6.7810     5.4630     0.1990 C.3   1 <1>  -0.1600 
 24 H        2.8420     0.9640    -1.6770 H     1 <1>   0.1500 
 25 H        2.4510    -1.5010    -2.0200 H     1 <1>   0.1500 
 26 H        2.7860     2.9550    -0.6610 H     1 <1>   0.3700 
 27 H       -1.8740    -2.4830    -0.2400 H     1 <1>   0.0800 
 28 H       -0.8660    -2.8380     1.1520 H     1 <1>   0.0800 
 29 H       -1.2950    -4.1080     0.0320 H     1 <1>   0.0800 
 30 H       -0.6130     4.9520    -0.3610 H     1 <1>   0.0800 
 31 H       -0.5410     6.6870    -0.3420 H     1 <1>   0.0800 
 32 H       -0.6850     5.7970     1.1630 H     1 <1>   0.0800 
 33 H        4.9850     3.1880     1.7830 H     1 <1>   0.0800 
 34 H        4.8310     4.8830     2.2080 H     1 <1>   0.0800 
 35 H        5.2010     6.0660    -1.1430 H     1 <1>   0.0800 
 36 H        5.8890     4.4940    -1.4920 H     1 <1>   0.0800 
 37 H        0.8550     8.0560     1.7900 H     1 <1>   0.0800 
 38 H        1.2200     8.6230     0.1640 H     1 <1>   0.0800 
 39 H        2.4500     8.6840     1.4140 H     1 <1>   0.0800 
 40 H        7.1420     3.4830     0.9350 H     1 <1>   0.0800 
 41 H        7.1770     4.7050     2.1950 H     1 <1>   0.0800 
 42 H        6.6430     6.4390     0.6320 H     1 <1>   0.0800 
 43 H        7.7110     5.4400    -0.3390 H     1 <1>   0.0800 
@<TRIPOS>BOND
  1   1   2  1   
  2   1   3  1   
  3   2   4  1   
  4   2   5  2   
  5   3   6  1   
  6   3   7  2   
  7   4   8  2   
  8   4   9  am  
  9   5   7  1   
 10   5  24  1   
 11   6  10  2   
 12   6  11  1   
 13   7  25  1   
 14   9  12  1   
 15   9  26  1   
 16  11  27  1   
 17  11  28  1   
 18  11  29  1   
 19  12  13  1   
 20  12  14  2   
 21  13  15  2   
 22  13  16  1   
 23  14  17  1   
 24  14  18  1   
 25  15  17  1   
 26  16  19  1   
 27  16  20  1   
 28  17  21  1   
 29  18  30  1   
 30  18  31  1   
 31  18  32  1   
 32  19  22  1   
 33  19  33  1   
 34  19  34  1   
 35  20  23  1   
 36  20  35  1   
 37  20  36  1   
 38  21  37  1   
 39  21  38  1   
 40  21  39  1   
 41  22  23  1   
 42  22  40  1   
 43  22  41  1   
 44  23  42  1   
 45  23  43  1   
@<TRIPOS>SUBSTRUCTURE
  1 ****   9 GROUP 4 **** **** 0

# MOE 2024.06 (io_trps.svl 2023.06)
