@<TRIPOS>MOLECULE
NONAME
47 49 1 0 0 
SMALL
USER_CHARGES


@<TRIPOS>ATOM
  1 CL      -0.6660    -3.6530    -3.6050 Cl    1 <1>  -0.1770 
  2 C       -0.8170    -3.3630    -1.8850 C.ar  1 <1>   0.1770 
  3 C        0.2540    -2.8490    -1.1590 C.ar  1 <1>   0.0820 
  4 C       -2.0200    -3.6500    -1.2660 C.ar  1 <1>  -0.1500 
  5 O        1.4440    -2.5470    -1.7240 O.3   1 <1>  -0.3630 
  6 C        0.1060    -2.6480     0.2020 C.ar  1 <1>  -0.1500 
  7 C       -2.1880    -3.4310     0.0990 C.ar  1 <1>  -0.0090 
  8 C        1.5010    -1.3700    -2.4970 C.3   1 <1>   0.0400 
  9 C       -1.1030    -2.9310     0.8150 C.ar  1 <1>  -0.1500 
 10 S       -3.7680    -3.7280     0.9470 S.o2  1 <1>   1.4470 
 11 O       -3.5130    -4.2640     2.2690 O.2   1 <1>  -0.6500 
 12 O       -4.5700    -2.5270     0.8490 O.2   1 <1>  -0.6500 
 13 N       -4.5470    -4.9430     0.0660 N.am  1 <1>  -0.8490 
 14 C       -3.9010    -6.2570     0.2390 C.3   1 <1>   0.1960 
 15 C       -5.9840    -4.9880     0.3240 C.3   1 <1>   0.1960 
 16 C       -4.5000    -7.3530    -0.6640 C.3   1 <1>  -0.1060 
 17 C       -6.6560    -5.9910    -0.6130 C.3   1 <1>  -0.1600 
 18 C       -4.1730    -7.0080    -2.1200 C.2   1 <1>   0.9060 
 19 C       -6.0400    -7.3860    -0.4880 C.3   1 <1>   0.2000 
 20 C       -3.8230    -8.7320    -0.4040 C.3   1 <1>  -0.0650 
 21 O       -3.0540    -6.5520    -2.3900 O.co2 1 <1>  -0.9000 
 22 O       -4.9920    -7.2640    -3.0130 O.co2 1 <1>  -0.9000 
 23 O       -6.3900    -7.8610     0.7690 O.3   1 <1>  -0.6800 
 24 C       -3.6390    -9.1750     1.0610 C.3   1 <1>  -0.1950 
 25 C       -2.4760    -8.7130     1.8830 C.3   1 <1>  -0.2000 
 26 C       -2.5440   -10.1350     1.4050 C.3   1 <1>  -0.2000 
 27 H       -2.8260    -4.0570    -1.8580 H     1 <1>   0.1500 
 28 H        0.9350    -2.2680     0.7720 H     1 <1>   0.1500 
 29 H        2.5130    -1.2400    -2.8360 H     1 <1>   0.0800 
 30 H        1.2070    -0.5360    -1.8850 H     1 <1>   0.0800 
 31 H        0.8430    -1.4650    -3.3420 H     1 <1>   0.0800 
 32 H       -1.2090    -2.7610     1.8730 H     1 <1>   0.1500 
 33 H       -2.8480    -6.1710     0.0240 H     1 <1>   0.0800 
 34 H       -3.9960    -6.5500     1.2690 H     1 <1>   0.0800 
 35 H       -6.1650    -5.2530     1.3530 H     1 <1>   0.0800 
 36 H       -6.4150    -4.0160     0.1460 H     1 <1>   0.0800 
 37 H       -6.5460    -5.6420    -1.6250 H     1 <1>   0.0800 
 38 H       -7.7090    -6.0430    -0.4080 H     1 <1>   0.0800 
 39 H       -6.4870    -8.0470    -1.2140 H     1 <1>   0.0800 
 40 H       -4.3820    -9.4890    -0.9280 H     1 <1>   0.0800 
 41 H       -2.8460    -8.7100    -0.8590 H     1 <1>   0.0800 
 42 H       -5.7570    -7.5120     1.4220 H     1 <1>   0.4000 
 43 H       -4.5710    -9.3720     1.5590 H     1 <1>   0.1000 
 44 H       -1.7420    -8.0630     1.4370 H     1 <1>   0.1000 
 45 H       -2.6340    -8.5040     2.9260 H     1 <1>   0.1000 
 46 H       -2.7480   -10.9130     2.1190 H     1 <1>   0.1000 
 47 H       -1.8650   -10.4510     0.6320 H     1 <1>   0.1000 
@<TRIPOS>BOND
  1   1   2  1   
  2   2   3  ar  
  3   2   4  ar  
  4   3   5  1   
  5   3   6  ar  
  6   4   7  ar  
  7   4  27  1   
  8   5   8  1   
  9   6   9  ar  
 10   6  28  1   
 11   7   9  ar  
 12   7  10  1   
 13   8  29  1   
 14   8  30  1   
 15   8  31  1   
 16   9  32  1   
 17  10  11  2   
 18  10  12  2   
 19  10  13  am  
 20  13  14  1   
 21  13  15  1   
 22  14  16  1   
 23  14  33  1   
 24  14  34  1   
 25  15  17  1   
 26  15  35  1   
 27  15  36  1   
 28  16  18  1   
 29  16  19  1   
 30  16  20  1   
 31  17  19  1   
 32  17  37  1   
 33  17  38  1   
 34  18  21  ar  
 35  18  22  ar  
 36  19  23  1   
 37  19  39  1   
 38  20  24  1   
 39  20  40  1   
 40  20  41  1   
 41  23  42  1   
 42  24  25  1   
 43  24  26  1   
 44  24  43  1   
 45  25  26  1   
 46  25  44  1   
 47  25  45  1   
 48  26  46  1   
 49  26  47  1   
@<TRIPOS>SUBSTRUCTURE
  1 ****  14 GROUP 4 **** **** 0

# MOE 2024.06 (io_trps.svl 2023.06)
