@<TRIPOS>MOLECULE
NONAME
20 21 1 0 0 
SMALL
USER_CHARGES


@<TRIPOS>ATOM
  1 N        0.1920     0.5770    -0.5760 N.1   1 <1>  -0.5570 
  2 C        0.2170     1.7130    -0.5770 C.1   1 <1>   0.3760 
  3 C        0.2530     3.2040    -0.5680 C.3   1 <1>   0.1810 
  4 C       -0.5200     4.1750     0.3750 C.3   1 <1>   0.0000 
  5 C        1.4850     4.1310    -0.3370 C.3   1 <1>   0.0000 
  6 C       -0.1330     4.1840    -1.7150 C.3   1 <1>   0.0000 
  7 C        0.3020     5.1240    -0.5490 C.3   1 <1>   0.0000 
  8 C        0.3280     6.6550    -0.5710 C.3   1 <1>   0.3430 
  9 N        0.8040     7.1850     0.7340 N.4   1 <1>  -0.8530 
 10 H       -0.2200     4.1580     1.4110 H     1 <1>   0.0000 
 11 H       -1.5900     4.2040     0.2410 H     1 <1>   0.0000 
 12 H        2.2310     4.1200    -1.1160 H     1 <1>   0.0000 
 13 H        1.9050     4.1110     0.6560 H     1 <1>   0.0000 
 14 H       -1.1800     4.2130    -1.9720 H     1 <1>   0.0000 
 15 H        0.5170     4.1750    -2.5750 H     1 <1>   0.0000 
 16 H       -0.6650     7.0230    -0.7780 H     1 <1>   0.0800 
 17 H        0.9810     6.9870    -1.3630 H     1 <1>   0.0800 
 18 H        0.1880     6.8890     1.5020 H     1 <1>   0.4500 
 19 H        0.8250     8.2130     0.7300 H     1 <1>   0.4500 
 20 H        1.7530     6.8550     0.9450 H     1 <1>   0.4500 
@<TRIPOS>BOND
  1   1   2  3   
  2   2   3  1   
  3   3   4  1   
  4   3   5  1   
  5   3   6  1   
  6   4   7  1   
  7   4  10  1   
  8   4  11  1   
  9   5   7  1   
 10   5  12  1   
 11   5  13  1   
 12   6   7  1   
 13   6  14  1   
 14   6  15  1   
 15   7   8  1   
 16   8   9  1   
 17   8  16  1   
 18   8  17  1   
 19   9  18  1   
 20   9  19  1   
 21   9  20  1   
@<TRIPOS>SUBSTRUCTURE
  1 ****   3 GROUP 4 **** **** 0

# MOE 2024.06 (io_trps.svl 2023.06)
