@<TRIPOS>MOLECULE
NONAME
50 54 1 0 0 
SMALL
USER_CHARGES


@<TRIPOS>ATOM
  1 O        0.1300     0.4300    -0.5290 O.2   1 <1>  -0.5700 
  2 C       -0.4350     1.4940    -0.3250 C.2   1 <1>   0.7150 
  3 N       -1.8150     1.4700    -0.1950 N.am  1 <1>  -0.6600 
  4 C        0.3650     2.7010    -0.2130 C.2   1 <1>   0.1020 
  5 C       -2.6220     2.5600     0.4460 C.3   1 <1>   0.1400 
  6 C       -2.6270     0.2860    -0.5960 C.3   1 <1>   0.1400 
  7 N        0.0190     3.9180    -0.5560 N.2   1 <1>  -0.3380 
  8 N        1.6260     2.7170     0.2590 N.pl3 1 <1>   0.0480 
  9 C       -3.7470     3.0450    -0.4880 C.3   1 <1>   0.1440 
 10 C       -3.7610     0.7220    -1.5350 C.3   1 <1>  -0.1600 
 11 N        1.0390     4.7260    -0.3050 N.2   1 <1>  -0.3380 
 12 C        1.9840     3.9940     0.1740 C.2   1 <1>   0.0060 
 13 C        2.4960     1.6070     0.7220 C.3   1 <1>   0.0960 
 14 C       -4.5410     4.1130     0.2420 C.ar  1 <1>   0.1670 
 15 C       -4.6160     1.8440    -0.9200 C.3   1 <1>  -0.1600 
 16 C       -3.1940     3.8300    -1.7070 C.3   1 <1>  -0.1600 
 17 C        3.3490     4.4970     0.6100 C.3   1 <1>   0.0200 
 18 C        3.7350     2.1430     1.4610 C.3   1 <1>  -0.1600 
 19 N       -5.4080     3.8990     1.2070 N.ar  1 <1>  -0.6200 
 20 C       -4.2340     5.3600    -0.2140 C.ar  1 <1>  -0.1430 
 21 C       -3.1980     5.3160    -1.3110 C.3   1 <1>  -0.0170 
 22 C        4.3580     3.3420     0.7250 C.3   1 <1>  -0.1600 
 23 C       -5.9680     4.9990     1.6920 C.ar  1 <1>   0.4760 
 24 C       -4.8720     6.4290     0.3630 C.ar  1 <1>   0.1600 
 25 N       -5.7540     6.2560     1.3260 N.ar  1 <1>  -0.6200 
 26 C       -6.9780     4.7960     2.7950 C.3   1 <1>  -0.0970 
 27 H       -2.0080     3.3900     0.7400 H     1 <1>   0.0800 
 28 H       -3.0680     2.1680     1.3430 H     1 <1>   0.0800 
 29 H       -3.0390    -0.1700     0.2880 H     1 <1>   0.0800 
 30 H       -2.0160    -0.4470    -1.0960 H     1 <1>   0.0800 
 31 H       -4.3850    -0.1280    -1.7490 H     1 <1>   0.0800 
 32 H       -3.3330     1.0510    -2.4650 H     1 <1>   0.0800 
 33 H        2.8010     1.0460    -0.1440 H     1 <1>   0.0800 
 34 H        1.9310     0.9570     1.3660 H     1 <1>   0.0800 
 35 H       -5.3700     2.1640    -1.6180 H     1 <1>   0.0800 
 36 H       -5.1250     1.4560    -0.0550 H     1 <1>   0.0800 
 37 H       -3.8620     3.7090    -2.5410 H     1 <1>   0.0800 
 38 H       -2.2180     3.4980    -2.0120 H     1 <1>   0.0800 
 39 H        3.2390     4.9770     1.5660 H     1 <1>   0.0800 
 40 H        3.7040     5.2300    -0.0930 H     1 <1>   0.0800 
 41 H        4.4600     1.3520     1.5530 H     1 <1>   0.0800 
 42 H        3.4510     2.4390     2.4560 H     1 <1>   0.0800 
 43 H       -3.4600     5.9480    -2.1410 H     1 <1>   0.0800 
 44 H       -2.2380     5.6060    -0.9180 H     1 <1>   0.0800 
 45 H        5.2360     3.6820     1.2470 H     1 <1>   0.0800 
 46 H        4.6570     3.0360    -0.2630 H     1 <1>   0.0800 
 47 H       -4.6590     7.4320     0.0360 H     1 <1>   0.1500 
 48 H       -6.7700     3.8860     3.3260 H     1 <1>   0.0800 
 49 H       -7.9610     4.7410     2.3680 H     1 <1>   0.0800 
 50 H       -6.9380     5.6190     3.4850 H     1 <1>   0.0800 
@<TRIPOS>BOND
  1   1   2  2   
  2   2   3  am  
  3   2   4  1   
  4   3   5  1   
  5   3   6  1   
  6   4   7  2   
  7   4   8  1   
  8   5   9  1   
  9   5  27  1   
 10   5  28  1   
 11   6  10  1   
 12   6  29  1   
 13   6  30  1   
 14   7  11  1   
 15   8  12  1   
 16   8  13  1   
 17   9  14  1   
 18   9  15  1   
 19   9  16  1   
 20  10  15  1   
 21  10  31  1   
 22  10  32  1   
 23  11  12  2   
 24  12  17  1   
 25  13  18  1   
 26  13  33  1   
 27  13  34  1   
 28  14  19  ar  
 29  14  20  ar  
 30  15  35  1   
 31  15  36  1   
 32  16  21  1   
 33  16  37  1   
 34  16  38  1   
 35  17  22  1   
 36  17  39  1   
 37  17  40  1   
 38  18  22  1   
 39  18  41  1   
 40  18  42  1   
 41  19  23  ar  
 42  20  21  1   
 43  20  24  ar  
 44  21  43  1   
 45  21  44  1   
 46  22  45  1   
 47  22  46  1   
 48  23  25  ar  
 49  23  26  1   
 50  24  25  ar  
 51  24  47  1   
 52  26  48  1   
 53  26  49  1   
 54  26  50  1   
@<TRIPOS>SUBSTRUCTURE
  1 ****   5 GROUP 4 **** **** 0

# MOE 2024.06 (io_trps.svl 2023.06)
