@<TRIPOS>MOLECULE
NONAME
54 56 1 0 0 
SMALL
USER_CHARGES


@<TRIPOS>ATOM
  1 O       -2.7210     0.5160     1.8110 O.2   1 <1>  -0.5700 
  2 C       -2.0180     0.9150     0.9030 C.2   1 <1>   0.7160 
  3 N       -1.4170    -0.0160     0.1080 N.am  1 <1>  -0.7300 
  4 C       -1.7720     2.3020     0.6520 C.2   1 <1>  -0.0860 
  5 C       -1.5820    -1.4820     0.2210 C.3   1 <1>   0.2200 
  6 C       -2.6520     3.3880     0.7770 C.2   1 <1>   0.3720 
  7 C       -0.6280     2.8780     0.1960 C.2   1 <1>   0.0870 
  8 C       -1.3780    -2.1220    -1.1780 C.3   1 <1>  -0.0800 
  9 C       -0.6040    -1.9880     1.3030 C.3   1 <1>   0.1200 
 10 N       -2.0750     4.4830     0.4130 N.2   1 <1>  -0.4100 
 11 N       -3.9860     3.3220     1.2110 N.pl3 1 <1>  -0.8210 
 12 O       -0.8610     4.1560     0.0640 O.3   1 <1>  -0.0190 
 13 C        0.6620     2.3300    -0.1260 C.ar  1 <1>   0.0530 
 14 C       -2.3340    -1.5250    -2.2280 C.3   1 <1>  -0.2400 
 15 C       -1.5760    -3.6470    -1.1630 C.3   1 <1>  -0.2400 
 16 O       -1.0580    -3.1680     1.8820 O.3   1 <1>  -0.6800 
 17 C       -4.7110     4.5870     1.5130 C.3   1 <1>   0.2090 
 18 C       -4.8840     2.4130     0.4550 C.3   1 <1>   0.2090 
 19 C        1.3060     2.6620    -1.3160 C.ar  1 <1>  -0.1500 
 20 C        1.3030     1.4340     0.7310 C.ar  1 <1>  -0.1500 
 21 C       -5.9340     4.5750     0.6090 C.3   1 <1>  -0.1600 
 22 C       -6.2460     3.0960     0.4280 C.3   1 <1>  -0.1600 
 23 C        2.5260     2.1060    -1.6470 C.ar  1 <1>  -0.1500 
 24 C        2.5240     0.8730     0.4050 C.ar  1 <1>  -0.1500 
 25 C        3.1440     1.2040    -0.7960 C.ar  1 <1>   0.0830 
 26 O        4.3330     0.6980    -1.1960 O.3   1 <1>  -0.3620 
 27 C        5.0700    -0.1930    -0.3890 C.3   1 <1>   0.0400 
 28 H       -0.7750     0.2990    -0.6210 H     1 <1>   0.3700 
 29 H       -2.5880    -1.6770     0.5540 H     1 <1>   0.0800 
 30 H       -0.3660    -1.9310    -1.4940 H     1 <1>   0.0800 
 31 H       -0.5140    -1.2650     2.0960 H     1 <1>   0.0800 
 32 H        0.3680    -2.1760     0.8810 H     1 <1>   0.0800 
 33 H       -3.3570    -1.6650    -1.9260 H     1 <1>   0.0800 
 34 H       -2.1920    -2.0050    -3.1810 H     1 <1>   0.0800 
 35 H       -2.1590    -0.4730    -2.3640 H     1 <1>   0.0800 
 36 H       -2.5510    -3.8990    -0.7850 H     1 <1>   0.0800 
 37 H       -0.8360    -4.1230    -0.5450 H     1 <1>   0.0800 
 38 H       -1.4780    -4.0510    -2.1550 H     1 <1>   0.0800 
 39 H       -1.8800    -3.0010     2.3860 H     1 <1>   0.4000 
 40 H       -5.0140     4.5640     2.5460 H     1 <1>   0.0800 
 41 H       -4.1140     5.4680     1.3480 H     1 <1>   0.0800 
 42 H       -4.5130     2.2840    -0.5480 H     1 <1>   0.0800 
 43 H       -4.9480     1.4540     0.9420 H     1 <1>   0.0800 
 44 H        0.8410     3.3640    -1.9880 H     1 <1>   0.1500 
 45 H        0.8370     1.1790     1.6670 H     1 <1>   0.1500 
 46 H       -6.7540     5.1220     1.0380 H     1 <1>   0.0800 
 47 H       -5.6690     5.0150    -0.3370 H     1 <1>   0.0800 
 48 H       -6.7760     2.8950    -0.4860 H     1 <1>   0.0800 
 49 H       -6.8280     2.7400     1.2600 H     1 <1>   0.0800 
 50 H        3.0130     2.3670    -2.5700 H     1 <1>   0.1500 
 51 H        2.9790     0.1860     1.0940 H     1 <1>   0.1500 
 52 H        5.9780    -0.4410    -0.9090 H     1 <1>   0.0800 
 53 H        4.4880    -1.0830    -0.2270 H     1 <1>   0.0800 
 54 H        5.3040     0.2910     0.5420 H     1 <1>   0.0800 
@<TRIPOS>BOND
  1   1   2  2   
  2   2   3  am  
  3   2   4  1   
  4   3   5  1   
  5   3  28  1   
  6   4   6  1   
  7   4   7  2   
  8   5   8  1   
  9   5   9  1   
 10   5  29  1   
 11   6  10  2   
 12   6  11  1   
 13   7  12  1   
 14   7  13  1   
 15   8  14  1   
 16   8  15  1   
 17   8  30  1   
 18   9  16  1   
 19   9  31  1   
 20   9  32  1   
 21  10  12  1   
 22  11  17  1   
 23  11  18  1   
 24  13  19  ar  
 25  13  20  ar  
 26  14  33  1   
 27  14  34  1   
 28  14  35  1   
 29  15  36  1   
 30  15  37  1   
 31  15  38  1   
 32  16  39  1   
 33  17  21  1   
 34  17  40  1   
 35  17  41  1   
 36  18  22  1   
 37  18  42  1   
 38  18  43  1   
 39  19  23  ar  
 40  19  44  1   
 41  20  24  ar  
 42  20  45  1   
 43  21  22  1   
 44  21  46  1   
 45  21  47  1   
 46  22  48  1   
 47  22  49  1   
 48  23  25  ar  
 49  23  50  1   
 50  24  25  ar  
 51  24  51  1   
 52  25  26  1   
 53  26  27  1   
 54  27  52  1   
 55  27  53  1   
 56  27  54  1   
@<TRIPOS>SUBSTRUCTURE
  1 ****   2 GROUP 4 **** **** 0

# MOE 2024.06 (io_trps.svl 2023.06)
