@<TRIPOS>MOLECULE
NONAME
47 50 1 0 0 
SMALL
USER_CHARGES


@<TRIPOS>ATOM
  1 O       -2.7260    -0.8820    -3.0550 O.2   1 <1>  -0.5700 
  2 C       -2.7220    -1.1760    -1.8920 C.2   1 <1>   0.5690 
  3 N       -2.4880    -0.2430    -0.9540 N.am  1 <1>  -0.7300 
  4 C       -3.0270    -2.5910    -1.4820 C.3   1 <1>  -0.0190 
  5 C       -2.4600    -0.4740     0.5090 C.3   1 <1>   0.2200 
  6 C       -1.8420    -3.2340    -0.7270 C.3   1 <1>   0.1200 
  7 C       -4.3900    -2.6060    -0.7740 C.3   1 <1>   0.3430 
  8 C       -1.3660    -1.5090     0.8700 C.3   1 <1>   0.1200 
  9 C       -3.8770    -0.8580     1.0250 C.3   1 <1>   0.3430 
 10 O       -1.7590    -2.8350     0.6160 O.3   1 <1>  -0.5600 
 11 N       -4.3230    -2.2600     0.6890 N.4   1 <1>  -0.9590 
 12 C       -5.5450    -2.6680     1.4300 C.3   1 <1>   0.5240 
 13 C       -5.7330    -4.1590     1.2560 C.2   1 <1>  -0.1810 
 14 C       -4.8990    -5.1510     1.7560 C.2   1 <1>   0.1390 
 15 C       -6.6940    -4.8340     0.5860 C.2   1 <1>  -0.3020 
 16 N       -5.2930    -6.3320     1.4130 N.2   1 <1>  -0.7070 
 17 N       -6.4300    -6.1630     0.6900 N.pl3 1 <1>   0.5930 
 18 C       -7.1630    -7.2310     0.0950 C.ar  1 <1>  -0.0230 
 19 C       -8.5450    -7.1550    -0.0640 C.ar  1 <1>  -0.1500 
 20 C       -6.5080    -8.3760    -0.3480 C.ar  1 <1>  -0.1500 
 21 C       -9.2540    -8.1840    -0.6600 C.ar  1 <1>  -0.1440 
 22 C       -7.2100    -9.4080    -0.9420 C.ar  1 <1>  -0.1500 
 23 C       -8.5810    -9.3110    -1.1000 C.ar  1 <1>  -0.1500 
 24 C      -10.7610    -8.0920    -0.8290 C.3   1 <1>  -0.0970 
 25 H       -2.2310     0.6880    -1.3030 H     1 <1>   0.3700 
 26 H       -3.1460    -3.1420    -2.3980 H     1 <1>   0.0800 
 27 H       -2.1860     0.4620     0.9660 H     1 <1>   0.0800 
 28 H       -0.9070    -3.0080    -1.2150 H     1 <1>   0.0800 
 29 H       -1.9610    -4.3050    -0.7250 H     1 <1>   0.0800 
 30 H       -4.7880    -3.6020    -0.8790 H     1 <1>   0.0800 
 31 H       -5.0630    -1.9350    -1.2830 H     1 <1>   0.0800 
 32 H       -1.1560    -1.4490     1.9240 H     1 <1>   0.0800 
 33 H       -0.4490    -1.3050     0.3410 H     1 <1>   0.0800 
 34 H       -4.5880    -0.1460     0.6380 H     1 <1>   0.0800 
 35 H       -3.8660    -0.7540     2.0970 H     1 <1>   0.0800 
 36 H       -3.5460    -2.8600     1.0300 H     1 <1>   0.4500 
 37 H       -5.4410    -2.4420     2.4790 H     1 <1>   0.0800 
 38 H       -6.4050    -2.1440     1.0480 H     1 <1>   0.0800 
 39 H       -4.0170    -4.9860     2.3560 H     1 <1>   0.1500 
 40 H       -7.5430    -4.4720     0.0360 H     1 <1>   0.1500 
 41 H       -9.0780    -6.2890     0.2870 H     1 <1>   0.1500 
 42 H       -5.4410    -8.4630    -0.2240 H     1 <1>   0.1500 
 43 H       -6.6910   -10.2890    -1.2800 H     1 <1>   0.1500 
 44 H       -9.1210   -10.1190    -1.5620 H     1 <1>   0.1500 
 45 H      -11.0520    -8.4840    -1.7870 H     1 <1>   0.0800 
 46 H      -11.0920    -7.0720    -0.7650 H     1 <1>   0.0800 
 47 H      -11.2480    -8.6630    -0.0590 H     1 <1>   0.0800 
@<TRIPOS>BOND
  1   1   2  2   
  2   2   3  am  
  3   2   4  1   
  4   3   5  1   
  5   3  25  1   
  6   4   6  1   
  7   4   7  1   
  8   4  26  1   
  9   5   8  1   
 10   5   9  1   
 11   5  27  1   
 12   6  10  1   
 13   6  28  1   
 14   6  29  1   
 15   7  11  1   
 16   7  30  1   
 17   7  31  1   
 18   8  10  1   
 19   8  32  1   
 20   8  33  1   
 21   9  11  1   
 22   9  34  1   
 23   9  35  1   
 24  11  12  1   
 25  11  36  1   
 26  12  13  1   
 27  12  37  1   
 28  12  38  1   
 29  13  14  1   
 30  13  15  2   
 31  14  16  2   
 32  14  39  1   
 33  15  17  1   
 34  15  40  1   
 35  16  17  1   
 36  17  18  1   
 37  18  19  ar  
 38  18  20  ar  
 39  19  21  ar  
 40  19  41  1   
 41  20  22  ar  
 42  20  42  1   
 43  21  23  ar  
 44  21  24  1   
 45  22  23  ar  
 46  22  43  1   
 47  23  44  1   
 48  24  45  1   
 49  24  46  1   
 50  24  47  1   
@<TRIPOS>SUBSTRUCTURE
  1 ****  13 GROUP 4 **** **** 0

# MOE 2024.06 (io_trps.svl 2023.06)
