@<TRIPOS>MOLECULE
NONAME
52 53 1 0 0 
SMALL
USER_CHARGES


@<TRIPOS>ATOM
  1 N       -0.0280    -0.1560     0.4110 N.ar  1 <1>  -0.6200 
  2 C        1.1830    -0.6600     0.2710 C.ar  1 <1>   0.4100 
  3 C       -1.0070    -0.8220    -0.1620 C.ar  1 <1>   0.4760 
  4 N        2.1740     0.0570     0.9100 N.pl3 1 <1>  -0.8380 
  5 C        1.4050    -1.8240    -0.4640 C.ar  1 <1>  -0.1440 
  6 N       -0.9240    -1.9270    -0.8720 N.ar  1 <1>  -0.6200 
  7 C       -2.3970    -0.2590     0.0080 C.3   1 <1>  -0.0970 
  8 C        2.2630     1.4950     0.5390 C.3   1 <1>   0.2090 
  9 C        2.2680    -0.2020     2.3760 C.3   1 <1>   0.1290 
 10 C        0.2920    -2.4120    -1.0120 C.ar  1 <1>   0.1600 
 11 C        2.7660    -2.4830    -0.7210 C.3   1 <1>   0.0630 
 12 C        3.7310     1.9180     0.3880 C.3   1 <1>   0.3430 
 13 C        3.4720    -2.9280     0.5640 C.3   1 <1>  -0.2400 
 14 C        3.6770    -1.5940    -1.5720 C.3   1 <1>  -0.2400 
 15 N        3.8990     3.2680    -0.2570 N.4   1 <1>  -0.9590 
 16 C        5.3290     3.4730    -0.6520 C.3   1 <1>   0.4230 
 17 C        3.3190     4.3740     0.5780 C.3   1 <1>   0.2630 
 18 C        6.2650     3.6520     0.5560 C.3   1 <1>  -0.1600 
 19 C        5.4900     4.7400    -1.4950 C.3   1 <1>  -0.1600 
 20 C        6.8870     5.0500     0.4520 C.3   1 <1>  -0.1600 
 21 C        6.0460     5.8170    -0.5630 C.3   1 <1>  -0.1600 
 22 H       -2.3850     0.5910     0.6660 H     1 <1>   0.0800 
 23 H       -3.0400    -1.0120     0.4240 H     1 <1>   0.0800 
 24 H       -2.7800     0.0410    -0.9490 H     1 <1>   0.0800 
 25 H        1.7690     2.0880     1.2880 H     1 <1>   0.0800 
 26 H        1.7580     1.6410    -0.4010 H     1 <1>   0.0800 
 27 H        2.0300    -1.2320     2.5820 H     1 <1>   0.0800 
 28 H        1.5640     0.4160     2.9080 H     1 <1>   0.0800 
 29 H        3.2640    -0.0020     2.7290 H     1 <1>   0.0800 
 30 H        0.3830    -3.3150    -1.5910 H     1 <1>   0.1500 
 31 H        2.5950    -3.3800    -1.2930 H     1 <1>   0.0800 
 32 H        4.2230     1.1770    -0.2180 H     1 <1>   0.0800 
 33 H        4.1960     1.9150     1.3590 H     1 <1>   0.0800 
 34 H        3.8370    -2.0840     1.1160 H     1 <1>   0.0800 
 35 H        4.3090    -3.5600     0.3250 H     1 <1>   0.0800 
 36 H        2.7920    -3.4840     1.1850 H     1 <1>   0.0800 
 37 H        3.9580    -0.7140    -1.0280 H     1 <1>   0.0800 
 38 H        3.1660    -1.3000    -2.4720 H     1 <1>   0.0800 
 39 H        4.5690    -2.1300    -1.8440 H     1 <1>   0.0800 
 40 H        3.3730     3.2420    -1.1420 H     1 <1>   0.4500 
 41 H        5.6570     2.6270    -1.2360 H     1 <1>   0.0800 
 42 H        3.8520     4.4640     1.5110 H     1 <1>   0.0800 
 43 H        2.2810     4.1820     0.7910 H     1 <1>   0.0800 
 44 H        3.3860     5.3120     0.0540 H     1 <1>   0.0800 
 45 H        7.0490     2.9160     0.5150 H     1 <1>   0.0800 
 46 H        5.7550     3.5430     1.4950 H     1 <1>   0.0800 
 47 H        4.5860     5.0480    -1.9890 H     1 <1>   0.0800 
 48 H        6.2330     4.5410    -2.2490 H     1 <1>   0.0800 
 49 H        7.8960     4.9660     0.0800 H     1 <1>   0.0800 
 50 H        6.9180     5.5530     1.4050 H     1 <1>   0.0800 
 51 H        5.2470     6.3330    -0.0600 H     1 <1>   0.0800 
 52 H        6.6350     6.5440    -1.0980 H     1 <1>   0.0800 
@<TRIPOS>BOND
  1   1   2  ar  
  2   1   3  ar  
  3   2   4  1   
  4   2   5  ar  
  5   3   6  ar  
  6   3   7  1   
  7   4   8  1   
  8   4   9  1   
  9   5  10  ar  
 10   5  11  1   
 11   6  10  ar  
 12   7  22  1   
 13   7  23  1   
 14   7  24  1   
 15   8  12  1   
 16   8  25  1   
 17   8  26  1   
 18   9  27  1   
 19   9  28  1   
 20   9  29  1   
 21  10  30  1   
 22  11  13  1   
 23  11  14  1   
 24  11  31  1   
 25  12  15  1   
 26  12  32  1   
 27  12  33  1   
 28  13  34  1   
 29  13  35  1   
 30  13  36  1   
 31  14  37  1   
 32  14  38  1   
 33  14  39  1   
 34  15  16  1   
 35  15  17  1   
 36  15  40  1   
 37  16  18  1   
 38  16  19  1   
 39  16  41  1   
 40  17  42  1   
 41  17  43  1   
 42  17  44  1   
 43  18  20  1   
 44  18  45  1   
 45  18  46  1   
 46  19  21  1   
 47  19  47  1   
 48  19  48  1   
 49  20  21  1   
 50  20  49  1   
 51  20  50  1   
 52  21  51  1   
 53  21  52  1   
@<TRIPOS>SUBSTRUCTURE
  1 ****   8 GROUP 4 **** **** 0

# MOE 2024.06 (io_trps.svl 2023.06)
