@<TRIPOS>MOLECULE
NONAME
56 59 1 0 0 
SMALL
USER_CHARGES


@<TRIPOS>ATOM
  1 S        0.0880     0.1530     1.8110 S.o2  1 <1>   1.4470 
  2 O       -0.4610    -0.8970     2.6390 O.2   1 <1>  -0.6500 
  3 O        0.4820     1.4040     2.4250 O.2   1 <1>  -0.6500 
  4 N       -1.0670     0.5300     0.6290 N.am  1 <1>  -0.8490 
  5 C        1.4730    -0.5170     0.8490 C.ar  1 <1>  -0.0090 
  6 C       -2.4070     0.6920     1.2210 C.3   1 <1>   0.1960 
  7 C       -0.6990     1.7140    -0.1520 C.3   1 <1>   0.1960 
  8 C        2.7860    -0.1960     1.1750 C.ar  1 <1>  -0.1500 
  9 C        1.2570    -1.3790    -0.2190 C.ar  1 <1>  -0.1500 
 10 C       -3.5080     0.8790     0.1480 C.3   1 <1>   0.0000 
 11 C       -1.6940     1.9260    -1.2940 C.3   1 <1>  -0.1600 
 12 C        3.8690    -0.6780     0.4490 C.ar  1 <1>   0.1170 
 13 C        2.3160    -1.9030    -0.9380 C.ar  1 <1>  -0.1500 
 14 C       -4.8670     1.0620     0.8550 C.3   1 <1>   0.2000 
 15 C       -3.1280     2.0680    -0.7640 C.3   1 <1>  -0.1600 
 16 C       -3.7120    -0.4240    -0.6470 C.3   1 <1>  -0.1600 
 17 N        5.2030    -0.3320     0.7640 N.am  1 <1>  -0.4770 
 18 C        3.6140    -1.5670    -0.6040 C.ar  1 <1>   0.0830 
 19 O       -5.7880     1.6260    -0.0350 O.3   1 <1>  -0.5600 
 20 C       -5.3310    -0.3600     1.1990 C.3   1 <1>  -0.1600 
 21 C       -4.6400    -1.3000     0.2010 C.3   1 <1>  -0.1600 
 22 C        5.6970     0.9070     1.1210 C.2   1 <1>   0.5690 
 23 C        6.1700    -1.4100     0.4210 C.3   1 <1>   0.1400 
 24 O        4.6180    -2.1530    -1.3120 O.3   1 <1>  -0.3630 
 25 C       -6.8520     2.2980     0.5610 C.3   1 <1>   0.0400 
 26 O        6.8420     1.0650     1.4680 O.2   1 <1>  -0.5700 
 27 C        4.8340     2.1480     1.0520 C.3   1 <1>  -0.1790 
 28 C        5.9670    -1.7950    -1.0500 C.3   1 <1>   0.1200 
 29 H       -2.6410    -0.1780     1.8110 H     1 <1>   0.0800 
 30 H       -2.3990     1.5420     1.8830 H     1 <1>   0.0800 
 31 H       -0.6850     2.5860     0.4830 H     1 <1>   0.0800 
 32 H        0.2870     1.5850    -0.5670 H     1 <1>   0.0800 
 33 H        2.9600     0.4390     2.0240 H     1 <1>   0.1500 
 34 H        0.2470    -1.6470    -0.4860 H     1 <1>   0.1500 
 35 H       -1.4260     2.8130    -1.8400 H     1 <1>   0.0800 
 36 H       -1.6330     1.0930    -1.9730 H     1 <1>   0.0800 
 37 H        2.1410    -2.5810    -1.7540 H     1 <1>   0.1500 
 38 H       -4.7830     1.6940     1.7230 H     1 <1>   0.0800 
 39 H       -3.8130     2.1410    -1.5910 H     1 <1>   0.0800 
 40 H       -3.2060     2.9810    -0.1990 H     1 <1>   0.0800 
 41 H       -4.2130    -0.1980    -1.5730 H     1 <1>   0.0800 
 42 H       -2.7860    -0.9230    -0.8730 H     1 <1>   0.0800 
 43 H       -5.0070    -0.6060     2.1940 H     1 <1>   0.0800 
 44 H       -6.4010    -0.4580     1.1550 H     1 <1>   0.0800 
 45 H       -4.0690    -2.0430     0.7320 H     1 <1>   0.0800 
 46 H       -5.3610    -1.7960    -0.4250 H     1 <1>   0.0800 
 47 H        7.1870    -1.0900     0.5690 H     1 <1>   0.0800 
 48 H        5.9940    -2.2640     1.0510 H     1 <1>   0.0800 
 49 H       -7.4990     2.6550    -0.2200 H     1 <1>   0.0800 
 50 H       -6.4720     3.1320     1.1250 H     1 <1>   0.0800 
 51 H       -7.3950     1.6240     1.2000 H     1 <1>   0.0800 
 52 H        4.1300     2.0800     0.2450 H     1 <1>   0.0800 
 53 H        5.4590     3.0050     0.8820 H     1 <1>   0.0800 
 54 H        4.3180     2.2860     1.9820 H     1 <1>   0.0800 
 55 H        6.5870    -2.6340    -1.3110 H     1 <1>   0.0800 
 56 H        6.2170    -0.9650    -1.6860 H     1 <1>   0.0800 
@<TRIPOS>BOND
  1   1   2  2   
  2   1   3  2   
  3   1   4  am  
  4   1   5  1   
  5   4   6  1   
  6   4   7  1   
  7   5   8  ar  
  8   5   9  ar  
  9   6  10  1   
 10   6  29  1   
 11   6  30  1   
 12   7  11  1   
 13   7  31  1   
 14   7  32  1   
 15   8  12  ar  
 16   8  33  1   
 17   9  13  ar  
 18   9  34  1   
 19  10  14  1   
 20  10  15  1   
 21  10  16  1   
 22  11  15  1   
 23  11  35  1   
 24  11  36  1   
 25  12  17  1   
 26  12  18  ar  
 27  13  18  ar  
 28  13  37  1   
 29  14  19  1   
 30  14  20  1   
 31  14  38  1   
 32  15  39  1   
 33  15  40  1   
 34  16  21  1   
 35  16  41  1   
 36  16  42  1   
 37  17  22  am  
 38  17  23  1   
 39  18  24  1   
 40  19  25  1   
 41  20  21  1   
 42  20  43  1   
 43  20  44  1   
 44  21  45  1   
 45  21  46  1   
 46  22  26  2   
 47  22  27  1   
 48  23  28  1   
 49  23  47  1   
 50  23  48  1   
 51  24  28  1   
 52  25  49  1   
 53  25  50  1   
 54  25  51  1   
 55  27  52  1   
 56  27  53  1   
 57  27  54  1   
 58  28  55  1   
 59  28  56  1   
@<TRIPOS>SUBSTRUCTURE
  1 ****   5 GROUP 4 **** **** 0

# MOE 2024.06 (io_trps.svl 2023.06)
