@<TRIPOS>MOLECULE
NONAME
48 50 1 0 0 
SMALL
USER_CHARGES


@<TRIPOS>ATOM
  1 S       -0.6410    -0.2430     0.3320 S.o2  1 <1>   1.0900 
  2 O       -1.4940     0.0820     1.4500 O.2   1 <1>  -0.6500 
  3 O       -0.5840     0.5780    -0.8580 O.2   1 <1>  -0.6500 
  4 C        1.0120    -0.5370     0.8720 C.3   1 <1>  -0.0550 
  5 C       -0.8580    -1.9280    -0.1570 C.3   1 <1>  -0.0550 
  6 C        1.5930    -1.4680    -0.1820 C.3   1 <1>   0.2000 
  7 C        0.4680    -2.3660    -0.7950 C.3   1 <1>   0.1900 
  8 O        2.1460    -0.6800    -1.1830 O.3   1 <1>  -0.6800 
  9 N        0.7260    -3.8220    -0.6020 N.3   1 <1>  -0.8100 
 10 C       -0.3940    -4.6730    -1.0810 C.3   1 <1>   0.1100 
 11 C        1.9630    -4.2150    -1.3180 C.3   1 <1>   0.0300 
 12 C       -0.3110    -6.0870    -0.4900 C.3   1 <1>  -0.0990 
 13 C       -1.5600    -6.9090    -0.7820 C.2   1 <1>   0.5690 
 14 O       -2.2450    -6.5510    -1.7120 O.2   1 <1>  -0.5700 
 15 N       -1.8710    -8.0150    -0.0060 N.am  1 <1>  -0.4770 
 16 C       -3.1390    -8.6550    -0.0010 C.ar  1 <1>   0.1170 
 17 C       -0.8160    -8.7230     0.7740 C.3   1 <1>   0.1400 
 18 C       -3.2480   -10.0350     0.2170 C.ar  1 <1>  -0.1430 
 19 C       -4.3150    -7.9300    -0.1880 C.ar  1 <1>  -0.1500 
 20 C       -0.7110   -10.1570     0.2580 C.3   1 <1>  -0.1600 
 21 C       -4.4910   -10.6480     0.2160 C.ar  1 <1>  -0.1500 
 22 C       -2.0270   -10.9050     0.4890 C.3   1 <1>  -0.0170 
 23 C       -5.5520    -8.5460    -0.1880 C.ar  1 <1>  -0.1500 
 24 C       -5.6420    -9.9100     0.0110 C.ar  1 <1>  -0.1500 
 25 H        1.5830     0.3650     0.9750 H     1 <1>   0.0800 
 26 H        0.9910    -1.0510     1.8140 H     1 <1>   0.0800 
 27 H       -1.0460    -2.5250     0.7150 H     1 <1>   0.0800 
 28 H       -1.6730    -2.0260    -0.8470 H     1 <1>   0.0800 
 29 H        2.3880    -2.0490     0.2520 H     1 <1>   0.0800 
 30 H        0.4100    -2.1650    -1.8530 H     1 <1>   0.0800 
 31 H        1.4810    -0.0490    -1.5440 H     1 <1>   0.4000 
 32 H       -1.3410    -4.2690    -0.7730 H     1 <1>   0.0800 
 33 H       -0.3990    -4.7190    -2.1580 H     1 <1>   0.0800 
 34 H        2.1960    -5.2480    -1.1340 H     1 <1>   0.0800 
 35 H        2.8100    -3.6400    -0.9900 H     1 <1>   0.0800 
 36 H        1.8460    -4.0690    -2.3790 H     1 <1>   0.0800 
 37 H       -0.1940    -5.9970     0.5740 H     1 <1>   0.0800 
 38 H        0.5280    -6.6090    -0.9040 H     1 <1>   0.0800 
 39 H        0.1430    -8.2510     0.6770 H     1 <1>   0.0800 
 40 H       -1.0910    -8.7230     1.8150 H     1 <1>   0.0800 
 41 H       -4.2690    -6.8680    -0.3390 H     1 <1>   0.1500 
 42 H       -0.4880   -10.1330    -0.7950 H     1 <1>   0.0800 
 43 H        0.0900   -10.6710     0.7580 H     1 <1>   0.0800 
 44 H       -4.5710   -11.7090     0.3780 H     1 <1>   0.1500 
 45 H       -2.0710   -11.2270     1.5140 H     1 <1>   0.0800 
 46 H       -2.0550   -11.7800    -0.1360 H     1 <1>   0.0800 
 47 H       -6.4430    -7.9630    -0.3440 H     1 <1>   0.1500 
 48 H       -6.6030   -10.3950     0.0090 H     1 <1>   0.1500 
@<TRIPOS>BOND
  1   1   2  2   
  2   1   3  2   
  3   1   4  1   
  4   1   5  1   
  5   4   6  1   
  6   4  25  1   
  7   4  26  1   
  8   5   7  1   
  9   5  27  1   
 10   5  28  1   
 11   6   7  1   
 12   6   8  1   
 13   6  29  1   
 14   7   9  1   
 15   7  30  1   
 16   8  31  1   
 17   9  10  1   
 18   9  11  1   
 19  10  12  1   
 20  10  32  1   
 21  10  33  1   
 22  11  34  1   
 23  11  35  1   
 24  11  36  1   
 25  12  13  1   
 26  12  37  1   
 27  12  38  1   
 28  13  14  2   
 29  13  15  am  
 30  15  16  1   
 31  15  17  1   
 32  16  18  ar  
 33  16  19  ar  
 34  17  20  1   
 35  17  39  1   
 36  17  40  1   
 37  18  21  ar  
 38  18  22  1   
 39  19  23  ar  
 40  19  41  1   
 41  20  22  1   
 42  20  42  1   
 43  20  43  1   
 44  21  24  ar  
 45  21  44  1   
 46  22  45  1   
 47  22  46  1   
 48  23  24  ar  
 49  23  47  1   
 50  24  48  1   
@<TRIPOS>SUBSTRUCTURE
  1 ****  12 GROUP 4 **** **** 0

# MOE 2024.06 (io_trps.svl 2023.06)
