@<TRIPOS>MOLECULE
NONAME
52 55 1 0 0 
SMALL
USER_CHARGES


@<TRIPOS>ATOM
  1 S       -0.3540    -0.5440     1.3170 S.o2  1 <1>   1.5760 
  2 O        0.9310    -0.6900     1.9650 O.2   1 <1>  -0.6500 
  3 O       -1.5650    -0.4430     2.1010 O.2   1 <1>  -0.6500 
  4 N       -0.5600    -1.7910     0.1970 N.am  1 <1>  -0.8490 
  5 N       -0.2620     0.7790     0.2730 N.am  1 <1>  -0.8490 
  6 C       -1.8690    -1.6670    -0.4760 C.3   1 <1>   0.1960 
  7 C       -0.3800    -3.0990     0.8330 C.3   1 <1>   0.1960 
  8 C        0.9920     0.7750    -0.4860 C.3   1 <1>   0.1960 
  9 C       -0.4290     2.0330     1.0060 C.3   1 <1>   0.1960 
 10 C       -2.0810    -2.6660    -1.6250 C.3   1 <1>   0.2090 
 11 C        0.0030    -4.1550    -0.2100 C.3   1 <1>  -0.1600 
 12 C        0.9790     1.9000    -1.5270 C.3   1 <1>  -0.1600 
 13 C       -0.4890     3.2120     0.0280 C.3   1 <1>  -0.1600 
 14 N       -2.3450    -4.0410    -1.1080 N.pl3 1 <1>  -0.8220 
 15 C       -1.1850    -4.9180    -0.8040 C.3   1 <1>   0.2090 
 16 C        0.7560     3.2650    -0.8650 C.3   1 <1>  -0.1600 
 17 C       -3.6350    -4.4500    -0.8120 C.2   1 <1>   0.5620 
 18 O       -4.6580    -3.6530    -0.9520 O.3   1 <1>  -0.0190 
 19 N       -3.9940    -5.5970    -0.3800 N.2   1 <1>  -0.5650 
 20 N       -5.7360    -4.2670    -0.6080 N.2   1 <1>  -0.4100 
 21 C       -5.3320    -5.4430    -0.2630 C.2   1 <1>   0.4620 
 22 C       -6.1950    -6.5160     0.2060 C.ar  1 <1>   0.0540 
 23 C       -7.5620    -6.3100     0.4090 C.ar  1 <1>  -0.1500 
 24 C       -5.7000    -7.7940     0.4740 C.ar  1 <1>  -0.1500 
 25 C       -8.3900    -7.3240     0.8560 C.ar  1 <1>  -0.1500 
 26 C       -6.5220    -8.8130     0.9220 C.ar  1 <1>  -0.1500 
 27 C       -7.8710    -8.5790     1.1140 C.ar  1 <1>  -0.1500 
 28 H       -1.9490    -0.6810    -0.8980 H     1 <1>   0.0800 
 29 H       -2.6690    -1.7760     0.2370 H     1 <1>   0.0800 
 30 H       -1.2640    -3.3860     1.3800 H     1 <1>   0.0800 
 31 H        0.4340    -3.0420     1.5370 H     1 <1>   0.0800 
 32 H        1.1090    -0.1690    -0.9920 H     1 <1>   0.0800 
 33 H        1.8290     0.9030     0.1810 H     1 <1>   0.0800 
 34 H        0.3880     2.1650     1.6980 H     1 <1>   0.0800 
 35 H       -1.3470     2.0050     1.5710 H     1 <1>   0.0800 
 36 H       -1.2220    -2.6660    -2.2730 H     1 <1>   0.0800 
 37 H       -2.9240    -2.3420    -2.2100 H     1 <1>   0.0800 
 38 H        0.6380    -4.8800     0.2640 H     1 <1>   0.0800 
 39 H        0.5850    -3.7010    -0.9920 H     1 <1>   0.0800 
 40 H        0.1940     1.7050    -2.2360 H     1 <1>   0.0800 
 41 H        1.9130     1.9040    -2.0600 H     1 <1>   0.0800 
 42 H       -0.5780     4.1290     0.5810 H     1 <1>   0.0800 
 43 H       -1.3700     3.1080    -0.5810 H     1 <1>   0.0800 
 44 H       -1.4880    -5.6740    -0.0990 H     1 <1>   0.0800 
 45 H       -0.8790    -5.4200    -1.7060 H     1 <1>   0.0800 
 46 H        0.6380     4.0250    -1.6180 H     1 <1>   0.0800 
 47 H        1.6150     3.5160    -0.2660 H     1 <1>   0.0800 
 48 H       -7.9840    -5.3400     0.2140 H     1 <1>   0.1500 
 49 H       -4.6530    -7.9970     0.3300 H     1 <1>   0.1500 
 50 H       -9.4400    -7.1360     1.0040 H     1 <1>   0.1500 
 51 H       -6.1130    -9.7880     1.1200 H     1 <1>   0.1500 
 52 H       -8.5130    -9.3690     1.4620 H     1 <1>   0.1500 
@<TRIPOS>BOND
  1   1   2  2   
  2   1   3  2   
  3   1   4  am  
  4   1   5  am  
  5   4   6  1   
  6   4   7  1   
  7   5   8  1   
  8   5   9  1   
  9   6  10  1   
 10   6  28  1   
 11   6  29  1   
 12   7  11  1   
 13   7  30  1   
 14   7  31  1   
 15   8  12  1   
 16   8  32  1   
 17   8  33  1   
 18   9  13  1   
 19   9  34  1   
 20   9  35  1   
 21  10  14  1   
 22  10  36  1   
 23  10  37  1   
 24  11  15  1   
 25  11  38  1   
 26  11  39  1   
 27  12  16  1   
 28  12  40  1   
 29  12  41  1   
 30  13  16  1   
 31  13  42  1   
 32  13  43  1   
 33  14  15  1   
 34  14  17  1   
 35  15  44  1   
 36  15  45  1   
 37  16  46  1   
 38  16  47  1   
 39  17  18  1   
 40  17  19  2   
 41  18  20  1   
 42  19  21  1   
 43  20  21  2   
 44  21  22  1   
 45  22  23  ar  
 46  22  24  ar  
 47  23  25  ar  
 48  23  48  1   
 49  24  26  ar  
 50  24  49  1   
 51  25  27  ar  
 52  25  50  1   
 53  26  27  ar  
 54  26  51  1   
 55  27  52  1   
@<TRIPOS>SUBSTRUCTURE
  1 ****  14 GROUP 4 **** **** 0

# MOE 2024.06 (io_trps.svl 2023.06)
