@<TRIPOS>MOLECULE
NONAME
54 57 1 0 0 
SMALL
USER_CHARGES


@<TRIPOS>ATOM
  1 O       -0.4920     0.1600     0.6300 O.2   1 <1>  -0.5700 
  2 C       -1.4380     0.7850     1.0710 C.2   1 <1>   0.5440 
  3 N       -2.6610     0.1550     1.1560 N.am  1 <1>  -0.6600 
  4 C       -1.2610     2.1720     1.4630 C.ar  1 <1>   0.0860 
  5 C       -2.7960    -1.3310     1.0180 C.3   1 <1>   0.1400 
  6 C       -3.9600     0.8690     0.9570 C.3   1 <1>   0.1400 
  7 C       -0.4830     3.0340     0.6940 C.ar  1 <1>  -0.1500 
  8 C       -1.8530     2.6900     2.6150 C.ar  1 <1>  -0.1500 
  9 C       -3.5580    -1.7010    -0.2670 C.3   1 <1>   0.3440 
 10 C       -4.6640     0.3780    -0.3240 C.3   1 <1>   0.2950 
 11 C       -0.3070     4.3690     1.0270 C.ar  1 <1>   0.1170 
 12 C       -1.6910     4.0170     2.9670 C.ar  1 <1>  -0.1500 
 13 O       -4.7830    -1.0150    -0.3160 O.3   1 <1>  -0.5600 
 14 C       -3.8080    -3.2060    -0.3270 C.ar  1 <1>  -0.1430 
 15 C       -6.0760     0.9590    -0.4450 C.3   1 <1>  -0.1950 
 16 N        0.4990     5.1710     0.2060 N.am  1 <1>  -0.5470 
 17 C       -0.9240     4.8520     2.1760 C.ar  1 <1>  -0.1500 
 18 C       -4.9560    -3.7750     0.2070 C.ar  1 <1>  -0.1500 
 19 C       -2.8600    -4.0320    -0.9160 C.ar  1 <1>  -0.1500 
 20 C       -6.7620     1.0530    -1.7710 C.3   1 <1>  -0.2000 
 21 C       -6.3100     2.3010    -1.0670 C.3   1 <1>  -0.2000 
 22 C        0.4930     6.5230     0.0020 C.2   1 <1>   0.5690 
 23 C       -5.1540    -5.1440     0.1540 C.ar  1 <1>  -0.1500 
 24 C       -3.0560    -5.4010    -0.9700 C.ar  1 <1>  -0.1500 
 25 O       -0.3000     7.2760     0.5100 O.2   1 <1>  -0.5700 
 26 C        1.5460     7.0970    -0.9300 C.3   1 <1>  -0.0990 
 27 C       -4.2030    -5.9580    -0.4350 C.ar  1 <1>  -0.1500 
 28 C        1.3130     6.7180    -2.4020 C.3   1 <1>  -0.2400 
 29 H       -1.8290    -1.8020     1.0050 H     1 <1>   0.0800 
 30 H       -3.3330    -1.7180     1.8660 H     1 <1>   0.0800 
 31 H       -4.5970     0.6880     1.8050 H     1 <1>   0.0800 
 32 H       -3.8050     1.9300     0.8770 H     1 <1>   0.0800 
 33 H       -0.0080     2.6410    -0.1860 H     1 <1>   0.1500 
 34 H       -2.4430     2.0420     3.2400 H     1 <1>   0.1500 
 35 H       -2.9790    -1.4060    -1.1250 H     1 <1>   0.0800 
 36 H       -4.0850     0.6590    -1.1870 H     1 <1>   0.0800 
 37 H       -2.1580     4.4040     3.8570 H     1 <1>   0.1500 
 38 H       -6.6890     0.7000     0.4010 H     1 <1>   0.1000 
 39 H        1.1720     4.6610    -0.3620 H     1 <1>   0.3700 
 40 H       -0.8020     5.8820     2.4600 H     1 <1>   0.1500 
 41 H       -5.7040    -3.1500     0.6640 H     1 <1>   0.1500 
 42 H       -1.9620    -3.6130    -1.3360 H     1 <1>   0.1500 
 43 H       -6.2340     0.7220    -2.6490 H     1 <1>   0.1000 
 44 H       -7.8140     0.8280    -1.8170 H     1 <1>   0.1000 
 45 H       -7.0570     2.9480    -0.6410 H     1 <1>   0.1000 
 46 H       -5.4830     2.8480    -1.4860 H     1 <1>   0.1000 
 47 H       -6.0480    -5.5740     0.5690 H     1 <1>   0.1500 
 48 H       -2.3150    -6.0320    -1.4290 H     1 <1>   0.1500 
 49 H        1.5320     8.1680    -0.8370 H     1 <1>   0.0800 
 50 H        2.5140     6.7560    -0.6130 H     1 <1>   0.0800 
 51 H       -4.3560    -7.0220    -0.4770 H     1 <1>   0.1500 
 52 H        0.3440     7.0630    -2.7210 H     1 <1>   0.0800 
 53 H        1.3620     5.6530    -2.5380 H     1 <1>   0.0800 
 54 H        2.0610     7.1790    -3.0240 H     1 <1>   0.0800 
@<TRIPOS>BOND
  1   1   2  2   
  2   2   3  am  
  3   2   4  1   
  4   3   5  1   
  5   3   6  1   
  6   4   7  ar  
  7   4   8  ar  
  8   5   9  1   
  9   5  29  1   
 10   5  30  1   
 11   6  10  1   
 12   6  31  1   
 13   6  32  1   
 14   7  11  ar  
 15   7  33  1   
 16   8  12  ar  
 17   8  34  1   
 18   9  13  1   
 19   9  14  1   
 20   9  35  1   
 21  10  13  1   
 22  10  15  1   
 23  10  36  1   
 24  11  16  1   
 25  11  17  ar  
 26  12  17  ar  
 27  12  37  1   
 28  14  18  ar  
 29  14  19  ar  
 30  15  20  1   
 31  15  21  1   
 32  15  38  1   
 33  16  22  am  
 34  16  39  1   
 35  17  40  1   
 36  18  23  ar  
 37  18  41  1   
 38  19  24  ar  
 39  19  42  1   
 40  20  21  1   
 41  20  43  1   
 42  20  44  1   
 43  21  45  1   
 44  21  46  1   
 45  22  25  2   
 46  22  26  1   
 47  23  27  ar  
 48  23  47  1   
 49  24  27  ar  
 50  24  48  1   
 51  26  28  1   
 52  26  49  1   
 53  26  50  1   
 54  27  51  1   
 55  28  52  1   
 56  28  53  1   
 57  28  54  1   
@<TRIPOS>SUBSTRUCTURE
  1 ****   3 GROUP 4 **** **** 0

# MOE 2024.06 (io_trps.svl 2023.06)
