@<TRIPOS>MOLECULE
NONAME
47 48 1 0 0 
SMALL
USER_CHARGES


@<TRIPOS>ATOM
  1 CL      -1.3380    -0.3300    -2.1300 Cl    1 <1>  -0.1770 
  2 C       -2.1230    -1.1070    -0.7710 C.ar  1 <1>   0.1770 
  3 C       -2.6050    -0.4030     0.3360 C.ar  1 <1>   0.0830 
  4 C       -2.2760    -2.4790    -0.8590 C.ar  1 <1>  -0.1500 
  5 O       -2.5100     0.9370     0.5280 O.3   1 <1>  -0.3630 
  6 C       -3.2510    -1.1110     1.3370 C.ar  1 <1>  -0.1500 
  7 C       -2.9270    -3.1780     0.1490 C.ar  1 <1>  -0.1430 
  8 C       -1.3300     1.6390     0.2010 C.3   1 <1>   0.0400 
  9 C       -3.4090    -2.4840     1.2500 C.ar  1 <1>  -0.1500 
 10 C       -3.1150    -4.6800     0.0410 C.3   1 <1>   0.4870 
 11 N       -4.1830    -4.9520    -0.9620 N.4   1 <1>  -0.9590 
 12 C       -5.5300    -4.4510    -0.5210 C.3   1 <1>   0.3430 
 13 C       -4.3230    -6.4080    -1.2400 C.3   1 <1>   0.3430 
 14 C       -6.4160    -5.6890    -0.3240 C.3   1 <1>   0.2000 
 15 C       -5.4750    -6.8870    -0.3580 C.3   1 <1>  -0.0800 
 16 O       -7.0920    -5.6580     0.8840 O.3   1 <1>  -0.6800 
 17 C       -6.1630    -8.1780    -0.8530 C.3   1 <1>  -0.0550 
 18 S       -5.0410    -9.5750    -0.9750 S.o2  1 <1>   1.3330 
 19 O       -5.7890   -10.7780    -1.2420 O.2   1 <1>  -0.6500 
 20 O       -3.9760    -9.1500    -1.8570 O.2   1 <1>  -0.6500 
 21 N       -4.3900    -9.6730     0.5890 N.am  1 <1>  -0.8490 
 22 C       -3.1210   -10.4130     0.5940 C.3   1 <1>   0.1160 
 23 C       -5.3060   -10.3130     1.5460 C.3   1 <1>   0.1160 
 24 H       -1.8790    -2.9790    -1.7250 H     1 <1>   0.1500 
 25 H       -3.6270    -0.5720     2.1900 H     1 <1>   0.1500 
 26 H       -1.2680     2.5020     0.8390 H     1 <1>   0.0800 
 27 H       -1.3850     1.9570    -0.8240 H     1 <1>   0.0800 
 28 H       -0.4770     1.0030     0.3620 H     1 <1>   0.0800 
 29 H       -3.9090    -2.9950     2.0560 H     1 <1>   0.1500 
 30 H       -3.3870    -5.0890     1.0010 H     1 <1>   0.0800 
 31 H       -2.1880    -5.1320    -0.2720 H     1 <1>   0.0800 
 32 H       -3.9100    -4.4570    -1.8220 H     1 <1>   0.4500 
 33 H       -5.4550    -3.8970     0.4000 H     1 <1>   0.0800 
 34 H       -5.9590    -3.8160    -1.2780 H     1 <1>   0.0800 
 35 H       -4.5820    -6.5560    -2.2770 H     1 <1>   0.0800 
 36 H       -3.4130    -6.9510    -1.0340 H     1 <1>   0.0800 
 37 H       -7.1500    -5.7320    -1.1130 H     1 <1>   0.0800 
 38 H       -5.0720    -7.0590     0.6260 H     1 <1>   0.0800 
 39 H       -6.5120    -5.8060     1.6580 H     1 <1>   0.4000 
 40 H       -6.6020    -8.0060    -1.8170 H     1 <1>   0.0800 
 41 H       -6.9610    -8.4270    -0.1800 H     1 <1>   0.0800 
 42 H       -2.7170   -10.4590     1.5910 H     1 <1>   0.0800 
 43 H       -2.4000    -9.9240    -0.0390 H     1 <1>   0.0800 
 44 H       -3.2700   -11.4170     0.2290 H     1 <1>   0.0800 
 45 H       -4.8740   -10.3080     2.5330 H     1 <1>   0.0800 
 46 H       -5.5020   -11.3340     1.2590 H     1 <1>   0.0800 
 47 H       -6.2410    -9.7830     1.5860 H     1 <1>   0.0800 
@<TRIPOS>BOND
  1   1   2  1   
  2   2   3  ar  
  3   2   4  ar  
  4   3   5  1   
  5   3   6  ar  
  6   4   7  ar  
  7   4  24  1   
  8   5   8  1   
  9   6   9  ar  
 10   6  25  1   
 11   7   9  ar  
 12   7  10  1   
 13   8  26  1   
 14   8  27  1   
 15   8  28  1   
 16   9  29  1   
 17  10  11  1   
 18  10  30  1   
 19  10  31  1   
 20  11  12  1   
 21  11  13  1   
 22  11  32  1   
 23  12  14  1   
 24  12  33  1   
 25  12  34  1   
 26  13  15  1   
 27  13  35  1   
 28  13  36  1   
 29  14  15  1   
 30  14  16  1   
 31  14  37  1   
 32  15  17  1   
 33  15  38  1   
 34  16  39  1   
 35  17  18  1   
 36  17  40  1   
 37  17  41  1   
 38  18  19  2   
 39  18  20  2   
 40  18  21  am  
 41  21  22  1   
 42  21  23  1   
 43  22  42  1   
 44  22  43  1   
 45  22  44  1   
 46  23  45  1   
 47  23  46  1   
 48  23  47  1   
@<TRIPOS>SUBSTRUCTURE
  1 ****  11 GROUP 4 **** **** 0

# MOE 2024.06 (io_trps.svl 2023.06)
