@<TRIPOS>MOLECULE
NONAME
49 51 1 0 0 
SMALL
USER_CHARGES


@<TRIPOS>ATOM
  1 O       -2.4980     3.6300     1.9760 O.2   1 <1>  -0.5700 
  2 C       -2.2300     2.9290     1.0210 C.2   1 <1>   0.6160 
  3 N       -2.7250     1.6400     0.9650 N.am  1 <1>  -0.6600 
  4 C       -1.4160     3.4800    -0.0370 C.2   1 <1>  -0.0140 
  5 C       -2.6240     0.7760    -0.2550 C.3   1 <1>   0.1400 
  6 C       -3.4950     1.0510     2.0990 C.3   1 <1>   0.1400 
  7 C       -0.0850     2.9690    -0.2810 C.ar  1 <1>   0.0280 
  8 C       -1.8880     4.4870    -0.8270 C.2   1 <1>  -0.1360 
  9 C       -4.0170     0.3070    -0.7070 C.3   1 <1>   0.2000 
 10 C       -4.8860     0.6190     1.6160 C.3   1 <1>  -0.1600 
 11 C        0.6470     3.4840    -1.3670 C.ar  1 <1>   0.1170 
 12 C        0.5250     1.9870     0.5090 C.ar  1 <1>  -0.1500 
 13 C       -1.1380     5.0180    -1.9060 C.2   1 <1>   0.6160 
 14 O       -3.8740    -0.5330    -1.8060 O.3   1 <1>  -0.6800 
 15 C       -4.8390    -0.3760     0.4250 C.3   1 <1>   0.0000 
 16 N        0.0880     4.4880    -2.1470 N.am  1 <1>  -0.5470 
 17 C        1.9210     3.0000    -1.6490 C.ar  1 <1>  -0.1500 
 18 C        1.7890     1.5170     0.2230 C.ar  1 <1>  -0.1500 
 19 O       -1.5420     5.9100    -2.6280 O.2   1 <1>  -0.5700 
 20 C       -4.1390    -1.6980     0.8550 C.3   1 <1>   0.1200 
 21 C       -6.2830    -0.7210    -0.0450 C.3   1 <1>  -0.1600 
 22 C        2.4900     2.0220    -0.8630 C.ar  1 <1>  -0.1500 
 23 O       -4.7950    -2.3080     1.9150 O.3   1 <1>  -0.6800 
 24 C       -7.1150     0.4320    -0.6400 C.3   1 <1>  -0.1600 
 25 C       -8.5190    -0.0510    -1.0130 C.3   1 <1>  -0.2400 
 26 H       -2.1750     1.3160    -1.0690 H     1 <1>   0.0800 
 27 H       -1.9970    -0.0690    -0.0300 H     1 <1>   0.0800 
 28 H       -2.9510     0.2130     2.4980 H     1 <1>   0.0800 
 29 H       -3.6090     1.7670     2.8960 H     1 <1>   0.0800 
 30 H       -2.8570     4.9200    -0.6690 H     1 <1>   0.1500 
 31 H       -4.5400     1.1800    -1.0560 H     1 <1>   0.0800 
 32 H       -5.4310     0.1960     2.4400 H     1 <1>   0.0800 
 33 H       -5.4070     1.5140     1.3290 H     1 <1>   0.0800 
 34 H        0.0070     1.5870     1.3630 H     1 <1>   0.1500 
 35 H       -3.5650    -1.4180    -1.5400 H     1 <1>   0.4000 
 36 H        0.5950     4.9010    -2.9280 H     1 <1>   0.3700 
 37 H        2.4660     3.3970    -2.4870 H     1 <1>   0.1500 
 38 H        2.2400     0.7600     0.8410 H     1 <1>   0.1500 
 39 H       -3.1220    -1.5330     1.1600 H     1 <1>   0.0800 
 40 H       -4.1380    -2.4050     0.0440 H     1 <1>   0.0800 
 41 H       -6.2240    -1.4990    -0.7880 H     1 <1>   0.0800 
 42 H       -6.8300    -1.1320     0.7860 H     1 <1>   0.0800 
 43 H        3.4770     1.6500    -1.0830 H     1 <1>   0.1500 
 44 H       -4.9000    -1.6920     2.6640 H     1 <1>   0.4000 
 45 H       -7.2090     1.2380     0.0650 H     1 <1>   0.0800 
 46 H       -6.6430     0.8110    -1.5300 H     1 <1>   0.0800 
 47 H       -9.0360    -0.4170    -0.1430 H     1 <1>   0.0800 
 48 H       -8.4640    -0.8420    -1.7410 H     1 <1>   0.0800 
 49 H       -9.0880     0.7590    -1.4320 H     1 <1>   0.0800 
@<TRIPOS>BOND
  1   1   2  2   
  2   2   3  am  
  3   2   4  1   
  4   3   5  1   
  5   3   6  1   
  6   4   7  1   
  7   4   8  2   
  8   5   9  1   
  9   5  26  1   
 10   5  27  1   
 11   6  10  1   
 12   6  28  1   
 13   6  29  1   
 14   7  11  ar  
 15   7  12  ar  
 16   8  13  1   
 17   8  30  1   
 18   9  14  1   
 19   9  15  1   
 20   9  31  1   
 21  10  15  1   
 22  10  32  1   
 23  10  33  1   
 24  11  16  1   
 25  11  17  ar  
 26  12  18  ar  
 27  12  34  1   
 28  13  16  am  
 29  13  19  2   
 30  14  35  1   
 31  15  20  1   
 32  15  21  1   
 33  16  36  1   
 34  17  22  ar  
 35  17  37  1   
 36  18  22  ar  
 37  18  38  1   
 38  20  23  1   
 39  20  39  1   
 40  20  40  1   
 41  21  24  1   
 42  21  41  1   
 43  21  42  1   
 44  22  43  1   
 45  23  44  1   
 46  24  25  1   
 47  24  45  1   
 48  24  46  1   
 49  25  47  1   
 50  25  48  1   
 51  25  49  1   
@<TRIPOS>SUBSTRUCTURE
  1 ****   5 GROUP 4 **** **** 0

# MOE 2024.06 (io_trps.svl 2023.06)
