@<TRIPOS>MOLECULE
NONAME
42 44 1 0 0 
SMALL
USER_CHARGES


@<TRIPOS>ATOM
  1 S       -0.3720    -0.0980     0.5390 S.3   1 <1>  -0.3320 
  2 C       -0.2600    -1.8670     0.3620 C.ar  1 <1>   0.7720 
  3 C        1.3320     0.6010     0.7540 C.3   1 <1>  -0.0100 
  4 N       -1.3590    -2.5190     0.1970 N.ar  1 <1>  -0.6200 
  5 N        0.9680    -2.4170     0.4130 N.ar  1 <1>  -0.1790 
  6 C       -1.2670    -3.8550     0.0650 C.ar  1 <1>   0.4100 
  7 C        1.1160    -3.7440     0.2850 C.ar  1 <1>   0.4610 
  8 N       -2.4370    -4.5250    -0.1070 N.pl3 1 <1>  -0.8380 
  9 C       -0.0350    -4.4830     0.1040 C.ar  1 <1>  -0.1500 
 10 N        2.3480    -4.2940     0.3370 N.pl3 1 <1>  -0.9000 
 11 C       -3.7730    -3.8570    -0.1830 C.3   1 <1>   0.2090 
 12 C       -2.6080    -5.9990    -0.1920 C.3   1 <1>   0.2090 
 13 C       -4.7890    -4.9900    -0.3540 C.3   1 <1>   0.2000 
 14 C       -4.0790    -6.2500     0.1360 C.3   1 <1>  -0.0800 
 15 O       -5.9410    -4.7770     0.3890 O.3   1 <1>  -0.6800 
 16 C       -4.6380    -7.5420    -0.4790 C.3   1 <1>  -0.0170 
 17 C       -3.7700    -8.7390    -0.1180 C.ar  1 <1>  -0.1430 
 18 C       -3.7090    -9.2310     1.1700 C.ar  1 <1>  -0.1500 
 19 C       -2.9930    -9.3890    -1.0560 C.ar  1 <1>  -0.1500 
 20 C       -2.8890   -10.3110     1.4530 C.ar  1 <1>   0.1600 
 21 C       -2.2080   -10.4620    -0.6690 C.ar  1 <1>   0.1600 
 22 N       -2.1320   -10.9340     0.5640 N.ar  1 <1>  -0.6200 
 23 H        1.2240     1.6680     0.8540 H     1 <1>   0.0800 
 24 H        1.9130     0.3730    -0.1220 H     1 <1>   0.0800 
 25 H        1.7640     0.1920     1.6500 H     1 <1>   0.0800 
 26 H        1.7690    -1.8190     0.5470 H     1 <1>   0.4570 
 27 H        0.0340    -5.5470    -0.0090 H     1 <1>   0.1500 
 28 H        3.2440    -3.8110     0.4710 H     1 <1>   0.4000 
 29 H        2.4850    -5.3110     0.2450 H     1 <1>   0.4000 
 30 H       -3.9530    -3.3120     0.7270 H     1 <1>   0.0800 
 31 H       -3.8070    -3.1860    -1.0240 H     1 <1>   0.0800 
 32 H       -2.3850    -6.3230    -1.1950 H     1 <1>   0.0800 
 33 H       -1.9710    -6.5160     0.5070 H     1 <1>   0.0800 
 34 H       -5.0670    -5.0730    -1.3910 H     1 <1>   0.0800 
 35 H       -4.1540    -6.3050     1.2080 H     1 <1>   0.0800 
 36 H       -5.7260    -4.6700     1.3360 H     1 <1>   0.4000 
 37 H       -4.6900    -7.4440    -1.5500 H     1 <1>   0.0800 
 38 H       -5.6400    -7.7050    -0.1210 H     1 <1>   0.0800 
 39 H       -4.2920    -8.7880     1.9570 H     1 <1>   0.1500 
 40 H       -2.9900    -9.0770    -2.0840 H     1 <1>   0.1500 
 41 H       -2.8530   -10.6810     2.4630 H     1 <1>   0.1500 
 42 H       -1.6100   -10.9590    -1.4140 H     1 <1>   0.1500 
@<TRIPOS>BOND
  1   1   2  1   
  2   1   3  1   
  3   2   4  ar  
  4   2   5  ar  
  5   3  23  1   
  6   3  24  1   
  7   3  25  1   
  8   4   6  ar  
  9   5   7  ar  
 10   5  26  1   
 11   6   8  1   
 12   6   9  ar  
 13   7   9  ar  
 14   7  10  1   
 15   8  11  1   
 16   8  12  1   
 17   9  27  1   
 18  10  28  1   
 19  10  29  1   
 20  11  13  1   
 21  11  30  1   
 22  11  31  1   
 23  12  14  1   
 24  12  32  1   
 25  12  33  1   
 26  13  14  1   
 27  13  15  1   
 28  13  34  1   
 29  14  16  1   
 30  14  35  1   
 31  15  36  1   
 32  16  17  1   
 33  16  37  1   
 34  16  38  1   
 35  17  18  ar  
 36  17  19  ar  
 37  18  20  ar  
 38  18  39  1   
 39  19  21  ar  
 40  19  40  1   
 41  20  22  ar  
 42  20  41  1   
 43  21  22  ar  
 44  21  42  1   
@<TRIPOS>SUBSTRUCTURE
  1 ****  12 GROUP 4 **** **** 0

# MOE 2024.06 (io_trps.svl 2023.06)
