@<TRIPOS>MOLECULE
NONAME
36 36 1 0 0 
SMALL
USER_CHARGES


@<TRIPOS>ATOM
  1 O        1.7110    -0.2520    -2.0860 O.co2 1 <1>  -0.9000 
  2 C        1.5350     0.1600    -0.9380 C.2   1 <1>   0.9060 
  3 O        0.4280     0.4700    -0.4910 O.co2 1 <1>  -0.9000 
  4 C        2.7430     0.3570    -0.0530 C.3   1 <1>  -0.2660 
  5 C        3.1830     1.8260    -0.0710 C.3   1 <1>  -0.1600 
  6 C        4.4220     2.0800     0.8060 C.3   1 <1>  -0.0990 
  7 C        4.8630     3.5350     0.8600 C.2   1 <1>   0.5690 
  8 O        5.7420     3.8340     1.6320 O.2   1 <1>  -0.5700 
  9 N        4.2430     4.4360     0.0410 N.am  1 <1>  -0.4940 
 10 C        4.3380     5.8440    -0.0620 C.2   1 <1>  -0.0880 
 11 N        5.4540     6.6210     0.0520 N.pl3 1 <1>   0.3140 
 12 C        3.3070     6.6840    -0.3160 C.2   1 <1>  -0.1810 
 13 N        5.1460     7.9350    -0.1120 N.2   1 <1>  -0.7070 
 14 C        6.8520     6.1640     0.2560 C.3   1 <1>   0.0960 
 15 C        3.8690     7.9540    -0.3290 C.2   1 <1>   0.1390 
 16 C        1.8390     6.3640    -0.5350 C.3   1 <1>  -0.0590 
 17 C        7.8920     7.0620    -0.4380 C.3   1 <1>  -0.1600 
 18 C        9.3100     6.5020    -0.2750 C.3   1 <1>  -0.2400 
 19 H        3.5280    -0.2790    -0.4130 H     1 <1>   0.0800 
 20 H        2.4760     0.0540     0.9410 H     1 <1>   0.0800 
 21 H        2.3560     2.4230     0.2770 H     1 <1>   0.0800 
 22 H        3.3920     2.0950    -1.0940 H     1 <1>   0.0800 
 23 H        5.2450     1.4930     0.4400 H     1 <1>   0.0800 
 24 H        4.2130     1.7610     1.8110 H     1 <1>   0.0800 
 25 H        3.4720     4.0310    -0.4940 H     1 <1>   0.3700 
 26 H        6.9370     5.1680    -0.1360 H     1 <1>   0.0800 
 27 H        7.0380     6.1320     1.3130 H     1 <1>   0.0800 
 28 H        3.3170     8.8630    -0.5000 H     1 <1>   0.1500 
 29 H        1.6400     5.3250    -0.3410 H     1 <1>   0.0800 
 30 H        1.5630     6.5860    -1.5500 H     1 <1>   0.0800 
 31 H        1.2340     6.9550     0.1290 H     1 <1>   0.0800 
 32 H        7.8510     8.0490    -0.0110 H     1 <1>   0.0800 
 33 H        7.6550     7.1350    -1.4860 H     1 <1>   0.0800 
 34 H        9.5700     6.4360     0.7670 H     1 <1>   0.0800 
 35 H       10.0170     7.1490    -0.7640 H     1 <1>   0.0800 
 36 H        9.3810     5.5220    -0.7140 H     1 <1>   0.0800 
@<TRIPOS>BOND
  1   1   2  ar  
  2   2   3  ar  
  3   2   4  1   
  4   4   5  1   
  5   4  19  1   
  6   4  20  1   
  7   5   6  1   
  8   5  21  1   
  9   5  22  1   
 10   6   7  1   
 11   6  23  1   
 12   6  24  1   
 13   7   8  2   
 14   7   9  am  
 15   9  10  1   
 16   9  25  1   
 17  10  11  1   
 18  10  12  2   
 19  11  13  1   
 20  11  14  1   
 21  12  15  1   
 22  12  16  1   
 23  13  15  2   
 24  14  17  1   
 25  14  26  1   
 26  14  27  1   
 27  15  28  1   
 28  16  29  1   
 29  16  30  1   
 30  16  31  1   
 31  17  18  1   
 32  17  32  1   
 33  17  33  1   
 34  18  34  1   
 35  18  35  1   
 36  18  36  1   
@<TRIPOS>SUBSTRUCTURE
  1 ****   9 GROUP 4 **** **** 0

# MOE 2024.06 (io_trps.svl 2023.06)
