@<TRIPOS>MOLECULE
NONAME
56 59 1 0 0 
SMALL
USER_CHARGES


@<TRIPOS>ATOM
  1 CL      -2.1530     1.6870     2.4020 Cl    1 <1>  -0.1770 
  2 C       -1.0810     2.3940     1.2170 C.ar  1 <1>   0.1770 
  3 C       -1.4800     2.5120    -0.1140 C.ar  1 <1>   0.0860 
  4 C        0.1590     2.8230     1.6510 C.ar  1 <1>  -0.1500 
  5 C       -2.7800     2.0810    -0.5760 C.2   1 <1>   0.5440 
  6 C       -0.5620     3.0690    -1.0050 C.ar  1 <1>  -0.1500 
  7 C        1.0450     3.3840     0.7490 C.ar  1 <1>  -0.1500 
  8 O       -2.8400     1.1800    -1.3910 O.2   1 <1>  -0.5700 
  9 N       -3.9490     2.6870    -0.1600 N.am  1 <1>  -0.6600 
 10 C        0.6820     3.5030    -0.5820 C.ar  1 <1>  -0.1500 
 11 C       -4.0080     3.9450     0.6290 C.3   1 <1>   0.1400 
 12 C       -5.2850     2.1090    -0.4570 C.3   1 <1>   0.1400 
 13 C       -4.8300     4.9830    -0.1410 C.3   1 <1>  -0.1600 
 14 C       -6.1050     3.1340    -1.2420 C.3   1 <1>  -0.1600 
 15 C       -6.2430     4.4750    -0.4890 C.3   1 <1>   0.2800 
 16 O       -6.8700     4.2590     0.7600 O.3   1 <1>  -0.5600 
 17 C       -6.9950     5.5230    -1.3690 C.3   1 <1>   0.1400 
 18 C       -8.2240     3.9010     0.8280 C.3   1 <1>   0.1200 
 19 N       -7.8390     6.4870    -0.6110 N.am  1 <1>  -0.6600 
 20 C       -9.0880     5.1460     1.0280 C.3   1 <1>  -0.0990 
 21 C       -9.0420     6.0080    -0.2090 C.2   1 <1>   0.5690 
 22 C       -7.1110     7.5000     0.2090 C.3   1 <1>   0.3200 
 23 O      -10.0430     6.1440    -0.8650 O.2   1 <1>  -0.5700 
 24 C       -7.8520     8.8220     0.3550 C.2   1 <1>   0.1980 
 25 S       -9.2400     8.8740     1.4220 S.3   1 <1>  -0.0800 
 26 N       -7.5690     9.9410    -0.1840 N.2   1 <1>  -0.5650 
 27 C       -9.4330    10.5630     1.0540 C.2   1 <1>  -0.1400 
 28 C       -8.4620    10.9280     0.1980 C.2   1 <1>   0.0460 
 29 C      -10.5950    11.2740     1.7210 C.3   1 <1>  -0.0600 
 30 C       -8.2310    12.2960    -0.4040 C.3   1 <1>  -0.0590 
 31 H        0.4270     2.7160     2.6880 H     1 <1>   0.1500 
 32 H       -0.8360     3.1550    -2.0430 H     1 <1>   0.1500 
 33 H        2.0140     3.7210     1.0780 H     1 <1>   0.1500 
 34 H        1.3720     3.9310    -1.2900 H     1 <1>   0.1500 
 35 H       -3.0230     4.3350     0.8120 H     1 <1>   0.0800 
 36 H       -4.4690     3.7400     1.5810 H     1 <1>   0.0800 
 37 H       -5.7780     1.8690     0.4700 H     1 <1>   0.0800 
 38 H       -5.1920     1.2010    -1.0280 H     1 <1>   0.0800 
 39 H       -4.2990     5.2300    -1.0430 H     1 <1>   0.0800 
 40 H       -4.8950     5.8750     0.4520 H     1 <1>   0.0800 
 41 H       -7.0660     2.7190    -1.4760 H     1 <1>   0.0800 
 42 H       -5.6060     3.3030    -2.1800 H     1 <1>   0.0800 
 43 H       -7.6390     4.9950    -2.0520 H     1 <1>   0.0800 
 44 H       -6.2950     6.0630    -1.9830 H     1 <1>   0.0800 
 45 H       -8.3350     3.2480     1.6770 H     1 <1>   0.0800 
 46 H       -8.5220     3.3670    -0.0560 H     1 <1>   0.0800 
 47 H       -8.7550     5.6980     1.8860 H     1 <1>   0.0800 
 48 H      -10.1050     4.8470     1.1990 H     1 <1>   0.0800 
 49 H       -6.1690     7.7170    -0.2620 H     1 <1>   0.0800 
 50 H       -6.9100     7.0970     1.1860 H     1 <1>   0.0800 
 51 H      -11.5180    10.8030     1.4370 H     1 <1>   0.0800 
 52 H      -10.6300    12.3060     1.4280 H     1 <1>   0.0800 
 53 H      -10.4910    11.2200     2.7890 H     1 <1>   0.0800 
 54 H       -7.2540    12.6480    -0.1310 H     1 <1>   0.0800 
 55 H       -8.9650    12.9990    -0.0600 H     1 <1>   0.0800 
 56 H       -8.2890    12.2280    -1.4750 H     1 <1>   0.0800 
@<TRIPOS>BOND
  1   1   2  1   
  2   2   3  ar  
  3   2   4  ar  
  4   3   5  1   
  5   3   6  ar  
  6   4   7  ar  
  7   4  31  1   
  8   5   8  2   
  9   5   9  am  
 10   6  10  ar  
 11   6  32  1   
 12   7  10  ar  
 13   7  33  1   
 14   9  11  1   
 15   9  12  1   
 16  10  34  1   
 17  11  13  1   
 18  11  35  1   
 19  11  36  1   
 20  12  14  1   
 21  12  37  1   
 22  12  38  1   
 23  13  15  1   
 24  13  39  1   
 25  13  40  1   
 26  14  15  1   
 27  14  41  1   
 28  14  42  1   
 29  15  16  1   
 30  15  17  1   
 31  16  18  1   
 32  17  19  1   
 33  17  43  1   
 34  17  44  1   
 35  18  20  1   
 36  18  45  1   
 37  18  46  1   
 38  19  21  am  
 39  19  22  1   
 40  20  21  1   
 41  20  47  1   
 42  20  48  1   
 43  21  23  2   
 44  22  24  1   
 45  22  49  1   
 46  22  50  1   
 47  24  25  1   
 48  24  26  2   
 49  25  27  1   
 50  26  28  1   
 51  27  28  2   
 52  27  29  1   
 53  28  30  1   
 54  29  51  1   
 55  29  52  1   
 56  29  53  1   
 57  30  54  1   
 58  30  55  1   
 59  30  56  1   
@<TRIPOS>SUBSTRUCTURE
  1 ****  13 GROUP 4 **** **** 0

# MOE 2024.06 (io_trps.svl 2023.06)
