@<TRIPOS>MOLECULE
NONAME
57 58 1 0 0 
SMALL
USER_CHARGES


@<TRIPOS>ATOM
  1 O       -0.9240     0.1710     1.1020 O.2   1 <1>  -0.5700 
  2 C       -1.9320     0.7370     0.7500 C.2   1 <1>   0.5690 
  3 N       -3.1700     0.1950     0.9860 N.am  1 <1>  -0.6600 
  4 C       -1.7960     2.0860     0.0420 C.3   1 <1>  -0.0990 
  5 C       -3.3120    -1.0560     1.7870 C.3   1 <1>   0.3200 
  6 C       -4.4590     0.7660     0.4650 C.3   1 <1>   0.1400 
  7 C       -0.4150     2.7690     0.1880 C.3   1 <1>  -0.0800 
  8 C       -3.9160    -2.1510     0.9310 C.2   1 <1>  -0.3320 
  9 C       -5.2590     1.4860     1.5610 C.3   1 <1>   0.1200 
 10 C       -0.5050     4.2600    -0.1700 C.3   1 <1>  -0.1600 
 11 C        0.6510     2.1310    -0.7230 C.3   1 <1>  -0.1600 
 12 N       -3.2880    -2.7480    -0.1010 N.pl3 1 <1>   0.0480 
 13 C       -5.1370    -2.7230     1.0210 C.2   1 <1>   0.0770 
 14 O       -4.4320     2.3490     2.2650 O.3   1 <1>  -0.6800 
 15 C        0.8380     5.0030    -0.0490 C.3   1 <1>   0.5030 
 16 C        2.0300     2.8000    -0.6090 C.3   1 <1>   0.5030 
 17 C       -4.1850    -3.6420    -0.5740 C.2   1 <1>   0.0360 
 18 C       -1.9240    -2.5000    -0.6030 C.3   1 <1>   0.0160 
 19 N       -5.3070    -3.6570     0.0690 N.2   1 <1>  -0.5650 
 20 N        1.9230     4.2640    -0.7150 N.4   1 <1>  -0.9060 
 21 C        0.7460     6.3410    -0.7810 C.3   1 <1>  -0.2400 
 22 C        1.2120     5.2850     1.4080 C.3   1 <1>  -0.2400 
 23 C        2.9040     2.3690    -1.7860 C.3   1 <1>  -0.2400 
 24 C        2.7530     2.4150     0.6840 C.3   1 <1>  -0.2400 
 25 H       -2.5330     2.7440     0.4620 H     1 <1>   0.0800 
 26 H       -2.0320     1.9530    -0.9980 H     1 <1>   0.0800 
 27 H       -3.9510    -0.8640     2.6320 H     1 <1>   0.0800 
 28 H       -2.3620    -1.3850     2.1720 H     1 <1>   0.0800 
 29 H       -5.0650    -0.0200     0.0480 H     1 <1>   0.0800 
 30 H       -4.2730     1.4580    -0.3350 H     1 <1>   0.0800 
 31 H       -0.1200     2.6750     1.2190 H     1 <1>   0.0800 
 32 H       -5.6770     0.7770     2.2550 H     1 <1>   0.0800 
 33 H       -6.0600     2.0620     1.1300 H     1 <1>   0.0800 
 34 H       -1.2240     4.7410     0.4710 H     1 <1>   0.0800 
 35 H       -0.8760     4.3540    -1.1760 H     1 <1>   0.0800 
 36 H        0.3130     2.1830    -1.7430 H     1 <1>   0.0800 
 37 H        0.7600     1.0870    -0.4900 H     1 <1>   0.0800 
 38 H       -5.9200    -2.5110     1.7300 H     1 <1>   0.1500 
 39 H       -3.6770     1.8430     2.6280 H     1 <1>   0.4000 
 40 H       -3.9660    -4.2790    -1.4130 H     1 <1>   0.1500 
 41 H       -1.2380    -2.4720     0.2240 H     1 <1>   0.0800 
 42 H       -1.9030    -1.5570    -1.1170 H     1 <1>   0.0800 
 43 H       -1.6380    -3.2860    -1.2780 H     1 <1>   0.0800 
 44 H        2.8110     4.6670    -0.4120 H     1 <1>   0.4500 
 45 H        1.8350     4.4680    -1.7100 H     1 <1>   0.4500 
 46 H        0.5110     6.2040    -1.8220 H     1 <1>   0.0800 
 47 H        1.6640     6.8950    -0.6970 H     1 <1>   0.0800 
 48 H       -0.0370     6.9410    -0.3490 H     1 <1>   0.0800 
 49 H        1.1650     4.4080     2.0200 H     1 <1>   0.0800 
 50 H        0.5130     5.9860     1.8300 H     1 <1>   0.0800 
 51 H        2.1930     5.7190     1.4830 H     1 <1>   0.0800 
 52 H        2.4560     2.6370    -2.7260 H     1 <1>   0.0800 
 53 H        3.0240     1.2990    -1.7780 H     1 <1>   0.0800 
 54 H        3.8850     2.8060    -1.7240 H     1 <1>   0.0800 
 55 H        2.1430     2.5560     1.5530 H     1 <1>   0.0800 
 56 H        3.6710     2.9630     0.8000 H     1 <1>   0.0800 
 57 H        3.0000     1.3670     0.6590 H     1 <1>   0.0800 
@<TRIPOS>BOND
  1   1   2  2   
  2   2   3  am  
  3   2   4  1   
  4   3   5  1   
  5   3   6  1   
  6   4   7  1   
  7   4  25  1   
  8   4  26  1   
  9   5   8  1   
 10   5  27  1   
 11   5  28  1   
 12   6   9  1   
 13   6  29  1   
 14   6  30  1   
 15   7  10  1   
 16   7  11  1   
 17   7  31  1   
 18   8  12  1   
 19   8  13  2   
 20   9  14  1   
 21   9  32  1   
 22   9  33  1   
 23  10  15  1   
 24  10  34  1   
 25  10  35  1   
 26  11  16  1   
 27  11  36  1   
 28  11  37  1   
 29  12  17  1   
 30  12  18  1   
 31  13  19  1   
 32  13  38  1   
 33  14  39  1   
 34  15  20  1   
 35  15  21  1   
 36  15  22  1   
 37  16  20  1   
 38  16  23  1   
 39  16  24  1   
 40  17  19  2   
 41  17  40  1   
 42  18  41  1   
 43  18  42  1   
 44  18  43  1   
 45  20  44  1   
 46  20  45  1   
 47  21  46  1   
 48  21  47  1   
 49  21  48  1   
 50  22  49  1   
 51  22  50  1   
 52  22  51  1   
 53  23  52  1   
 54  23  53  1   
 55  23  54  1   
 56  24  55  1   
 57  24  56  1   
 58  24  57  1   
@<TRIPOS>SUBSTRUCTURE
  1 ****   2 GROUP 4 **** **** 0

# MOE 2024.06 (io_trps.svl 2023.06)
