@<TRIPOS>MOLECULE
NONAME
51 53 1 0 0 
SMALL
USER_CHARGES


@<TRIPOS>ATOM
  1 O       -0.3290     0.2580     0.6940 O.2   1 <1>  -0.5700 
  2 C       -1.4460    -0.2080     0.8840 C.2   1 <1>   0.5410 
  3 C       -1.6330    -1.6060     1.2090 C.2   1 <1>   0.0910 
  4 C       -2.5110     0.7360     0.7750 C.2   1 <1>  -0.1360 
  5 O       -0.5950    -2.4080     1.5570 O.3   1 <1>  -0.3570 
  6 C       -2.8270    -2.2630     1.2040 C.2   1 <1>  -0.1500 
  7 C       -3.8690     0.6430     0.7020 C.2   1 <1>  -0.1380 
  8 C        0.6940    -1.9820     1.9510 C.3   1 <1>   0.0400 
  9 C       -4.1330    -1.8180     0.9270 C.2   1 <1>  -0.1500 
 10 C       -4.6430    -0.5730     0.6770 C.2   1 <1>  -0.0280 
 11 C       -4.6130     1.9920     0.6410 C.3   1 <1>   0.3580 
 12 C       -6.0600    -0.5100     0.3720 C.ar  1 <1>   0.0280 
 13 N       -5.3840     2.1080    -0.6080 N.am  1 <1>  -0.7300 
 14 C       -5.5280     2.2380     1.8570 C.3   1 <1>  -0.1600 
 15 C       -6.6010    -1.1680    -0.7460 C.ar  1 <1>   0.0830 
 16 C       -6.9220     0.2500     1.1720 C.ar  1 <1>  -0.1430 
 17 C       -5.0760     2.8990    -1.6560 C.2   1 <1>   0.5690 
 18 C       -6.3510     1.0310     2.3430 C.3   1 <1>  -0.0160 
 19 O       -5.7730    -1.8470    -1.5770 O.3   1 <1>  -0.3630 
 20 C       -7.9690    -1.1070    -1.0230 C.ar  1 <1>   0.0830 
 21 C       -8.2720     0.3310     0.8850 C.ar  1 <1>  -0.1500 
 22 O       -4.1170     3.6280    -1.6560 O.2   1 <1>  -0.5700 
 23 C       -5.9710     2.8640    -2.8650 C.3   1 <1>  -0.1790 
 24 C       -5.0910    -1.0810    -2.5450 C.3   1 <1>   0.0400 
 25 O       -8.5620    -1.7430    -2.0790 O.3   1 <1>  -0.3630 
 26 C       -8.7880    -0.3430    -0.2040 C.ar  1 <1>   0.0830 
 27 C       -8.3140    -3.1240    -2.2430 C.3   1 <1>   0.0400 
 28 O      -10.0970    -0.2490    -0.4780 O.3   1 <1>  -0.5330 
 29 H       -2.0970     1.7280     0.7370 H     1 <1>   0.1500 
 30 H       -2.7790    -3.3110     1.4420 H     1 <1>   0.1500 
 31 H        1.2090    -2.8220     2.3810 H     1 <1>   0.0800 
 32 H        0.5980    -1.1960     2.6780 H     1 <1>   0.0800 
 33 H        1.2260    -1.6340     1.0830 H     1 <1>   0.0800 
 34 H       -4.8470    -2.6250     0.9120 H     1 <1>   0.1500 
 35 H       -3.8950     2.7950     0.6410 H     1 <1>   0.0800 
 36 H       -6.1980     1.4910    -0.6420 H     1 <1>   0.3700 
 37 H       -4.9110     2.5600     2.6760 H     1 <1>   0.0800 
 38 H       -6.1900     3.0540     1.6240 H     1 <1>   0.0800 
 39 H       -7.1400     1.3750     2.9880 H     1 <1>   0.0800 
 40 H       -5.7270     0.3800     2.9310 H     1 <1>   0.0800 
 41 H       -8.9390     0.9170     1.4930 H     1 <1>   0.1500 
 42 H       -6.6080     2.0000    -2.8440 H     1 <1>   0.0800 
 43 H       -5.3680     2.8360    -3.7530 H     1 <1>   0.0800 
 44 H       -6.5760     3.7510    -2.8830 H     1 <1>   0.0800 
 45 H       -4.4810    -1.7450    -3.1300 H     1 <1>   0.0800 
 46 H       -4.4700    -0.3540    -2.0510 H     1 <1>   0.0800 
 47 H       -5.8140    -0.5930    -3.1740 H     1 <1>   0.0800 
 48 H       -9.1170    -3.5430    -2.8230 H     1 <1>   0.0800 
 49 H       -8.2730    -3.5950    -1.2760 H     1 <1>   0.0800 
 50 H       -7.3850    -3.2560    -2.7670 H     1 <1>   0.0800 
 51 H      -10.3070    -0.7680    -1.2810 H     1 <1>   0.4500 
@<TRIPOS>BOND
  1   1   2  2   
  2   2   3  1   
  3   2   4  1   
  4   3   5  1   
  5   3   6  2   
  6   4   7  2   
  7   4  29  1   
  8   5   8  1   
  9   6   9  1   
 10   6  30  1   
 11   7  10  1   
 12   7  11  1   
 13   8  31  1   
 14   8  32  1   
 15   8  33  1   
 16   9  10  2   
 17   9  34  1   
 18  10  12  1   
 19  11  13  1   
 20  11  14  1   
 21  11  35  1   
 22  12  15  ar  
 23  12  16  ar  
 24  13  17  am  
 25  13  36  1   
 26  14  18  1   
 27  14  37  1   
 28  14  38  1   
 29  15  19  1   
 30  15  20  ar  
 31  16  18  1   
 32  16  21  ar  
 33  17  22  2   
 34  17  23  1   
 35  18  39  1   
 36  18  40  1   
 37  19  24  1   
 38  20  25  1   
 39  20  26  ar  
 40  21  26  ar  
 41  21  41  1   
 42  23  42  1   
 43  23  43  1   
 44  23  44  1   
 45  24  45  1   
 46  24  46  1   
 47  24  47  1   
 48  25  27  1   
 49  26  28  1   
 50  27  48  1   
 51  27  49  1   
 52  27  50  1   
 53  28  51  1   
@<TRIPOS>SUBSTRUCTURE
  1 ****  10 GROUP 4 **** **** 0

# MOE 2024.06 (io_trps.svl 2023.06)
