@<TRIPOS>MOLECULE
NONAME
53 56 1 0 0 
SMALL
USER_CHARGES


@<TRIPOS>ATOM
  1 O        4.8250     0.4830    -0.8200 O.2   1 <1>  -0.5700 
  2 C        4.1390    -0.3460    -0.2290 C.2   1 <1>   0.4690 
  3 C        3.3810    -0.0020     0.9390 C.2   1 <1>   0.0290 
  4 C        4.1010    -1.6950    -0.7300 C.ar  1 <1>   0.0860 
  5 C        3.3690     1.3380     1.4840 C.2   1 <1>   0.6160 
  6 C        2.6560    -1.0000     1.5350 C.2   1 <1>  -0.0500 
  7 C        3.3330    -2.6640    -0.0640 C.ar  1 <1>   0.4100 
  8 C        4.8030    -2.0940    -1.8660 C.ar  1 <1>  -0.1500 
  9 O        2.7480     1.5600     2.5090 O.2   1 <1>  -0.5700 
 10 N        4.0370     2.3810     0.8800 N.am  1 <1>  -0.4940 
 11 N        2.6190    -2.2870     1.0750 N.pl3 1 <1>  -0.5690 
 12 N        3.2460    -3.9370    -0.4640 N.ar  1 <1>  -0.6200 
 13 C        4.7050    -3.4020    -2.2670 C.ar  1 <1>  -0.1500 
 14 C        4.1600     3.7490     1.2280 C.2   1 <1>  -0.0880 
 15 C        1.7870    -3.2780     1.8150 C.3   1 <1>   0.2090 
 16 C        3.9180    -4.2810    -1.5370 C.ar  1 <1>   0.1670 
 17 N        4.8750     4.6790     0.5290 N.pl3 1 <1>   0.3140 
 18 C        3.6250     4.4050     2.2840 C.2   1 <1>  -0.1500 
 19 C        0.3790    -3.3070     1.2220 C.3   1 <1>  -0.2400 
 20 C        3.7980    -5.7290    -1.9660 C.3   1 <1>  -0.0970 
 21 N        4.8060     5.8970     1.1250 N.2   1 <1>  -0.7070 
 22 C        5.6800     4.5050    -0.7160 C.3   1 <1>   0.2710 
 23 C        4.0580     5.7170     2.1650 C.2   1 <1>   0.1080 
 24 C        4.8150     4.0100    -1.8900 C.3   1 <1>  -0.1950 
 25 C        6.8880     3.5860    -0.4860 C.3   1 <1>  -0.2400 
 26 C        3.7160     6.8360     3.1190 C.3   1 <1>  -0.0590 
 27 C        5.0940     4.4650    -3.2890 C.3   1 <1>  -0.2000 
 28 C        3.8530     4.9250    -2.5780 C.3   1 <1>  -0.2000 
 29 H        2.0710    -0.7810     2.4160 H     1 <1>   0.1500 
 30 H        5.4070    -1.3900    -2.4130 H     1 <1>   0.1500 
 31 H        4.5380     2.0840     0.0320 H     1 <1>   0.3700 
 32 H        5.2340    -3.7440    -3.1390 H     1 <1>   0.1500 
 33 H        1.7360    -2.9990     2.8530 H     1 <1>   0.0800 
 34 H        2.2330    -4.2570     1.7660 H     1 <1>   0.0800 
 35 H        2.9970     4.0100     3.0610 H     1 <1>   0.1500 
 36 H       -0.0770    -2.3360     1.2920 H     1 <1>   0.0800 
 37 H       -0.2260    -4.0130     1.7600 H     1 <1>   0.0800 
 38 H        0.4220    -3.6090     0.1910 H     1 <1>   0.0800 
 39 H        4.1470    -6.3670    -1.1750 H     1 <1>   0.0800 
 40 H        4.3750    -5.9240    -2.8500 H     1 <1>   0.0800 
 41 H        2.7670    -5.9600    -2.1650 H     1 <1>   0.0800 
 42 H        6.0540     5.4810    -0.9700 H     1 <1>   0.0800 
 43 H        4.5220     2.9800    -1.7860 H     1 <1>   0.1000 
 44 H        6.5780     2.5850    -0.2520 H     1 <1>   0.0800 
 45 H        7.4890     3.9690     0.3190 H     1 <1>   0.0800 
 46 H        7.4910     3.5540    -1.3750 H     1 <1>   0.0800 
 47 H        3.0860     6.4750     3.9110 H     1 <1>   0.0800 
 48 H        3.2040     7.6160     2.5870 H     1 <1>   0.0800 
 49 H        4.6200     7.2350     3.5410 H     1 <1>   0.0800 
 50 H        4.9950     3.7560    -4.0930 H     1 <1>   0.1000 
 51 H        5.8730     5.1860    -3.4700 H     1 <1>   0.1000 
 52 H        3.7870     5.9490    -2.2470 H     1 <1>   0.1000 
 53 H        2.8980     4.5310    -2.8820 H     1 <1>   0.1000 
@<TRIPOS>BOND
  1   1   2  2   
  2   2   3  1   
  3   2   4  1   
  4   3   5  1   
  5   3   6  2   
  6   4   7  ar  
  7   4   8  ar  
  8   5   9  2   
  9   5  10  am  
 10   6  11  1   
 11   6  29  1   
 12   7  11  1   
 13   7  12  ar  
 14   8  13  ar  
 15   8  30  1   
 16  10  14  1   
 17  10  31  1   
 18  11  15  1   
 19  12  16  ar  
 20  13  16  ar  
 21  13  32  1   
 22  14  17  1   
 23  14  18  2   
 24  15  19  1   
 25  15  33  1   
 26  15  34  1   
 27  16  20  1   
 28  17  21  1   
 29  17  22  1   
 30  18  23  1   
 31  18  35  1   
 32  19  36  1   
 33  19  37  1   
 34  19  38  1   
 35  20  39  1   
 36  20  40  1   
 37  20  41  1   
 38  21  23  2   
 39  22  24  1   
 40  22  25  1   
 41  22  42  1   
 42  23  26  1   
 43  24  27  1   
 44  24  28  1   
 45  24  43  1   
 46  25  44  1   
 47  25  45  1   
 48  25  46  1   
 49  26  47  1   
 50  26  48  1   
 51  26  49  1   
 52  27  28  1   
 53  27  50  1   
 54  27  51  1   
 55  28  52  1   
 56  28  53  1   
@<TRIPOS>SUBSTRUCTURE
  1 ****   2 GROUP 4 **** **** 0

# MOE 2024.06 (io_trps.svl 2023.06)
