@<TRIPOS>MOLECULE
NONAME
41 43 1 0 0 
SMALL
USER_CHARGES


@<TRIPOS>ATOM
  1 F       -0.5950    -0.7680    -0.7910 F     1 <1>  -0.1900 
  2 C       -1.7870    -1.2300    -0.5320 C.ar  1 <1>   0.1900 
  3 C       -2.8290    -0.3510    -0.3810 C.ar  1 <1>  -0.1500 
  4 C       -1.9480    -2.6060    -0.4210 C.ar  1 <1>  -0.1500 
  5 C       -4.1190    -0.8350    -0.1010 C.ar  1 <1>   0.0000 
  6 C       -3.2030    -3.0990    -0.1470 C.ar  1 <1>  -0.1500 
  7 C       -4.2920    -2.2310     0.0160 C.ar  1 <1>   0.3610 
  8 C       -5.2680    -0.0030     0.0710 C.ar  1 <1>  -0.1440 
  9 N       -5.5550    -2.7240     0.2880 N.ar  1 <1>  -0.1790 
 10 C       -6.4770    -0.5690     0.3410 C.ar  1 <1>  -0.1500 
 11 C       -5.1380     1.5120    -0.0420 C.3   1 <1>  -0.0970 
 12 C       -6.6460    -1.9730     0.4590 C.ar  1 <1>   0.4610 
 13 N       -7.8380    -2.5630     0.7000 N.pl3 1 <1>  -0.8380 
 14 C       -7.9970    -4.0180     1.0170 C.3   1 <1>   0.2090 
 15 C       -9.1420    -1.8520     0.4450 C.3   1 <1>   0.2090 
 16 C       -8.6680    -4.6430    -0.2030 C.3   1 <1>  -0.0800 
 17 C      -10.3590    -2.7960     0.4370 C.3   1 <1>  -0.1600 
 18 C      -10.1190    -4.1260    -0.3080 C.3   1 <1>   0.2000 
 19 C       -8.5000    -6.1660    -0.2380 C.3   1 <1>   0.1200 
 20 O      -10.9950    -5.0540     0.2230 O.3   1 <1>  -0.6800 
 21 O       -7.1370    -6.4500    -0.2260 O.3   1 <1>  -0.6800 
 22 H       -2.6390     0.7020    -0.4800 H     1 <1>   0.1500 
 23 H       -1.0930    -3.2490    -0.5500 H     1 <1>   0.1500 
 24 H       -3.3410    -4.1630    -0.0590 H     1 <1>   0.1500 
 25 H       -5.6890    -3.7310     0.3080 H     1 <1>   0.4570 
 26 H       -7.3420     0.0510     0.4820 H     1 <1>   0.1500 
 27 H       -6.0860     1.9970     0.1140 H     1 <1>   0.0800 
 28 H       -4.7820     1.7840    -1.0200 H     1 <1>   0.0800 
 29 H       -4.4490     1.8840     0.6960 H     1 <1>   0.0800 
 30 H       -7.0530    -4.4840     1.2280 H     1 <1>   0.0800 
 31 H       -8.6070    -4.1460     1.8960 H     1 <1>   0.0800 
 32 H       -9.2930    -1.0950     1.1980 H     1 <1>   0.0800 
 33 H       -9.0860    -1.3620    -0.5130 H     1 <1>   0.0800 
 34 H       -8.1550    -4.2750    -1.0750 H     1 <1>   0.0800 
 35 H      -11.1940    -2.2870    -0.0110 H     1 <1>   0.0800 
 36 H      -10.6180    -2.9900     1.4630 H     1 <1>   0.0800 
 37 H      -10.3730    -4.0190    -1.3500 H     1 <1>   0.0800 
 38 H       -8.9290    -6.5740    -1.1390 H     1 <1>   0.0800 
 39 H       -8.9560    -6.6360     0.6180 H     1 <1>   0.0800 
 40 H      -11.0320    -4.9890     1.1960 H     1 <1>   0.4000 
 41 H       -7.0000    -7.4150    -0.3400 H     1 <1>   0.4000 
@<TRIPOS>BOND
  1   1   2  1   
  2   2   3  ar  
  3   2   4  ar  
  4   3   5  ar  
  5   3  22  1   
  6   4   6  ar  
  7   4  23  1   
  8   5   7  ar  
  9   5   8  ar  
 10   6   7  ar  
 11   6  24  1   
 12   7   9  ar  
 13   8  10  ar  
 14   8  11  1   
 15   9  12  ar  
 16   9  25  1   
 17  10  12  ar  
 18  10  26  1   
 19  11  27  1   
 20  11  28  1   
 21  11  29  1   
 22  12  13  1   
 23  13  14  1   
 24  13  15  1   
 25  14  16  1   
 26  14  30  1   
 27  14  31  1   
 28  15  17  1   
 29  15  32  1   
 30  15  33  1   
 31  16  18  1   
 32  16  19  1   
 33  16  34  1   
 34  17  18  1   
 35  17  35  1   
 36  17  36  1   
 37  18  20  1   
 38  18  37  1   
 39  19  21  1   
 40  19  38  1   
 41  19  39  1   
 42  20  40  1   
 43  21  41  1   
@<TRIPOS>SUBSTRUCTURE
  1 ****   9 GROUP 4 **** **** 0

# MOE 2024.06 (io_trps.svl 2023.06)
