@<TRIPOS>MOLECULE
NONAME
47 49 1 0 0 
SMALL
USER_CHARGES


@<TRIPOS>ATOM
  1 O        2.2510    -1.1070     2.0230 O.2   1 <1>  -0.5700 
  2 C        2.0430    -1.2770     0.8460 C.2   1 <1>   0.5690 
  3 N        1.6880    -0.2750    -0.0090 N.am  1 <1>  -0.5470 
  4 C        2.1930    -2.6910     0.2680 C.3   1 <1>   0.1710 
  5 C        1.4040     1.0610     0.1620 C.ar  1 <1>   0.4270 
  6 N        0.9350    -3.4800     0.1250 N.3   1 <1>  -0.8100 
  7 N        1.0650     1.6470    -0.9750 N.ar  1 <1>  -0.6200 
  8 C        1.4580     1.7300     1.3830 C.ar  1 <1>  -0.1500 
  9 C        0.0080    -2.9100    -0.8600 C.3   1 <1>   0.1100 
 10 C        0.2980    -3.6910     1.4330 C.3   1 <1>   0.1100 
 11 C        0.7690     2.9350    -0.8960 C.ar  1 <1>   0.1600 
 12 C        1.1470     3.0680     1.4470 C.ar  1 <1>  -0.1500 
 13 C       -1.1320    -3.9040    -1.0970 C.3   1 <1>  -0.1600 
 14 C       -0.8360    -4.7070     1.2760 C.3   1 <1>  -0.1600 
 15 C        0.7910     3.6890     0.2680 C.ar  1 <1>  -0.1430 
 16 C       -1.8670    -4.2700     0.2120 C.3   1 <1>   0.3430 
 17 C        0.4330     5.1650     0.2660 C.3   1 <1>  -0.0970 
 18 C       -2.5630    -3.0320     0.7170 C.1   1 <1>   0.3570 
 19 C       -2.8630    -5.4260    -0.0570 C.ar  1 <1>  -0.1430 
 20 N       -3.0780    -2.0890     1.0940 N.1   1 <1>  -0.5570 
 21 C       -2.3880    -6.6490    -0.5270 C.ar  1 <1>  -0.1500 
 22 C       -4.2380    -5.3040     0.1490 C.ar  1 <1>  -0.1500 
 23 C       -3.2440    -7.7060    -0.7810 C.ar  1 <1>  -0.1500 
 24 C       -5.0950    -6.3600    -0.1050 C.ar  1 <1>  -0.1500 
 25 C       -4.6010    -7.5630    -0.5700 C.ar  1 <1>  -0.1500 
 26 H        1.5510    -0.5360    -0.9800 H     1 <1>   0.3700 
 27 H        2.8630    -3.2360     0.9100 H     1 <1>   0.0800 
 28 H        2.6710    -2.6220    -0.6920 H     1 <1>   0.0800 
 29 H        1.7380     1.2100     2.2780 H     1 <1>   0.1500 
 30 H        0.5250    -2.7430    -1.7900 H     1 <1>   0.0800 
 31 H       -0.3820    -1.9670    -0.5100 H     1 <1>   0.0800 
 32 H       -0.0740    -2.7580     1.8250 H     1 <1>   0.0800 
 33 H        1.0240    -4.0790     2.1300 H     1 <1>   0.0800 
 34 H        0.4910     3.4180    -1.8160 H     1 <1>   0.1500 
 35 H        1.1810     3.6040     2.3800 H     1 <1>   0.1500 
 36 H       -0.7080    -4.7820    -1.5480 H     1 <1>   0.0800 
 37 H       -1.8310    -3.4870    -1.7990 H     1 <1>   0.0800 
 38 H       -1.3280    -4.8430     2.2230 H     1 <1>   0.0800 
 39 H       -0.3930    -5.6470     1.0080 H     1 <1>   0.0800 
 40 H        0.1200     5.4860    -0.7110 H     1 <1>   0.0800 
 41 H        1.2870     5.7480     0.5620 H     1 <1>   0.0800 
 42 H       -0.3690     5.3480     0.9590 H     1 <1>   0.0800 
 43 H       -1.3380    -6.8000    -0.7040 H     1 <1>   0.1500 
 44 H       -4.6830    -4.3930     0.5100 H     1 <1>   0.1500 
 45 H       -2.8530    -8.6410    -1.1430 H     1 <1>   0.1500 
 46 H       -6.1520    -6.2440     0.0620 H     1 <1>   0.1500 
 47 H       -5.2690    -8.3830    -0.7660 H     1 <1>   0.1500 
@<TRIPOS>BOND
  1   1   2  2   
  2   2   3  am  
  3   2   4  1   
  4   3   5  1   
  5   3  26  1   
  6   4   6  1   
  7   4  27  1   
  8   4  28  1   
  9   5   7  ar  
 10   5   8  ar  
 11   6   9  1   
 12   6  10  1   
 13   7  11  ar  
 14   8  12  ar  
 15   8  29  1   
 16   9  13  1   
 17   9  30  1   
 18   9  31  1   
 19  10  14  1   
 20  10  32  1   
 21  10  33  1   
 22  11  15  ar  
 23  11  34  1   
 24  12  15  ar  
 25  12  35  1   
 26  13  16  1   
 27  13  36  1   
 28  13  37  1   
 29  14  16  1   
 30  14  38  1   
 31  14  39  1   
 32  15  17  1   
 33  16  18  1   
 34  16  19  1   
 35  17  40  1   
 36  17  41  1   
 37  17  42  1   
 38  18  20  3   
 39  19  21  ar  
 40  19  22  ar  
 41  21  23  ar  
 42  21  43  1   
 43  22  24  ar  
 44  22  44  1   
 45  23  25  ar  
 46  23  45  1   
 47  24  25  ar  
 48  24  46  1   
 49  25  47  1   
@<TRIPOS>SUBSTRUCTURE
  1 ****   9 GROUP 4 **** **** 0

# MOE 2024.06 (io_trps.svl 2023.06)
