@<TRIPOS>MOLECULE
NONAME
49 52 1 0 0 
SMALL
USER_CHARGES


@<TRIPOS>ATOM
  1 O       -1.4820     0.9610    -0.0300 O.2   1 <1>  -0.5700 
  2 C       -1.0550     2.0330     0.3160 C.2   1 <1>   0.5690 
  3 N       -1.8480     3.1260     0.3050 N.am  1 <1>  -0.7300 
  4 C        0.4090     2.1750     0.7430 C.3   1 <1>   0.1810 
  5 C       -1.4070     4.4650     0.7660 C.3   1 <1>   0.3640 
  6 O        0.6570     3.3470     1.4910 O.3   1 <1>  -0.5600 
  7 C       -1.9000     5.5090    -0.2300 C.ar  1 <1>  -0.1440 
  8 C        0.1370     4.5410     0.9250 C.3   1 <1>   0.2610 
  9 C       -1.7600     5.3200    -1.6000 C.ar  1 <1>   0.1600 
 10 C       -2.4880     6.6770     0.2160 C.ar  1 <1>  -0.1500 
 11 C        0.5690     5.7700     1.7480 C.2   1 <1>   0.5690 
 12 N       -2.1410     6.1810    -2.5290 N.ar  1 <1>  -0.6200 
 13 C       -2.8970     7.5820    -0.7390 C.ar  1 <1>  -0.1500 
 14 O       -0.2610     6.3250     2.4360 O.2   1 <1>  -0.5700 
 15 N        1.8630     6.2410     1.6900 N.am  1 <1>  -0.6600 
 16 C       -2.7030     7.2900    -2.0770 C.ar  1 <1>   0.1600 
 17 C        3.0020     5.5270     1.0470 C.3   1 <1>   0.1400 
 18 C        2.2550     7.5110     2.3660 C.3   1 <1>   0.1400 
 19 C        3.6490     6.4420     0.0040 C.3   1 <1>  -0.1600 
 20 C        2.9030     8.4510     1.3450 C.3   1 <1>  -0.1600 
 21 C        4.0840     7.7750     0.6310 C.3   1 <1>   0.0630 
 22 C        4.7000     8.6970    -0.4170 C.ar  1 <1>  -0.1430 
 23 C        3.9890     9.1780    -1.5010 C.ar  1 <1>  -0.1500 
 24 C        6.0180     9.1020    -0.3350 C.ar  1 <1>  -0.1500 
 25 C        4.6100    10.0100    -2.4180 C.ar  1 <1>   0.1600 
 26 C        6.5440     9.9380    -1.3070 C.ar  1 <1>   0.1600 
 27 N        5.8710    10.4010    -2.3470 N.ar  1 <1>  -0.6200 
 28 H       -2.8330     3.0120     0.0570 H     1 <1>   0.3700 
 29 H        1.0360     2.1890    -0.1290 H     1 <1>   0.0800 
 30 H        0.6840     1.3340     1.3530 H     1 <1>   0.0800 
 31 H       -1.8660     4.6450     1.7230 H     1 <1>   0.0800 
 32 H        0.5660     4.6440    -0.0540 H     1 <1>   0.0800 
 33 H       -1.3100     4.4090    -1.9570 H     1 <1>   0.1500 
 34 H       -2.6180     6.8830     1.2660 H     1 <1>   0.1500 
 35 H       -3.3610     8.5080    -0.4490 H     1 <1>   0.1500 
 36 H       -3.0260     8.0060    -2.8140 H     1 <1>   0.1500 
 37 H        3.7230     5.2720     1.8050 H     1 <1>   0.0800 
 38 H        2.6860     4.6130     0.5790 H     1 <1>   0.0800 
 39 H        1.3980     7.9950     2.8030 H     1 <1>   0.0800 
 40 H        2.9490     7.2870     3.1580 H     1 <1>   0.0800 
 41 H        4.5070     5.9500    -0.4190 H     1 <1>   0.0800 
 42 H        2.9450     6.6160    -0.7900 H     1 <1>   0.0800 
 43 H        2.1550     8.7470     0.6320 H     1 <1>   0.0800 
 44 H        3.2460     9.3380     1.8460 H     1 <1>   0.0800 
 45 H        4.8330     7.5590     1.3740 H     1 <1>   0.0800 
 46 H        2.9570     8.9150    -1.6440 H     1 <1>   0.1500 
 47 H        6.6450     8.7780     0.4740 H     1 <1>   0.1500 
 48 H        4.0370    10.3720    -3.2540 H     1 <1>   0.1500 
 49 H        7.5730    10.2410    -1.2240 H     1 <1>   0.1500 
@<TRIPOS>BOND
  1   1   2  2   
  2   2   3  am  
  3   2   4  1   
  4   3   5  1   
  5   3  28  1   
  6   4   6  1   
  7   4  29  1   
  8   4  30  1   
  9   5   7  1   
 10   5   8  1   
 11   5  31  1   
 12   6   8  1   
 13   7   9  ar  
 14   7  10  ar  
 15   8  11  1   
 16   8  32  1   
 17   9  12  ar  
 18   9  33  1   
 19  10  13  ar  
 20  10  34  1   
 21  11  14  2   
 22  11  15  am  
 23  12  16  ar  
 24  13  16  ar  
 25  13  35  1   
 26  15  17  1   
 27  15  18  1   
 28  16  36  1   
 29  17  19  1   
 30  17  37  1   
 31  17  38  1   
 32  18  20  1   
 33  18  39  1   
 34  18  40  1   
 35  19  21  1   
 36  19  41  1   
 37  19  42  1   
 38  20  21  1   
 39  20  43  1   
 40  20  44  1   
 41  21  22  1   
 42  21  45  1   
 43  22  23  ar  
 44  22  24  ar  
 45  23  25  ar  
 46  23  46  1   
 47  24  26  ar  
 48  24  47  1   
 49  25  27  ar  
 50  25  48  1   
 51  26  27  ar  
 52  26  49  1   
@<TRIPOS>SUBSTRUCTURE
  1 ****  15 GROUP 4 **** **** 0

# MOE 2024.06 (io_trps.svl 2023.06)
