@<TRIPOS>MOLECULE
NONAME
56 58 1 0 0 
SMALL
USER_CHARGES


@<TRIPOS>ATOM
  1 O       -0.0320     1.4240    -0.6940 O.2   1 <1>  -0.5700 
  2 C       -0.4180     2.5550    -0.8750 C.2   1 <1>   0.5690 
  3 N       -1.2590     3.2220    -0.0210 N.am  1 <1>  -0.6600 
  4 C        0.0570     3.2700    -2.1350 C.3   1 <1>   0.1810 
  5 C       -1.7030     4.6240    -0.3310 C.3   1 <1>   0.3640 
  6 C       -1.7370     2.6940     1.2870 C.3   1 <1>   0.2200 
  7 O        0.2240     4.6440    -1.9130 O.3   1 <1>  -0.5600 
  8 C       -3.2100     4.6280    -0.6010 C.ar  1 <1>  -0.1440 
  9 C       -0.9620     5.3180    -1.5110 C.3   1 <1>   0.2610 
 10 C       -0.5570     2.5080     2.2400 C.3   1 <1>  -0.2400 
 11 C       -2.5400     1.4040     1.1110 C.3   1 <1>  -0.2400 
 12 C       -3.8010     3.6760    -1.4230 C.ar  1 <1>  -0.1500 
 13 C       -4.0100     5.6050    -0.0260 C.ar  1 <1>  -0.1500 
 14 C       -0.6390     6.7660    -1.1220 C.2   1 <1>   0.5690 
 15 C       -5.1640     3.6980    -1.6610 C.ar  1 <1>  -0.1500 
 16 C       -5.3730     5.6290    -0.2630 C.ar  1 <1>  -0.1500 
 17 O       -1.5190     7.4920    -0.7210 O.2   1 <1>  -0.5700 
 18 N        0.6430     7.1980    -1.2140 N.am  1 <1>  -0.7300 
 19 C       -5.9520     4.6750    -1.0800 C.ar  1 <1>  -0.1500 
 20 C        1.1690     8.4850    -0.7220 C.3   1 <1>   0.2350 
 21 C        2.5920     8.3350    -0.1300 C.3   1 <1>  -0.1900 
 22 C        3.0680     9.6790     0.4900 C.3   1 <1>   0.0150 
 23 C        3.5620     7.4130    -0.8210 C.3   1 <1>  -0.2000 
 24 C        3.0030     7.0480     0.5280 C.3   1 <1>  -0.2000 
 25 C        4.5860     9.7950     0.7030 C.3   1 <1>  -0.2400 
 26 C        2.3640     9.9370     1.8310 C.3   1 <1>  -0.2400 
 27 H       -0.6520     3.1270    -2.9300 H     1 <1>   0.0800 
 28 H        1.0080     2.8680    -2.4350 H     1 <1>   0.0800 
 29 H       -1.5220     5.2100     0.5540 H     1 <1>   0.0800 
 30 H       -2.4000     3.4200     1.7300 H     1 <1>   0.0800 
 31 H       -1.6120     5.3510    -2.3660 H     1 <1>   0.0800 
 32 H        0.1060     1.7400     1.8820 H     1 <1>   0.0800 
 33 H       -0.9140     2.2170     3.2100 H     1 <1>   0.0800 
 34 H       -0.0120     3.4290     2.3400 H     1 <1>   0.0800 
 35 H       -1.9190     0.6040     0.7520 H     1 <1>   0.0800 
 36 H       -3.3510     1.5620     0.4250 H     1 <1>   0.0800 
 37 H       -2.9530     1.1050     2.0560 H     1 <1>   0.0800 
 38 H       -3.2050     2.9040    -1.8790 H     1 <1>   0.1500 
 39 H       -3.5770     6.3630     0.6060 H     1 <1>   0.1500 
 40 H       -5.6120     2.9540    -2.2960 H     1 <1>   0.1500 
 41 H       -5.9830     6.3940     0.1870 H     1 <1>   0.1500 
 42 H        1.3500     6.5220    -1.5160 H     1 <1>   0.3700 
 43 H       -7.0120     4.6940    -1.2640 H     1 <1>   0.1500 
 44 H        1.1940     9.1820    -1.5420 H     1 <1>   0.0800 
 45 H        0.4930     8.8700     0.0200 H     1 <1>   0.0800 
 46 H        2.7940    10.4720    -0.1860 H     1 <1>   0.0800 
 47 H        3.2480     6.8430    -1.6770 H     1 <1>   0.1000 
 48 H        4.6140     7.6290    -0.8710 H     1 <1>   0.1000 
 49 H        3.6630     7.0740     1.3770 H     1 <1>   0.1000 
 50 H        2.3040     6.2330     0.5960 H     1 <1>   0.1000 
 51 H        4.9490     9.0190     1.3510 H     1 <1>   0.0800 
 52 H        4.8260    10.7440     1.1490 H     1 <1>   0.0800 
 53 H        5.1030     9.7400    -0.2370 H     1 <1>   0.0800 
 54 H        2.5980     9.1560     2.5330 H     1 <1>   0.0800 
 55 H        1.2980     9.9790     1.7110 H     1 <1>   0.0800 
 56 H        2.6840    10.8750     2.2470 H     1 <1>   0.0800 
@<TRIPOS>BOND
  1   1   2  2   
  2   2   3  am  
  3   2   4  1   
  4   3   5  1   
  5   3   6  1   
  6   4   7  1   
  7   4  27  1   
  8   4  28  1   
  9   5   8  1   
 10   5   9  1   
 11   5  29  1   
 12   6  10  1   
 13   6  11  1   
 14   6  30  1   
 15   7   9  1   
 16   8  12  ar  
 17   8  13  ar  
 18   9  14  1   
 19   9  31  1   
 20  10  32  1   
 21  10  33  1   
 22  10  34  1   
 23  11  35  1   
 24  11  36  1   
 25  11  37  1   
 26  12  15  ar  
 27  12  38  1   
 28  13  16  ar  
 29  13  39  1   
 30  14  17  2   
 31  14  18  am  
 32  15  19  ar  
 33  15  40  1   
 34  16  19  ar  
 35  16  41  1   
 36  18  20  1   
 37  18  42  1   
 38  19  43  1   
 39  20  21  1   
 40  20  44  1   
 41  20  45  1   
 42  21  22  1   
 43  21  23  1   
 44  21  24  1   
 45  22  25  1   
 46  22  26  1   
 47  22  46  1   
 48  23  24  1   
 49  23  47  1   
 50  23  48  1   
 51  24  49  1   
 52  24  50  1   
 53  25  51  1   
 54  25  52  1   
 55  25  53  1   
 56  26  54  1   
 57  26  55  1   
 58  26  56  1   
@<TRIPOS>SUBSTRUCTURE
  1 ****   9 GROUP 4 **** **** 0

# MOE 2024.06 (io_trps.svl 2023.06)
