@<TRIPOS>MOLECULE
NONAME
50 53 1 0 0 
SMALL
USER_CHARGES


@<TRIPOS>ATOM
  1 CL      -0.1660    -0.2220    -0.3070 Cl    1 <1>  -0.1770 
  2 C       -0.1870    -1.9560    -0.1250 C.ar  1 <1>   0.1770 
  3 C        0.9180    -2.6940    -0.5030 C.ar  1 <1>  -0.1500 
  4 C       -1.3070    -2.5740     0.3950 C.ar  1 <1>  -0.1500 
  5 C        0.8960    -4.0700    -0.3570 C.ar  1 <1>  -0.1500 
  6 C       -1.3170    -3.9500     0.5370 C.ar  1 <1>  -0.1500 
  7 C       -0.2190    -4.7370     0.1660 C.ar  1 <1>   0.0000 
  8 C       -0.2380    -6.1850     0.3140 C.ar  1 <1>   0.6200 
  9 N       -0.9720    -6.7010     1.3040 N.ar  1 <1>  -0.6200 
 10 N        0.4720    -6.9140    -0.5520 N.ar  1 <1>  -0.6200 
 11 C       -1.0020    -8.0040     1.4160 C.ar  1 <1>   0.1600 
 12 C        0.4250    -8.2160    -0.4250 C.ar  1 <1>   0.1600 
 13 C       -0.3330    -8.8290     0.5430 C.ar  1 <1>  -0.1430 
 14 C       -0.4380   -10.3340     0.6440 C.3   1 <1>   0.4860 
 15 N       -1.1880   -10.9220    -0.5220 N.4   1 <1>  -0.9590 
 16 C       -2.6550   -10.6280    -0.6560 C.3   1 <1>   0.4230 
 17 C       -0.9820   -12.4040    -0.5440 C.3   1 <1>   0.2630 
 18 C       -3.4500   -10.5980     0.6490 C.3   1 <1>  -0.1600 
 19 C       -2.9530    -9.3020    -1.3520 C.3   1 <1>  -0.1600 
 20 C       -4.7350    -9.8430     0.2870 C.3   1 <1>  -0.0800 
 21 C       -4.3400    -8.8700    -0.8500 C.3   1 <1>  -0.0800 
 22 C       -5.4380    -9.2180     1.5160 C.3   1 <1>   0.1400 
 23 C       -4.3840    -7.3850    -0.4370 C.3   1 <1>  -0.0990 
 24 N       -6.1600    -7.9890     1.1360 N.am  1 <1>  -0.7300 
 25 C       -5.6900    -7.0780     0.2590 C.2   1 <1>   0.5690 
 26 O       -6.2790    -6.0530     0.0380 O.2   1 <1>  -0.5700 
 27 H        1.7800    -2.1930    -0.9060 H     1 <1>   0.1500 
 28 H       -2.1570    -1.9820     0.6830 H     1 <1>   0.1500 
 29 H        1.7600    -4.6390    -0.6540 H     1 <1>   0.1500 
 30 H       -2.1950    -4.4230     0.9430 H     1 <1>   0.1500 
 31 H       -1.5870    -8.4060     2.2260 H     1 <1>   0.1500 
 32 H        1.0070    -8.7940    -1.1250 H     1 <1>   0.1500 
 33 H       -0.9200   -10.6070     1.5680 H     1 <1>   0.0800 
 34 H        0.5610   -10.7400     0.6680 H     1 <1>   0.0800 
 35 H       -0.7570   -10.5400    -1.3750 H     1 <1>   0.4500 
 36 H       -3.1010   -11.3920    -1.2740 H     1 <1>   0.0800 
 37 H       -1.4300   -12.8590     0.3250 H     1 <1>   0.0800 
 38 H        0.0710   -12.6400    -0.5530 H     1 <1>   0.0800 
 39 H       -1.4320   -12.8330    -1.4250 H     1 <1>   0.0800 
 40 H       -3.6720   -11.5900     1.0030 H     1 <1>   0.0800 
 41 H       -2.9370   -10.0480     1.4110 H     1 <1>   0.0800 
 42 H       -2.2350    -8.5430    -1.1180 H     1 <1>   0.0800 
 43 H       -2.9710    -9.4340    -2.4200 H     1 <1>   0.0800 
 44 H       -5.4230   -10.5570    -0.1370 H     1 <1>   0.0800 
 45 H       -5.0560    -8.9960    -1.6480 H     1 <1>   0.0800 
 46 H       -4.7180    -8.9540     2.2730 H     1 <1>   0.0800 
 47 H       -6.1300    -9.9250     1.9430 H     1 <1>   0.0800 
 48 H       -4.2880    -6.7540    -1.3020 H     1 <1>   0.0800 
 49 H       -3.5890    -7.1490     0.2440 H     1 <1>   0.0800 
 50 H       -7.0240    -7.7520     1.6300 H     1 <1>   0.3700 
@<TRIPOS>BOND
  1   1   2  1   
  2   2   3  ar  
  3   2   4  ar  
  4   3   5  ar  
  5   3  27  1   
  6   4   6  ar  
  7   4  28  1   
  8   5   7  ar  
  9   5  29  1   
 10   6   7  ar  
 11   6  30  1   
 12   7   8  1   
 13   8   9  ar  
 14   8  10  ar  
 15   9  11  ar  
 16  10  12  ar  
 17  11  13  ar  
 18  11  31  1   
 19  12  13  ar  
 20  12  32  1   
 21  13  14  1   
 22  14  15  1   
 23  14  33  1   
 24  14  34  1   
 25  15  16  1   
 26  15  17  1   
 27  15  35  1   
 28  16  18  1   
 29  16  19  1   
 30  16  36  1   
 31  17  37  1   
 32  17  38  1   
 33  17  39  1   
 34  18  20  1   
 35  18  40  1   
 36  18  41  1   
 37  19  21  1   
 38  19  42  1   
 39  19  43  1   
 40  20  21  1   
 41  20  22  1   
 42  20  44  1   
 43  21  23  1   
 44  21  45  1   
 45  22  24  1   
 46  22  46  1   
 47  22  47  1   
 48  23  25  1   
 49  23  48  1   
 50  23  49  1   
 51  24  25  am  
 52  24  50  1   
 53  25  26  2   
@<TRIPOS>SUBSTRUCTURE
  1 ****   9 GROUP 4 **** **** 0

# MOE 2024.06 (io_trps.svl 2023.06)
