@<TRIPOS>MOLECULE
NONAME
56 59 1 0 0 
SMALL
USER_CHARGES


@<TRIPOS>ATOM
  1 O       -1.5360     1.7700    -1.3240 O.2   1 <1>  -0.5700 
  2 C       -1.0150     2.6900    -0.7480 C.2   1 <1>   0.5690 
  3 N       -1.7370     3.7660    -0.3680 N.am  1 <1>  -0.7300 
  4 C        0.4900     2.6700    -0.4710 C.3   1 <1>   0.1810 
  5 C       -1.1640     4.9390     0.3360 C.3   1 <1>   0.3640 
  6 O        0.8830     3.6010     0.5140 O.3   1 <1>  -0.5600 
  7 C       -1.7330     6.1960    -0.3220 C.ar  1 <1>  -0.1440 
  8 C        0.3900     4.9220     0.3260 C.3   1 <1>   0.2610 
  9 C       -1.6990     6.3660    -1.7010 C.ar  1 <1>  -0.1500 
 10 C       -2.3170     7.1820     0.4600 C.ar  1 <1>  -0.1500 
 11 C        0.9890     5.8740     1.3800 C.2   1 <1>   0.5690 
 12 C       -2.2490     7.4940    -2.2850 C.ar  1 <1>  -0.1500 
 13 C       -2.8710     8.3090    -0.1220 C.ar  1 <1>  -0.1500 
 14 O        0.2460     6.3990     2.1830 O.2   1 <1>  -0.5700 
 15 N        2.3390     6.1470     1.4120 N.am  1 <1>  -0.6600 
 16 C       -2.8410     8.4640    -1.4960 C.ar  1 <1>  -0.1500 
 17 C        2.9090     7.0040     2.4940 C.3   1 <1>   0.1400 
 18 C        3.3560     5.6100     0.4680 C.3   1 <1>   0.1400 
 19 C        2.9270     8.4950     2.1190 C.3   1 <1>   0.2090 
 20 C        3.8530     6.6880    -0.5040 C.3   1 <1>  -0.1600 
 21 N        3.4150     8.8020     0.7290 N.pl3 1 <1>  -0.8380 
 22 C        4.4750     7.9220     0.1610 C.3   1 <1>   0.2090 
 23 C        3.0150     9.9320     0.0940 C.ar  1 <1>   0.1000 
 24 C        1.7010    10.1320    -0.3730 C.ar  1 <1>  -0.1430 
 25 C        3.9340    10.9680    -0.1070 C.ar  1 <1>  -0.1500 
 26 C        1.3670    11.3190    -0.9780 C.ar  1 <1>   0.2110 
 27 C        0.6440     9.0410    -0.2360 C.3   1 <1>  -0.0970 
 28 C        3.5610    12.1340    -0.7180 C.ar  1 <1>   0.2110 
 29 N        2.2860    12.3030    -1.1440 N.ar  1 <1>  -0.1790 
 30 H       -2.7390     3.7830    -0.5620 H     1 <1>   0.3700 
 31 H        1.0230     2.8890    -1.3780 H     1 <1>   0.0800 
 32 H        0.7740     1.6920    -0.1290 H     1 <1>   0.0800 
 33 H       -1.5010     4.8940     1.3580 H     1 <1>   0.0800 
 34 H        0.7270     5.2560    -0.6370 H     1 <1>   0.0800 
 35 H       -1.2560     5.6140    -2.3320 H     1 <1>   0.1500 
 36 H       -2.3470     7.0750     1.5330 H     1 <1>   0.1500 
 37 H       -2.2280     7.6100    -3.3550 H     1 <1>   0.1500 
 38 H       -3.3310     9.0600     0.4970 H     1 <1>   0.1500 
 39 H       -3.2820     9.3350    -1.9500 H     1 <1>   0.1500 
 40 H        2.3310     6.8820     3.3940 H     1 <1>   0.0800 
 41 H        3.9080     6.6820     2.7230 H     1 <1>   0.0800 
 42 H        4.1860     5.2220     1.0330 H     1 <1>   0.0800 
 43 H        2.9550     4.7880    -0.0970 H     1 <1>   0.0800 
 44 H        3.5540     9.0130     2.8240 H     1 <1>   0.0800 
 45 H        1.9330     8.8840     2.2420 H     1 <1>   0.0800 
 46 H        4.6060     6.2360    -1.1230 H     1 <1>   0.0800 
 47 H        3.0550     6.9930    -1.1550 H     1 <1>   0.0800 
 48 H        5.0210     8.4710    -0.5870 H     1 <1>   0.0800 
 49 H        5.1730     7.6330     0.9280 H     1 <1>   0.0800 
 50 H        4.9410    10.8280     0.2420 H     1 <1>   0.1500 
 51 H        0.3650    11.4890    -1.3370 H     1 <1>   0.1500 
 52 H        1.0630     8.0830    -0.4810 H     1 <1>   0.0800 
 53 H       -0.1830     9.2140    -0.9000 H     1 <1>   0.0800 
 54 H        0.2660     8.9980     0.7690 H     1 <1>   0.0800 
 55 H        4.2700    12.9330    -0.8670 H     1 <1>   0.1500 
 56 H        2.0120    13.1810    -1.5980 H     1 <1>   0.4570 
@<TRIPOS>BOND
  1   1   2  2   
  2   2   3  am  
  3   2   4  1   
  4   3   5  1   
  5   3  30  1   
  6   4   6  1   
  7   4  31  1   
  8   4  32  1   
  9   5   7  1   
 10   5   8  1   
 11   5  33  1   
 12   6   8  1   
 13   7   9  ar  
 14   7  10  ar  
 15   8  11  1   
 16   8  34  1   
 17   9  12  ar  
 18   9  35  1   
 19  10  13  ar  
 20  10  36  1   
 21  11  14  2   
 22  11  15  am  
 23  12  16  ar  
 24  12  37  1   
 25  13  16  ar  
 26  13  38  1   
 27  15  17  1   
 28  15  18  1   
 29  16  39  1   
 30  17  19  1   
 31  17  40  1   
 32  17  41  1   
 33  18  20  1   
 34  18  42  1   
 35  18  43  1   
 36  19  21  1   
 37  19  44  1   
 38  19  45  1   
 39  20  22  1   
 40  20  46  1   
 41  20  47  1   
 42  21  22  1   
 43  21  23  1   
 44  22  48  1   
 45  22  49  1   
 46  23  24  ar  
 47  23  25  ar  
 48  24  26  ar  
 49  24  27  1   
 50  25  28  ar  
 51  25  50  1   
 52  26  29  ar  
 53  26  51  1   
 54  27  52  1   
 55  27  53  1   
 56  27  54  1   
 57  28  29  ar  
 58  28  55  1   
 59  29  56  1   
@<TRIPOS>SUBSTRUCTURE
  1 ****  11 GROUP 4 **** **** 0

# MOE 2024.06 (io_trps.svl 2023.06)
