@<TRIPOS>MOLECULE
NONAME
54 55 1 0 0 
SMALL
USER_CHARGES


@<TRIPOS>ATOM
  1 N        0.2930    -0.8970     0.2320 N.ar  1 <1>  -0.6200 
  2 C       -1.0080    -1.0950     0.3100 C.ar  1 <1>   0.4100 
  3 C        0.9730    -2.0360     0.1890 C.ar  1 <1>   0.1600 
  4 N       -1.8210     0.0440     0.3710 N.pl3 1 <1>  -0.8380 
  5 C       -1.5990    -2.3960     0.3360 C.ar  1 <1>   0.4100 
  6 C        0.3940    -3.2940     0.2140 C.ar  1 <1>   0.1600 
  7 C       -1.6280     1.0090    -0.7500 C.3   1 <1>   0.1290 
  8 C       -1.7850     0.7350     1.6890 C.3   1 <1>   0.1290 
  9 N       -0.9180    -3.5240     0.2860 N.ar  1 <1>  -0.6200 
 10 N       -2.9780    -2.5060     0.4340 N.pl3 1 <1>  -0.8690 
 11 C       -3.7420    -3.3200    -0.5560 C.3   1 <1>   0.2090 
 12 C       -4.2910    -4.6340     0.0930 C.3   1 <1>   0.5030 
 13 N       -3.0910    -5.4150     0.5710 N.4   1 <1>  -0.9590 
 14 C       -5.2110    -4.2890     1.2870 C.3   1 <1>  -0.1600 
 15 C       -5.1230    -5.4480    -0.9180 C.3   1 <1>  -0.1600 
 16 C       -2.3140    -6.1390    -0.4900 C.3   1 <1>   0.2630 
 17 C       -3.2230    -6.3000     1.7720 C.3   1 <1>   0.2630 
 18 C       -6.4550    -3.5230     0.8490 C.3   1 <1>   0.3430 
 19 C       -6.4120    -4.7290    -1.3340 C.3   1 <1>   0.3430 
 20 N       -7.2180    -4.3430    -0.1370 N.4   1 <1>  -0.9590 
 21 C       -8.4710    -3.6280    -0.5240 C.3   1 <1>   0.3430 
 22 C       -9.4490    -4.6060    -1.1640 C.3   1 <1>  -0.2400 
 23 H        2.0450    -1.9550     0.1290 H     1 <1>   0.1500 
 24 H        1.0430    -4.1510     0.1750 H     1 <1>   0.1500 
 25 H       -1.5640     0.4800    -1.6850 H     1 <1>   0.0800 
 26 H       -0.7150     1.5630    -0.6070 H     1 <1>   0.0800 
 27 H       -2.4550     1.6960    -0.7930 H     1 <1>   0.0800 
 28 H       -1.9150     0.0200     2.4840 H     1 <1>   0.0800 
 29 H       -2.5720     1.4670     1.7460 H     1 <1>   0.0800 
 30 H       -0.8350     1.2260     1.8220 H     1 <1>   0.0800 
 31 H       -3.3000    -1.5200     0.4670 H     1 <1>   0.4000 
 32 H       -3.1050    -3.5600    -1.3900 H     1 <1>   0.0800 
 33 H       -4.5450    -2.7180    -0.9400 H     1 <1>   0.0800 
 34 H       -2.4430    -4.6330     0.8480 H     1 <1>   0.4500 
 35 H       -4.6800    -3.6920     2.0070 H     1 <1>   0.0800 
 36 H       -5.5510    -5.1780     1.7860 H     1 <1>   0.0800 
 37 H       -5.3840    -6.4020    -0.4960 H     1 <1>   0.0800 
 38 H       -4.5560    -5.6260    -1.8140 H     1 <1>   0.0800 
 39 H       -2.8770    -6.9750    -0.8720 H     1 <1>   0.0800 
 40 H       -1.3870    -6.5060    -0.0810 H     1 <1>   0.0800 
 41 H       -2.0750    -5.4710    -1.3020 H     1 <1>   0.0800 
 42 H       -3.9190    -7.1000     1.5780 H     1 <1>   0.0800 
 43 H       -3.5640    -5.7340     2.6240 H     1 <1>   0.0800 
 44 H       -2.2660    -6.7300     2.0220 H     1 <1>   0.0800 
 45 H       -6.1750    -2.5780     0.4110 H     1 <1>   0.0800 
 46 H       -7.0720    -3.3190     1.7110 H     1 <1>   0.0800 
 47 H       -6.9890    -5.3820    -1.9700 H     1 <1>   0.0800 
 48 H       -6.1700    -3.8470    -1.9050 H     1 <1>   0.0800 
 49 H       -7.5290    -5.2050     0.3370 H     1 <1>   0.4500 
 50 H       -8.2510    -2.8220    -1.2070 H     1 <1>   0.0800 
 51 H       -8.9350    -3.2050     0.3540 H     1 <1>   0.0800 
 52 H       -9.0820    -4.9820    -2.1020 H     1 <1>   0.0800 
 53 H      -10.3740    -4.0940    -1.3640 H     1 <1>   0.0800 
 54 H       -9.6660    -5.4260    -0.5020 H     1 <1>   0.0800 
@<TRIPOS>BOND
  1   1   2  ar  
  2   1   3  ar  
  3   2   4  1   
  4   2   5  ar  
  5   3   6  ar  
  6   3  23  1   
  7   4   7  1   
  8   4   8  1   
  9   5   9  ar  
 10   5  10  1   
 11   6   9  ar  
 12   6  24  1   
 13   7  25  1   
 14   7  26  1   
 15   7  27  1   
 16   8  28  1   
 17   8  29  1   
 18   8  30  1   
 19  10  11  1   
 20  10  31  1   
 21  11  12  1   
 22  11  32  1   
 23  11  33  1   
 24  12  13  1   
 25  12  14  1   
 26  12  15  1   
 27  13  16  1   
 28  13  17  1   
 29  13  34  1   
 30  14  18  1   
 31  14  35  1   
 32  14  36  1   
 33  15  19  1   
 34  15  37  1   
 35  15  38  1   
 36  16  39  1   
 37  16  40  1   
 38  16  41  1   
 39  17  42  1   
 40  17  43  1   
 41  17  44  1   
 42  18  20  1   
 43  18  45  1   
 44  18  46  1   
 45  19  20  1   
 46  19  47  1   
 47  19  48  1   
 48  20  21  1   
 49  20  49  1   
 50  21  22  1   
 51  21  50  1   
 52  21  51  1   
 53  22  52  1   
 54  22  53  1   
 55  22  54  1   
@<TRIPOS>SUBSTRUCTURE
  1 ****  11 GROUP 4 **** **** 0

# MOE 2024.06 (io_trps.svl 2023.06)
