@<TRIPOS>MOLECULE
NONAME
41 42 1 0 0 
SMALL
USER_CHARGES


@<TRIPOS>ATOM
  1 CL      -1.6090    -1.2170     1.7190 Cl    1 <1>  -0.1770 
  2 C       -2.5940    -0.0150     0.9080 C.ar  1 <1>   0.1770 
  3 C       -2.6320     1.2650     1.4380 C.ar  1 <1>   0.1770 
  4 C       -3.3120    -0.3370    -0.2480 C.ar  1 <1>   0.0860 
  5 CL      -1.7410     1.6550     2.8900 Cl    1 <1>  -0.1770 
  6 C       -3.3710     2.2650     0.8370 C.ar  1 <1>  -0.1500 
  7 C       -3.3320    -1.6570    -0.8460 C.2   1 <1>   0.5440 
  8 C       -4.0440     0.6960    -0.8430 C.ar  1 <1>  -0.1500 
  9 C       -4.0790     1.9750    -0.3150 C.ar  1 <1>  -0.1500 
 10 O       -3.3500    -1.7790    -2.0540 O.2   1 <1>  -0.5700 
 11 N       -3.3930    -2.7910    -0.0920 N.am  1 <1>  -0.7300 
 12 C       -3.2970    -4.1770    -0.6130 C.3   1 <1>   0.2200 
 13 C       -4.6590    -4.8530    -0.6060 C.3   1 <1>  -0.0800 
 14 C       -2.5550    -5.0300     0.4060 C.3   1 <1>   0.1200 
 15 C       -4.7830    -5.3470     0.8410 C.3   1 <1>   0.1200 
 16 C       -5.8210    -3.9650    -1.1010 C.3   1 <1>  -0.0550 
 17 O       -3.4990    -5.3110     1.3940 O.3   1 <1>  -0.5600 
 18 S       -7.3810    -4.8290    -1.2980 S.o2  1 <1>   1.3330 
 19 O       -8.3720    -3.9070    -1.8040 O.2   1 <1>  -0.6500 
 20 O       -7.1230    -6.0640    -2.0030 O.2   1 <1>  -0.6500 
 21 N       -7.8300    -5.2230     0.2930 N.am  1 <1>  -0.8490 
 22 C       -8.6870    -6.4120     0.3460 C.3   1 <1>   0.1160 
 23 C       -8.4770    -4.1160     1.0060 C.3   1 <1>   0.1160 
 24 H       -3.3870     3.2530     1.2630 H     1 <1>   0.1500 
 25 H       -4.5970     0.4840    -1.7450 H     1 <1>   0.1500 
 26 H       -4.6570     2.7450    -0.8010 H     1 <1>   0.1500 
 27 H       -3.3320    -2.7380     0.9300 H     1 <1>   0.3700 
 28 H       -2.8260    -4.1920    -1.5820 H     1 <1>   0.0800 
 29 H       -4.5980    -5.7200    -1.2410 H     1 <1>   0.0800 
 30 H       -1.7100    -4.5260     0.8400 H     1 <1>   0.0800 
 31 H       -2.2450    -5.9640    -0.0300 H     1 <1>   0.0800 
 32 H       -5.1590    -6.3540     0.8890 H     1 <1>   0.0800 
 33 H       -5.4060    -4.6990     1.4330 H     1 <1>   0.0800 
 34 H       -5.5410    -3.5590    -2.0550 H     1 <1>   0.0800 
 35 H       -5.9570    -3.1380    -0.4340 H     1 <1>   0.0800 
 36 H       -8.9450    -6.6420     1.3650 H     1 <1>   0.0800 
 37 H       -8.1680    -7.2600    -0.0680 H     1 <1>   0.0800 
 38 H       -9.5890    -6.2490    -0.2210 H     1 <1>   0.0800 
 39 H       -8.6570    -4.3910     2.0310 H     1 <1>   0.0800 
 40 H       -9.4170    -3.8650     0.5400 H     1 <1>   0.0800 
 41 H       -7.8440    -3.2460     0.9950 H     1 <1>   0.0800 
@<TRIPOS>BOND
  1   1   2  1   
  2   2   3  ar  
  3   2   4  ar  
  4   3   5  1   
  5   3   6  ar  
  6   4   7  1   
  7   4   8  ar  
  8   6   9  ar  
  9   6  24  1   
 10   7  10  2   
 11   7  11  am  
 12   8   9  ar  
 13   8  25  1   
 14   9  26  1   
 15  11  12  1   
 16  11  27  1   
 17  12  13  1   
 18  12  14  1   
 19  12  28  1   
 20  13  15  1   
 21  13  16  1   
 22  13  29  1   
 23  14  17  1   
 24  14  30  1   
 25  14  31  1   
 26  15  17  1   
 27  15  32  1   
 28  15  33  1   
 29  16  18  1   
 30  16  34  1   
 31  16  35  1   
 32  18  19  2   
 33  18  20  2   
 34  18  21  am  
 35  21  22  1   
 36  21  23  1   
 37  22  36  1   
 38  22  37  1   
 39  22  38  1   
 40  23  39  1   
 41  23  40  1   
 42  23  41  1   
@<TRIPOS>SUBSTRUCTURE
  1 ****  11 GROUP 4 **** **** 0

# MOE 2024.06 (io_trps.svl 2023.06)
