@<TRIPOS>MOLECULE
NONAME
51 53 1 0 0 
SMALL
USER_CHARGES


@<TRIPOS>ATOM
  1 F        0.5710     1.5190    -1.8730 F     1 <1>  -0.1900 
  2 C        1.5570     1.4670    -1.0100 C.ar  1 <1>   0.1900 
  3 C        2.0000     2.6380    -0.4210 C.ar  1 <1>   0.1900 
  4 C        2.1380     0.2440    -0.7080 C.ar  1 <1>  -0.1440 
  5 F        1.4360     3.7840    -0.7160 F     1 <1>  -0.1900 
  6 C        3.0420     2.6280     0.4850 C.ar  1 <1>  -0.1500 
  7 C        3.2000     0.2270     0.2000 C.ar  1 <1>   0.0830 
  8 C        1.6430    -1.0420    -1.3570 C.3   1 <1>   0.2540 
  9 C        3.6400     1.4160     0.7920 C.ar  1 <1>  -0.1500 
 10 O        3.7800    -0.9750     0.4670 O.3   1 <1>  -0.3630 
 11 N        0.7470    -1.7790    -0.4420 N.3   1 <1>  -0.8100 
 12 C        4.8480    -1.1000     1.3800 C.3   1 <1>   0.0400 
 13 C        0.6890    -3.2060    -0.7700 C.3   1 <1>   0.1100 
 14 C       -0.5880    -1.1630    -0.3590 C.3   1 <1>   0.1100 
 15 C       -0.1180    -3.9670     0.3080 C.3   1 <1>   0.4230 
 16 C       -1.4130    -1.8700     0.7210 C.3   1 <1>  -0.1600 
 17 N       -0.0660    -5.4830     0.1620 N.4   1 <1>  -0.9590 
 18 C       -1.5540    -3.3980     0.4850 C.3   1 <1>   0.0000 
 19 C       -1.1400    -6.2040     0.9200 C.3   1 <1>   0.3430 
 20 C       -0.0080    -5.9900    -1.2480 C.3   1 <1>   0.2630 
 21 C       -2.2120    -4.0450     1.7390 C.3   1 <1>  -0.1600 
 22 C       -2.4070    -3.6730    -0.7870 C.3   1 <1>   0.1200 
 23 C       -1.5900    -5.3980     2.1370 C.3   1 <1>  -0.1600 
 24 O       -3.6320    -3.0280    -0.7370 O.3   1 <1>  -0.6800 
 25 H        3.3740     3.5460     0.9360 H     1 <1>   0.1500 
 26 H        2.5030    -1.6470    -1.5890 H     1 <1>   0.0800 
 27 H        1.1370    -0.8360    -2.2850 H     1 <1>   0.0800 
 28 H        4.4510     1.4200     1.4960 H     1 <1>   0.1500 
 29 H        5.1290    -2.1360     1.4270 H     1 <1>   0.0800 
 30 H        4.5210    -0.7660     2.3490 H     1 <1>   0.0800 
 31 H        5.6790    -0.5140     1.0290 H     1 <1>   0.0800 
 32 H        0.2530    -3.3260    -1.7460 H     1 <1>   0.0800 
 33 H        1.6940    -3.5920    -0.7840 H     1 <1>   0.0800 
 34 H       -0.4920    -0.1260    -0.0870 H     1 <1>   0.0800 
 35 H       -1.0860    -1.2110    -1.3140 H     1 <1>   0.0800 
 36 H        0.3840    -3.7370     1.2330 H     1 <1>   0.0800 
 37 H       -0.9220    -1.6860     1.6620 H     1 <1>   0.0800 
 38 H       -2.3790    -1.4020     0.7800 H     1 <1>   0.0800 
 39 H        0.8230    -5.7480     0.6110 H     1 <1>   0.4500 
 40 H       -1.9940    -6.3600     0.2810 H     1 <1>   0.0800 
 41 H       -0.7800    -7.1710     1.2340 H     1 <1>   0.0800 
 42 H       -0.8940    -5.7030    -1.7900 H     1 <1>   0.0800 
 43 H        0.0650    -7.0660    -1.2550 H     1 <1>   0.0800 
 44 H        0.8530    -5.5900    -1.7590 H     1 <1>   0.0800 
 45 H       -2.1270    -3.3910     2.5910 H     1 <1>   0.0800 
 46 H       -3.2670    -4.1820     1.5760 H     1 <1>   0.0800 
 47 H       -2.6060    -4.7220    -0.9050 H     1 <1>   0.0800 
 48 H       -1.9130    -3.3180    -1.6740 H     1 <1>   0.0800 
 49 H       -2.3150    -5.9690     2.6930 H     1 <1>   0.0800 
 50 H       -0.7470    -5.2420     2.7880 H     1 <1>   0.0800 
 51 H       -4.1380    -3.2580     0.0660 H     1 <1>   0.4000 
@<TRIPOS>BOND
  1   1   2  1   
  2   2   3  ar  
  3   2   4  ar  
  4   3   5  1   
  5   3   6  ar  
  6   4   7  ar  
  7   4   8  1   
  8   6   9  ar  
  9   6  25  1   
 10   7   9  ar  
 11   7  10  1   
 12   8  11  1   
 13   8  26  1   
 14   8  27  1   
 15   9  28  1   
 16  10  12  1   
 17  11  13  1   
 18  11  14  1   
 19  12  29  1   
 20  12  30  1   
 21  12  31  1   
 22  13  15  1   
 23  13  32  1   
 24  13  33  1   
 25  14  16  1   
 26  14  34  1   
 27  14  35  1   
 28  15  17  1   
 29  15  18  1   
 30  15  36  1   
 31  16  18  1   
 32  16  37  1   
 33  16  38  1   
 34  17  19  1   
 35  17  20  1   
 36  17  39  1   
 37  18  21  1   
 38  18  22  1   
 39  19  23  1   
 40  19  40  1   
 41  19  41  1   
 42  20  42  1   
 43  20  43  1   
 44  20  44  1   
 45  21  23  1   
 46  21  45  1   
 47  21  46  1   
 48  22  24  1   
 49  22  47  1   
 50  22  48  1   
 51  23  49  1   
 52  23  50  1   
 53  24  51  1   
@<TRIPOS>SUBSTRUCTURE
  1 ****  11 GROUP 4 **** **** 0

# MOE 2024.06 (io_trps.svl 2023.06)
