@<TRIPOS>MOLECULE
NONAME
51 54 1 0 0 
SMALL
USER_CHARGES


@<TRIPOS>ATOM
  1 O       -0.5620     4.9940    -1.8390 O.2   1 <1>  -0.5700 
  2 C       -0.4340     4.3960    -0.7870 C.2   1 <1>   0.5440 
  3 N       -1.5320     3.7730    -0.2310 N.am  1 <1>  -0.6600 
  4 C        0.8660     4.3540    -0.1470 C.ar  1 <1>   0.0860 
  5 C       -2.8900     3.9160    -0.8590 C.3   1 <1>   0.1400 
  6 C       -1.4240     2.8630     0.9490 C.3   1 <1>   0.1400 
  7 C        1.9480     3.7340    -0.7640 C.ar  1 <1>  -0.1500 
  8 C        1.0760     4.9300     1.1060 C.ar  1 <1>  -0.1500 
  9 C       -4.0180     3.8200     0.1860 C.3   1 <1>   0.1440 
 10 C       -2.5500     1.8250     0.9480 C.3   1 <1>  -0.1600 
 11 C        3.1900     3.6680    -0.1580 C.ar  1 <1>   0.0830 
 12 C        2.3130     4.8740     1.7230 C.ar  1 <1>  -0.1500 
 13 C       -5.3450     4.0440    -0.5240 C.ar  1 <1>   0.1660 
 14 C       -3.9570     2.4550     0.9260 C.3   1 <1>  -0.1600 
 15 C       -3.9670     5.0310     1.1640 C.3   1 <1>  -0.1600 
 16 O        4.1700     3.0310    -0.8450 O.3   1 <1>  -0.3630 
 17 C        3.3720     4.2420     1.0970 C.ar  1 <1>  -0.1500 
 18 N       -5.9540     3.1760    -1.3030 N.ar  1 <1>  -0.6200 
 19 C       -5.8440     5.2890    -0.2790 C.ar  1 <1>  -0.1430 
 20 C       -4.9400     6.0910     0.6200 C.3   1 <1>  -0.0170 
 21 C        5.4880     2.9640    -0.3550 C.3   1 <1>   0.1200 
 22 C       -7.0980     3.6050    -1.8160 C.ar  1 <1>   0.4770 
 23 C       -7.0370     5.6300    -0.8650 C.ar  1 <1>   0.1600 
 24 C        6.3360     2.2190    -1.3810 C.3   1 <1>  -0.2400 
 25 N       -7.6800     4.7840    -1.6430 N.ar  1 <1>  -0.6200 
 26 C       -7.8200     2.6300    -2.7130 C.3   1 <1>  -0.0970 
 27 H       -3.0160     3.1380    -1.5920 H     1 <1>   0.0800 
 28 H       -2.9580     4.8600    -1.3720 H     1 <1>   0.0800 
 29 H       -1.4760     3.4480     1.8510 H     1 <1>   0.0800 
 30 H       -0.4750     2.3530     0.9310 H     1 <1>   0.0800 
 31 H        1.8160     3.2960    -1.7370 H     1 <1>   0.1500 
 32 H        0.2570     5.4280     1.5930 H     1 <1>   0.1500 
 33 H       -2.4550     1.1860     1.8080 H     1 <1>   0.0800 
 34 H       -2.4270     1.2050     0.0760 H     1 <1>   0.0800 
 35 H        2.4530     5.3250     2.6910 H     1 <1>   0.1500 
 36 H       -4.6130     1.7540     0.4400 H     1 <1>   0.0800 
 37 H       -4.3220     2.5610     1.9310 H     1 <1>   0.0800 
 38 H       -2.9770     5.4360     1.2740 H     1 <1>   0.0800 
 39 H       -4.3180     4.7360     2.1360 H     1 <1>   0.0800 
 40 H        4.3220     4.2090     1.5950 H     1 <1>   0.1500 
 41 H       -4.4130     6.8270     0.0380 H     1 <1>   0.0800 
 42 H       -5.4880     6.5720     1.4130 H     1 <1>   0.0800 
 43 H        5.4770     2.4370     0.5840 H     1 <1>   0.0800 
 44 H        5.8520     3.9680    -0.2170 H     1 <1>   0.0800 
 45 H       -7.4690     6.6020    -0.7000 H     1 <1>   0.1500 
 46 H        5.9530     1.2240    -1.5230 H     1 <1>   0.0800 
 47 H        7.3510     2.1520    -1.0360 H     1 <1>   0.0800 
 48 H        6.3250     2.7450    -2.3190 H     1 <1>   0.0800 
 49 H       -7.7680     1.6430    -2.2940 H     1 <1>   0.0800 
 50 H       -7.3550     2.6290    -3.6800 H     1 <1>   0.0800 
 51 H       -8.8520     2.9120    -2.8180 H     1 <1>   0.0800 
@<TRIPOS>BOND
  1   1   2  2   
  2   2   3  am  
  3   2   4  1   
  4   3   5  1   
  5   3   6  1   
  6   4   7  ar  
  7   4   8  ar  
  8   5   9  1   
  9   5  27  1   
 10   5  28  1   
 11   6  10  1   
 12   6  29  1   
 13   6  30  1   
 14   7  11  ar  
 15   7  31  1   
 16   8  12  ar  
 17   8  32  1   
 18   9  13  1   
 19   9  14  1   
 20   9  15  1   
 21  10  14  1   
 22  10  33  1   
 23  10  34  1   
 24  11  16  1   
 25  11  17  ar  
 26  12  17  ar  
 27  12  35  1   
 28  13  18  ar  
 29  13  19  ar  
 30  14  36  1   
 31  14  37  1   
 32  15  20  1   
 33  15  38  1   
 34  15  39  1   
 35  16  21  1   
 36  17  40  1   
 37  18  22  ar  
 38  19  20  1   
 39  19  23  ar  
 40  20  41  1   
 41  20  42  1   
 42  21  24  1   
 43  21  43  1   
 44  21  44  1   
 45  22  25  ar  
 46  22  26  1   
 47  23  25  ar  
 48  23  45  1   
 49  24  46  1   
 50  24  47  1   
 51  24  48  1   
 52  26  49  1   
 53  26  50  1   
 54  26  51  1   
@<TRIPOS>SUBSTRUCTURE
  1 ****   3 GROUP 4 **** **** 0

# MOE 2024.06 (io_trps.svl 2023.06)
