@<TRIPOS>MOLECULE
NONAME
58 61 1 0 0 
SMALL
USER_CHARGES


@<TRIPOS>ATOM
  1 O       -1.2950     0.9740     1.7900 O.2   1 <1>  -0.5700 
  2 C       -1.1960     1.8470     0.9580 C.2   1 <1>   0.5770 
  3 N       -2.1160     2.8670     0.8840 N.am  1 <1>  -0.6600 
  4 C       -0.0280     1.7820    -0.0280 C.3   1 <1>   0.0530 
  5 C       -3.2260     2.9850     1.8660 C.3   1 <1>   0.1400 
  6 C       -2.1620     3.9190    -0.1630 C.3   1 <1>   0.1400 
  7 C        1.0690     0.7120     0.2480 C.3   1 <1>   0.0000 
  8 C        1.0770     2.8470     0.2130 C.3   1 <1>   0.0000 
  9 C       -4.5600     2.8600     1.1280 C.3   1 <1>  -0.1600 
 10 C       -3.4850     3.8030    -0.9260 C.3   1 <1>  -0.1600 
 11 C        2.1020     1.7680    -0.2200 C.3   1 <1>   0.0000 
 12 C       -4.7240     3.9020     0.0000 C.3   1 <1>   0.2800 
 13 O       -4.6930     5.1620     0.6360 O.3   1 <1>  -0.5600 
 14 C       -6.0950     3.6810    -0.7400 C.3   1 <1>   0.2000 
 15 C       -5.2070     6.2550    -0.0600 C.3   1 <1>   0.1200 
 16 O       -5.9640     3.8520    -2.1280 O.3   1 <1>  -0.6800 
 17 C       -7.2120     4.6280    -0.2050 C.3   1 <1>   0.3000 
 18 C       -6.7150     6.0850    -0.3080 C.3   1 <1>  -0.1600 
 19 N       -7.4580     4.3850     1.2380 N.am  1 <1>  -0.7300 
 20 C       -8.5340     4.5030    -0.9790 C.3   1 <1>  -0.2400 
 21 C       -8.0950     3.4300     1.9640 C.2   1 <1>   0.5690 
 22 O       -7.9720     3.4590     3.1620 O.2   1 <1>  -0.5700 
 23 C       -8.9020     2.2930     1.3770 C.3   1 <1>   0.1570 
 24 N      -10.3010     2.6960     1.1740 N.pl3 1 <1>   0.3140 
 25 N      -10.9850     2.3110     0.0780 N.2   1 <1>  -0.7070 
 26 C      -11.0800     3.4300     1.9960 C.2   1 <1>  -0.3020 
 27 C      -12.1720     2.8150     0.2280 C.2   1 <1>   0.1390 
 28 C      -12.2930     3.5290     1.4130 C.2   1 <1>  -0.1500 
 29 H       -0.3470     1.7540    -1.0560 H     1 <1>   0.0000 
 30 H       -3.1550     2.2190     2.6200 H     1 <1>   0.0800 
 31 H       -3.1640     3.9410     2.3590 H     1 <1>   0.0800 
 32 H       -2.0930     4.8860     0.3070 H     1 <1>   0.0800 
 33 H       -1.3440     3.8250    -0.8530 H     1 <1>   0.0800 
 34 H        1.1920     0.4670     1.2900 H     1 <1>   0.0000 
 35 H        1.0090    -0.1500    -0.3920 H     1 <1>   0.0000 
 36 H        1.0280     3.6900    -0.4530 H     1 <1>   0.0000 
 37 H        1.1790     3.1220     1.2490 H     1 <1>   0.0000 
 38 H       -5.3480     2.9550     1.8470 H     1 <1>   0.0800 
 39 H       -4.6190     1.8680     0.7160 H     1 <1>   0.0800 
 40 H       -3.5000     2.8540    -1.4320 H     1 <1>   0.0800 
 41 H       -3.5140     4.5630    -1.6820 H     1 <1>   0.0800 
 42 H        2.2620     1.7500    -1.2850 H     1 <1>   0.0000 
 43 H        3.0110     1.7750     0.3540 H     1 <1>   0.0000 
 44 H       -6.4070     2.6600    -0.6120 H     1 <1>   0.0800 
 45 H       -5.0230     7.1350     0.5330 H     1 <1>   0.0800 
 46 H       -4.6700     6.3540    -0.9860 H     1 <1>   0.0800 
 47 H       -5.7080     4.7700    -2.3330 H     1 <1>   0.4000 
 48 H       -7.2680     6.7100     0.3720 H     1 <1>   0.0800 
 49 H       -6.9120     6.4720    -1.2910 H     1 <1>   0.0800 
 50 H       -6.8610     4.9890     1.8110 H     1 <1>   0.3700 
 51 H       -8.4380     4.9210    -1.9650 H     1 <1>   0.0800 
 52 H       -9.3270     5.0230    -0.4720 H     1 <1>   0.0800 
 53 H       -8.8080     3.4750    -1.1180 H     1 <1>   0.0800 
 54 H       -8.8910     1.4640     2.0580 H     1 <1>   0.0800 
 55 H       -8.4840     1.9720     0.4450 H     1 <1>   0.0800 
 56 H      -10.7340     3.8320     2.9330 H     1 <1>   0.1500 
 57 H      -12.9650     2.6870    -0.4890 H     1 <1>   0.1500 
 58 H      -13.1740     4.0360     1.7640 H     1 <1>   0.1500 
@<TRIPOS>BOND
  1   1   2  2   
  2   2   3  am  
  3   2   4  1   
  4   3   5  1   
  5   3   6  1   
  6   4   7  1   
  7   4   8  1   
  8   4  29  1   
  9   5   9  1   
 10   5  30  1   
 11   5  31  1   
 12   6  10  1   
 13   6  32  1   
 14   6  33  1   
 15   7  11  1   
 16   7  34  1   
 17   7  35  1   
 18   8  11  1   
 19   8  36  1   
 20   8  37  1   
 21   9  12  1   
 22   9  38  1   
 23   9  39  1   
 24  10  12  1   
 25  10  40  1   
 26  10  41  1   
 27  11  42  1   
 28  11  43  1   
 29  12  13  1   
 30  12  14  1   
 31  13  15  1   
 32  14  16  1   
 33  14  17  1   
 34  14  44  1   
 35  15  18  1   
 36  15  45  1   
 37  15  46  1   
 38  16  47  1   
 39  17  18  1   
 40  17  19  1   
 41  17  20  1   
 42  18  48  1   
 43  18  49  1   
 44  19  21  am  
 45  19  50  1   
 46  20  51  1   
 47  20  52  1   
 48  20  53  1   
 49  21  22  2   
 50  21  23  1   
 51  23  24  1   
 52  23  54  1   
 53  23  55  1   
 54  24  25  1   
 55  24  26  1   
 56  25  27  2   
 57  26  28  2   
 58  26  56  1   
 59  27  28  1   
 60  27  57  1   
 61  28  58  1   
@<TRIPOS>SUBSTRUCTURE
  1 ****  12 GROUP 4 **** **** 0

# MOE 2024.06 (io_trps.svl 2023.06)
