@<TRIPOS>MOLECULE
NONAME
48 50 1 0 0 
SMALL
USER_CHARGES


@<TRIPOS>ATOM
  1 O       -3.1930     2.6160    -2.6980 O.co2 1 <1>  -0.9000 
  2 C       -2.7560     2.2840    -1.5880 C.2   1 <1>   0.9790 
  3 O       -2.8890     1.1040    -1.2280 O.co2 1 <1>  -0.9000 
  4 C       -2.3680     3.3060    -0.6320 C.ar  1 <1>  -0.1790 
  5 C       -2.9720     3.3940     0.6300 C.ar  1 <1>  -0.1440 
  6 C       -1.4080     4.2580    -0.9670 C.ar  1 <1>  -0.1500 
  7 C       -2.6070     4.4000     1.5130 C.ar  1 <1>  -0.1500 
  8 C       -4.0370     2.3870     1.0470 C.3   1 <1>   0.4870 
  9 C       -1.0460     5.2570    -0.0840 C.ar  1 <1>  -0.1500 
 10 C       -1.6460     5.3290     1.1590 C.ar  1 <1>  -0.1500 
 11 N       -5.3850     2.8620     0.6250 N.4   1 <1>  -0.9590 
 12 C       -6.4830     2.1450     1.3020 C.3   1 <1>   0.3430 
 13 C       -5.5470     2.8330    -0.8630 C.3   1 <1>   0.3430 
 14 C       -7.8220     2.8510     1.0410 C.3   1 <1>  -0.1600 
 15 C       -6.9850     3.1570    -1.2820 C.3   1 <1>  -0.1600 
 16 C       -7.8050     3.8180    -0.1610 C.3   1 <1>   0.2800 
 17 O       -7.1270     4.9710     0.2900 O.3   1 <1>  -0.5600 
 18 C       -9.2410     4.1780    -0.6210 C.3   1 <1>  -0.1600 
 19 C       -7.2560     6.1310    -0.4850 C.3   1 <1>   0.1200 
 20 C       -9.7150     5.5320    -0.0880 C.3   1 <1>   0.2800 
 21 C       -8.7140     6.6210    -0.4880 C.3   1 <1>  -0.1600 
 22 O       -9.7170     5.4660     1.2810 O.3   1 <1>  -0.6800 
 23 C      -11.1420     5.8660    -0.5140 C.3   1 <1>  -0.2400 
 24 H       -0.9490     4.2060    -1.9410 H     1 <1>   0.1500 
 25 H       -3.0640     4.4700     2.4840 H     1 <1>   0.1500 
 26 H       -4.0090     2.2930     2.1180 H     1 <1>   0.0800 
 27 H       -3.8370     1.4130     0.6340 H     1 <1>   0.0800 
 28 H       -0.2990     5.9780    -0.3670 H     1 <1>   0.1500 
 29 H       -1.3630     6.1070     1.8470 H     1 <1>   0.1500 
 30 H       -5.4700     3.8620     0.8660 H     1 <1>   0.4500 
 31 H       -6.3020     2.0990     2.3630 H     1 <1>   0.0800 
 32 H       -6.5280     1.1360     0.9220 H     1 <1>   0.0800 
 33 H       -5.2570     1.8700    -1.2570 H     1 <1>   0.0800 
 34 H       -4.8900     3.5680    -1.3010 H     1 <1>   0.0800 
 35 H       -8.1270     3.3780     1.9270 H     1 <1>   0.0800 
 36 H       -8.5530     2.0810     0.8770 H     1 <1>   0.0800 
 37 H       -7.4610     2.2370    -1.5710 H     1 <1>   0.0800 
 38 H       -6.9580     3.7700    -2.1640 H     1 <1>   0.0800 
 39 H       -9.9410     3.4110    -0.3440 H     1 <1>   0.0800 
 40 H       -9.2640     4.2250    -1.6950 H     1 <1>   0.0800 
 41 H       -6.9210     5.9170    -1.4850 H     1 <1>   0.0800 
 42 H       -6.6100     6.8840    -0.0660 H     1 <1>   0.0800 
 43 H       -8.9360     6.9620    -1.4830 H     1 <1>   0.0800 
 44 H       -8.8210     7.4750     0.1590 H     1 <1>   0.0800 
 45 H       -8.7800     5.4300     1.5620 H     1 <1>   0.4000 
 46 H      -11.2100     5.9220    -1.5850 H     1 <1>   0.0800 
 47 H      -11.4400     6.8140    -0.1030 H     1 <1>   0.0800 
 48 H      -11.8220     5.1070    -0.1690 H     1 <1>   0.0800 
@<TRIPOS>BOND
  1   1   2  ar  
  2   2   3  ar  
  3   2   4  1   
  4   4   5  ar  
  5   4   6  ar  
  6   5   7  ar  
  7   5   8  1   
  8   6   9  ar  
  9   6  24  1   
 10   7  10  ar  
 11   7  25  1   
 12   8  11  1   
 13   8  26  1   
 14   8  27  1   
 15   9  10  ar  
 16   9  28  1   
 17  10  29  1   
 18  11  12  1   
 19  11  13  1   
 20  11  30  1   
 21  12  14  1   
 22  12  31  1   
 23  12  32  1   
 24  13  15  1   
 25  13  33  1   
 26  13  34  1   
 27  14  16  1   
 28  14  35  1   
 29  14  36  1   
 30  15  16  1   
 31  15  37  1   
 32  15  38  1   
 33  16  17  1   
 34  16  18  1   
 35  17  19  1   
 36  18  20  1   
 37  18  39  1   
 38  18  40  1   
 39  19  21  1   
 40  19  41  1   
 41  19  42  1   
 42  20  21  1   
 43  20  22  1   
 44  20  23  1   
 45  21  43  1   
 46  21  44  1   
 47  22  45  1   
 48  23  46  1   
 49  23  47  1   
 50  23  48  1   
@<TRIPOS>SUBSTRUCTURE
  1 ****  11 GROUP 4 **** **** 0

# MOE 2024.06 (io_trps.svl 2023.06)
