@<TRIPOS>MOLECULE
NONAME
40 41 1 0 0 
SMALL
USER_CHARGES


@<TRIPOS>ATOM
  1 CL       1.6160     2.1110    -3.7840 Cl    1 <1>  -0.1770 
  2 C        1.0010     2.6530    -2.2460 C.ar  1 <1>   0.1770 
  3 C        1.8180     3.4110    -1.4290 C.ar  1 <1>  -0.1500 
  4 C       -0.2860     2.3210    -1.8700 C.ar  1 <1>  -0.1500 
  5 C        1.3370     3.8590    -0.2050 C.ar  1 <1>  -0.1440 
  6 C       -0.7630     2.7590    -0.6470 C.ar  1 <1>  -0.1500 
  7 C        0.0450     3.5220     0.1810 C.ar  1 <1>  -0.1500 
  8 C        2.2130     4.7110     0.6940 C.3   1 <1>   0.4870 
  9 N        2.2890     6.0820     0.1230 N.4   1 <1>  -0.9590 
 10 C        3.3770     6.8770     0.7400 C.3   1 <1>   0.5230 
 11 C        0.9770     6.7880     0.1850 C.3   1 <1>   0.3430 
 12 C        3.5490     8.1330    -0.0740 C.2   1 <1>  -0.3320 
 13 C        0.4850     7.0530    -1.2380 C.3   1 <1>  -0.1600 
 14 N        4.2220     8.2150    -1.2460 N.pl3 1 <1>   0.3140 
 15 C        3.0900     9.3770     0.2000 C.2   1 <1>  -0.1500 
 16 C       -0.8680     7.7710    -1.2240 C.3   1 <1>  -0.2400 
 17 N        4.1780     9.4570    -1.7370 N.2   1 <1>  -0.7070 
 18 C        4.9570     7.1690    -1.9770 C.3   1 <1>   0.0160 
 19 C        3.5110    10.1520    -0.8710 C.2   1 <1>   0.1390 
 20 H        2.8140     3.6320    -1.7670 H     1 <1>   0.1500 
 21 H       -0.9000     1.7280    -2.5250 H     1 <1>   0.1500 
 22 H       -1.7640     2.5000    -0.3410 H     1 <1>   0.1500 
 23 H       -0.3530     3.8440     1.1290 H     1 <1>   0.1500 
 24 H        3.1960     4.2710     0.7420 H     1 <1>   0.0800 
 25 H        1.8030     4.7400     1.6910 H     1 <1>   0.0800 
 26 H        2.5010     5.9900    -0.8740 H     1 <1>   0.4500 
 27 H        4.3010     6.3200     0.7500 H     1 <1>   0.0800 
 28 H        3.1190     7.1320     1.7550 H     1 <1>   0.0800 
 29 H        1.0770     7.7270     0.7050 H     1 <1>   0.0800 
 30 H        0.2490     6.1890     0.7070 H     1 <1>   0.0800 
 31 H        0.3720     6.1240    -1.7700 H     1 <1>   0.0800 
 32 H        1.1930     7.6720    -1.7620 H     1 <1>   0.0800 
 33 H        2.5240     9.7430     1.0390 H     1 <1>   0.1500 
 34 H       -1.6150     7.1730    -0.7290 H     1 <1>   0.0800 
 35 H       -1.1980     7.9510    -2.2330 H     1 <1>   0.0800 
 36 H       -0.7930     8.7210    -0.7220 H     1 <1>   0.0800 
 37 H        5.4890     6.5430    -1.2870 H     1 <1>   0.0800 
 38 H        5.6630     7.6420    -2.6370 H     1 <1>   0.0800 
 39 H        4.2680     6.5900    -2.5620 H     1 <1>   0.0800 
 40 H        3.3140    11.2070    -0.9830 H     1 <1>   0.1500 
@<TRIPOS>BOND
  1   1   2  1   
  2   2   3  ar  
  3   2   4  ar  
  4   3   5  ar  
  5   3  20  1   
  6   4   6  ar  
  7   4  21  1   
  8   5   7  ar  
  9   5   8  1   
 10   6   7  ar  
 11   6  22  1   
 12   7  23  1   
 13   8   9  1   
 14   8  24  1   
 15   8  25  1   
 16   9  10  1   
 17   9  11  1   
 18   9  26  1   
 19  10  12  1   
 20  10  27  1   
 21  10  28  1   
 22  11  13  1   
 23  11  29  1   
 24  11  30  1   
 25  12  14  1   
 26  12  15  2   
 27  13  16  1   
 28  13  31  1   
 29  13  32  1   
 30  14  17  1   
 31  14  18  1   
 32  15  19  1   
 33  15  33  1   
 34  16  34  1   
 35  16  35  1   
 36  16  36  1   
 37  17  19  2   
 38  18  37  1   
 39  18  38  1   
 40  18  39  1   
 41  19  40  1   
@<TRIPOS>SUBSTRUCTURE
  1 ****   9 GROUP 4 **** **** 0

# MOE 2024.06 (io_trps.svl 2023.06)
