@<TRIPOS>MOLECULE
NONAME
36 38 1 0 0 
SMALL
USER_CHARGES


@<TRIPOS>ATOM
  1 O       -0.6780     0.0650     1.2090 O.2   1 <1>  -0.5700 
  2 C       -1.5160     0.6260     0.5300 C.2   1 <1>   0.5440 
  3 N       -1.1880     1.8300    -0.0600 N.am  1 <1>  -0.6600 
  4 C       -2.8080     0.0060     0.3590 C.ar  1 <1>   0.0860 
  5 C       -1.8830     2.4160    -1.2450 C.3   1 <1>   0.1400 
  6 C        0.0670     2.5580     0.2950 C.3   1 <1>   0.1400 
  7 C       -2.9030    -1.3240    -0.0360 C.ar  1 <1>   0.1600 
  8 C       -4.0050     0.6770     0.5850 C.ar  1 <1>  -0.1500 
  9 C       -2.0310     3.9390    -1.0870 C.3   1 <1>   0.1200 
 10 C       -0.1840     4.0740     0.3580 C.3   1 <1>   0.1200 
 11 N       -4.0230    -1.9950    -0.2420 N.ar  1 <1>  -0.6200 
 12 C       -5.1790    -0.0080     0.3840 C.ar  1 <1>  -0.1500 
 13 O       -0.7910     4.5300    -0.8190 O.3   1 <1>  -0.5600 
 14 C       -5.1620    -1.3430    -0.0270 C.ar  1 <1>   0.4100 
 15 N       -6.3320    -2.0430    -0.2410 N.pl3 1 <1>  -0.8380 
 16 C       -7.6470    -1.6750     0.3560 C.3   1 <1>   0.3470 
 17 C       -6.3210    -3.4810    -0.6450 C.3   1 <1>   0.3470 
 18 C       -8.4360    -2.9510     0.2330 C.2   1 <1>  -0.2880 
 19 C       -7.7200    -3.9270    -0.3100 C.2   1 <1>  -0.2880 
 20 H       -2.8510     1.9730    -1.3880 H     1 <1>   0.0800 
 21 H       -1.2990     2.2150    -2.1270 H     1 <1>   0.0800 
 22 H        0.8190     2.3510    -0.4470 H     1 <1>   0.0800 
 23 H        0.4390     2.2230     1.2480 H     1 <1>   0.0800 
 24 H       -1.9820    -1.8590    -0.1930 H     1 <1>   0.1500 
 25 H       -3.9990     1.7020     0.9110 H     1 <1>   0.1500 
 26 H       -2.7060     4.1740    -0.2830 H     1 <1>   0.0800 
 27 H       -2.4100     4.3720    -1.9960 H     1 <1>   0.0800 
 28 H        0.7480     4.5990     0.4720 H     1 <1>   0.0800 
 29 H       -0.8210     4.3150     1.1910 H     1 <1>   0.0800 
 30 H       -6.1170     0.4860     0.5400 H     1 <1>   0.1500 
 31 H       -8.1050    -0.8820    -0.2090 H     1 <1>   0.0800 
 32 H       -7.5300    -1.3910     1.3880 H     1 <1>   0.0800 
 33 H       -5.5940    -4.0350    -0.0750 H     1 <1>   0.0800 
 34 H       -6.1180    -3.5700    -1.6980 H     1 <1>   0.0800 
 35 H       -9.4550    -2.9630     0.5760 H     1 <1>   0.1500 
 36 H       -8.0000    -4.9430    -0.5260 H     1 <1>   0.1500 
@<TRIPOS>BOND
  1   1   2  2   
  2   2   3  am  
  3   2   4  1   
  4   3   5  1   
  5   3   6  1   
  6   4   7  ar  
  7   4   8  ar  
  8   5   9  1   
  9   5  20  1   
 10   5  21  1   
 11   6  10  1   
 12   6  22  1   
 13   6  23  1   
 14   7  11  ar  
 15   7  24  1   
 16   8  12  ar  
 17   8  25  1   
 18   9  13  1   
 19   9  26  1   
 20   9  27  1   
 21  10  13  1   
 22  10  28  1   
 23  10  29  1   
 24  11  14  ar  
 25  12  14  ar  
 26  12  30  1   
 27  14  15  1   
 28  15  16  1   
 29  15  17  1   
 30  16  18  1   
 31  16  31  1   
 32  16  32  1   
 33  17  19  1   
 34  17  33  1   
 35  17  34  1   
 36  18  19  2   
 37  18  35  1   
 38  19  36  1   
@<TRIPOS>SUBSTRUCTURE
  1 ****   4 GROUP 4 **** **** 0

# MOE 2024.06 (io_trps.svl 2023.06)
