@<TRIPOS>MOLECULE
NONAME
41 41 1 0 0 
SMALL
USER_CHARGES


@<TRIPOS>ATOM
  1 O        0.8760     0.7370     0.0360 O.2   1 <1>  -0.5700 
  2 C        0.4600     1.7710    -0.4510 C.2   1 <1>   0.7800 
  3 O       -0.7680     2.2160    -0.1750 O.3   1 <1>  -0.4300 
  4 N        1.2310     2.5310    -1.2940 N.am  1 <1>  -0.6600 
  5 C       -1.7330     1.6110     0.6580 C.3   1 <1>   0.2800 
  6 C        2.5820     2.0650    -1.7170 C.3   1 <1>   0.1400 
  7 C        0.7900     3.8340    -1.8660 C.3   1 <1>   0.0600 
  8 C       -2.1280     0.2380     0.1020 C.3   1 <1>  -0.2400 
  9 C       -2.9440     2.5430     0.6060 C.3   1 <1>  -0.2400 
 10 C       -1.2170     1.5340     2.1000 C.3   1 <1>  -0.2400 
 11 C        3.6140     2.3740    -0.6340 C.3   1 <1>   0.1200 
 12 O        4.9030     2.1250    -1.1550 O.3   1 <1>  -0.3630 
 13 C        6.0150     2.3660    -0.4140 C.ar  1 <1>   0.0820 
 14 C        7.2340     2.2200    -1.0510 C.ar  1 <1>  -0.1500 
 15 C        5.9820     2.7460     0.9260 C.ar  1 <1>  -0.1500 
 16 C        8.4250     2.4460    -0.3760 C.ar  1 <1>   0.1000 
 17 C        7.1660     2.9790     1.6060 C.ar  1 <1>  -0.1500 
 18 N        9.6400     2.2870    -1.0180 N.pl3 1 <1>  -0.9000 
 19 C        8.3790     2.8320     0.9570 C.ar  1 <1>  -0.1500 
 20 H        2.8610     2.5550    -2.6330 H     1 <1>   0.0800 
 21 H        2.5560     1.0020    -1.8890 H     1 <1>   0.0800 
 22 H       -0.1200     4.1740    -1.4020 H     1 <1>   0.0800 
 23 H        0.6180     3.7240    -2.9230 H     1 <1>   0.0800 
 24 H        1.5510     4.5770    -1.7080 H     1 <1>   0.0800 
 25 H       -2.4160     0.3210    -0.9300 H     1 <1>   0.0800 
 26 H       -2.9600    -0.1570     0.6570 H     1 <1>   0.0800 
 27 H       -1.3190    -0.4640     0.1890 H     1 <1>   0.0800 
 28 H       -3.3050     2.6290    -0.4030 H     1 <1>   0.0800 
 29 H       -2.6800     3.5190     0.9690 H     1 <1>   0.0800 
 30 H       -3.7390     2.1570     1.2180 H     1 <1>   0.0800 
 31 H       -0.4090     0.8310     2.1860 H     1 <1>   0.0800 
 32 H       -2.0040     1.2050     2.7530 H     1 <1>   0.0800 
 33 H       -0.8820     2.5010     2.4290 H     1 <1>   0.0800 
 34 H        3.4600     1.7350     0.2190 H     1 <1>   0.0800 
 35 H        3.5620     3.4100    -0.3510 H     1 <1>   0.0800 
 36 H        7.2530     1.9310    -2.0840 H     1 <1>   0.1500 
 37 H        5.0550     2.8630     1.4540 H     1 <1>   0.1500 
 38 H        7.1420     3.2760     2.6400 H     1 <1>   0.1500 
 39 H       10.4420     2.0830    -0.4170 H     1 <1>   0.4000 
 40 H        9.6260     1.6930    -1.8510 H     1 <1>   0.4000 
 41 H        9.2960     3.0180     1.4840 H     1 <1>   0.1500 
@<TRIPOS>BOND
  1   1   2  2   
  2   2   3  1   
  3   2   4  am  
  4   3   5  1   
  5   4   6  1   
  6   4   7  1   
  7   5   8  1   
  8   5   9  1   
  9   5  10  1   
 10   6  11  1   
 11   6  20  1   
 12   6  21  1   
 13   7  22  1   
 14   7  23  1   
 15   7  24  1   
 16   8  25  1   
 17   8  26  1   
 18   8  27  1   
 19   9  28  1   
 20   9  29  1   
 21   9  30  1   
 22  10  31  1   
 23  10  32  1   
 24  10  33  1   
 25  11  12  1   
 26  11  34  1   
 27  11  35  1   
 28  12  13  1   
 29  13  14  ar  
 30  13  15  ar  
 31  14  16  ar  
 32  14  36  1   
 33  15  17  ar  
 34  15  37  1   
 35  16  18  1   
 36  16  19  ar  
 37  17  19  ar  
 38  17  38  1   
 39  18  39  1   
 40  18  40  1   
 41  19  41  1   
@<TRIPOS>SUBSTRUCTURE
  1 ****  11 GROUP 4 **** **** 0

# MOE 2024.06 (io_trps.svl 2023.06)
