@<TRIPOS>MOLECULE
NONAME
51 53 1 0 0 
SMALL
USER_CHARGES


@<TRIPOS>ATOM
  1 S        0.0730     0.9600     1.6040 S.o2  1 <1>   1.2040 
  2 O       -0.1920     1.6970     2.8200 O.2   1 <1>  -0.6500 
  3 O       -0.1450    -0.4690     1.5620 O.2   1 <1>  -0.6500 
  4 C        1.7390     1.3410     1.0140 C.ar  1 <1>  -0.0090 
  5 C       -0.9380     1.6810     0.3260 C.3   1 <1>  -0.1350 
  6 C        2.4150     0.4820     0.1600 C.ar  1 <1>  -0.1500 
  7 C        2.3740     2.5230     1.3670 C.ar  1 <1>  -0.1500 
  8 C        3.6730     0.7900    -0.3280 C.ar  1 <1>  -0.1500 
  9 C        3.6310     2.8350     0.8830 C.ar  1 <1>  -0.1500 
 10 C        4.3100     1.9760     0.0250 C.ar  1 <1>  -0.1430 
 11 C        5.7130     2.3850    -0.4890 C.3   1 <1>   0.2040 
 12 C        5.5750     3.7770    -1.1640 C.2   1 <1>   0.5690 
 13 C        6.6760     2.3770     0.7350 C.3   1 <1>  -0.1600 
 14 C        6.2930     1.3720    -1.5150 C.3   1 <1>  -0.1600 
 15 O        5.0530     3.8480    -2.2550 O.2   1 <1>  -0.5700 
 16 N        6.0210     4.8910    -0.5050 N.am  1 <1>  -0.4930 
 17 C        8.1540     2.6470     0.3840 C.3   1 <1>  -0.1600 
 18 C        7.7380     1.6980    -1.9250 C.3   1 <1>  -0.1600 
 19 C        5.9600     6.2560    -0.8860 C.2   1 <1>   0.0630 
 20 C        8.6570     1.6880    -0.6990 C.3   1 <1>  -0.1600 
 21 C        6.5390     7.3390    -0.2210 C.2   1 <1>   0.1080 
 22 C        5.3410     6.8100    -1.9470 C.2   1 <1>  -0.3020 
 23 N        6.3010     8.4670    -0.8130 N.2   1 <1>  -0.7070 
 24 C        7.3600     7.2560     1.0470 C.3   1 <1>  -0.0590 
 25 N        5.5590     8.1380    -1.8850 N.pl3 1 <1>   0.3140 
 26 C        5.0800     9.1430    -2.8390 C.3   1 <1>   0.0160 
 27 H       -1.9750     1.5260     0.5490 H     1 <1>   0.0800 
 28 H       -0.7210     1.2280    -0.6220 H     1 <1>   0.0800 
 29 H       -0.7560     2.7350     0.2560 H     1 <1>   0.0800 
 30 H        1.9510    -0.4460    -0.1300 H     1 <1>   0.1500 
 31 H        1.8780     3.2110     2.0320 H     1 <1>   0.1500 
 32 H        4.1290     0.0790    -0.9920 H     1 <1>   0.1500 
 33 H        4.0700     3.7700     1.1860 H     1 <1>   0.1500 
 34 H        6.6190     1.4040     1.1930 H     1 <1>   0.0800 
 35 H        6.3520     3.0800     1.4810 H     1 <1>   0.0800 
 36 H        5.6730     1.3490    -2.3950 H     1 <1>   0.0800 
 37 H        6.2950     0.3850    -1.0870 H     1 <1>   0.0800 
 38 H        6.4960     4.7200     0.3770 H     1 <1>   0.3700 
 39 H        8.7590     2.5280     1.2670 H     1 <1>   0.0800 
 40 H        8.2880     3.6570     0.0380 H     1 <1>   0.0800 
 41 H        7.7780     2.6600    -2.4080 H     1 <1>   0.0800 
 42 H        8.0820     0.9650    -2.6340 H     1 <1>   0.0800 
 43 H        8.7030     0.6900    -0.2980 H     1 <1>   0.0800 
 44 H        9.6550     1.9670    -0.9950 H     1 <1>   0.0800 
 45 H        4.7730     6.3350    -2.7250 H     1 <1>   0.1500 
 46 H        8.1600     6.5510     0.9210 H     1 <1>   0.0800 
 47 H        6.7350     6.9530     1.8660 H     1 <1>   0.0800 
 48 H        7.7800     8.2200     1.2700 H     1 <1>   0.0800 
 49 H        4.0390     8.9740    -3.0380 H     1 <1>   0.0800 
 50 H        5.6460     9.0610    -3.7470 H     1 <1>   0.0800 
 51 H        5.2140    10.1210    -2.4150 H     1 <1>   0.0800 
@<TRIPOS>BOND
  1   1   2  2   
  2   1   3  2   
  3   1   4  1   
  4   1   5  1   
  5   4   6  ar  
  6   4   7  ar  
  7   5  27  1   
  8   5  28  1   
  9   5  29  1   
 10   6   8  ar  
 11   6  30  1   
 12   7   9  ar  
 13   7  31  1   
 14   8  10  ar  
 15   8  32  1   
 16   9  10  ar  
 17   9  33  1   
 18  10  11  1   
 19  11  12  1   
 20  11  13  1   
 21  11  14  1   
 22  12  15  2   
 23  12  16  am  
 24  13  17  1   
 25  13  34  1   
 26  13  35  1   
 27  14  18  1   
 28  14  36  1   
 29  14  37  1   
 30  16  19  1   
 31  16  38  1   
 32  17  20  1   
 33  17  39  1   
 34  17  40  1   
 35  18  20  1   
 36  18  41  1   
 37  18  42  1   
 38  19  21  1   
 39  19  22  2   
 40  20  43  1   
 41  20  44  1   
 42  21  23  2   
 43  21  24  1   
 44  22  25  1   
 45  22  45  1   
 46  23  25  1   
 47  24  46  1   
 48  24  47  1   
 49  24  48  1   
 50  25  26  1   
 51  26  49  1   
 52  26  50  1   
 53  26  51  1   
@<TRIPOS>SUBSTRUCTURE
  1 ****  12 GROUP 4 **** **** 0

# MOE 2024.06 (io_trps.svl 2023.06)
