@<TRIPOS>MOLECULE
NONAME
55 58 1 0 0 
SMALL
USER_CHARGES


@<TRIPOS>ATOM
  1 O        0.0340    -0.6980     1.2280 O.3   1 <1>  -0.5600 
  2 C       -0.0290    -1.9980     0.6790 C.3   1 <1>   0.2800 
  3 C       -1.1350     0.0560     1.3760 C.3   1 <1>   0.1200 
  4 C       -1.5080    -2.4580     0.4540 C.3   1 <1>   0.2000 
  5 C        0.7790    -1.9200    -0.6390 C.3   1 <1>  -0.1600 
  6 C        0.6730    -2.9050     1.7150 C.3   1 <1>  -0.1600 
  7 C       -1.9160     0.0380     0.0620 C.3   1 <1>  -0.1600 
  8 O       -1.5710    -3.7170    -0.1660 O.3   1 <1>  -0.6800 
  9 C       -2.3890    -1.3870    -0.2670 C.3   1 <1>   0.2800 
 10 C        2.2690    -2.1400    -0.3970 C.3   1 <1>   0.2090 
 11 C        1.4500    -4.0520     1.0650 C.3   1 <1>   0.2090 
 12 O       -3.6730    -1.5010     0.2340 O.3   1 <1>  -0.6800 
 13 C       -2.5270    -1.5690    -1.7860 C.3   1 <1>  -0.2400 
 14 N        2.4720    -3.5270     0.1130 N.pl3 1 <1>  -0.8380 
 15 C        3.7350    -4.0930     0.0580 C.ar  1 <1>   0.4100 
 16 N        4.7620    -3.2960    -0.0510 N.ar  1 <1>  -0.6200 
 17 C        3.8720    -5.4950     0.1150 C.ar  1 <1>  -0.1500 
 18 C        5.9950    -3.8520    -0.0810 C.ar  1 <1>   0.3100 
 19 C        5.0950    -6.0900     0.0850 C.ar  1 <1>  -0.1440 
 20 C        6.2240    -5.2470    -0.0130 C.ar  1 <1>   0.0000 
 21 C        7.0980    -2.9940    -0.1820 C.ar  1 <1>  -0.1500 
 22 C        5.2280    -7.6050     0.1470 C.3   1 <1>  -0.0970 
 23 C        7.5570    -5.7100    -0.0490 C.ar  1 <1>  -0.1500 
 24 C        8.3850    -3.4610    -0.2160 C.ar  1 <1>   0.0820 
 25 C        8.6140    -4.8460    -0.1480 C.ar  1 <1>  -0.1500 
 26 O        9.3820    -2.5490    -0.3150 O.3   1 <1>  -0.3620 
 27 C       10.7390    -2.9300    -0.3500 C.3   1 <1>   0.0400 
 28 H       -1.7150    -0.3550     2.1860 H     1 <1>   0.0800 
 29 H       -0.8440     1.0600     1.6320 H     1 <1>   0.0800 
 30 H       -1.9310    -2.6030     1.4320 H     1 <1>   0.0800 
 31 H        0.4650    -2.6770    -1.3310 H     1 <1>   0.0800 
 32 H        0.6340    -0.9660    -1.1100 H     1 <1>   0.0800 
 33 H        1.3750    -2.3290     2.2920 H     1 <1>   0.0800 
 34 H       -0.0450    -3.3170     2.4000 H     1 <1>   0.0800 
 35 H       -1.2630     0.4070    -0.7080 H     1 <1>   0.0800 
 36 H       -2.7500     0.7140     0.1230 H     1 <1>   0.0800 
 37 H       -1.3360    -3.6380    -1.1090 H     1 <1>   0.4000 
 38 H        2.6450    -1.4310     0.3220 H     1 <1>   0.0800 
 39 H        2.8150    -2.0140    -1.3170 H     1 <1>   0.0800 
 40 H        0.7740    -4.6980     0.5340 H     1 <1>   0.0800 
 41 H        1.9350    -4.6270     1.8350 H     1 <1>   0.0800 
 42 H       -4.2920    -0.9940    -0.3210 H     1 <1>   0.4000 
 43 H       -1.5620    -1.5420    -2.2560 H     1 <1>   0.0800 
 44 H       -3.1210    -0.7780    -2.2080 H     1 <1>   0.0800 
 45 H       -2.9920    -2.5120    -2.0150 H     1 <1>   0.0800 
 46 H        2.9740    -6.0770     0.1720 H     1 <1>   0.1500 
 47 H        6.9080    -1.9400    -0.2330 H     1 <1>   0.1500 
 48 H        4.2620    -8.0710     0.2110 H     1 <1>   0.0800 
 49 H        5.8000    -7.8890     1.0110 H     1 <1>   0.0800 
 50 H        5.7200    -7.9670    -0.7380 H     1 <1>   0.0800 
 51 H        7.7450    -6.7660     0.0030 H     1 <1>   0.1500 
 52 H        9.6130    -5.2360    -0.1730 H     1 <1>   0.1500 
 53 H       11.3340    -2.0380    -0.4270 H     1 <1>   0.0800 
 54 H       10.9040    -3.5550    -1.2100 H     1 <1>   0.0800 
 55 H       10.9780    -3.4510     0.5600 H     1 <1>   0.0800 
@<TRIPOS>BOND
  1   1   2  1   
  2   1   3  1   
  3   2   4  1   
  4   2   5  1   
  5   2   6  1   
  6   3   7  1   
  7   3  28  1   
  8   3  29  1   
  9   4   8  1   
 10   4   9  1   
 11   4  30  1   
 12   5  10  1   
 13   5  31  1   
 14   5  32  1   
 15   6  11  1   
 16   6  33  1   
 17   6  34  1   
 18   7   9  1   
 19   7  35  1   
 20   7  36  1   
 21   8  37  1   
 22   9  12  1   
 23   9  13  1   
 24  10  14  1   
 25  10  38  1   
 26  10  39  1   
 27  11  14  1   
 28  11  40  1   
 29  11  41  1   
 30  12  42  1   
 31  13  43  1   
 32  13  44  1   
 33  13  45  1   
 34  14  15  1   
 35  15  16  ar  
 36  15  17  ar  
 37  16  18  ar  
 38  17  19  ar  
 39  17  46  1   
 40  18  20  ar  
 41  18  21  ar  
 42  19  20  ar  
 43  19  22  1   
 44  20  23  ar  
 45  21  24  ar  
 46  21  47  1   
 47  22  48  1   
 48  22  49  1   
 49  22  50  1   
 50  23  25  ar  
 51  23  51  1   
 52  24  25  ar  
 53  24  26  1   
 54  25  52  1   
 55  26  27  1   
 56  27  53  1   
 57  27  54  1   
 58  27  55  1   
@<TRIPOS>SUBSTRUCTURE
  1 ****  14 GROUP 4 **** **** 0

# MOE 2024.06 (io_trps.svl 2023.06)
