@<TRIPOS>MOLECULE
NONAME
46 48 1 0 0 
SMALL
USER_CHARGES


@<TRIPOS>ATOM
  1 CL      -0.8610    -2.0230     2.7740 Cl    1 <1>  -0.1230 
  2 C       -2.3350    -2.0530     1.8230 C.2   1 <1>   0.1230 
  3 C       -2.4670    -1.6150     0.5140 C.2   1 <1>   0.1390 
  4 C       -3.5480    -2.4950     2.2010 C.2   1 <1>  -0.3020 
  5 N       -3.6900    -1.7710     0.0890 N.2   1 <1>  -0.7070 
  6 N       -4.3540    -2.3140     1.1350 N.pl3 1 <1>   0.3140 
  7 C       -5.7860    -2.6350     1.0490 C.3   1 <1>   0.0960 
  8 C       -6.1730    -2.7930    -0.4260 C.3   1 <1>   0.3430 
  9 N       -7.6200    -3.1390    -0.6040 N.4   1 <1>  -0.9590 
 10 C       -7.8590    -3.7550    -1.9470 C.3   1 <1>   0.3430 
 11 C       -8.5240    -1.9720    -0.3880 C.3   1 <1>   0.3430 
 12 C       -8.9430    -4.8570    -1.8950 C.3   1 <1>   0.1400 
 13 C       -9.8840    -2.4100     0.1700 C.3   1 <1>  -0.1600 
 14 N       -9.8940    -4.7350    -0.7360 N.am  1 <1>  -0.6600 
 15 C      -10.6520    -3.4550    -0.6580 C.3   1 <1>   0.1400 
 16 C       -9.6630    -5.4670     0.4080 C.2   1 <1>   0.7030 
 17 O       -8.5440    -5.3710     0.8830 O.2   1 <1>  -0.5700 
 18 C      -10.6770    -6.2750     1.0780 C.2   1 <1>   0.2770 
 19 N      -11.9060    -6.7530     0.6020 N.pl3 1 <1>  -0.7640 
 20 C      -10.5770    -6.7390     2.3520 C.2   1 <1>   0.2000 
 21 C      -12.4780    -7.4530     1.5770 C.cat 1 <1>   0.6500 
 22 C      -12.4600    -6.5790    -0.7720 C.3   1 <1>   0.2740 
 23 N      -11.7010    -7.4560     2.6470 N.pl3 1 <1>  -0.7000 
 24 H       -1.6640    -1.2000    -0.0720 H     1 <1>   0.1500 
 25 H       -3.8590    -2.9110     3.1420 H     1 <1>   0.1500 
 26 H       -6.3320    -1.8320     1.5060 H     1 <1>   0.0800 
 27 H       -5.9610    -3.5510     1.5830 H     1 <1>   0.0800 
 28 H       -5.5610    -3.5760    -0.8450 H     1 <1>   0.0800 
 29 H       -5.9470    -1.8790    -0.9540 H     1 <1>   0.0800 
 30 H       -7.8680    -3.8790     0.0850 H     1 <1>   0.4500 
 31 H       -6.9490    -4.1970    -2.3210 H     1 <1>   0.0800 
 32 H       -8.1550    -2.9930    -2.6500 H     1 <1>   0.0800 
 33 H       -8.6610    -1.4400    -1.3160 H     1 <1>   0.0800 
 34 H       -8.0760    -1.2880     0.3140 H     1 <1>   0.0800 
 35 H       -8.4440    -5.8100    -1.8350 H     1 <1>   0.0800 
 36 H       -9.4960    -4.8540    -2.8190 H     1 <1>   0.0800 
 37 H      -10.5000    -1.5300     0.2340 H     1 <1>   0.0800 
 38 H       -9.7590    -2.7590     1.1790 H     1 <1>   0.0800 
 39 H      -10.8410    -3.0770    -1.6500 H     1 <1>   0.0800 
 40 H      -11.6060    -3.6350    -0.1910 H     1 <1>   0.0800 
 41 H       -9.7650    -6.5920     3.0490 H     1 <1>   0.1500 
 42 H      -13.4350    -7.9550     1.5090 H     1 <1>   0.1500 
 43 H      -11.7200    -6.8520    -1.5060 H     1 <1>   0.0800 
 44 H      -12.7510    -5.5550    -0.9290 H     1 <1>   0.0800 
 45 H      -13.3250    -7.2060    -0.9120 H     1 <1>   0.0800 
 46 H      -11.9010    -7.9270     3.5380 H     1 <1>   0.4500 
@<TRIPOS>BOND
  1   1   2  1   
  2   2   3  1   
  3   2   4  2   
  4   3   5  2   
  5   3  24  1   
  6   4   6  1   
  7   4  25  1   
  8   5   6  1   
  9   6   7  1   
 10   7   8  1   
 11   7  26  1   
 12   7  27  1   
 13   8   9  1   
 14   8  28  1   
 15   8  29  1   
 16   9  10  1   
 17   9  11  1   
 18   9  30  1   
 19  10  12  1   
 20  10  31  1   
 21  10  32  1   
 22  11  13  1   
 23  11  33  1   
 24  11  34  1   
 25  12  14  1   
 26  12  35  1   
 27  12  36  1   
 28  13  15  1   
 29  13  37  1   
 30  13  38  1   
 31  14  15  1   
 32  14  16  am  
 33  15  39  1   
 34  15  40  1   
 35  16  17  2   
 36  16  18  1   
 37  18  19  1   
 38  18  20  2   
 39  19  21  ar  
 40  19  22  1   
 41  20  23  1   
 42  20  41  1   
 43  21  23  ar  
 44  21  42  1   
 45  22  43  1   
 46  22  44  1   
 47  22  45  1   
 48  23  46  1   
@<TRIPOS>SUBSTRUCTURE
  1 ****   9 GROUP 4 **** **** 0

# MOE 2024.06 (io_trps.svl 2023.06)
