@<TRIPOS>MOLECULE
NONAME
23 23 1 0 0 
SMALL
USER_CHARGES


@<TRIPOS>ATOM
  1 O       -2.0450    -0.6350     1.2720 O.2   1 <1>  -0.5700 
  2 C       -1.7840    -0.8510     0.1160 C.2   1 <1>   0.6590 
  3 O       -1.6280     0.1280    -0.7670 O.3   1 <1>  -0.4300 
  4 C       -1.5950    -2.2610    -0.4200 C.3   1 <1>  -0.0190 
  5 C       -1.7620     1.4860    -0.4000 C.3   1 <1>   0.0400 
  6 C       -2.5100    -3.2500     0.3210 C.3   1 <1>   0.1200 
  7 C       -0.1240    -2.7050    -0.3120 C.3   1 <1>  -0.1600 
  8 O       -2.3150    -4.5400    -0.1820 O.3   1 <1>  -0.5600 
  9 C        0.0050    -4.1760    -0.7150 C.3   1 <1>   0.2000 
 10 C       -1.0280    -5.0570     0.0080 C.3   1 <1>   0.1200 
 11 O        1.2820    -4.5980    -0.3940 O.3   1 <1>  -0.6800 
 12 H       -1.8900    -2.2570    -1.4540 H     1 <1>   0.0800 
 13 H       -1.5940     2.0930    -1.2720 H     1 <1>   0.0800 
 14 H       -1.0330     1.7150     0.3580 H     1 <1>   0.0800 
 15 H       -2.7560     1.6480    -0.0200 H     1 <1>   0.0800 
 16 H       -3.5440    -2.9920     0.1720 H     1 <1>   0.0800 
 17 H       -2.3050    -3.2580     1.3790 H     1 <1>   0.0800 
 18 H        0.2000    -2.5780     0.7060 H     1 <1>   0.0800 
 19 H        0.4890    -2.0970    -0.9530 H     1 <1>   0.0800 
 20 H       -0.1160    -4.2900    -1.7790 H     1 <1>   0.0800 
 21 H       -1.0140    -6.0530    -0.3980 H     1 <1>   0.0800 
 22 H       -0.8350    -5.0960     1.0660 H     1 <1>   0.0800 
 23 H        1.4660    -4.4450     0.5520 H     1 <1>   0.4000 
@<TRIPOS>BOND
  1   1   2  2   
  2   2   3  1   
  3   2   4  1   
  4   3   5  1   
  5   4   6  1   
  6   4   7  1   
  7   4  12  1   
  8   5  13  1   
  9   5  14  1   
 10   5  15  1   
 11   6   8  1   
 12   6  16  1   
 13   6  17  1   
 14   7   9  1   
 15   7  18  1   
 16   7  19  1   
 17   8  10  1   
 18   9  10  1   
 19   9  11  1   
 20   9  20  1   
 21  10  21  1   
 22  10  22  1   
 23  11  23  1   
@<TRIPOS>SUBSTRUCTURE
  1 ****   4 GROUP 4 **** **** 0

# MOE 2024.06 (io_trps.svl 2023.06)
