@<TRIPOS>MOLECULE
NONAME
56 58 1 0 0 
SMALL
USER_CHARGES


@<TRIPOS>ATOM
  1 O        0.1330     1.0300     0.5740 O.2   1 <1>  -0.5700 
  2 C        0.0290     2.1810     0.2230 C.2   1 <1>   0.5690 
  3 N       -0.9490     3.0100     0.7050 N.am  1 <1>  -0.6600 
  4 C        1.0200     2.7120    -0.8140 C.3   1 <1>   0.1810 
  5 C       -1.0670     4.4280     0.2330 C.3   1 <1>   0.3640 
  6 C       -1.9020     2.5870     1.7730 C.3   1 <1>   0.0600 
  7 O        1.1710     4.1070    -0.7500 O.3   1 <1>  -0.5600 
  8 C       -2.5030     4.7650    -0.1970 C.ar  1 <1>  -0.1430 
  9 C       -0.0450     4.8260    -0.8630 C.3   1 <1>   0.2610 
 10 C       -3.2650     4.0120    -1.0970 C.ar  1 <1>  -0.1430 
 11 C       -3.0640     5.9100     0.3590 C.ar  1 <1>  -0.1500 
 12 C        0.1640     6.3490    -0.8370 C.2   1 <1>   0.5690 
 13 C       -4.5560     4.4170    -1.4030 C.ar  1 <1>  -0.1500 
 14 C       -2.7630     2.7400    -1.7740 C.3   1 <1>  -0.0960 
 15 C       -4.3500     6.3050     0.0440 C.ar  1 <1>  -0.1500 
 16 O       -0.3760     6.9730    -1.7240 O.2   1 <1>  -0.5700 
 17 N        0.8750     7.0060     0.1490 N.am  1 <1>  -0.6600 
 18 C       -5.0990     5.5550    -0.8390 C.ar  1 <1>  -0.1500 
 19 C        0.8330     8.5010     0.2270 C.3   1 <1>   0.2840 
 20 C        1.7150     6.3350     1.1850 C.3   1 <1>   0.1400 
 21 C        2.1450     9.1350    -0.2300 C.ar  1 <1>  -0.1430 
 22 C        3.1560     6.1720     0.7010 C.3   1 <1>  -0.2400 
 23 C        2.9700     9.8730     0.6170 C.ar  1 <1>  -0.1430 
 24 C        2.5150     8.9610    -1.5570 C.ar  1 <1>  -0.1500 
 25 C        4.1470    10.4150     0.1190 C.ar  1 <1>  -0.1500 
 26 C        2.6280    10.1090     2.0810 C.3   1 <1>  -0.0970 
 27 C        3.6880     9.5040    -2.0440 C.ar  1 <1>  -0.1500 
 28 C        4.5070    10.2320    -1.2030 C.ar  1 <1>  -0.1500 
 29 H        0.6920     2.4460    -1.8010 H     1 <1>   0.0800 
 30 H        1.9850     2.2730    -0.6380 H     1 <1>   0.0800 
 31 H       -0.8450     5.0360     1.0910 H     1 <1>   0.0800 
 32 H       -1.8440     3.2650     2.6050 H     1 <1>   0.0800 
 33 H       -1.6690     1.5950     2.1210 H     1 <1>   0.0800 
 34 H       -2.9080     2.5860     1.3890 H     1 <1>   0.0800 
 35 H       -0.4560     4.5890    -1.8260 H     1 <1>   0.0800 
 36 H       -2.5010     6.5170     1.0460 H     1 <1>   0.1500 
 37 H       -5.1560     3.8460    -2.0900 H     1 <1>   0.1500 
 38 H       -3.4080     2.4580    -2.5860 H     1 <1>   0.0800 
 39 H       -2.7450     1.9290    -1.0680 H     1 <1>   0.0800 
 40 H       -1.7790     2.8760    -2.1770 H     1 <1>   0.0800 
 41 H       -4.7660     7.1950     0.4820 H     1 <1>   0.1500 
 42 H       -6.1010     5.8570    -1.0900 H     1 <1>   0.1500 
 43 H        0.0420     8.8850    -0.3940 H     1 <1>   0.0800 
 44 H        0.5930     8.7870     1.2340 H     1 <1>   0.0800 
 45 H        1.7020     6.9110     2.0930 H     1 <1>   0.0800 
 46 H        1.3170     5.3640     1.4170 H     1 <1>   0.0800 
 47 H        3.6490     7.1230     0.6260 H     1 <1>   0.0800 
 48 H        3.1810     5.6890    -0.2580 H     1 <1>   0.0800 
 49 H        3.7040     5.5680     1.4000 H     1 <1>   0.0800 
 50 H        1.8810     8.3920    -2.2170 H     1 <1>   0.1500 
 51 H        4.7960    10.9860     0.7590 H     1 <1>   0.1500 
 52 H        3.3970    10.6800     2.5700 H     1 <1>   0.0800 
 53 H        2.5320     9.1700     2.5940 H     1 <1>   0.0800 
 54 H        1.7050    10.6550     2.1600 H     1 <1>   0.0800 
 55 H        3.9610     9.3580    -3.0740 H     1 <1>   0.1500 
 56 H        5.4220    10.6570    -1.5780 H     1 <1>   0.1500 
@<TRIPOS>BOND
  1   1   2  2   
  2   2   3  am  
  3   2   4  1   
  4   3   5  1   
  5   3   6  1   
  6   4   7  1   
  7   4  29  1   
  8   4  30  1   
  9   5   8  1   
 10   5   9  1   
 11   5  31  1   
 12   6  32  1   
 13   6  33  1   
 14   6  34  1   
 15   7   9  1   
 16   8  10  ar  
 17   8  11  ar  
 18   9  12  1   
 19   9  35  1   
 20  10  13  ar  
 21  10  14  1   
 22  11  15  ar  
 23  11  36  1   
 24  12  16  2   
 25  12  17  am  
 26  13  18  ar  
 27  13  37  1   
 28  14  38  1   
 29  14  39  1   
 30  14  40  1   
 31  15  18  ar  
 32  15  41  1   
 33  17  19  1   
 34  17  20  1   
 35  18  42  1   
 36  19  21  1   
 37  19  43  1   
 38  19  44  1   
 39  20  22  1   
 40  20  45  1   
 41  20  46  1   
 42  21  23  ar  
 43  21  24  ar  
 44  22  47  1   
 45  22  48  1   
 46  22  49  1   
 47  23  25  ar  
 48  23  26  1   
 49  24  27  ar  
 50  24  50  1   
 51  25  28  ar  
 52  25  51  1   
 53  26  52  1   
 54  26  53  1   
 55  26  54  1   
 56  27  28  ar  
 57  27  55  1   
 58  28  56  1   
@<TRIPOS>SUBSTRUCTURE
  1 ****  12 GROUP 4 **** **** 0

# MOE 2024.06 (io_trps.svl 2023.06)
