@<TRIPOS>MOLECULE
NONAME
50 52 1 0 0 
SMALL
USER_CHARGES


@<TRIPOS>ATOM
  1 O       -0.2180     0.8040     0.2110 O.2   1 <1>  -0.5700 
  2 C       -0.2820     1.9990     0.0370 C.2   1 <1>   0.5690 
  3 N       -1.3860     2.7510     0.3520 N.am  1 <1>  -0.5090 
  4 C        0.9450     2.6860    -0.5550 C.3   1 <1>   0.1810 
  5 C       -1.3850     4.2420     0.1590 C.3   1 <1>   0.3640 
  6 C       -2.4260     2.2280     1.2790 C.3   1 <1>   0.0490 
  7 O        1.0500     4.0220    -0.1400 O.3   1 <1>  -0.5600 
  8 C       -2.5520     4.6570    -0.7350 C.ar  1 <1>  -0.1440 
  9 C       -0.0780     4.8080    -0.4680 C.3   1 <1>   0.2610 
 10 C       -3.1490     0.9660     0.9230 C.3   1 <1>  -0.2000 
 11 C       -3.8820     2.2670     0.9240 C.3   1 <1>  -0.2000 
 12 C       -3.3570     5.7270    -0.3700 C.ar  1 <1>   0.1600 
 13 C       -2.8270     3.9970    -1.9200 C.ar  1 <1>  -0.1500 
 14 C        0.1540     6.2850    -0.0940 C.2   1 <1>   0.5690 
 15 N       -4.3880     6.1730    -1.0700 N.ar  1 <1>  -0.6200 
 16 C       -3.8960     4.4510    -2.6610 C.ar  1 <1>  -0.1500 
 17 O       -0.5510     6.7800     0.7600 O.2   1 <1>  -0.5700 
 18 N        1.1290     7.0400    -0.7130 N.am  1 <1>  -0.6600 
 19 C       -4.6340     5.5260    -2.1970 C.ar  1 <1>   0.1600 
 20 C        1.3120     8.4810    -0.3450 C.3   1 <1>   0.1400 
 21 C        2.0550     6.5360    -1.7650 C.3   1 <1>   0.1400 
 22 C        1.9460     8.6200     1.0410 C.3   1 <1>   0.1200 
 23 C        3.4330     6.2700    -1.1650 C.3   1 <1>  -0.2400 
 24 O        2.3530     9.9420     1.2110 O.3   1 <1>  -0.5600 
 25 C        2.8920    10.2040     2.4660 C.3   1 <1>   0.0400 
 26 H        0.9020     2.6540    -1.6290 H     1 <1>   0.0800 
 27 H        1.8310     2.1730    -0.2270 H     1 <1>   0.0800 
 28 H       -1.5200     4.6730     1.1350 H     1 <1>   0.0800 
 29 H       -2.1510     2.3650     2.3120 H     1 <1>   0.1000 
 30 H       -0.1840     4.7700    -1.5360 H     1 <1>   0.0800 
 31 H       -2.9240     0.4950    -0.0180 H     1 <1>   0.1000 
 32 H       -3.3540     0.2560     1.7030 H     1 <1>   0.1000 
 33 H       -4.5990     2.4420     1.7070 H     1 <1>   0.1000 
 34 H       -4.2190     2.6370    -0.0260 H     1 <1>   0.1000 
 35 H       -3.1440     6.2520     0.5480 H     1 <1>   0.1500 
 36 H       -2.2440     3.1560    -2.2530 H     1 <1>   0.1500 
 37 H       -4.1620     3.9770    -3.5880 H     1 <1>   0.1500 
 38 H       -5.4690     5.8720    -2.7820 H     1 <1>   0.1500 
 39 H        1.9410     8.9660    -1.0700 H     1 <1>   0.0800 
 40 H        0.3540     8.9720    -0.3420 H     1 <1>   0.0800 
 41 H        1.6800     5.6280    -2.2010 H     1 <1>   0.0800 
 42 H        2.1320     7.2650    -2.5540 H     1 <1>   0.0800 
 43 H        2.8100     7.9850     1.1270 H     1 <1>   0.0800 
 44 H        1.2270     8.3750     1.8050 H     1 <1>   0.0800 
 45 H        3.3550     5.5810    -0.3430 H     1 <1>   0.0800 
 46 H        3.8820     7.1860    -0.8270 H     1 <1>   0.0800 
 47 H        4.0740     5.8390    -1.9120 H     1 <1>   0.0800 
 48 H        3.1780    11.2410     2.4970 H     1 <1>   0.0800 
 49 H        3.7580     9.5830     2.6190 H     1 <1>   0.0800 
 50 H        2.1470    10.0110     3.2190 H     1 <1>   0.0800 
@<TRIPOS>BOND
  1   1   2  2   
  2   2   3  am  
  3   2   4  1   
  4   3   5  1   
  5   3   6  1   
  6   4   7  1   
  7   4  26  1   
  8   4  27  1   
  9   5   8  1   
 10   5   9  1   
 11   5  28  1   
 12   6  10  1   
 13   6  11  1   
 14   6  29  1   
 15   7   9  1   
 16   8  12  ar  
 17   8  13  ar  
 18   9  14  1   
 19   9  30  1   
 20  10  11  1   
 21  10  31  1   
 22  10  32  1   
 23  11  33  1   
 24  11  34  1   
 25  12  15  ar  
 26  12  35  1   
 27  13  16  ar  
 28  13  36  1   
 29  14  17  2   
 30  14  18  am  
 31  15  19  ar  
 32  16  19  ar  
 33  16  37  1   
 34  18  20  1   
 35  18  21  1   
 36  19  38  1   
 37  20  22  1   
 38  20  39  1   
 39  20  40  1   
 40  21  23  1   
 41  21  41  1   
 42  21  42  1   
 43  22  24  1   
 44  22  43  1   
 45  22  44  1   
 46  23  45  1   
 47  23  46  1   
 48  23  47  1   
 49  24  25  1   
 50  25  48  1   
 51  25  49  1   
 52  25  50  1   
@<TRIPOS>SUBSTRUCTURE
  1 ****   9 GROUP 4 **** **** 0

# MOE 2024.06 (io_trps.svl 2023.06)
