@<TRIPOS>MOLECULE
NONAME
42 44 1 0 0 
SMALL
USER_CHARGES


@<TRIPOS>ATOM
  1 S       -0.8180    -0.3820    -0.7280 S.3   1 <1>  -0.4600 
  2 C       -1.2540    -0.8930     0.9740 C.3   1 <1>   0.1310 
  3 C       -0.3030     1.3440    -0.5290 C.3   1 <1>  -0.0100 
  4 C       -1.4880    -2.3980     1.0830 C.2   1 <1>   0.5690 
  5 O       -0.7530    -3.0300     1.8050 O.2   1 <1>  -0.5700 
  6 N       -2.5170    -3.0090     0.4160 N.am  1 <1>  -0.6600 
  7 C       -3.4550    -2.3730    -0.5440 C.3   1 <1>   0.1400 
  8 C       -2.7150    -4.4790     0.4310 C.3   1 <1>   0.1400 
  9 C       -4.5250    -3.4350    -0.7840 C.3   1 <1>   0.2000 
 10 C       -3.7510    -4.7550    -0.6680 C.3   1 <1>  -0.0800 
 11 O       -5.4560    -3.3480     0.2410 O.3   1 <1>  -0.6800 
 12 C       -4.6310    -5.9960    -0.4110 C.3   1 <1>  -0.0170 
 13 C       -3.9240    -7.3580    -0.4350 C.ar  1 <1>  -0.1440 
 14 C       -4.6240    -8.5180    -0.0180 C.ar  1 <1>   0.0000 
 15 C       -2.6340    -7.5330    -0.8540 C.ar  1 <1>  -0.1500 
 16 C       -3.9350    -9.7560    -0.0400 C.ar  1 <1>   0.3100 
 17 C       -5.9720    -8.5260     0.4140 C.ar  1 <1>  -0.1500 
 18 C       -2.0480    -8.8040    -0.8400 C.ar  1 <1>   0.1600 
 19 N       -2.6490    -9.8810    -0.4510 N.ar  1 <1>  -0.6200 
 20 C       -4.6030   -10.9180     0.3780 C.ar  1 <1>  -0.1500 
 21 C       -6.5960    -9.6770     0.8130 C.ar  1 <1>  -0.1500 
 22 C       -5.9050   -10.8900     0.7970 C.ar  1 <1>  -0.1500 
 23 H       -0.4340    -0.6070     1.6070 H     1 <1>   0.0800 
 24 H       -2.1370    -0.3530     1.2580 H     1 <1>   0.0800 
 25 H       -0.0330     1.7190    -1.5000 H     1 <1>   0.0800 
 26 H        0.5430     1.3650     0.1360 H     1 <1>   0.0800 
 27 H       -1.1310     1.8970    -0.1220 H     1 <1>   0.0800 
 28 H       -3.8750    -1.4600    -0.1580 H     1 <1>   0.0800 
 29 H       -2.9330    -2.1710    -1.4630 H     1 <1>   0.0800 
 30 H       -1.7840    -4.9860     0.2470 H     1 <1>   0.0800 
 31 H       -3.0890    -4.7720     1.3980 H     1 <1>   0.0800 
 32 H       -5.0360    -3.3170    -1.7240 H     1 <1>   0.0800 
 33 H       -3.2270    -4.8870    -1.5980 H     1 <1>   0.0800 
 34 H       -4.9780    -3.3100     1.0940 H     1 <1>   0.4000 
 35 H       -5.4150    -6.0150    -1.1480 H     1 <1>   0.0800 
 36 H       -5.0970    -5.8790     0.5520 H     1 <1>   0.0800 
 37 H       -2.0200    -6.7290    -1.2070 H     1 <1>   0.1500 
 38 H       -6.5300    -7.6090     0.4310 H     1 <1>   0.1500 
 39 H       -1.0270    -8.8890    -1.1740 H     1 <1>   0.1500 
 40 H       -4.0520   -11.8400     0.3540 H     1 <1>   0.1500 
 41 H       -7.6210    -9.6640     1.1400 H     1 <1>   0.1500 
 42 H       -6.4050   -11.7890     1.1140 H     1 <1>   0.1500 
@<TRIPOS>BOND
  1   1   2  1   
  2   1   3  1   
  3   2   4  1   
  4   2  23  1   
  5   2  24  1   
  6   3  25  1   
  7   3  26  1   
  8   3  27  1   
  9   4   5  2   
 10   4   6  am  
 11   6   7  1   
 12   6   8  1   
 13   7   9  1   
 14   7  28  1   
 15   7  29  1   
 16   8  10  1   
 17   8  30  1   
 18   8  31  1   
 19   9  10  1   
 20   9  11  1   
 21   9  32  1   
 22  10  12  1   
 23  10  33  1   
 24  11  34  1   
 25  12  13  1   
 26  12  35  1   
 27  12  36  1   
 28  13  14  ar  
 29  13  15  ar  
 30  14  16  ar  
 31  14  17  ar  
 32  15  18  ar  
 33  15  37  1   
 34  16  19  ar  
 35  16  20  ar  
 36  17  21  ar  
 37  17  38  1   
 38  18  19  ar  
 39  18  39  1   
 40  20  22  ar  
 41  20  40  1   
 42  21  22  ar  
 43  21  41  1   
 44  22  42  1   
@<TRIPOS>SUBSTRUCTURE
  1 ****  10 GROUP 4 **** **** 0

# MOE 2024.06 (io_trps.svl 2023.06)
