@<TRIPOS>MOLECULE
NONAME
56 60 1 0 0 
SMALL
USER_CHARGES


@<TRIPOS>ATOM
  1 O       -0.8780     0.4350     2.1040 O.2   1 <1>  -0.5700 
  2 C       -1.8560     1.0340     1.6950 C.2   1 <1>   0.5440 
  3 N       -3.1040     0.4670     1.8630 N.am  1 <1>  -0.6600 
  4 C       -1.6780     2.3090     1.0270 C.ar  1 <1>   0.0860 
  5 C       -3.3220    -0.6990     2.7650 C.3   1 <1>   0.1400 
  6 C       -4.2850     0.8010     1.0220 C.3   1 <1>   0.1400 
  7 C       -0.7560     2.4480    -0.0100 C.ar  1 <1>  -0.1500 
  8 C       -2.4120     3.4370     1.3960 C.ar  1 <1>  -0.1500 
  9 C       -3.6730    -1.9280     1.9240 C.3   1 <1>  -0.1600 
 10 C       -4.6400    -0.4130     0.1600 C.3   1 <1>  -0.1600 
 11 C       -0.5830     3.6500    -0.6750 C.ar  1 <1>  -0.1430 
 12 C       -2.2520     4.6420     0.7410 C.ar  1 <1>  -0.1500 
 13 C       -4.8800    -1.6730     1.0100 C.3   1 <1>   0.4240 
 14 C       -1.3460     4.7520    -0.3000 C.ar  1 <1>   0.0830 
 15 C        0.4350     3.7630    -1.7980 C.3   1 <1>  -0.0160 
 16 O       -5.9570    -1.4100     1.8810 O.3   1 <1>  -0.5600 
 17 C       -5.1500    -2.9040     0.1180 C.ar  1 <1>  -0.1430 
 18 O       -1.2260     5.9500    -0.9140 O.3   1 <1>  -0.3630 
 19 C        0.7810     5.2320    -2.0530 C.3   1 <1>  -0.1600 
 20 C       -7.2470    -1.5920     1.3850 C.3   1 <1>   0.1200 
 21 C       -6.3710    -3.5700     0.1570 C.ar  1 <1>  -0.1430 
 22 C       -4.1700    -3.3700    -0.7530 C.ar  1 <1>  -0.1500 
 23 C       -0.5030     6.0630    -2.1240 C.3   1 <1>   0.1200 
 24 C       -7.4580    -3.0740     1.0900 C.3   1 <1>  -0.0170 
 25 C       -6.6020    -4.6760    -0.6450 C.ar  1 <1>  -0.1500 
 26 C       -4.4000    -4.4720    -1.5570 C.ar  1 <1>  -0.1500 
 27 C       -5.6130    -5.1340    -1.5090 C.ar  1 <1>   0.0830 
 28 O       -5.7580    -6.2070    -2.3270 O.3   1 <1>  -0.3630 
 29 C       -6.9470    -6.9640    -2.3400 C.3   1 <1>   0.0400 
 30 H       -4.1280    -0.4740     3.4420 H     1 <1>   0.0800 
 31 H       -2.4420    -0.8970     3.3520 H     1 <1>   0.0800 
 32 H       -4.0820     1.6400     0.3820 H     1 <1>   0.0800 
 33 H       -5.1140     1.0550     1.6620 H     1 <1>   0.0800 
 34 H       -0.1690     1.5890    -0.2870 H     1 <1>   0.1500 
 35 H       -3.1130     3.3590     2.2090 H     1 <1>   0.1500 
 36 H       -3.8870    -2.7610     2.5670 H     1 <1>   0.0800 
 37 H       -2.8090    -2.1830     1.3400 H     1 <1>   0.0800 
 38 H       -3.8250    -0.5880    -0.5180 H     1 <1>   0.0800 
 39 H       -5.5050    -0.2000    -0.4390 H     1 <1>   0.0800 
 40 H       -2.8230     5.5070     1.0290 H     1 <1>   0.1500 
 41 H        0.0140     3.3310    -2.6890 H     1 <1>   0.0800 
 42 H        1.3280     3.2190    -1.5460 H     1 <1>   0.0800 
 43 H        1.3300     5.3240    -2.9730 H     1 <1>   0.0800 
 44 H        1.3960     5.6080    -1.2540 H     1 <1>   0.0800 
 45 H       -7.3740    -0.9990     0.4970 H     1 <1>   0.0800 
 46 H       -7.9390    -1.2560     2.1370 H     1 <1>   0.0800 
 47 H       -3.2160    -2.8790    -0.8160 H     1 <1>   0.1500 
 48 H       -0.2800     7.1040    -2.2750 H     1 <1>   0.0800 
 49 H       -1.1400     5.7170    -2.9190 H     1 <1>   0.0800 
 50 H       -8.4250    -3.2110     0.6430 H     1 <1>   0.0800 
 51 H       -7.4270    -3.6290     2.0110 H     1 <1>   0.0800 
 52 H       -7.5520    -5.1700    -0.5870 H     1 <1>   0.1500 
 53 H       -3.6380    -4.8270    -2.2260 H     1 <1>   0.1500 
 54 H       -6.8280    -7.7610    -3.0520 H     1 <1>   0.0800 
 55 H       -7.7620    -6.3280    -2.6370 H     1 <1>   0.0800 
 56 H       -7.1120    -7.3720    -1.3590 H     1 <1>   0.0800 
@<TRIPOS>BOND
  1   1   2  2   
  2   2   3  am  
  3   2   4  1   
  4   3   5  1   
  5   3   6  1   
  6   4   7  ar  
  7   4   8  ar  
  8   5   9  1   
  9   5  30  1   
 10   5  31  1   
 11   6  10  1   
 12   6  32  1   
 13   6  33  1   
 14   7  11  ar  
 15   7  34  1   
 16   8  12  ar  
 17   8  35  1   
 18   9  13  1   
 19   9  36  1   
 20   9  37  1   
 21  10  13  1   
 22  10  38  1   
 23  10  39  1   
 24  11  14  ar  
 25  11  15  1   
 26  12  14  ar  
 27  12  40  1   
 28  13  16  1   
 29  13  17  1   
 30  14  18  1   
 31  15  19  1   
 32  15  41  1   
 33  15  42  1   
 34  16  20  1   
 35  17  21  ar  
 36  17  22  ar  
 37  18  23  1   
 38  19  23  1   
 39  19  43  1   
 40  19  44  1   
 41  20  24  1   
 42  20  45  1   
 43  20  46  1   
 44  21  24  1   
 45  21  25  ar  
 46  22  26  ar  
 47  22  47  1   
 48  23  48  1   
 49  23  49  1   
 50  24  50  1   
 51  24  51  1   
 52  25  27  ar  
 53  25  52  1   
 54  26  27  ar  
 55  26  53  1   
 56  27  28  1   
 57  28  29  1   
 58  29  54  1   
 59  29  55  1   
 60  29  56  1   
@<TRIPOS>SUBSTRUCTURE
  1 ****  10 GROUP 4 **** **** 0

# MOE 2024.06 (io_trps.svl 2023.06)
