@<TRIPOS>MOLECULE
NONAME
38 39 1 0 0 
SMALL
USER_CHARGES


@<TRIPOS>ATOM
  1 O       -0.0810     0.5740    -1.4810 O.2   1 <1>  -0.5760 
  2 C       -0.1310     1.6640    -0.9640 C.2   1 <1>   0.5630 
  3 N       -1.3130     2.2770    -0.6350 N.am  1 <1>  -0.6660 
  4 C        1.1950     2.3710    -0.7220 C.3   1 <1>  -0.1090 
  5 C       -1.4030     3.6140     0.0120 C.3   1 <1>   0.1300 
  6 C       -2.6070     1.5640    -0.8220 C.3   1 <1>   0.2690 
  7 C        1.1020     3.6100     0.1820 C.3   1 <1>  -0.1700 
  8 C       -0.1300     4.4480    -0.2050 C.3   1 <1>  -0.0300 
  9 C       -3.3240     1.4160     0.5100 C.2   1 <1>  -0.2970 
 10 C       -0.1930     5.7670     0.5620 C.2   1 <1>   0.8480 
 11 C       -3.4860     0.2640     1.1670 C.2   1 <1>  -0.3090 
 12 O       -1.0450     5.9710     1.3870 O.2   1 <1>  -0.5760 
 13 N        0.7410     6.7140     0.2830 N.pl3 1 <1>  -0.7350 
 14 C        0.8600     7.9200     0.8450 C.cat 1 <1>   1.0680 
 15 N        0.0840     8.4170     1.7880 N.pl3 1 <1>  -0.7050 
 16 N        1.8020     8.8100     0.5270 N.pl3 1 <1>  -0.7690 
 17 C        0.5240     9.6780     2.1080 C.2   1 <1>   0.1900 
 18 C        1.5900     9.9240     1.3260 C.2   1 <1>   0.1900 
 19 C        2.9080     8.7430    -0.4670 C.3   1 <1>   0.2650 
 20 H        1.5810     2.6560    -1.6840 H     1 <1>   0.0690 
 21 H        1.8850     1.6650    -0.2940 H     1 <1>   0.0690 
 22 H       -1.5640     3.4650     1.0670 H     1 <1>   0.0690 
 23 H       -2.2530     4.1430    -0.3850 H     1 <1>   0.0690 
 24 H       -2.4410     0.5870    -1.2420 H     1 <1>   0.0690 
 25 H       -3.2230     2.1150    -1.5100 H     1 <1>   0.0690 
 26 H        2.0120     4.1770     0.0940 H     1 <1>   0.0690 
 27 H        1.0060     3.2870     1.2060 H     1 <1>   0.0690 
 28 H       -0.0770     4.6890    -1.2520 H     1 <1>   0.0690 
 29 H       -3.7050     2.3480     0.8870 H     1 <1>   0.1400 
 30 H       -3.9990     0.1740     2.1090 H     1 <1>   0.1400 
 31 H       -3.1150    -0.6850     0.8180 H     1 <1>   0.1400 
 32 H        1.4320     6.4770    -0.4120 H     1 <1>   0.4430 
 33 H       -0.7060     7.8830     2.1740 H     1 <1>   0.4430 
 34 H        0.0540    10.2990     2.8560 H     1 <1>   0.1400 
 35 H        2.2080    10.8090     1.2840 H     1 <1>   0.1400 
 36 H        2.8770     7.8230    -1.0220 H     1 <1>   0.0690 
 37 H        3.8570     8.8110     0.0400 H     1 <1>   0.0690 
 38 H        2.8260     9.5660    -1.1580 H     1 <1>   0.0690 
@<TRIPOS>BOND
  1   1   2  2   
  2   2   3  am  
  3   2   4  1   
  4   3   5  1   
  5   3   6  1   
  6   4   7  1   
  7   4  20  1   
  8   4  21  1   
  9   5   8  1   
 10   5  22  1   
 11   5  23  1   
 12   6   9  1   
 13   6  24  1   
 14   6  25  1   
 15   7   8  1   
 16   7  26  1   
 17   7  27  1   
 18   8  10  1   
 19   8  28  1   
 20   9  11  2   
 21   9  29  1   
 22  10  12  2   
 23  10  13  1   
 24  11  30  1   
 25  11  31  1   
 26  13  14  ar  
 27  13  32  1   
 28  14  15  ar  
 29  14  16  ar  
 30  15  17  1   
 31  15  33  1   
 32  16  18  1   
 33  16  19  1   
 34  17  18  2   
 35  17  34  1   
 36  18  35  1   
 37  19  36  1   
 38  19  37  1   
 39  19  38  1   
@<TRIPOS>SUBSTRUCTURE
  1 ****   8 GROUP 4 **** **** 0

# MOE 2024.06 (io_trps.svl 2023.06)
