@<TRIPOS>MOLECULE
NONAME
44 46 1 0 0 
SMALL
USER_CHARGES


@<TRIPOS>ATOM
  1 S       -1.1750    -1.3280    -0.0980 S.3   1 <1>  -0.0800 
  2 C       -2.0010    -1.5050     1.4160 C.2   1 <1>   0.4420 
  3 C       -1.0570     0.3610     0.2510 C.2   1 <1>   0.1980 
  4 N       -2.1230    -0.3850     2.0330 N.2   1 <1>  -0.3380 
  5 N       -2.4040    -2.7760     1.7570 N.am  1 <1>  -0.4940 
  6 N       -1.5830     0.6740     1.3620 N.2   1 <1>  -0.3380 
  7 C       -0.3720     1.2640    -0.7490 C.3   1 <1>   0.0200 
  8 C       -3.1270    -3.2090     2.8320 C.2   1 <1>   0.5690 
  9 C       -0.3750     2.6960    -0.2010 C.3   1 <1>   0.3430 
 10 O       -3.5680    -2.4780     3.6820 O.2   1 <1>  -0.5700 
 11 C       -3.3900    -4.7040     2.9690 C.3   1 <1>   0.2010 
 12 N        0.3410     3.6710    -1.0920 N.4   1 <1>  -0.9590 
 13 N       -4.2320    -5.2470     1.8590 N.am  1 <1>  -0.4200 
 14 C        0.5300     4.9650    -0.3650 C.3   1 <1>   0.2630 
 15 C       -0.3860     3.9120    -2.3810 C.3   1 <1>   0.2630 
 16 C       -3.6850    -5.5180     0.6270 C.2   1 <1>   0.5440 
 17 C       -5.5680    -5.4850     2.0750 C.2   1 <1>   0.4500 
 18 O       -2.5190    -5.2160     0.4140 O.2   1 <1>  -0.5700 
 19 C       -4.5230    -6.1200    -0.3710 C.ar  1 <1>   0.0860 
 20 N       -6.3580    -5.9970     1.2110 N.2   1 <1>  -0.6290 
 21 C       -5.8640    -6.3410    -0.0320 C.ar  1 <1>   0.1790 
 22 C       -4.0780    -6.4870    -1.6440 C.ar  1 <1>  -0.1500 
 23 C       -6.7180    -6.9190    -0.9650 C.ar  1 <1>  -0.1500 
 24 C       -4.9370    -7.0600    -2.5590 C.ar  1 <1>  -0.1500 
 25 C       -6.2640    -7.2770    -2.2170 C.ar  1 <1>  -0.1500 
 26 H       -2.1630    -3.5120     1.0810 H     1 <1>   0.3700 
 27 H       -0.9060     1.2100    -1.6790 H     1 <1>   0.0800 
 28 H        0.6370     0.9210    -0.8890 H     1 <1>   0.0800 
 29 H        0.1000     2.6830     0.7680 H     1 <1>   0.0800 
 30 H       -1.3950     3.0150    -0.0540 H     1 <1>   0.0800 
 31 H       -3.8780    -4.8810     3.9110 H     1 <1>   0.0800 
 32 H       -2.4490    -5.2220     2.9890 H     1 <1>   0.0800 
 33 H        1.2780     3.2940    -1.3050 H     1 <1>   0.4500 
 34 H       -0.4250     5.3990    -0.1140 H     1 <1>   0.0800 
 35 H        1.0750     5.6650    -0.9790 H     1 <1>   0.0800 
 36 H        1.0850     4.8060     0.5460 H     1 <1>   0.0800 
 37 H       -1.3760     4.2950    -2.1870 H     1 <1>   0.0800 
 38 H       -0.4750     2.9970    -2.9430 H     1 <1>   0.0800 
 39 H        0.1480     4.6300    -2.9830 H     1 <1>   0.0800 
 40 H       -5.9520    -5.2160     3.0440 H     1 <1>   0.0600 
 41 H       -3.0470    -6.3190    -1.9080 H     1 <1>   0.1500 
 42 H       -7.7450    -7.0820    -0.6900 H     1 <1>   0.1500 
 43 H       -4.5840    -7.3400    -3.5370 H     1 <1>   0.1500 
 44 H       -6.9360    -7.7240    -2.9310 H     1 <1>   0.1500 
@<TRIPOS>BOND
  1   1   2  1   
  2   1   3  1   
  3   2   4  2   
  4   2   5  1   
  5   3   6  2   
  6   3   7  1   
  7   4   6  1   
  8   5   8  am  
  9   5  26  1   
 10   7   9  1   
 11   7  27  1   
 12   7  28  1   
 13   8  10  2   
 14   8  11  1   
 15   9  12  1   
 16   9  29  1   
 17   9  30  1   
 18  11  13  1   
 19  11  31  1   
 20  11  32  1   
 21  12  14  1   
 22  12  15  1   
 23  12  33  1   
 24  13  16  am  
 25  13  17  1   
 26  14  34  1   
 27  14  35  1   
 28  14  36  1   
 29  15  37  1   
 30  15  38  1   
 31  15  39  1   
 32  16  18  2   
 33  16  19  1   
 34  17  20  2   
 35  17  40  1   
 36  19  21  ar  
 37  19  22  ar  
 38  20  21  1   
 39  21  23  ar  
 40  22  24  ar  
 41  22  41  1   
 42  23  25  ar  
 43  23  42  1   
 44  24  25  ar  
 45  24  43  1   
 46  25  44  1   
@<TRIPOS>SUBSTRUCTURE
  1 ****   5 GROUP 4 **** **** 0

# MOE 2024.06 (io_trps.svl 2023.06)
