@<TRIPOS>MOLECULE
NONAME
52 54 1 0 0 
SMALL
USER_CHARGES


@<TRIPOS>ATOM
  1 O       -0.1740     2.5260     3.0590 O.2   1 <1>  -0.5700 
  2 C        0.2310     3.0100     2.0260 C.2   1 <1>   0.5690 
  3 N       -0.6120     3.2520     0.9670 N.am  1 <1>  -0.6600 
  4 C        1.7200     3.3300     1.9550 C.3   1 <1>   0.0440 
  5 C       -2.0260     2.7730     0.9820 C.3   1 <1>   0.1400 
  6 C       -0.2030     3.7990    -0.3550 C.3   1 <1>   0.1400 
  7 C        2.4660     2.4540     0.9520 C.ar  1 <1>  -0.1440 
  8 C       -2.2060     1.6200    -0.0250 C.3   1 <1>   0.0000 
  9 C       -0.3300     2.7050    -1.4200 C.3   1 <1>  -0.1600 
 10 C        3.2970     3.0160    -0.0040 C.ar  1 <1>  -0.1500 
 11 C        2.3120     1.0770     0.9840 C.ar  1 <1>  -0.1500 
 12 C       -3.6590     1.1070     0.0040 C.3   1 <1>   0.2000 
 13 C       -1.7410     2.0850    -1.4360 C.3   1 <1>  -0.1600 
 14 C       -1.4410     0.3550     0.4080 C.3   1 <1>  -0.1600 
 15 C        3.9500     2.2130    -0.9240 C.ar  1 <1>  -0.1500 
 16 C        2.9650     0.2770     0.0630 C.ar  1 <1>  -0.1500 
 17 O       -4.5150     1.8550    -0.7830 O.3   1 <1>  -0.6800 
 18 C       -3.6160    -0.3390    -0.4880 C.3   1 <1>  -0.1600 
 19 C       -2.1830    -0.8250    -0.2290 C.3   1 <1>  -0.1600 
 20 C        3.7880     0.8360    -0.9030 C.ar  1 <1>  -0.1430 
 21 C        4.5100    -0.0330    -1.9300 C.3   1 <1>   0.0630 
 22 C        3.5050    -0.7840    -2.8090 C.3   1 <1>  -0.2400 
 23 C        5.4700    -1.0100    -1.2430 C.3   1 <1>  -0.2400 
 24 H        1.8370     4.3690     1.7150 H     1 <1>   0.0800 
 25 H        2.1510     3.1750     2.9270 H     1 <1>   0.0800 
 26 H       -2.3040     2.4470     1.9690 H     1 <1>   0.0800 
 27 H       -2.6760     3.5890     0.7160 H     1 <1>   0.0800 
 28 H       -0.8500     4.6220    -0.6040 H     1 <1>   0.0800 
 29 H        0.8040     4.1710    -0.3330 H     1 <1>   0.0800 
 30 H       -0.1150     3.1280    -2.3850 H     1 <1>   0.0800 
 31 H        0.4140     1.9500    -1.2350 H     1 <1>   0.0800 
 32 H        3.4420     4.0810    -0.0410 H     1 <1>   0.1500 
 33 H        1.6780     0.6220     1.7260 H     1 <1>   0.1500 
 34 H       -4.0350     1.1270     1.0130 H     1 <1>   0.0800 
 35 H       -1.7630     1.2660    -2.1320 H     1 <1>   0.0800 
 36 H       -2.4130     2.8420    -1.8000 H     1 <1>   0.0800 
 37 H       -0.4030     0.3690     0.1300 H     1 <1>   0.0800 
 38 H       -1.4930     0.2580     1.4800 H     1 <1>   0.0800 
 39 H        4.5890     2.6710    -1.6580 H     1 <1>   0.1500 
 40 H        2.8250    -0.7880     0.1060 H     1 <1>   0.1500 
 41 H       -4.2210     1.8090    -1.7120 H     1 <1>   0.4000 
 42 H       -4.3260    -0.9360     0.0560 H     1 <1>   0.0800 
 43 H       -3.8300    -0.3980    -1.5410 H     1 <1>   0.0800 
 44 H       -2.1680    -1.6820     0.4220 H     1 <1>   0.0800 
 45 H       -1.7150    -1.0900    -1.1620 H     1 <1>   0.0800 
 46 H        5.0950     0.6040    -2.5710 H     1 <1>   0.0800 
 47 H        2.9230    -1.4720    -2.2230 H     1 <1>   0.0800 
 48 H        4.0200    -1.3350    -3.5760 H     1 <1>   0.0800 
 49 H        2.8370    -0.0840    -3.2790 H     1 <1>   0.0800 
 50 H        4.9320    -1.7070    -0.6260 H     1 <1>   0.0800 
 51 H        6.1600    -0.4670    -0.6220 H     1 <1>   0.0800 
 52 H        6.0290    -1.5610    -1.9770 H     1 <1>   0.0800 
@<TRIPOS>BOND
  1   1   2  2   
  2   2   3  am  
  3   2   4  1   
  4   3   5  1   
  5   3   6  1   
  6   4   7  1   
  7   4  24  1   
  8   4  25  1   
  9   5   8  1   
 10   5  26  1   
 11   5  27  1   
 12   6   9  1   
 13   6  28  1   
 14   6  29  1   
 15   7  10  ar  
 16   7  11  ar  
 17   8  12  1   
 18   8  13  1   
 19   8  14  1   
 20   9  13  1   
 21   9  30  1   
 22   9  31  1   
 23  10  15  ar  
 24  10  32  1   
 25  11  16  ar  
 26  11  33  1   
 27  12  17  1   
 28  12  18  1   
 29  12  34  1   
 30  13  35  1   
 31  13  36  1   
 32  14  19  1   
 33  14  37  1   
 34  14  38  1   
 35  15  20  ar  
 36  15  39  1   
 37  16  20  ar  
 38  16  40  1   
 39  17  41  1   
 40  18  19  1   
 41  18  42  1   
 42  18  43  1   
 43  19  44  1   
 44  19  45  1   
 45  20  21  1   
 46  21  22  1   
 47  21  23  1   
 48  21  46  1   
 49  22  47  1   
 50  22  48  1   
 51  22  49  1   
 52  23  50  1   
 53  23  51  1   
 54  23  52  1   
@<TRIPOS>SUBSTRUCTURE
  1 ****   9 GROUP 4 **** **** 0

# MOE 2024.06 (io_trps.svl 2023.06)
