@<TRIPOS>MOLECULE
NONAME
46 47 1 0 0 
SMALL
USER_CHARGES


@<TRIPOS>ATOM
  1 O        0.4090     0.4330     2.7650 O.2   1 <1>  -0.5700 
  2 C        0.2500    -0.3190     1.8340 C.2   1 <1>   0.5690 
  3 N        0.6190     0.0070     0.5680 N.am  1 <1>  -0.7300 
  4 C       -0.3710    -1.6990     2.0790 C.3   1 <1>   0.1710 
  5 C        1.2170     1.2880     0.1320 C.3   1 <1>   0.1400 
  6 N       -0.8190    -2.4150     0.8440 N.3   1 <1>  -0.8100 
  7 C        2.6980     1.0880    -0.1850 C.3   1 <1>  -0.0170 
  8 C       -1.0190    -3.8550     1.1340 C.3   1 <1>   0.2900 
  9 C       -2.0730    -1.8290     0.3300 C.3   1 <1>   0.0300 
 10 C        3.3110     2.3870    -0.6810 C.ar  1 <1>  -0.1430 
 11 C       -1.3510    -4.6590    -0.1180 C.2   1 <1>   0.0060 
 12 C        3.7510     3.3390     0.2260 C.ar  1 <1>  -0.1500 
 13 C        3.4320     2.6360    -2.0400 C.ar  1 <1>  -0.1500 
 14 N       -2.4760    -5.2840    -0.2790 N.2   1 <1>  -0.5650 
 15 N       -0.4990    -4.7940    -1.1660 N.pl3 1 <1>   0.0480 
 16 C        4.3070     4.5260    -0.2190 C.ar  1 <1>  -0.1500 
 17 C        3.9880     3.8230    -2.4860 C.ar  1 <1>  -0.1500 
 18 C       -2.3560    -5.8560    -1.4900 C.2   1 <1>   0.0770 
 19 C       -1.1600    -5.5690    -2.0450 C.2   1 <1>  -0.3020 
 20 C        0.8580    -4.2350    -1.3510 C.3   1 <1>   0.0960 
 21 C        4.4250     4.7690    -1.5760 C.ar  1 <1>  -0.1500 
 22 C        1.9160    -5.1920    -0.7960 C.3   1 <1>  -0.2400 
 23 H        0.3980    -0.6910    -0.1490 H     1 <1>   0.3700 
 24 H       -1.1980    -1.5860     2.7580 H     1 <1>   0.0800 
 25 H        0.3810    -2.2850     2.5760 H     1 <1>   0.0800 
 26 H        1.1130     2.0230     0.9130 H     1 <1>   0.0800 
 27 H        0.6980     1.6470    -0.7400 H     1 <1>   0.0800 
 28 H        2.8100     0.3260    -0.9350 H     1 <1>   0.0800 
 29 H        3.2120     0.7670     0.7040 H     1 <1>   0.0800 
 30 H       -1.8180    -3.9770     1.8460 H     1 <1>   0.0800 
 31 H       -0.1240    -4.2640     1.5670 H     1 <1>   0.0800 
 32 H       -1.9540    -0.7740     0.1530 H     1 <1>   0.0800 
 33 H       -2.8760    -1.9740     1.0330 H     1 <1>   0.0800 
 34 H       -2.3470    -2.2950    -0.6020 H     1 <1>   0.0800 
 35 H        3.6630     3.1600     1.2840 H     1 <1>   0.1500 
 36 H        3.0950     1.9100    -2.7580 H     1 <1>   0.1500 
 37 H        4.6470     5.2600     0.4910 H     1 <1>   0.1500 
 38 H        4.0790     4.0110    -3.5420 H     1 <1>   0.1500 
 39 H       -3.1500    -6.4550    -1.9050 H     1 <1>   0.1500 
 40 H       -0.7560    -5.8700    -2.9930 H     1 <1>   0.1500 
 41 H        0.9200    -3.2840    -0.8550 H     1 <1>   0.0800 
 42 H        1.0200    -4.0760    -2.4020 H     1 <1>   0.0800 
 43 H        4.8570     5.6910    -1.9220 H     1 <1>   0.1500 
 44 H        1.7690    -5.3450     0.2580 H     1 <1>   0.0800 
 45 H        2.8970    -4.7770    -0.9470 H     1 <1>   0.0800 
 46 H        1.8640    -6.1400    -1.3030 H     1 <1>   0.0800 
@<TRIPOS>BOND
  1   1   2  2   
  2   2   3  am  
  3   2   4  1   
  4   3   5  1   
  5   3  23  1   
  6   4   6  1   
  7   4  24  1   
  8   4  25  1   
  9   5   7  1   
 10   5  26  1   
 11   5  27  1   
 12   6   8  1   
 13   6   9  1   
 14   7  10  1   
 15   7  28  1   
 16   7  29  1   
 17   8  11  1   
 18   8  30  1   
 19   8  31  1   
 20   9  32  1   
 21   9  33  1   
 22   9  34  1   
 23  10  12  ar  
 24  10  13  ar  
 25  11  14  2   
 26  11  15  1   
 27  12  16  ar  
 28  12  35  1   
 29  13  17  ar  
 30  13  36  1   
 31  14  18  1   
 32  15  19  1   
 33  15  20  1   
 34  16  21  ar  
 35  16  37  1   
 36  17  21  ar  
 37  17  38  1   
 38  18  19  2   
 39  18  39  1   
 40  19  40  1   
 41  20  22  1   
 42  20  41  1   
 43  20  42  1   
 44  21  43  1   
 45  22  44  1   
 46  22  45  1   
 47  22  46  1   
@<TRIPOS>SUBSTRUCTURE
  1 ****   3 GROUP 4 **** **** 0

# MOE 2024.06 (io_trps.svl 2023.06)
