@<TRIPOS>MOLECULE
NONAME
49 51 1 0 0 
SMALL
USER_CHARGES


@<TRIPOS>ATOM
  1 F       -4.6970     1.4270    -2.1640 F     1 <1>  -0.1900 
  2 C       -3.6680     1.7610    -1.4220 C.ar  1 <1>   0.1900 
  3 C       -3.4060     1.0310    -0.2630 C.ar  1 <1>   0.1170 
  4 C       -2.8950     2.8280    -1.8340 C.ar  1 <1>  -0.1500 
  5 N       -4.2360    -0.0480     0.0950 N.am  1 <1>  -0.5470 
  6 C       -2.3020     1.4240     0.4900 C.ar  1 <1>  -0.1500 
  7 C       -1.8050     3.1970    -1.0640 C.ar  1 <1>  -0.1500 
  8 C       -4.3760    -0.7980     1.2260 C.2   1 <1>   0.5690 
  9 C       -1.5140     2.4940     0.0950 C.ar  1 <1>  -0.1500 
 10 O       -3.7050    -0.6660     2.2210 O.2   1 <1>  -0.5700 
 11 C       -5.4740    -1.8650     1.1960 C.3   1 <1>   0.1710 
 12 N       -6.4680    -1.6700     0.0950 N.3   1 <1>  -0.8100 
 13 C       -7.1730    -2.9410    -0.1780 C.3   1 <1>   0.1100 
 14 C       -7.4010    -0.5750     0.4240 C.3   1 <1>   0.1100 
 15 C       -8.1160    -2.8790    -1.3920 C.3   1 <1>   0.1400 
 16 C       -8.0150    -0.0090    -0.8590 C.3   1 <1>  -0.1600 
 17 N       -9.3770    -2.1440    -1.0700 N.am  1 <1>  -0.6600 
 18 C       -9.3440    -0.6630    -1.2580 C.3   1 <1>   0.1400 
 19 C      -10.5330    -2.7660    -0.6410 C.2   1 <1>   0.5690 
 20 O      -11.5330    -2.1150    -0.4250 O.2   1 <1>  -0.5700 
 21 C      -10.6290    -4.3070    -0.4750 C.3   1 <1>   0.2610 
 22 O       -9.5880    -4.8680     0.2960 O.3   1 <1>  -0.5600 
 23 C      -11.9140    -4.8210     0.1760 C.3   1 <1>  -0.1600 
 24 C      -10.0320    -5.9240     1.0930 C.3   1 <1>   0.1200 
 25 C      -11.4900    -6.1640     0.7300 C.3   1 <1>  -0.1600 
 26 H       -3.1410     3.3580    -2.7370 H     1 <1>   0.1500 
 27 H       -4.9580    -0.2950    -0.5950 H     1 <1>   0.3700 
 28 H       -2.0500     0.8950     1.3910 H     1 <1>   0.1500 
 29 H       -1.1870     4.0270    -1.3620 H     1 <1>   0.1500 
 30 H       -0.6660     2.7790     0.6950 H     1 <1>   0.1500 
 31 H       -5.9750    -1.8810     2.1470 H     1 <1>   0.0800 
 32 H       -4.9790    -2.8110     1.0700 H     1 <1>   0.0800 
 33 H       -6.4390    -3.7000    -0.3830 H     1 <1>   0.0800 
 34 H       -7.7270    -3.2500     0.6930 H     1 <1>   0.0800 
 35 H       -8.1680    -0.9130     1.1040 H     1 <1>   0.0800 
 36 H       -6.8630     0.2220     0.9090 H     1 <1>   0.0800 
 37 H       -8.3520    -3.8830    -1.6940 H     1 <1>   0.0800 
 38 H       -7.6120    -2.4110    -2.2190 H     1 <1>   0.0800 
 39 H       -7.3080    -0.0760    -1.6670 H     1 <1>   0.0800 
 40 H       -8.2100     1.0360    -0.7070 H     1 <1>   0.0800 
 41 H       -9.5590    -0.4380    -2.2880 H     1 <1>   0.0800 
 42 H      -10.1220    -0.2160    -0.6620 H     1 <1>   0.0800 
 43 H      -10.5490    -4.7440    -1.4540 H     1 <1>   0.0800 
 44 H      -12.2030    -4.1650     0.9790 H     1 <1>   0.0800 
 45 H      -12.7220    -4.8910    -0.5300 H     1 <1>   0.0800 
 46 H       -9.4170    -6.7880     0.9100 H     1 <1>   0.0800 
 47 H       -9.9370    -5.6160     2.1200 H     1 <1>   0.0800 
 48 H      -11.5490    -6.9230    -0.0310 H     1 <1>   0.0800 
 49 H      -12.0740    -6.4650     1.5810 H     1 <1>   0.0800 
@<TRIPOS>BOND
  1   1   2  1   
  2   2   3  ar  
  3   2   4  ar  
  4   3   5  1   
  5   3   6  ar  
  6   4   7  ar  
  7   4  26  1   
  8   5   8  am  
  9   5  27  1   
 10   6   9  ar  
 11   6  28  1   
 12   7   9  ar  
 13   7  29  1   
 14   8  10  2   
 15   8  11  1   
 16   9  30  1   
 17  11  12  1   
 18  11  31  1   
 19  11  32  1   
 20  12  13  1   
 21  12  14  1   
 22  13  15  1   
 23  13  33  1   
 24  13  34  1   
 25  14  16  1   
 26  14  35  1   
 27  14  36  1   
 28  15  17  1   
 29  15  37  1   
 30  15  38  1   
 31  16  18  1   
 32  16  39  1   
 33  16  40  1   
 34  17  18  1   
 35  17  19  am  
 36  18  41  1   
 37  18  42  1   
 38  19  20  2   
 39  19  21  1   
 40  21  22  1   
 41  21  23  1   
 42  21  43  1   
 43  22  24  1   
 44  23  25  1   
 45  23  44  1   
 46  23  45  1   
 47  24  25  1   
 48  24  46  1   
 49  24  47  1   
 50  25  48  1   
 51  25  49  1   
@<TRIPOS>SUBSTRUCTURE
  1 ****  12 GROUP 4 **** **** 0

# MOE 2024.06 (io_trps.svl 2023.06)
