@<TRIPOS>MOLECULE
NONAME
40 42 1 0 0 
SMALL
USER_CHARGES


@<TRIPOS>ATOM
  1 F       -0.5040     2.7300     2.6580 F     1 <1>  -0.3400 
  2 C       -0.6100     3.6310     1.6860 C.3   1 <1>   1.1640 
  3 F       -1.4920     3.1200     0.8340 F     1 <1>  -0.3400 
  4 F       -1.1800     4.6880     2.2560 F     1 <1>  -0.3400 
  5 C        0.7490     3.9460     1.0480 C.ar  1 <1>  -0.1440 
  6 C        0.8030     4.8910    -0.0010 C.ar  1 <1>   0.3100 
  7 C        1.9010     3.3270     1.4830 C.ar  1 <1>  -0.1500 
  8 N       -0.3430     5.4840    -0.4160 N.ar  1 <1>  -0.6200 
  9 C        2.0560     5.1960    -0.5900 C.ar  1 <1>   0.0000 
 10 C        3.1330     3.6210     0.9000 C.ar  1 <1>  -0.1500 
 11 C       -0.2730     6.3380    -1.3930 C.ar  1 <1>   0.1600 
 12 C        2.1030     6.1670    -1.6250 C.ar  1 <1>   0.1000 
 13 C        3.2060     4.5330    -0.1130 C.ar  1 <1>  -0.1500 
 14 C        0.9080     6.7060    -2.0230 C.ar  1 <1>  -0.1500 
 15 N        3.3060     6.5580    -2.1930 N.pl3 1 <1>  -0.8690 
 16 C        3.6240     7.9270    -2.6810 C.3   1 <1>   0.3890 
 17 C        4.6920     8.5770    -1.8150 C.2   1 <1>   0.0070 
 18 N        5.8180     8.9950    -2.2850 N.2   1 <1>  -0.3380 
 19 N        4.5970     8.8050    -0.4960 N.pl3 1 <1>   0.0480 
 20 N        6.5010     9.5190    -1.2680 N.2   1 <1>  -0.3380 
 21 C        5.7610     9.3960    -0.2220 C.2   1 <1>   0.0360 
 22 C        3.5320     8.4820     0.4820 C.3   1 <1>   0.0960 
 23 C        2.3080     9.3910     0.3100 C.3   1 <1>  -0.1600 
 24 C        1.1930     8.9950     1.2830 C.3   1 <1>  -0.2400 
 25 H        1.8890     2.6010     2.2800 H     1 <1>   0.1500 
 26 H        4.0170     3.1180     1.2560 H     1 <1>   0.1500 
 27 H       -1.1910     6.7880    -1.7300 H     1 <1>   0.1500 
 28 H        4.1610     4.7470    -0.5540 H     1 <1>   0.1500 
 29 H        0.8580     7.4130    -2.8280 H     1 <1>   0.1500 
 30 H        4.1530     6.0200    -1.9870 H     1 <1>   0.4000 
 31 H        2.7480     8.5470    -2.6860 H     1 <1>   0.0800 
 32 H        3.9870     7.8590    -3.6930 H     1 <1>   0.0800 
 33 H        6.0390     9.7240     0.7630 H     1 <1>   0.1500 
 34 H        3.9300     8.6010     1.4740 H     1 <1>   0.0800 
 35 H        3.2550     7.4540     0.3640 H     1 <1>   0.0800 
 36 H        1.9290     9.3120    -0.6930 H     1 <1>   0.0800 
 37 H        2.5910    10.4140     0.4900 H     1 <1>   0.0800 
 38 H        0.8770     7.9810     1.1050 H     1 <1>   0.0800 
 39 H        0.3420     9.6410     1.1500 H     1 <1>   0.0800 
 40 H        1.5280     9.0800     2.3020 H     1 <1>   0.0800 
@<TRIPOS>BOND
  1   1   2  1   
  2   2   3  1   
  3   2   4  1   
  4   2   5  1   
  5   5   6  ar  
  6   5   7  ar  
  7   6   8  ar  
  8   6   9  ar  
  9   7  10  ar  
 10   7  25  1   
 11   8  11  ar  
 12   9  12  ar  
 13   9  13  ar  
 14  10  13  ar  
 15  10  26  1   
 16  11  14  ar  
 17  11  27  1   
 18  12  14  ar  
 19  12  15  1   
 20  13  28  1   
 21  14  29  1   
 22  15  16  1   
 23  15  30  1   
 24  16  17  1   
 25  16  31  1   
 26  16  32  1   
 27  17  18  2   
 28  17  19  1   
 29  18  20  1   
 30  19  21  1   
 31  19  22  1   
 32  20  21  2   
 33  21  33  1   
 34  22  23  1   
 35  22  34  1   
 36  22  35  1   
 37  23  24  1   
 38  23  36  1   
 39  23  37  1   
 40  24  38  1   
 41  24  39  1   
 42  24  40  1   
@<TRIPOS>SUBSTRUCTURE
  1 ****   9 GROUP 4 **** **** 0

# MOE 2024.06 (io_trps.svl 2023.06)
