@<TRIPOS>MOLECULE
NONAME
61 66 1 0 0 
SMALL
USER_CHARGES


@<TRIPOS>ATOM
  1 S        3.6240    -3.0310    -1.7210 S.3   1 <1>  -0.0800 
  2 C        2.3410    -2.3170    -0.7580 C.2   1 <1>   0.1980 
  3 C        3.6930    -4.3720    -0.6170 C.2   1 <1>  -0.1100 
  4 N        2.0350    -3.0150     0.2670 N.2   1 <1>  -0.5650 
  5 C        1.7370    -0.9840    -1.2290 C.3   1 <1>   0.1800 
  6 C        2.7840    -4.1800     0.3510 C.2   1 <1>   0.0460 
  7 C        1.1550    -1.1180    -2.6570 C.3   1 <1>  -0.1600 
  8 C        2.8120     0.1280    -1.2320 C.3   1 <1>  -0.1600 
  9 C        0.5900    -0.5460    -0.2840 C.3   1 <1>  -0.1600 
 10 C        2.4690    -5.1260     1.5000 C.3   1 <1>   0.5240 
 11 C        0.5480     0.2160    -3.1290 C.3   1 <1>  -0.0800 
 12 C        2.2100     1.4680    -1.6980 C.3   1 <1>  -0.0800 
 13 C       -0.0230     0.7910    -0.7410 C.3   1 <1>  -0.0800 
 14 N        0.9980    -5.3630     1.5080 N.4   1 <1>  -0.9590 
 15 C        1.6430     1.3000    -3.1200 C.3   1 <1>  -0.1600 
 16 C       -0.5810     0.6270    -2.1660 C.3   1 <1>  -0.1600 
 17 C        1.0720     1.8720    -0.7430 C.3   1 <1>  -0.1600 
 18 C        0.2330    -4.3980     2.3540 C.3   1 <1>   0.3430 
 19 C        0.5180    -6.7270     1.8290 C.3   1 <1>   0.3430 
 20 C       -0.9990    -5.1660     2.8630 C.3   1 <1>   0.2000 
 21 C       -0.9580    -6.5520     2.2000 C.3   1 <1>  -0.0800 
 22 O       -0.9040    -5.3310     4.2400 O.3   1 <1>  -0.6800 
 23 C       -1.8920    -6.6670     0.9700 C.3   1 <1>   0.0200 
 24 C       -1.4110    -5.8600    -0.2230 C.2   1 <1>  -0.0400 
 25 O       -1.4010    -4.5570    -0.1610 O.3   1 <1>  -0.0190 
 26 C       -0.9220    -6.2200    -1.4190 C.2   1 <1>  -0.1500 
 27 N       -0.8910    -4.0270    -1.2290 N.2   1 <1>  -0.4100 
 28 C       -0.6060    -5.0010    -2.0150 C.2   1 <1>   0.1080 
 29 C       -0.0010    -4.8220    -3.3900 C.3   1 <1>  -0.0590 
 30 H        4.4040    -5.1510    -0.8290 H     1 <1>   0.1500 
 31 H        1.9240    -1.4160    -3.3470 H     1 <1>   0.0800 
 32 H        0.3950    -1.8790    -2.6630 H     1 <1>   0.0800 
 33 H        3.2190     0.2390    -0.2430 H     1 <1>   0.0800 
 34 H        3.6200    -0.1400    -1.8890 H     1 <1>   0.0800 
 35 H       -0.1740    -1.3040    -0.2710 H     1 <1>   0.0800 
 36 H        0.9660    -0.4430     0.7180 H     1 <1>   0.0800 
 37 H        2.7840    -4.6880     2.4310 H     1 <1>   0.0800 
 38 H        2.9990    -6.0510     1.3490 H     1 <1>   0.0800 
 39 H        0.1530     0.1060    -4.1250 H     1 <1>   0.0800 
 40 H        2.9720     2.2300    -1.6970 H     1 <1>   0.0800 
 41 H       -0.8170     1.0760    -0.0710 H     1 <1>   0.0800 
 42 H        0.6960    -5.1170     0.5440 H     1 <1>   0.4500 
 43 H        1.2300     2.2350    -3.4590 H     1 <1>   0.0800 
 44 H        2.4320     1.0280    -3.7980 H     1 <1>   0.0800 
 45 H       -1.3540    -0.1220    -2.1710 H     1 <1>   0.0800 
 46 H       -1.0210     1.5520    -2.4940 H     1 <1>   0.0800 
 47 H        0.6530     2.8130    -1.0550 H     1 <1>   0.0800 
 48 H        1.4590     2.0020     0.2530 H     1 <1>   0.0800 
 49 H        0.8210    -4.0490     3.1860 H     1 <1>   0.0800 
 50 H       -0.0700    -3.5530     1.7550 H     1 <1>   0.0800 
 51 H        0.6410    -7.3980     0.9940 H     1 <1>   0.0800 
 52 H        1.0570    -7.1110     2.6800 H     1 <1>   0.0800 
 53 H       -1.9110    -4.6280     2.6630 H     1 <1>   0.0800 
 54 H       -1.2580    -7.3130     2.9000 H     1 <1>   0.0800 
 55 H       -0.1530    -5.8910     4.5160 H     1 <1>   0.4000 
 56 H       -2.8880    -6.3550     1.2330 H     1 <1>   0.0800 
 57 H       -1.9520    -7.7000     0.6740 H     1 <1>   0.0800 
 58 H       -0.7820    -7.1940    -1.8520 H     1 <1>   0.1500 
 59 H       -0.0400    -5.7420    -3.9430 H     1 <1>   0.0800 
 60 H        1.0230    -4.5080    -3.2980 H     1 <1>   0.0800 
 61 H       -0.5470    -4.0690    -3.9290 H     1 <1>   0.0800 
@<TRIPOS>BOND
  1   1   2  1   
  2   1   3  1   
  3   2   4  2   
  4   2   5  1   
  5   3   6  2   
  6   3  30  1   
  7   4   6  1   
  8   5   7  1   
  9   5   8  1   
 10   5   9  1   
 11   6  10  1   
 12   7  11  1   
 13   7  31  1   
 14   7  32  1   
 15   8  12  1   
 16   8  33  1   
 17   8  34  1   
 18   9  13  1   
 19   9  35  1   
 20   9  36  1   
 21  10  14  1   
 22  10  37  1   
 23  10  38  1   
 24  11  15  1   
 25  11  16  1   
 26  11  39  1   
 27  12  15  1   
 28  12  17  1   
 29  12  40  1   
 30  13  16  1   
 31  13  17  1   
 32  13  41  1   
 33  14  18  1   
 34  14  19  1   
 35  14  42  1   
 36  15  43  1   
 37  15  44  1   
 38  16  45  1   
 39  16  46  1   
 40  17  47  1   
 41  17  48  1   
 42  18  20  1   
 43  18  49  1   
 44  18  50  1   
 45  19  21  1   
 46  19  51  1   
 47  19  52  1   
 48  20  21  1   
 49  20  22  1   
 50  20  53  1   
 51  21  23  1   
 52  21  54  1   
 53  22  55  1   
 54  23  24  1   
 55  23  56  1   
 56  23  57  1   
 57  24  25  1   
 58  24  26  2   
 59  25  27  1   
 60  26  28  1   
 61  26  58  1   
 62  27  28  2   
 63  28  29  1   
 64  29  59  1   
 65  29  60  1   
 66  29  61  1   
@<TRIPOS>SUBSTRUCTURE
  1 ****   4 GROUP 4 **** **** 0

# MOE 2024.06 (io_trps.svl 2023.06)
