@<TRIPOS>MOLECULE
NONAME
56 59 1 0 0 
SMALL
USER_CHARGES


@<TRIPOS>ATOM
  1 O       -1.3710     0.0140     2.8450 O.2   1 <1>  -0.5700 
  2 C       -1.6220     0.6020     1.8170 C.2   1 <1>   0.6300 
  3 N       -2.2180    -0.0620     0.7690 N.am  1 <1>  -0.6600 
  4 C       -1.2710     2.0950     1.7280 C.3   1 <1>   0.0320 
  5 C       -2.4520    -1.5300     0.8290 C.3   1 <1>   0.1400 
  6 C       -2.7530     0.5890    -0.4570 C.3   1 <1>   0.1400 
  7 C       -0.0200     2.3460     0.8930 C.ar  1 <1>  -0.0320 
  8 C       -1.4190     2.9470     2.9600 C.3   1 <1>  -0.2000 
  9 C       -2.3610     3.1320     1.8170 C.3   1 <1>  -0.2000 
 10 C       -3.9680    -1.8150     0.7700 C.3   1 <1>   0.4230 
 11 C       -4.2640     0.3320    -0.5190 C.3   1 <1>  -0.1600 
 12 C       -0.0720     3.0220    -0.3170 C.ar  1 <1>  -0.1500 
 13 C        1.2020     1.8820     1.3520 C.ar  1 <1>  -0.1500 
 14 N       -4.3290    -3.2780     0.9920 N.4   1 <1>  -0.9590 
 15 C       -4.6400    -1.1790    -0.4840 C.3   1 <1>   0.0000 
 16 C        1.0800     3.2260    -1.0570 C.ar  1 <1>  -0.1500 
 17 C        2.3550     2.0850     0.6130 C.ar  1 <1>  -0.1500 
 18 C       -5.7110    -3.6440     0.5380 C.3   1 <1>   0.3430 
 19 C       -3.3380    -4.2750     0.4680 C.3   1 <1>   0.2630 
 20 C       -6.1870    -1.3050    -0.3540 C.3   1 <1>  -0.1600 
 21 C       -4.1430    -1.8860    -1.7780 C.3   1 <1>   0.1200 
 22 C        2.2990     2.7570    -0.5970 C.ar  1 <1>  -0.1430 
 23 C       -6.6430    -2.4350     0.5900 C.3   1 <1>  -0.1600 
 24 O       -4.5640    -1.2230    -2.9180 O.3   1 <1>  -0.6800 
 25 C        3.5610     2.9820    -1.4090 C.3   1 <1>  -0.0970 
 26 H       -1.9340    -1.9870     0.0060 H     1 <1>   0.0800 
 27 H       -2.0500    -1.9350     1.7420 H     1 <1>   0.0800 
 28 H       -2.5730     1.6480    -0.4460 H     1 <1>   0.0800 
 29 H       -2.2600     0.1860    -1.3270 H     1 <1>   0.0800 
 30 H       -1.7750     2.4850     3.8640 H     1 <1>   0.1000 
 31 H       -0.6760     3.7020     3.1490 H     1 <1>   0.1000 
 32 H       -2.2840     4.0440     1.2510 H     1 <1>   0.1000 
 33 H       -3.3800     2.8120     1.9450 H     1 <1>   0.1000 
 34 H       -4.3790    -1.2760     1.6090 H     1 <1>   0.0800 
 35 H       -4.7080     0.8410     0.3200 H     1 <1>   0.0800 
 36 H       -4.6570     0.8010    -1.4040 H     1 <1>   0.0800 
 37 H       -1.0060     3.3970    -0.6910 H     1 <1>   0.1500 
 38 H        1.2560     1.3580     2.2910 H     1 <1>   0.1500 
 39 H       -4.3340    -3.3840     2.0190 H     1 <1>   0.4500 
 40 H        1.0240     3.7530    -1.9930 H     1 <1>   0.1500 
 41 H        3.2950     1.7190     0.9870 H     1 <1>   0.1500 
 42 H       -5.6770    -4.0050    -0.4770 H     1 <1>   0.0800 
 43 H       -6.1030    -4.4360     1.1580 H     1 <1>   0.0800 
 44 H       -3.2450    -4.1890    -0.6030 H     1 <1>   0.0800 
 45 H       -3.6550    -5.2780     0.7050 H     1 <1>   0.0800 
 46 H       -2.3680    -4.1150     0.9120 H     1 <1>   0.0800 
 47 H       -6.6120    -0.3880     0.0180 H     1 <1>   0.0800 
 48 H       -6.6280    -1.4620    -1.3230 H     1 <1>   0.0800 
 49 H       -4.5060    -2.8950    -1.8430 H     1 <1>   0.0800 
 50 H       -3.0690    -1.9100    -1.8230 H     1 <1>   0.0800 
 51 H       -7.6380    -2.7430     0.3150 H     1 <1>   0.0800 
 52 H       -6.6960    -2.0750     1.6030 H     1 <1>   0.0800 
 53 H       -5.5370    -1.2220    -3.0110 H     1 <1>   0.4000 
 54 H        3.3400     2.9520    -2.4610 H     1 <1>   0.0800 
 55 H        4.2900     2.2210    -1.1940 H     1 <1>   0.0800 
 56 H        3.9810     3.9430    -1.1690 H     1 <1>   0.0800 
@<TRIPOS>BOND
  1   1   2  2   
  2   2   3  am  
  3   2   4  1   
  4   3   5  1   
  5   3   6  1   
  6   4   7  1   
  7   4   8  1   
  8   4   9  1   
  9   5  10  1   
 10   5  26  1   
 11   5  27  1   
 12   6  11  1   
 13   6  28  1   
 14   6  29  1   
 15   7  12  ar  
 16   7  13  ar  
 17   8   9  1   
 18   8  30  1   
 19   8  31  1   
 20   9  32  1   
 21   9  33  1   
 22  10  14  1   
 23  10  15  1   
 24  10  34  1   
 25  11  15  1   
 26  11  35  1   
 27  11  36  1   
 28  12  16  ar  
 29  12  37  1   
 30  13  17  ar  
 31  13  38  1   
 32  14  18  1   
 33  14  19  1   
 34  14  39  1   
 35  15  20  1   
 36  15  21  1   
 37  16  22  ar  
 38  16  40  1   
 39  17  22  ar  
 40  17  41  1   
 41  18  23  1   
 42  18  42  1   
 43  18  43  1   
 44  19  44  1   
 45  19  45  1   
 46  19  46  1   
 47  20  23  1   
 48  20  47  1   
 49  20  48  1   
 50  21  24  1   
 51  21  49  1   
 52  21  50  1   
 53  22  25  1   
 54  23  51  1   
 55  23  52  1   
 56  24  53  1   
 57  25  54  1   
 58  25  55  1   
 59  25  56  1   
@<TRIPOS>SUBSTRUCTURE
  1 ****   3 GROUP 4 **** **** 0

# MOE 2024.06 (io_trps.svl 2023.06)
