@<TRIPOS>MOLECULE
NONAME
53 55 1 0 0 
SMALL
USER_CHARGES


@<TRIPOS>ATOM
  1 O       -0.3900     0.2350     0.3340 O.2   1 <1>  -0.5700 
  2 C       -1.2470     1.0990     0.3300 C.2   1 <1>   0.5440 
  3 N       -2.5720     0.7240     0.2650 N.am  1 <1>  -0.6600 
  4 C       -0.8380     2.4900     0.3870 C.ar  1 <1>   0.0860 
  5 C       -2.9430    -0.7130     0.4450 C.3   1 <1>   0.1400 
  6 C       -3.6530     1.6530    -0.1870 C.3   1 <1>   0.1400 
  7 C        0.1690     2.9900    -0.4150 C.ar  1 <1>  -0.1500 
  8 C       -1.4040     3.4140     1.2530 C.ar  1 <1>  -0.1500 
  9 C       -4.4220    -0.8500     0.8220 C.3   1 <1>  -0.1600 
 10 C       -4.6940     0.9030    -1.0250 C.3   1 <1>  -0.1600 
 11 C        0.5630     4.3230    -0.3470 C.ar  1 <1>   0.4100 
 12 C       -0.9680     4.7220     1.2520 C.ar  1 <1>   0.1600 
 13 C       -5.3540    -0.2470    -0.2440 C.3   1 <1>  -0.1600 
 14 N       -0.0120     5.2030     0.4720 N.ar  1 <1>  -0.6200 
 15 N        1.5980     4.8080    -1.1420 N.pl3 1 <1>  -0.8380 
 16 C        1.6470     6.2400    -1.5440 C.3   1 <1>   0.2090 
 17 C        2.6370     3.9110    -1.7310 C.3   1 <1>   0.1290 
 18 C        2.3260     7.0620    -0.4320 C.3   1 <1>   0.3430 
 19 N        1.6990     8.4070    -0.2020 N.4   1 <1>  -0.9590 
 20 C        2.5320     9.2840     0.6850 C.3   1 <1>   0.3430 
 21 C        0.3120     8.2830     0.3660 C.3   1 <1>   0.3430 
 22 C        1.8240    10.6260     0.9850 C.3   1 <1>   0.1200 
 23 C       -0.3040     9.6690     0.6660 C.3   1 <1>   0.1200 
 24 O        0.5830    10.7050     0.3360 O.3   1 <1>  -0.5600 
 25 H       -2.3300    -1.1460     1.2180 H     1 <1>   0.0800 
 26 H       -2.7460    -1.2410    -0.4730 H     1 <1>   0.0800 
 27 H       -3.2320     2.4480    -0.7780 H     1 <1>   0.0800 
 28 H       -4.1310     2.0820     0.6770 H     1 <1>   0.0800 
 29 H        0.6460     2.3190    -1.1020 H     1 <1>   0.1500 
 30 H       -2.1790     3.0990     1.9290 H     1 <1>   0.1500 
 31 H       -4.5740    -0.3490     1.7620 H     1 <1>   0.0800 
 32 H       -4.6620    -1.8880     0.9670 H     1 <1>   0.0800 
 33 H       -4.2000     0.5090    -1.8970 H     1 <1>   0.0800 
 34 H       -5.4490     1.5880    -1.3650 H     1 <1>   0.0800 
 35 H       -1.4340     5.4100     1.9370 H     1 <1>   0.1500 
 36 H       -6.2470     0.1080     0.2410 H     1 <1>   0.0800 
 37 H       -5.6470    -1.0120    -0.9430 H     1 <1>   0.0800 
 38 H        0.6400     6.5780    -1.7120 H     1 <1>   0.0800 
 39 H        2.1910     6.3440    -2.4660 H     1 <1>   0.0800 
 40 H        2.8000     3.0580    -1.0950 H     1 <1>   0.0800 
 41 H        3.5710     4.4350    -1.8330 H     1 <1>   0.0800 
 42 H        2.3180     3.5690    -2.7010 H     1 <1>   0.0800 
 43 H        3.3670     7.1800    -0.6830 H     1 <1>   0.0800 
 44 H        2.2660     6.4910     0.4800 H     1 <1>   0.0800 
 45 H        1.5940     8.9250    -1.0870 H     1 <1>   0.4500 
 46 H        3.4830     9.4850     0.2190 H     1 <1>   0.0800 
 47 H        2.7290     8.7800     1.6180 H     1 <1>   0.0800 
 48 H        0.3410     7.7050     1.2760 H     1 <1>   0.0800 
 49 H       -0.3280     7.7520    -0.3190 H     1 <1>   0.0800 
 50 H        2.4270    11.4480     0.6400 H     1 <1>   0.0800 
 51 H        1.6670    10.7460     2.0440 H     1 <1>   0.0800 
 52 H       -0.5620     9.7540     1.7070 H     1 <1>   0.0800 
 53 H       -1.2000     9.8080     0.0850 H     1 <1>   0.0800 
@<TRIPOS>BOND
  1   1   2  2   
  2   2   3  am  
  3   2   4  1   
  4   3   5  1   
  5   3   6  1   
  6   4   7  ar  
  7   4   8  ar  
  8   5   9  1   
  9   5  25  1   
 10   5  26  1   
 11   6  10  1   
 12   6  27  1   
 13   6  28  1   
 14   7  11  ar  
 15   7  29  1   
 16   8  12  ar  
 17   8  30  1   
 18   9  13  1   
 19   9  31  1   
 20   9  32  1   
 21  10  13  1   
 22  10  33  1   
 23  10  34  1   
 24  11  14  ar  
 25  11  15  1   
 26  12  14  ar  
 27  12  35  1   
 28  13  36  1   
 29  13  37  1   
 30  15  16  1   
 31  15  17  1   
 32  16  18  1   
 33  16  38  1   
 34  16  39  1   
 35  17  40  1   
 36  17  41  1   
 37  17  42  1   
 38  18  19  1   
 39  18  43  1   
 40  18  44  1   
 41  19  20  1   
 42  19  21  1   
 43  19  45  1   
 44  20  22  1   
 45  20  46  1   
 46  20  47  1   
 47  21  23  1   
 48  21  48  1   
 49  21  49  1   
 50  22  24  1   
 51  22  50  1   
 52  22  51  1   
 53  23  24  1   
 54  23  52  1   
 55  23  53  1   
@<TRIPOS>SUBSTRUCTURE
  1 ****  14 GROUP 4 **** **** 0

# MOE 2024.06 (io_trps.svl 2023.06)
