@<TRIPOS>MOLECULE
NONAME
41 43 1 0 0 
SMALL
USER_CHARGES


@<TRIPOS>ATOM
  1 O        0.6940    -0.0890    -2.5920 O.2   1 <1>  -0.5700 
  2 C        1.0230    -0.5510    -1.5240 C.2   1 <1>   0.5690 
  3 N        1.6720     0.1570    -0.5600 N.am  1 <1>  -0.4930 
  4 C        0.7050    -2.0140    -1.2110 C.3   1 <1>   0.1710 
  5 C        2.0810     1.5120    -0.5500 C.2   1 <1>   0.0630 
  6 N        0.6510    -2.3200     0.2530 N.3   1 <1>  -0.8100 
  7 C        1.9300     2.4860    -1.5370 C.2   1 <1>   0.1390 
  8 C        2.7180     2.1460     0.4550 C.2   1 <1>  -0.3020 
  9 C       -0.6090    -1.7780     0.8310 C.3   1 <1>   0.2530 
 10 C        0.5790    -3.7900     0.4520 C.3   1 <1>   0.2530 
 11 N        2.4290     3.6330    -1.1790 N.2   1 <1>  -0.7070 
 12 N        2.9200     3.4240     0.0580 N.pl3 1 <1>   0.3140 
 13 C       -1.5820    -2.9240     0.7440 C.ar  1 <1>  -0.1430 
 14 C       -0.8960    -4.0870     0.5250 C.ar  1 <1>  -0.1430 
 15 C        3.5880     4.5110     0.8250 C.3   1 <1>   0.1760 
 16 C       -2.9610    -2.9210     0.8490 C.ar  1 <1>  -0.1500 
 17 C       -1.5620    -5.2930     0.4040 C.ar  1 <1>  -0.1500 
 18 C        5.0500     4.1490     1.1210 C.3   1 <1>  -0.2400 
 19 C        2.8220     4.8140     2.1200 C.3   1 <1>  -0.2400 
 20 C       -3.6410    -4.1240     0.7290 C.ar  1 <1>  -0.1500 
 21 C       -2.9450    -5.3040     0.5080 C.ar  1 <1>  -0.1500 
 22 H        1.8430    -0.3840     0.2920 H     1 <1>   0.3700 
 23 H        1.4770    -2.6040    -1.6700 H     1 <1>   0.0800 
 24 H       -0.2300    -2.2750    -1.6800 H     1 <1>   0.0800 
 25 H        1.4550     2.3120    -2.4870 H     1 <1>   0.1500 
 26 H        3.0330     1.7720     1.4100 H     1 <1>   0.1500 
 27 H       -0.9660    -0.9130     0.2980 H     1 <1>   0.0800 
 28 H       -0.4520    -1.5210     1.8640 H     1 <1>   0.0800 
 29 H        1.0420    -4.0490     1.3880 H     1 <1>   0.0800 
 30 H        1.0580    -4.3330    -0.3450 H     1 <1>   0.0800 
 31 H        3.5720     5.3900     0.2040 H     1 <1>   0.0800 
 32 H       -3.4980    -2.0050     1.0200 H     1 <1>   0.1500 
 33 H       -1.0200    -6.2060     0.2320 H     1 <1>   0.1500 
 34 H        5.1100     3.2830     1.7550 H     1 <1>   0.0800 
 35 H        5.5390     4.9700     1.6150 H     1 <1>   0.0800 
 36 H        5.5710     3.9520     0.2010 H     1 <1>   0.0800 
 37 H        2.8300     3.9630     2.7780 H     1 <1>   0.0800 
 38 H        1.8040     5.0750     1.8900 H     1 <1>   0.0800 
 39 H        3.2760     5.6440     2.6300 H     1 <1>   0.0800 
 40 H       -4.7140    -4.1420     0.8080 H     1 <1>   0.1500 
 41 H       -3.4810    -6.2320     0.4160 H     1 <1>   0.1500 
@<TRIPOS>BOND
  1   1   2  2   
  2   2   3  am  
  3   2   4  1   
  4   3   5  1   
  5   3  22  1   
  6   4   6  1   
  7   4  23  1   
  8   4  24  1   
  9   5   7  1   
 10   5   8  2   
 11   6   9  1   
 12   6  10  1   
 13   7  11  2   
 14   7  25  1   
 15   8  12  1   
 16   8  26  1   
 17   9  13  1   
 18   9  27  1   
 19   9  28  1   
 20  10  14  1   
 21  10  29  1   
 22  10  30  1   
 23  11  12  1   
 24  12  15  1   
 25  13  14  ar  
 26  13  16  ar  
 27  14  17  ar  
 28  15  18  1   
 29  15  19  1   
 30  15  31  1   
 31  16  20  ar  
 32  16  32  1   
 33  17  21  ar  
 34  17  33  1   
 35  18  34  1   
 36  18  35  1   
 37  18  36  1   
 38  19  37  1   
 39  19  38  1   
 40  19  39  1   
 41  20  21  ar  
 42  20  40  1   
 43  21  41  1   
@<TRIPOS>SUBSTRUCTURE
  1 ****   3 GROUP 4 **** **** 0

# MOE 2024.06 (io_trps.svl 2023.06)
