@<TRIPOS>MOLECULE
NONAME
51 54 1 0 0 
SMALL
USER_CHARGES


@<TRIPOS>ATOM
  1 CL       0.5820    -1.0130     2.7020 Cl    1 <1>  -0.1770 
  2 C        1.1630    -1.5000     1.1180 C.ar  1 <1>   0.1770 
  3 C        0.7080    -2.6800     0.5050 C.ar  1 <1>   0.4100 
  4 C        2.0830    -0.6910     0.4960 C.ar  1 <1>  -0.1500 
  5 N        1.1470    -3.0700    -0.6920 N.ar  1 <1>  -0.6200 
  6 N       -0.2360    -3.5040     1.1080 N.pl3 1 <1>  -0.8380 
  7 C        2.5260    -1.1030    -0.7450 C.ar  1 <1>  -0.1500 
  8 C        2.0330    -2.2810    -1.2800 C.ar  1 <1>   0.1600 
  9 C       -0.1850    -4.9860     0.8710 C.3   1 <1>   0.2090 
 10 C       -1.6380    -2.9890     1.2280 C.3   1 <1>   0.2090 
 11 C       -1.1010    -5.4290    -0.2880 C.3   1 <1>   0.2090 
 12 C       -2.5390    -3.4590     0.0690 C.3   1 <1>   0.2090 
 13 N       -2.5050    -4.9480    -0.0980 N.pl3 1 <1>  -0.8380 
 14 C       -3.4910    -5.5590    -0.8490 C.ar  1 <1>   0.4100 
 15 N       -4.1310    -4.8160    -1.7450 N.ar  1 <1>  -0.6200 
 16 C       -3.7700    -6.9030    -0.6440 C.ar  1 <1>  -0.1500 
 17 C       -5.0480    -5.4370    -2.4640 C.ar  1 <1>   0.1600 
 18 C       -4.7390    -7.5520    -1.3820 C.ar  1 <1>   0.0860 
 19 C       -5.3820    -6.7680    -2.3300 C.ar  1 <1>  -0.1500 
 20 C       -5.0550    -8.9510    -1.1800 C.2   1 <1>   0.5440 
 21 O       -4.1790    -9.7780    -1.3410 O.2   1 <1>  -0.5700 
 22 N       -6.3180    -9.3630    -0.8050 N.am  1 <1>  -0.6600 
 23 C       -6.6790   -10.8080    -0.7270 C.3   1 <1>   0.1400 
 24 C       -7.3600    -8.4480    -0.2590 C.3   1 <1>   0.1400 
 25 C       -6.9570   -11.1900     0.7310 C.3   1 <1>  -0.1600 
 26 C       -7.6480    -8.8100     1.2020 C.3   1 <1>  -0.1600 
 27 C       -8.0300   -10.2880     1.3580 C.3   1 <1>  -0.1600 
 28 H        2.4350     0.2130     0.9590 H     1 <1>   0.1500 
 29 H        3.2450    -0.5200    -1.2910 H     1 <1>   0.1500 
 30 H        2.3860    -2.5930    -2.2490 H     1 <1>   0.1500 
 31 H       -0.4910    -5.4920     1.7690 H     1 <1>   0.0800 
 32 H        0.8270    -5.2840     0.6570 H     1 <1>   0.0800 
 33 H       -1.6340    -1.9140     1.2490 H     1 <1>   0.0800 
 34 H       -2.0570    -3.3340     2.1570 H     1 <1>   0.0800 
 35 H       -1.0840    -6.5020    -0.3590 H     1 <1>   0.0800 
 36 H       -0.7140    -5.0320    -1.2100 H     1 <1>   0.0800 
 37 H       -2.2090    -2.9940    -0.8440 H     1 <1>   0.0800 
 38 H       -3.5510    -3.1440     0.2560 H     1 <1>   0.0800 
 39 H       -3.2240    -7.4420     0.1050 H     1 <1>   0.1500 
 40 H       -5.5610    -4.8460    -3.2040 H     1 <1>   0.1500 
 41 H       -6.1370    -7.2060    -2.9560 H     1 <1>   0.1500 
 42 H       -5.8860   -11.4230    -1.1170 H     1 <1>   0.0800 
 43 H       -7.5560   -10.9810    -1.3250 H     1 <1>   0.0800 
 44 H       -8.2580    -8.5530    -0.8440 H     1 <1>   0.0800 
 45 H       -7.0440    -7.4220    -0.3100 H     1 <1>   0.0800 
 46 H       -6.0400   -11.1080     1.2880 H     1 <1>   0.0800 
 47 H       -7.2750   -12.2160     0.7730 H     1 <1>   0.0800 
 48 H       -8.4450    -8.1900     1.5720 H     1 <1>   0.0800 
 49 H       -6.7700    -8.5990     1.7890 H     1 <1>   0.0800 
 50 H       -8.1420   -10.5280     2.4010 H     1 <1>   0.0800 
 51 H       -8.9740   -10.4660     0.8710 H     1 <1>   0.0800 
@<TRIPOS>BOND
  1   1   2  1   
  2   2   3  ar  
  3   2   4  ar  
  4   3   5  ar  
  5   3   6  1   
  6   4   7  ar  
  7   4  28  1   
  8   5   8  ar  
  9   6   9  1   
 10   6  10  1   
 11   7   8  ar  
 12   7  29  1   
 13   8  30  1   
 14   9  11  1   
 15   9  31  1   
 16   9  32  1   
 17  10  12  1   
 18  10  33  1   
 19  10  34  1   
 20  11  13  1   
 21  11  35  1   
 22  11  36  1   
 23  12  13  1   
 24  12  37  1   
 25  12  38  1   
 26  13  14  1   
 27  14  15  ar  
 28  14  16  ar  
 29  15  17  ar  
 30  16  18  ar  
 31  16  39  1   
 32  17  19  ar  
 33  17  40  1   
 34  18  19  ar  
 35  18  20  1   
 36  19  41  1   
 37  20  21  2   
 38  20  22  am  
 39  22  23  1   
 40  22  24  1   
 41  23  25  1   
 42  23  42  1   
 43  23  43  1   
 44  24  26  1   
 45  24  44  1   
 46  24  45  1   
 47  25  27  1   
 48  25  46  1   
 49  25  47  1   
 50  26  27  1   
 51  26  48  1   
 52  26  49  1   
 53  27  50  1   
 54  27  51  1   
@<TRIPOS>SUBSTRUCTURE
  1 ****  13 GROUP 4 **** **** 0

# MOE 2024.06 (io_trps.svl 2023.06)
