@<TRIPOS>MOLECULE
NONAME
43 44 1 0 0 
SMALL
USER_CHARGES


@<TRIPOS>ATOM
  1 O       -1.0360     0.3580    -0.3960 O.2   1 <1>  -0.5700 
  2 C       -1.6290     1.2880    -0.8960 C.2   1 <1>   0.6900 
  3 N       -1.0630     2.4980    -1.0340 N.am  1 <1>  -0.7300 
  4 N       -2.8780     1.1170    -1.3280 N.am  1 <1>  -0.8000 
  5 C        0.2420     2.8780    -0.4210 C.3   1 <1>   0.2010 
  6 C        0.3240     4.3700    -0.0630 C.2   1 <1>   0.5690 
  7 O       -0.5850     5.0870    -0.4210 O.2   1 <1>  -0.5700 
  8 N        1.3980     4.8750     0.6360 N.am  1 <1>  -0.6600 
  9 C        2.6040     4.0860     1.0430 C.3   1 <1>   0.1400 
 10 C        1.4400     6.3030     1.0590 C.3   1 <1>   0.1400 
 11 C        3.8810     4.7390     0.4970 C.3   1 <1>   0.2000 
 12 C        2.6740     6.9770     0.4540 C.3   1 <1>  -0.1600 
 13 O        4.9700     4.0680     1.0350 O.3   1 <1>  -0.6800 
 14 C        3.9560     6.2410     0.8560 C.3   1 <1>   0.2200 
 15 N        5.1020     6.9090     0.1870 N.am  1 <1>  -0.7300 
 16 C        6.4020     6.8640     0.6010 C.2   1 <1>   0.5440 
 17 O        6.6770     6.1220     1.5230 O.2   1 <1>  -0.5700 
 18 C        7.4280     7.6490    -0.0660 C.ar  1 <1>   0.0860 
 19 C        8.7540     7.2150    -0.0960 C.ar  1 <1>  -0.1500 
 20 C        7.1370     8.8590    -0.7000 C.ar  1 <1>  -0.1500 
 21 C        9.7400     7.9420    -0.7370 C.ar  1 <1>  -0.1500 
 22 C        8.1190     9.5910    -1.3440 C.ar  1 <1>  -0.1500 
 23 C        9.4230     9.1320    -1.3650 C.ar  1 <1>  -0.1500 
 24 H       -1.6620     3.3080    -1.2130 H     1 <1>   0.3700 
 25 H       -3.2650     0.1760    -1.3000 H     1 <1>   0.3700 
 26 H       -3.3370     1.7930    -1.9310 H     1 <1>   0.3700 
 27 H        0.3910     2.2980     0.4730 H     1 <1>   0.0800 
 28 H        1.0280     2.6430    -1.1150 H     1 <1>   0.0800 
 29 H        2.6520     4.0600     2.1180 H     1 <1>   0.0800 
 30 H        2.5530     3.0760     0.6810 H     1 <1>   0.0800 
 31 H        0.5530     6.8250     0.7400 H     1 <1>   0.0800 
 32 H        1.4800     6.3510     2.1340 H     1 <1>   0.0800 
 33 H        3.9160     4.6170    -0.5710 H     1 <1>   0.0800 
 34 H        2.7180     7.9930     0.8040 H     1 <1>   0.0800 
 35 H        2.5660     6.9850    -0.6160 H     1 <1>   0.0800 
 36 H        5.7050     4.7200     1.1980 H     1 <1>   0.4000 
 37 H        4.0750     6.3260     1.9240 H     1 <1>   0.0800 
 38 H        4.8830     7.3850    -0.6890 H     1 <1>   0.3700 
 39 H        9.0100     6.2900     0.3940 H     1 <1>   0.1500 
 40 H        6.1330     9.2420    -0.6830 H     1 <1>   0.1500 
 41 H       10.7550     7.5820    -0.7460 H     1 <1>   0.1500 
 42 H        7.8720    10.5210    -1.8270 H     1 <1>   0.1500 
 43 H       10.1890     9.6990    -1.8660 H     1 <1>   0.1500 
@<TRIPOS>BOND
  1   1   2  2   
  2   2   3  am  
  3   2   4  am  
  4   3   5  1   
  5   3  24  1   
  6   4  25  1   
  7   4  26  1   
  8   5   6  1   
  9   5  27  1   
 10   5  28  1   
 11   6   7  2   
 12   6   8  am  
 13   8   9  1   
 14   8  10  1   
 15   9  11  1   
 16   9  29  1   
 17   9  30  1   
 18  10  12  1   
 19  10  31  1   
 20  10  32  1   
 21  11  13  1   
 22  11  14  1   
 23  11  33  1   
 24  12  14  1   
 25  12  34  1   
 26  12  35  1   
 27  13  36  1   
 28  14  15  1   
 29  14  37  1   
 30  15  16  am  
 31  15  38  1   
 32  16  17  2   
 33  16  18  1   
 34  18  19  ar  
 35  18  20  ar  
 36  19  21  ar  
 37  19  39  1   
 38  20  22  ar  
 39  20  40  1   
 40  21  23  ar  
 41  21  41  1   
 42  22  23  ar  
 43  22  42  1   
 44  23  43  1   
@<TRIPOS>SUBSTRUCTURE
  1 ****  11 GROUP 4 **** **** 0

# MOE 2024.06 (io_trps.svl 2023.06)
