@<TRIPOS>MOLECULE
NONAME
43 45 1 0 0 
SMALL
USER_CHARGES


@<TRIPOS>ATOM
  1 O       -2.0700     0.0470    -1.9890 O.2   1 <1>  -0.5700 
  2 C       -2.6460     0.8970    -1.3360 C.2   1 <1>   0.5440 
  3 N       -3.9850     0.7430    -1.0470 N.am  1 <1>  -0.6600 
  4 C       -1.9100     2.0410    -0.8610 C.ar  1 <1>   0.0860 
  5 C       -4.7330    -0.4660    -1.4860 C.3   1 <1>   0.3200 
  6 C       -4.8020     1.7750    -0.3360 C.3   1 <1>   0.1400 
  7 C       -1.3050     2.0590     0.3980 C.ar  1 <1>   0.0000 
  8 C       -1.7760     3.2080    -1.5910 C.ar  1 <1>  -0.1500 
  9 C       -4.3560    -1.6330    -0.6000 C.2   1 <1>  -0.3320 
 10 C       -5.0350     1.3910     1.1290 C.3   1 <1>   0.1200 
 11 C       -0.6960     3.2130     0.8180 C.ar  1 <1>   0.3970 
 12 C       -1.1050     1.1920     1.4890 C.2   1 <1>   0.1080 
 13 C       -1.1140     4.3180    -1.0620 C.ar  1 <1>   0.1660 
 14 N       -3.1630    -2.2430    -0.6990 N.pl3 1 <1>   0.0330 
 15 C       -5.0290    -2.2770     0.3780 C.2   1 <1>   0.0770 
 16 O       -5.8270     2.3590     1.7280 O.3   1 <1>  -0.6800 
 17 O       -0.2350     3.0050     2.0380 O.3   1 <1>  -0.0190 
 18 N       -0.5800     4.3550     0.1370 N.ar  1 <1>  -0.5670 
 19 N       -0.4830     1.7790     2.4410 N.2   1 <1>  -0.4100 
 20 C       -1.5320    -0.2610     1.5470 C.3   1 <1>  -0.0590 
 21 C       -0.9860     5.5820    -1.8870 C.3   1 <1>  -0.0970 
 22 C       -3.1800    -3.2180     0.2330 C.2   1 <1>   0.0060 
 23 N       -4.2850    -3.2680     0.9030 N.2   1 <1>  -0.5650 
 24 C       -2.0120    -4.1510     0.4620 C.3   1 <1>  -0.0600 
 25 H       -4.4910    -0.6910    -2.5120 H     1 <1>   0.0800 
 26 H       -5.7940    -0.2920    -1.4250 H     1 <1>   0.0800 
 27 H       -5.7540     1.8730    -0.8290 H     1 <1>   0.0800 
 28 H       -4.3130     2.7320    -0.3760 H     1 <1>   0.0800 
 29 H       -2.1940     3.2570    -2.5800 H     1 <1>   0.1500 
 30 H       -4.1100     1.3320     1.6740 H     1 <1>   0.0800 
 31 H       -5.5590     0.4540     1.1960 H     1 <1>   0.0800 
 32 H       -2.4030    -1.9670    -1.3370 H     1 <1>   0.2700 
 33 H       -6.0240    -2.0800     0.7420 H     1 <1>   0.1500 
 34 H       -5.2960     3.1370     1.9910 H     1 <1>   0.4000 
 35 H       -1.0580    -0.8090     0.7550 H     1 <1>   0.0800 
 36 H       -2.5970    -0.3500     1.4480 H     1 <1>   0.0800 
 37 H       -1.2410    -0.6950     2.4870 H     1 <1>   0.0800 
 38 H       -1.4420     5.4680    -2.8530 H     1 <1>   0.0800 
 39 H        0.0540     5.8190    -2.0210 H     1 <1>   0.0800 
 40 H       -1.4590     6.3980    -1.3730 H     1 <1>   0.0800 
 41 H       -1.1390    -3.5910     0.7420 H     1 <1>   0.0800 
 42 H       -1.8060    -4.7100    -0.4320 H     1 <1>   0.0800 
 43 H       -2.2480    -4.8420     1.2530 H     1 <1>   0.0800 
@<TRIPOS>BOND
  1   1   2  2   
  2   2   3  am  
  3   2   4  1   
  4   3   5  1   
  5   3   6  1   
  6   4   7  ar  
  7   4   8  ar  
  8   5   9  1   
  9   5  25  1   
 10   5  26  1   
 11   6  10  1   
 12   6  27  1   
 13   6  28  1   
 14   7  11  ar  
 15   7  12  1   
 16   8  13  ar  
 17   8  29  1   
 18   9  14  1   
 19   9  15  2   
 20  10  16  1   
 21  10  30  1   
 22  10  31  1   
 23  11  17  1   
 24  11  18  ar  
 25  12  19  2   
 26  12  20  1   
 27  13  18  ar  
 28  13  21  1   
 29  14  22  1   
 30  14  32  1   
 31  15  23  1   
 32  15  33  1   
 33  16  34  1   
 34  17  19  1   
 35  20  35  1   
 36  20  36  1   
 37  20  37  1   
 38  21  38  1   
 39  21  39  1   
 40  21  40  1   
 41  22  23  2   
 42  22  24  1   
 43  24  41  1   
 44  24  42  1   
 45  24  43  1   
@<TRIPOS>SUBSTRUCTURE
  1 ****   2 GROUP 4 **** **** 0

# MOE 2024.06 (io_trps.svl 2023.06)
