@<TRIPOS>MOLECULE
NONAME
46 48 1 0 0 
SMALL
USER_CHARGES


@<TRIPOS>ATOM
  1 O        2.4050     1.9220     0.8960 O.3   1 <1>  -0.0190 
  2 N        3.1540     0.8770     0.7150 N.2   1 <1>  -0.4100 
  3 C        1.2290     1.7820     0.3450 C.2   1 <1>  -0.0400 
  4 C        2.4420     0.0380     0.0520 C.2   1 <1>   0.1080 
  5 C        1.1820     0.5660    -0.2200 C.2   1 <1>  -0.1500 
  6 C        0.2190     2.9100     0.4290 C.3   1 <1>   0.0200 
  7 C        2.9180    -1.3340    -0.3720 C.3   1 <1>  -0.0590 
  8 C        0.6980     4.1340    -0.3780 C.3   1 <1>  -0.0800 
  9 C       -0.2420     5.3400    -0.3830 C.3   1 <1>   0.2000 
 10 C        2.0370     4.7020     0.1120 C.3   1 <1>   0.3430 
 11 O       -0.6980     5.5880     0.9100 O.3   1 <1>  -0.6800 
 12 C        0.6960     6.4810    -0.7890 C.3   1 <1>   0.3430 
 13 N        2.0040     6.1750    -0.1310 N.4   1 <1>  -0.9590 
 14 C        2.1350     6.9260     1.1410 C.3   1 <1>   0.5240 
 15 C        2.3780     8.3750     0.7730 C.2   1 <1>  -0.1810 
 16 C        3.5190     8.9610     0.3150 C.2   1 <1>  -0.3320 
 17 C        1.4100     9.3790     0.8520 C.2   1 <1>  -0.1500 
 18 N        3.2860    10.2890     0.1020 N.pl3 1 <1>   0.0480 
 19 C        4.8790     8.3150     0.0760 C.3   1 <1>  -0.0600 
 20 C        1.9850    10.5430     0.4370 C.2   1 <1>  -0.1320 
 21 C        4.2650    11.3010    -0.3640 C.3   1 <1>   0.0160 
 22 C        1.3860    11.8410     0.3500 C.1   1 <1>   0.5370 
 23 N        0.9290    12.8810     0.2610 N.1   1 <1>  -0.5570 
 24 H        0.3920     0.0780    -0.7600 H     1 <1>   0.1500 
 25 H       -0.7220     2.5640     0.0380 H     1 <1>   0.0800 
 26 H        0.0780     3.1610     1.4660 H     1 <1>   0.0800 
 27 H        2.2780    -2.0880     0.0480 H     1 <1>   0.0800 
 28 H        3.9220    -1.4990    -0.0240 H     1 <1>   0.0800 
 29 H        2.9040    -1.4130    -1.4430 H     1 <1>   0.0800 
 30 H        0.8410     3.8200    -1.3980 H     1 <1>   0.0800 
 31 H       -1.0860     5.2420    -1.0450 H     1 <1>   0.0800 
 32 H        2.8580     4.2350    -0.4080 H     1 <1>   0.0800 
 33 H        2.1430     4.5050     1.1670 H     1 <1>   0.0800 
 34 H       -1.5080     5.0710     1.1080 H     1 <1>   0.4000 
 35 H        0.3000     7.4380    -0.4950 H     1 <1>   0.0800 
 36 H        0.8220     6.4670    -1.8590 H     1 <1>   0.0800 
 37 H        2.7780     6.4960    -0.7260 H     1 <1>   0.4500 
 38 H        1.2420     6.8280     1.7380 H     1 <1>   0.0800 
 39 H        2.9750     6.5590     1.7070 H     1 <1>   0.0800 
 40 H        0.3940     9.2520     1.1890 H     1 <1>   0.1500 
 41 H        4.8760     7.2800     0.3630 H     1 <1>   0.0800 
 42 H        5.6320     8.8180     0.6580 H     1 <1>   0.0800 
 43 H        5.1470     8.3820    -0.9640 H     1 <1>   0.0800 
 44 H        5.0780    10.8240    -0.8790 H     1 <1>   0.0800 
 45 H        4.6470    11.8400     0.4840 H     1 <1>   0.0800 
 46 H        3.7860    11.9890    -1.0370 H     1 <1>   0.0800 
@<TRIPOS>BOND
  1   1   2  1   
  2   1   3  1   
  3   2   4  2   
  4   3   5  2   
  5   3   6  1   
  6   4   5  1   
  7   4   7  1   
  8   5  24  1   
  9   6   8  1   
 10   6  25  1   
 11   6  26  1   
 12   7  27  1   
 13   7  28  1   
 14   7  29  1   
 15   8   9  1   
 16   8  10  1   
 17   8  30  1   
 18   9  11  1   
 19   9  12  1   
 20   9  31  1   
 21  10  13  1   
 22  10  32  1   
 23  10  33  1   
 24  11  34  1   
 25  12  13  1   
 26  12  35  1   
 27  12  36  1   
 28  13  14  1   
 29  13  37  1   
 30  14  15  1   
 31  14  38  1   
 32  14  39  1   
 33  15  16  2   
 34  15  17  1   
 35  16  18  1   
 36  16  19  1   
 37  17  20  2   
 38  17  40  1   
 39  18  20  1   
 40  18  21  1   
 41  19  41  1   
 42  19  42  1   
 43  19  43  1   
 44  20  22  1   
 45  21  44  1   
 46  21  45  1   
 47  21  46  1   
 48  22  23  3   
@<TRIPOS>SUBSTRUCTURE
  1 ****  13 GROUP 4 **** **** 0

# MOE 2024.06 (io_trps.svl 2023.06)
