@<TRIPOS>MOLECULE
NONAME
45 47 1 0 0 
SMALL
USER_CHARGES


@<TRIPOS>ATOM
  1 O       -1.0520     0.8970    -1.8320 O.co2 1 <1>  -0.9000 
  2 C       -0.6960     1.0450    -0.6520 C.2   1 <1>   0.9060 
  3 O       -0.1950     0.1110    -0.0090 O.co2 1 <1>  -0.9000 
  4 C       -0.7790     2.4330     0.0070 C.3   1 <1>   0.0940 
  5 O       -2.0690     2.7580     0.5220 O.3   1 <1>  -0.5600 
  6 C       -0.3180     3.5080    -0.9960 C.3   1 <1>   0.1400 
  7 C       -2.1320     3.9890     1.1650 C.3   1 <1>   0.1200 
  8 N       -0.4500     4.8990    -0.4300 N.am  1 <1>  -0.6600 
  9 C       -1.8010     5.1140     0.1730 C.3   1 <1>   0.1400 
 10 C        0.5680     5.8110    -0.5570 C.2   1 <1>   0.5690 
 11 O        1.5770     5.5560    -1.1700 O.2   1 <1>  -0.5700 
 12 C        0.4700     7.2270     0.0330 C.3   1 <1>  -0.0190 
 13 C       -0.1500     8.1840    -1.0010 C.3   1 <1>  -0.1600 
 14 C        1.8450     7.7660     0.4870 C.3   1 <1>  -0.1600 
 15 C       -0.1640     9.6360    -0.5240 C.3   1 <1>   0.3430 
 16 C        1.7800     9.2200     0.9460 C.3   1 <1>   0.3430 
 17 N        1.2130    10.0560    -0.1520 N.4   1 <1>  -0.9590 
 18 C        1.2760    11.5130     0.1740 C.3   1 <1>   0.5230 
 19 C        2.7070    12.0110     0.0660 C.2   1 <1>  -0.0400 
 20 O        3.5910    11.6370     0.9720 O.3   1 <1>  -0.2800 
 21 C        3.2830    12.8270    -0.8450 C.2   1 <1>  -0.1500 
 22 C        4.7420    12.2010     0.6650 C.2   1 <1>  -0.0100 
 23 C        4.6210    12.9500    -0.4510 C.2   1 <1>  -0.1500 
 24 H       -0.0970     2.4140     0.8350 H     1 <1>   0.0800 
 25 H       -0.9160     3.4290    -1.8880 H     1 <1>   0.0800 
 26 H        0.7010     3.3010    -1.2740 H     1 <1>   0.0800 
 27 H       -1.4420     3.9820     1.9910 H     1 <1>   0.0800 
 28 H       -3.1320     4.1040     1.5430 H     1 <1>   0.0800 
 29 H       -1.8710     6.0560     0.6770 H     1 <1>   0.0800 
 30 H       -2.5380     5.1010    -0.6120 H     1 <1>   0.0800 
 31 H       -0.1510     7.1970     0.9080 H     1 <1>   0.0800 
 32 H       -1.1580     7.8730    -1.2150 H     1 <1>   0.0800 
 33 H        0.4020     8.1200    -1.9240 H     1 <1>   0.0800 
 34 H        2.5600     7.6960    -0.3160 H     1 <1>   0.0800 
 35 H        2.2170     7.1560     1.2920 H     1 <1>   0.0800 
 36 H       -0.8170     9.7290     0.3290 H     1 <1>   0.0800 
 37 H       -0.5430    10.2660    -1.3140 H     1 <1>   0.0800 
 38 H        2.7750     9.5500     1.1970 H     1 <1>   0.0800 
 39 H        1.1650     9.2990     1.8280 H     1 <1>   0.0800 
 40 H        1.8290     9.9200    -0.9650 H     1 <1>   0.4500 
 41 H        0.9020    11.6960     1.1670 H     1 <1>   0.0800 
 42 H        0.6720    12.0670    -0.5260 H     1 <1>   0.0800 
 43 H        2.8550    13.3120    -1.7070 H     1 <1>   0.1500 
 44 H        5.6000    12.0200     1.2920 H     1 <1>   0.1500 
 45 H        5.3740    13.5320    -0.9550 H     1 <1>   0.1500 
@<TRIPOS>BOND
  1   1   2  ar  
  2   2   3  ar  
  3   2   4  1   
  4   4   5  1   
  5   4   6  1   
  6   4  24  1   
  7   5   7  1   
  8   6   8  1   
  9   6  25  1   
 10   6  26  1   
 11   7   9  1   
 12   7  27  1   
 13   7  28  1   
 14   8   9  1   
 15   8  10  am  
 16   9  29  1   
 17   9  30  1   
 18  10  11  2   
 19  10  12  1   
 20  12  13  1   
 21  12  14  1   
 22  12  31  1   
 23  13  15  1   
 24  13  32  1   
 25  13  33  1   
 26  14  16  1   
 27  14  34  1   
 28  14  35  1   
 29  15  17  1   
 30  15  36  1   
 31  15  37  1   
 32  16  17  1   
 33  16  38  1   
 34  16  39  1   
 35  17  18  1   
 36  17  40  1   
 37  18  19  1   
 38  18  41  1   
 39  18  42  1   
 40  19  20  1   
 41  19  21  2   
 42  20  22  1   
 43  21  23  1   
 44  21  43  1   
 45  22  23  2   
 46  22  44  1   
 47  23  45  1   
@<TRIPOS>SUBSTRUCTURE
  1 ****  12 GROUP 4 **** **** 0

# MOE 2024.06 (io_trps.svl 2023.06)
