@<TRIPOS>MOLECULE
NONAME
50 53 1 0 0 
SMALL
USER_CHARGES


@<TRIPOS>ATOM
  1 F       -1.4770    -6.4020     2.4710 F     1 <1>  -0.1900 
  2 C       -1.6030    -5.6190     1.4330 C.ar  1 <1>   0.1900 
  3 C       -0.7990    -5.8210     0.3220 C.ar  1 <1>  -0.1440 
  4 C       -2.5610    -4.6250     1.4890 C.ar  1 <1>  -0.1500 
  5 C       -0.9770    -4.9770    -0.7640 C.ar  1 <1>  -0.1500 
  6 C        0.2600    -6.9140     0.2940 C.3   1 <1>  -0.0960 
  7 C       -2.7430    -3.8010     0.3890 C.ar  1 <1>  -0.1430 
  8 C       -1.9370    -3.9770    -0.7290 C.ar  1 <1>  -0.1500 
  9 C       -3.8310    -2.7290     0.4190 C.3   1 <1>   0.0450 
 10 C       -5.1770    -3.3340     0.7950 C.2   1 <1>   0.5690 
 11 O       -5.6420    -3.0390     1.8690 O.2   1 <1>  -0.5700 
 12 N       -5.8070    -4.2540    -0.0120 N.am  1 <1>  -0.6600 
 13 C       -6.9590    -5.0620     0.5040 C.3   1 <1>   0.1400 
 14 C       -5.2430    -4.8290    -1.2680 C.3   1 <1>   0.1400 
 15 C       -6.5950    -6.5660     0.6280 C.3   1 <1>   0.4230 
 16 C       -4.6960    -6.2540    -1.0190 C.3   1 <1>   0.3430 
 17 N       -5.1400    -6.8510     0.2990 N.4   1 <1>  -0.9590 
 18 C       -7.5280    -7.4440    -0.2350 C.3   1 <1>   0.1200 
 19 C       -4.8650    -8.3200     0.4190 C.3   1 <1>   0.5180 
 20 O       -7.1990    -8.7970    -0.0900 O.3   1 <1>  -0.5600 
 21 C       -3.3880    -8.5990     0.0800 C.3   1 <1>  -0.1950 
 22 C       -5.8790    -9.1370    -0.4220 C.3   1 <1>   0.1200 
 23 C       -2.8420    -8.8090    -1.3030 C.3   1 <1>  -0.2000 
 24 C       -2.8770    -9.9490    -0.3250 C.3   1 <1>  -0.2000 
 25 H       -3.1450    -4.4990     2.3860 H     1 <1>   0.1500 
 26 H       -0.3600    -5.0880    -1.6400 H     1 <1>   0.1500 
 27 H        0.7190    -6.9850    -0.6750 H     1 <1>   0.0800 
 28 H       -0.1770    -7.8670     0.5350 H     1 <1>   0.0800 
 29 H        1.0250    -6.6960     1.0180 H     1 <1>   0.0800 
 30 H       -2.0430    -3.3280    -1.5830 H     1 <1>   0.1500 
 31 H       -3.9190    -2.2340    -0.5290 H     1 <1>   0.0800 
 32 H       -3.5670    -1.9840     1.1490 H     1 <1>   0.0800 
 33 H       -7.2720    -4.7050     1.4710 H     1 <1>   0.0800 
 34 H       -7.8000    -4.9310    -0.1550 H     1 <1>   0.0800 
 35 H       -6.0250    -4.8780    -2.0070 H     1 <1>   0.0800 
 36 H       -4.4720    -4.2040    -1.6800 H     1 <1>   0.0800 
 37 H       -6.7770    -6.8470     1.6530 H     1 <1>   0.0800 
 38 H       -3.6180    -6.2110    -1.0380 H     1 <1>   0.0800 
 39 H       -5.0030    -6.8870    -1.8340 H     1 <1>   0.0800 
 40 H       -4.5860    -6.3660     1.0170 H     1 <1>   0.4500 
 41 H       -7.4650    -7.1830    -1.2770 H     1 <1>   0.0800 
 42 H       -8.5490    -7.3270     0.0850 H     1 <1>   0.0800 
 43 H       -5.0150    -8.6120     1.4460 H     1 <1>   0.0800 
 44 H       -2.7520    -8.0970     0.7870 H     1 <1>   0.1000 
 45 H       -5.7610   -10.1870    -0.2200 H     1 <1>   0.0800 
 46 H       -5.7380    -8.9760    -1.4760 H     1 <1>   0.0800 
 47 H       -3.4840    -8.8880    -2.1640 H     1 <1>   0.1000 
 48 H       -1.8820    -8.3890    -1.5550 H     1 <1>   0.1000 
 49 H       -1.9420   -10.2940     0.0870 H     1 <1>   0.1000 
 50 H       -3.5450   -10.7670    -0.5330 H     1 <1>   0.1000 
@<TRIPOS>BOND
  1   1   2  1   
  2   2   3  ar  
  3   2   4  ar  
  4   3   5  ar  
  5   3   6  1   
  6   4   7  ar  
  7   4  25  1   
  8   5   8  ar  
  9   5  26  1   
 10   6  27  1   
 11   6  28  1   
 12   6  29  1   
 13   7   8  ar  
 14   7   9  1   
 15   8  30  1   
 16   9  10  1   
 17   9  31  1   
 18   9  32  1   
 19  10  11  2   
 20  10  12  am  
 21  12  13  1   
 22  12  14  1   
 23  13  15  1   
 24  13  33  1   
 25  13  34  1   
 26  14  16  1   
 27  14  35  1   
 28  14  36  1   
 29  15  17  1   
 30  15  18  1   
 31  15  37  1   
 32  16  17  1   
 33  16  38  1   
 34  16  39  1   
 35  17  19  1   
 36  17  40  1   
 37  18  20  1   
 38  18  41  1   
 39  18  42  1   
 40  19  21  1   
 41  19  22  1   
 42  19  43  1   
 43  20  22  1   
 44  21  23  1   
 45  21  24  1   
 46  21  44  1   
 47  22  45  1   
 48  22  46  1   
 49  23  24  1   
 50  23  47  1   
 51  23  48  1   
 52  24  49  1   
 53  24  50  1   
@<TRIPOS>SUBSTRUCTURE
  1 ****  17 GROUP 4 **** **** 0

# MOE 2024.06 (io_trps.svl 2023.06)
