@<TRIPOS>MOLECULE
NONAME
53 56 1 0 0 
SMALL
USER_CHARGES


@<TRIPOS>ATOM
  1 O       -0.2070     0.8070     1.2210 O.2   1 <1>  -0.5700 
  2 C       -0.0380     1.8830     0.6780 C.2   1 <1>   0.6900 
  3 N       -1.0790     2.7680     0.5560 N.am  1 <1>  -0.6600 
  4 N        1.1740     2.2170     0.1450 N.am  1 <1>  -0.5470 
  5 C       -2.4900     2.3360     0.7880 C.3   1 <1>   0.1400 
  6 C       -0.9530     4.2120     0.2260 C.3   1 <1>   0.1400 
  7 C        2.4170     1.5680     0.1850 C.ar  1 <1>   0.1170 
  8 C       -3.3530     2.5890    -0.4740 C.3   1 <1>   0.0000 
  9 C       -1.7690     4.5200    -1.0350 C.3   1 <1>  -0.1600 
 10 C        2.7810     0.7000     1.2100 C.ar  1 <1>  -0.1500 
 11 C        3.3330     1.8130    -0.8330 C.ar  1 <1>  -0.1500 
 12 C       -4.8250     2.1770    -0.2650 C.3   1 <1>   0.2000 
 13 C       -3.2350     4.0750    -0.8840 C.3   1 <1>  -0.1600 
 14 C       -2.9280     1.6410    -1.6100 C.3   1 <1>  -0.1600 
 15 C        4.0240     0.0920     1.2180 C.ar  1 <1>  -0.1500 
 16 C        4.5780     1.2090    -0.8310 C.ar  1 <1>  -0.1500 
 17 O       -5.2890     2.4490     1.0110 O.3   1 <1>  -0.6800 
 18 C       -4.9100     0.6760    -0.5480 C.3   1 <1>  -0.1600 
 19 C       -3.6330     0.3140    -1.3170 C.3   1 <1>  -0.1600 
 20 C        4.9290     0.3490     0.2020 C.ar  1 <1>   0.0820 
 21 O        6.1380    -0.2690     0.2400 O.3   1 <1>  -0.1650 
 22 C        7.2790     0.3800    -0.1030 C.ar  1 <1>   0.0820 
 23 C        8.2670    -0.3370    -0.7600 C.ar  1 <1>  -0.1500 
 24 C        7.4830     1.7220     0.1980 C.ar  1 <1>  -0.1500 
 25 C        9.4480     0.2840    -1.1280 C.ar  1 <1>  -0.1500 
 26 C        8.6640     2.3420    -0.1710 C.ar  1 <1>  -0.1500 
 27 C        9.6450     1.6240    -0.8350 C.ar  1 <1>  -0.1500 
 28 H        1.1110     3.0040    -0.4880 H     1 <1>   0.3700 
 29 H       -2.5280     1.2950     1.0560 H     1 <1>   0.0800 
 30 H       -2.8770     2.9020     1.6170 H     1 <1>   0.0800 
 31 H       -1.3370     4.7880     1.0510 H     1 <1>   0.0800 
 32 H        0.0740     4.4950     0.0820 H     1 <1>   0.0800 
 33 H       -1.7360     5.5780    -1.2280 H     1 <1>   0.0800 
 34 H       -1.3190     4.0220    -1.8760 H     1 <1>   0.0800 
 35 H        2.0920     0.4970     2.0090 H     1 <1>   0.1500 
 36 H        3.0720     2.4750    -1.6370 H     1 <1>   0.1500 
 37 H       -5.4520     2.7080    -0.9620 H     1 <1>   0.0800 
 38 H       -3.7620     4.2500    -1.8060 H     1 <1>   0.0800 
 39 H       -3.7050     4.6790    -0.1250 H     1 <1>   0.0800 
 40 H       -3.2840     2.0200    -2.5520 H     1 <1>   0.0800 
 41 H       -1.8610     1.5130    -1.6770 H     1 <1>   0.0800 
 42 H        4.2940    -0.5810     2.0120 H     1 <1>   0.1500 
 43 H        5.2730     1.3990    -1.6300 H     1 <1>   0.1500 
 44 H       -4.8880     1.8290     1.6490 H     1 <1>   0.4000 
 45 H       -4.9620     0.0990     0.3590 H     1 <1>   0.0800 
 46 H       -5.7790     0.4710    -1.1490 H     1 <1>   0.0800 
 47 H       -2.9990    -0.2980    -0.6970 H     1 <1>   0.0800 
 48 H       -3.8490    -0.2230    -2.2250 H     1 <1>   0.0800 
 49 H        8.1070    -1.3770    -0.9810 H     1 <1>   0.1500 
 50 H        6.7270     2.2790     0.7230 H     1 <1>   0.1500 
 51 H       10.2130    -0.2730    -1.6400 H     1 <1>   0.1500 
 52 H        8.8230     3.3810     0.0590 H     1 <1>   0.1500 
 53 H       10.5640     2.1070    -1.1220 H     1 <1>   0.1500 
@<TRIPOS>BOND
  1   1   2  2   
  2   2   3  am  
  3   2   4  am  
  4   3   5  1   
  5   3   6  1   
  6   4   7  1   
  7   4  28  1   
  8   5   8  1   
  9   5  29  1   
 10   5  30  1   
 11   6   9  1   
 12   6  31  1   
 13   6  32  1   
 14   7  10  ar  
 15   7  11  ar  
 16   8  12  1   
 17   8  13  1   
 18   8  14  1   
 19   9  13  1   
 20   9  33  1   
 21   9  34  1   
 22  10  15  ar  
 23  10  35  1   
 24  11  16  ar  
 25  11  36  1   
 26  12  17  1   
 27  12  18  1   
 28  12  37  1   
 29  13  38  1   
 30  13  39  1   
 31  14  19  1   
 32  14  40  1   
 33  14  41  1   
 34  15  20  ar  
 35  15  42  1   
 36  16  20  ar  
 37  16  43  1   
 38  17  44  1   
 39  18  19  1   
 40  18  45  1   
 41  18  46  1   
 42  19  47  1   
 43  19  48  1   
 44  20  21  1   
 45  21  22  1   
 46  22  23  ar  
 47  22  24  ar  
 48  23  25  ar  
 49  23  49  1   
 50  24  26  ar  
 51  24  50  1   
 52  25  27  ar  
 53  25  51  1   
 54  26  27  ar  
 55  26  52  1   
 56  27  53  1   
@<TRIPOS>SUBSTRUCTURE
  1 ****   7 GROUP 4 **** **** 0

# MOE 2024.06 (io_trps.svl 2023.06)
