@<TRIPOS>MOLECULE
NONAME
50 52 1 0 0 
SMALL
USER_CHARGES


@<TRIPOS>ATOM
  1 O       -1.5180    -0.0650     1.4970 O.2   1 <1>  -0.5700 
  2 C       -1.8770     0.8330     0.7570 C.2   1 <1>   0.5440 
  3 N       -2.7500     0.5020    -0.2580 N.am  1 <1>  -0.6600 
  4 C       -1.4280     2.1980     0.9790 C.ar  1 <1>   0.0860 
  5 C       -2.8680    -0.9230    -0.6740 C.3   1 <1>   0.1400 
  6 C       -3.9750     1.3120    -0.5000 C.3   1 <1>   0.1400 
  7 C       -1.2480     3.0910    -0.0770 C.ar  1 <1>  -0.1500 
  8 C       -1.1580     2.6660     2.2650 C.ar  1 <1>  -0.1500 
  9 C       -3.9960    -1.5640     0.1540 C.3   1 <1>   0.4230 
 10 C       -5.1630     0.6520     0.2260 C.3   1 <1>  -0.1600 
 11 C       -0.8420     4.3960     0.1320 C.ar  1 <1>   0.0820 
 12 C       -0.7460     3.9680     2.4890 C.ar  1 <1>  -0.1500 
 13 N       -4.0070    -3.0830     0.1500 N.4   1 <1>  -0.9590 
 14 C       -5.3630    -0.8540    -0.1080 C.3   1 <1>   0.0000 
 15 O       -0.7140     5.1760    -0.9700 O.3   1 <1>  -0.3620 
 16 C       -0.5890     4.8380     1.4260 C.ar  1 <1>  -0.1500 
 17 C       -5.3280    -3.6670     0.5420 C.3   1 <1>   0.3430 
 18 C       -3.5470    -3.7130    -1.1280 C.3   1 <1>   0.2630 
 19 C       -6.4580    -1.4210     0.8460 C.3   1 <1>  -0.1600 
 20 C       -5.8470    -0.9190    -1.5870 C.3   1 <1>   0.1200 
 21 C       -0.2500     6.5050    -0.8790 C.3   1 <1>   0.0400 
 22 C       -6.0660    -2.7500     1.5160 C.3   1 <1>  -0.1600 
 23 O       -6.1040    -2.2160    -2.0050 O.3   1 <1>  -0.6800 
 24 H       -3.0710    -0.9740    -1.7280 H     1 <1>   0.0800 
 25 H       -1.9370    -1.4260    -0.4800 H     1 <1>   0.0800 
 26 H       -3.8450     2.3140    -0.1260 H     1 <1>   0.0800 
 27 H       -4.1550     1.3810    -1.5590 H     1 <1>   0.0800 
 28 H       -1.4230     2.7660    -1.0860 H     1 <1>   0.1500 
 29 H       -1.2720     1.9950     3.0990 H     1 <1>   0.1500 
 30 H       -3.7530    -1.2980     1.1700 H     1 <1>   0.0800 
 31 H       -4.9900     0.7670     1.2830 H     1 <1>   0.0800 
 32 H       -6.0590     1.2050    -0.0020 H     1 <1>   0.0800 
 33 H       -0.5460     4.3020     3.4930 H     1 <1>   0.1500 
 34 H       -3.3360    -3.3490     0.8840 H     1 <1>   0.4500 
 35 H       -0.2710     5.8450     1.6240 H     1 <1>   0.1500 
 36 H       -5.9420    -3.7990    -0.3330 H     1 <1>   0.0800 
 37 H       -5.1800    -4.6360     0.9920 H     1 <1>   0.0800 
 38 H       -4.1870    -3.4230    -1.9440 H     1 <1>   0.0800 
 39 H       -3.5700    -4.7870    -1.0430 H     1 <1>   0.0800 
 40 H       -2.5380    -3.4120    -1.3560 H     1 <1>   0.0800 
 41 H       -6.6970    -0.7190     1.6270 H     1 <1>   0.0800 
 42 H       -7.3720    -1.5740     0.2950 H     1 <1>   0.0800 
 43 H       -5.1280    -0.4960    -2.2650 H     1 <1>   0.0800 
 44 H       -6.7650    -0.3630    -1.6890 H     1 <1>   0.0800 
 45 H       -0.2100     6.9130    -1.8730 H     1 <1>   0.0800 
 46 H        0.7340     6.5020    -0.4460 H     1 <1>   0.0800 
 47 H       -0.9360     7.0750    -0.2780 H     1 <1>   0.0800 
 48 H       -6.9590    -3.2460     1.8580 H     1 <1>   0.0800 
 49 H       -5.4490    -2.5710     2.3800 H     1 <1>   0.0800 
 50 H       -6.6130    -2.2080    -2.8450 H     1 <1>   0.4000 
@<TRIPOS>BOND
  1   1   2  2   
  2   2   3  am  
  3   2   4  1   
  4   3   5  1   
  5   3   6  1   
  6   4   7  ar  
  7   4   8  ar  
  8   5   9  1   
  9   5  24  1   
 10   5  25  1   
 11   6  10  1   
 12   6  26  1   
 13   6  27  1   
 14   7  11  ar  
 15   7  28  1   
 16   8  12  ar  
 17   8  29  1   
 18   9  13  1   
 19   9  14  1   
 20   9  30  1   
 21  10  14  1   
 22  10  31  1   
 23  10  32  1   
 24  11  15  1   
 25  11  16  ar  
 26  12  16  ar  
 27  12  33  1   
 28  13  17  1   
 29  13  18  1   
 30  13  34  1   
 31  14  19  1   
 32  14  20  1   
 33  15  21  1   
 34  16  35  1   
 35  17  22  1   
 36  17  36  1   
 37  17  37  1   
 38  18  38  1   
 39  18  39  1   
 40  18  40  1   
 41  19  22  1   
 42  19  41  1   
 43  19  42  1   
 44  20  23  1   
 45  20  43  1   
 46  20  44  1   
 47  21  45  1   
 48  21  46  1   
 49  21  47  1   
 50  22  48  1   
 51  22  49  1   
 52  23  50  1   
@<TRIPOS>SUBSTRUCTURE
  1 ****   3 GROUP 4 **** **** 0

# MOE 2024.06 (io_trps.svl 2023.06)
