@<TRIPOS>MOLECULE
NONAME
40 43 1 0 0 
SMALL
USER_CHARGES


@<TRIPOS>ATOM
  1 O        0.0240    -0.2220     0.2740 O.3   1 <1>  -0.2800 
  2 C        0.0150    -1.5480     0.3570 C.2   1 <1>   0.5620 
  3 C        1.2980     0.1060     0.1760 C.ar  1 <1>   0.1400 
  4 N        1.1750    -2.1090     0.3170 N.2   1 <1>  -0.5650 
  5 N       -1.1870    -2.1990     0.4720 N.pl3 1 <1>  -0.8220 
  6 C        2.0230    -1.0580     0.2020 C.ar  1 <1>   0.2270 
  7 C        1.8930     1.3530     0.0630 C.ar  1 <1>  -0.1500 
  8 C       -2.4800    -1.5590     0.1280 C.3   1 <1>   0.2090 
  9 C       -1.2730    -3.6730     0.3460 C.3   1 <1>   0.2090 
 10 C        3.4100    -1.0080     0.1130 C.ar  1 <1>  -0.1500 
 11 C        3.2730     1.4020    -0.0250 C.ar  1 <1>  -0.1500 
 12 C       -3.3330    -2.6910    -0.4470 C.3   1 <1>   0.2000 
 13 C       -2.7600    -3.9730     0.1540 C.3   1 <1>  -0.0800 
 14 C        4.0270     0.2250    -0.0010 C.ar  1 <1>  -0.1500 
 15 O       -4.6720    -2.5590    -0.1080 O.3   1 <1>  -0.6800 
 16 C       -3.0290    -5.2160    -0.7070 C.3   1 <1>   0.0210 
 17 C       -2.3300    -6.4350    -0.1360 C.2   1 <1>   0.1080 
 18 N       -2.5750    -6.8940     1.0520 N.2   1 <1>  -0.7070 
 19 C       -1.3580    -7.1780    -0.7970 C.2   1 <1>  -0.1500 
 20 N       -1.7590    -7.9560     1.1810 N.pl3 1 <1>   0.3000 
 21 C       -1.0100    -8.1480     0.0750 C.2   1 <1>  -0.3320 
 22 C        0.0080    -9.2620    -0.0830 C.3   1 <1>  -0.0600 
 23 H        1.2880     2.2410     0.0470 H     1 <1>   0.1500 
 24 H       -2.9210    -1.1600     1.0250 H     1 <1>   0.0800 
 25 H       -2.3420    -0.7770    -0.5980 H     1 <1>   0.0800 
 26 H       -0.7000    -3.9900    -0.5100 H     1 <1>   0.0800 
 27 H       -0.8880    -4.1550     1.2290 H     1 <1>   0.0800 
 28 H        3.9680    -1.9250     0.1350 H     1 <1>   0.1500 
 29 H        3.7750     2.3510    -0.1140 H     1 <1>   0.1500 
 30 H       -3.2520    -2.6890    -1.5200 H     1 <1>   0.0800 
 31 H       -3.1740    -4.1280     1.1350 H     1 <1>   0.0800 
 32 H        5.1000     0.2840    -0.0700 H     1 <1>   0.1500 
 33 H       -4.7890    -2.6920     0.8530 H     1 <1>   0.4000 
 34 H       -2.6880    -5.0500    -1.7120 H     1 <1>   0.0800 
 35 H       -4.0860    -5.4080    -0.7390 H     1 <1>   0.0800 
 36 H       -0.9830    -6.9970    -1.7880 H     1 <1>   0.1500 
 37 H       -1.7370    -8.5270     2.0350 H     1 <1>   0.2700 
 38 H        0.4720    -9.2040    -1.0520 H     1 <1>   0.0800 
 39 H       -0.4720   -10.2210     0.0090 H     1 <1>   0.0800 
 40 H        0.7730    -9.1770     0.6680 H     1 <1>   0.0800 
@<TRIPOS>BOND
  1   1   2  1   
  2   1   3  1   
  3   2   4  2   
  4   2   5  1   
  5   3   6  ar  
  6   3   7  ar  
  7   4   6  1   
  8   5   8  1   
  9   5   9  1   
 10   6  10  ar  
 11   7  11  ar  
 12   7  23  1   
 13   8  12  1   
 14   8  24  1   
 15   8  25  1   
 16   9  13  1   
 17   9  26  1   
 18   9  27  1   
 19  10  14  ar  
 20  10  28  1   
 21  11  14  ar  
 22  11  29  1   
 23  12  13  1   
 24  12  15  1   
 25  12  30  1   
 26  13  16  1   
 27  13  31  1   
 28  14  32  1   
 29  15  33  1   
 30  16  17  1   
 31  16  34  1   
 32  16  35  1   
 33  17  18  2   
 34  17  19  1   
 35  18  20  1   
 36  19  21  2   
 37  19  36  1   
 38  20  21  1   
 39  20  37  1   
 40  21  22  1   
 41  22  38  1   
 42  22  39  1   
 43  22  40  1   
@<TRIPOS>SUBSTRUCTURE
  1 ****   9 GROUP 4 **** **** 0

# MOE 2024.06 (io_trps.svl 2023.06)
