@<TRIPOS>MOLECULE
NONAME
61 64 1 0 0 
SMALL
USER_CHARGES


@<TRIPOS>ATOM
  1 O       -0.7550     4.2520     2.0970 O.3   1 <1>  -0.6800 
  2 C       -1.7910     3.3610     1.8530 C.3   1 <1>   0.1200 
  3 C       -1.6570     2.6600     0.4640 C.3   1 <1>   0.0000 
  4 C       -1.5240     3.6580    -0.7260 C.3   1 <1>   0.4230 
  5 C       -0.4460     1.6730     0.4820 C.3   1 <1>  -0.1600 
  6 C       -2.9480     1.8360     0.2350 C.3   1 <1>  -0.1600 
  7 N       -2.7270     4.5730    -0.7700 N.4   1 <1>  -0.9590 
  8 C       -0.1310     4.3750    -0.7520 C.3   1 <1>   0.3430 
  9 C        0.8720     2.1830    -0.1230 C.3   1 <1>   0.3430 
 10 C       -4.1930     2.7210     0.0370 C.3   1 <1>  -0.1600 
 11 C       -3.9930     3.8090    -1.0210 C.3   1 <1>   0.3430 
 12 C       -2.6540     5.7210    -1.7150 C.3   1 <1>   0.5240 
 13 N        0.9520     3.6580     0.0090 N.4   1 <1>  -0.9590 
 14 C       -3.7000     6.7060    -1.2570 C.2   1 <1>  -0.1810 
 15 C        2.3230     4.1790    -0.2910 C.3   1 <1>   0.2630 
 16 C       -4.8410     7.0620    -1.9700 C.2   1 <1>   0.1080 
 17 C       -3.7740     7.4160    -0.1060 C.2   1 <1>  -0.3320 
 18 N       -5.5700     7.8990    -1.3180 N.2   1 <1>  -0.7070 
 19 C       -5.2490     6.5750    -3.3450 C.3   1 <1>  -0.0590 
 20 N       -4.9260     8.1480    -0.1550 N.pl3 1 <1>   0.5930 
 21 C       -2.8130     7.4970     1.0760 C.3   1 <1>  -0.0600 
 22 C       -5.4080     9.0580     0.8230 C.ar  1 <1>  -0.0230 
 23 C       -5.9450     8.5990     2.0220 C.ar  1 <1>  -0.1500 
 24 C       -5.3400    10.4290     0.6000 C.ar  1 <1>  -0.1500 
 25 C       -6.3890     9.4920     2.9820 C.ar  1 <1>  -0.1500 
 26 C       -5.7830    11.3220     1.5590 C.ar  1 <1>  -0.1500 
 27 C       -6.3060    10.8540     2.7520 C.ar  1 <1>  -0.1500 
 28 H       -0.7920     4.5590     3.0350 H     1 <1>   0.4000 
 29 H       -1.7860     2.6250     2.6420 H     1 <1>   0.0800 
 30 H       -2.7060     3.9190     1.9370 H     1 <1>   0.0800 
 31 H       -1.5530     3.0600    -1.6220 H     1 <1>   0.0800 
 32 H       -0.6880     0.7690    -0.0500 H     1 <1>   0.0800 
 33 H       -0.2500     1.3600     1.4940 H     1 <1>   0.0800 
 34 H       -2.8390     1.2220    -0.6440 H     1 <1>   0.0800 
 35 H       -3.1170     1.1670     1.0650 H     1 <1>   0.0800 
 36 H       -2.8440     5.0170     0.1520 H     1 <1>   0.4500 
 37 H       -0.2420     5.3560    -0.3220 H     1 <1>   0.0800 
 38 H        0.1750     4.4880    -1.7790 H     1 <1>   0.0800 
 39 H        0.9270     1.9100    -1.1650 H     1 <1>   0.0800 
 40 H        1.7020     1.7160     0.3860 H     1 <1>   0.0800 
 41 H       -4.4940     3.1770     0.9630 H     1 <1>   0.0800 
 42 H       -5.0180     2.0980    -0.2690 H     1 <1>   0.0800 
 43 H       -4.8420     4.4760    -1.0040 H     1 <1>   0.0800 
 44 H       -3.9520     3.3490    -1.9960 H     1 <1>   0.0800 
 45 H       -1.6910     6.2020    -1.6700 H     1 <1>   0.0800 
 46 H       -2.8450     5.4040    -2.7270 H     1 <1>   0.0800 
 47 H        0.7430     3.8550     1.0130 H     1 <1>   0.4500 
 48 H        2.5840     3.9900    -1.3200 H     1 <1>   0.0800 
 49 H        3.0520     3.6960     0.3410 H     1 <1>   0.0800 
 50 H        2.3710     5.2410    -0.1110 H     1 <1>   0.0800 
 51 H       -5.6090     5.5650    -3.2930 H     1 <1>   0.0800 
 52 H       -4.4240     6.6350    -4.0300 H     1 <1>   0.0800 
 53 H       -6.0430     7.1960    -3.7220 H     1 <1>   0.0800 
 54 H       -1.9190     6.9300     0.9010 H     1 <1>   0.0800 
 55 H       -3.2890     7.1340     1.9700 H     1 <1>   0.0800 
 56 H       -2.5300     8.5230     1.2430 H     1 <1>   0.0800 
 57 H       -6.0240     7.5420     2.2050 H     1 <1>   0.1500 
 58 H       -4.9430    10.7970    -0.3310 H     1 <1>   0.1500 
 59 H       -6.8040     9.1300     3.9070 H     1 <1>   0.1500 
 60 H       -5.7250    12.3810     1.3760 H     1 <1>   0.1500 
 61 H       -6.6510    11.5490     3.4970 H     1 <1>   0.1500 
@<TRIPOS>BOND
  1   1   2  1   
  2   1  28  1   
  3   2   3  1   
  4   2  29  1   
  5   2  30  1   
  6   3   4  1   
  7   3   5  1   
  8   3   6  1   
  9   4   7  1   
 10   4   8  1   
 11   4  31  1   
 12   5   9  1   
 13   5  32  1   
 14   5  33  1   
 15   6  10  1   
 16   6  34  1   
 17   6  35  1   
 18   7  11  1   
 19   7  12  1   
 20   7  36  1   
 21   8  13  1   
 22   8  37  1   
 23   8  38  1   
 24   9  13  1   
 25   9  39  1   
 26   9  40  1   
 27  10  11  1   
 28  10  41  1   
 29  10  42  1   
 30  11  43  1   
 31  11  44  1   
 32  12  14  1   
 33  12  45  1   
 34  12  46  1   
 35  13  15  1   
 36  13  47  1   
 37  14  16  1   
 38  14  17  2   
 39  15  48  1   
 40  15  49  1   
 41  15  50  1   
 42  16  18  2   
 43  16  19  1   
 44  17  20  1   
 45  17  21  1   
 46  18  20  1   
 47  19  51  1   
 48  19  52  1   
 49  19  53  1   
 50  20  22  1   
 51  21  54  1   
 52  21  55  1   
 53  21  56  1   
 54  22  23  ar  
 55  22  24  ar  
 56  23  25  ar  
 57  23  57  1   
 58  24  26  ar  
 59  24  58  1   
 60  25  27  ar  
 61  25  59  1   
 62  26  27  ar  
 63  26  60  1   
 64  27  61  1   
@<TRIPOS>SUBSTRUCTURE
  1 ****  17 GROUP 4 **** **** 0

# MOE 2024.06 (io_trps.svl 2023.06)
