@<TRIPOS>MOLECULE
Untitled Document
31 33 1 0 0 
SMALL
USER_CHARGES


@<TRIPOS>ATOM
  1 O       -0.2240    -0.3880    -0.5320 O.2   1 <1>  -0.5700 
  2 C       -0.9890    -1.3250    -0.4050 C.2   1 <1>   0.5440 
  3 N       -0.4700    -2.5990    -0.4120 N.am  1 <1>  -0.6600 
  4 C       -2.4100    -1.0810    -0.2350 C.ar  1 <1>   0.0860 
  5 C       -1.1490    -3.8100     0.1470 C.3   1 <1>   0.1400 
  6 C        0.9950    -2.8590    -0.5770 C.3   1 <1>   0.1400 
  7 C       -2.8660    -0.1290     0.6760 C.ar  1 <1>  -0.1500 
  8 C       -3.3690    -1.7780    -0.9710 C.ar  1 <1>  -0.1500 
  9 C        0.0370    -4.6170     0.6460 C.3   1 <1>  -0.0800 
 10 C        1.0580    -4.3680    -0.4180 C.3   1 <1>  -0.0800 
 11 C       -4.2170     0.1060     0.8600 C.ar  1 <1>  -0.1500 
 12 C       -4.7220    -1.5500    -0.7920 C.ar  1 <1>  -0.1500 
 13 C        0.1680    -6.1200     0.7950 C.3   1 <1>   0.1200 
 14 C        2.2000    -5.2160     0.1030 C.3   1 <1>   0.1200 
 15 C       -5.1480    -0.6080     0.1270 C.ar  1 <1>  -0.1500 
 16 O        1.5500    -6.3470     0.6380 O.3   1 <1>  -0.5600 
 17 H       -1.6700    -4.3320    -0.6380 H     1 <1>   0.0800 
 18 H       -1.8240    -3.5560     0.9460 H     1 <1>   0.0800 
 19 H        1.5430    -2.3540     0.2010 H     1 <1>   0.0800 
 20 H        1.3380    -2.5350    -1.5450 H     1 <1>   0.0800 
 21 H       -2.1420     0.4330     1.2410 H     1 <1>   0.1500 
 22 H       -3.0440    -2.5020    -1.6970 H     1 <1>   0.1500 
 23 H        0.3540    -4.1760     1.5780 H     1 <1>   0.0800 
 24 H        0.7400    -4.8010    -1.3530 H     1 <1>   0.0800 
 25 H       -4.5440     0.8460     1.5710 H     1 <1>   0.1500 
 26 H       -5.4440    -2.1010    -1.3700 H     1 <1>   0.1500 
 27 H       -0.3500    -6.6470     0.0110 H     1 <1>   0.0800 
 28 H       -0.1450    -6.4740     1.7620 H     1 <1>   0.0800 
 29 H        2.7310    -4.7250     0.9010 H     1 <1>   0.0800 
 30 H        2.8800    -5.5260    -0.6720 H     1 <1>   0.0800 
 31 H       -6.2000    -0.4270     0.2680 H     1 <1>   0.1500 
@<TRIPOS>BOND
  1   1   2  2   
  2   2   3  am  
  3   2   4  1   
  4   3   5  1   
  5   3   6  1   
  6   4   7  ar  
  7   4   8  ar  
  8   5   9  1   
  9   5  17  1   
 10   5  18  1   
 11   6  10  1   
 12   6  19  1   
 13   6  20  1   
 14   7  11  ar  
 15   7  21  1   
 16   8  12  ar  
 17   8  22  1   
 18   9  10  1   
 19   9  13  1   
 20   9  23  1   
 21  10  14  1   
 22  10  24  1   
 23  11  15  ar  
 24  11  25  1   
 25  12  15  ar  
 26  12  26  1   
 27  13  16  1   
 28  13  27  1   
 29  13  28  1   
 30  14  16  1   
 31  14  29  1   
 32  14  30  1   
 33  15  31  1   
@<TRIPOS>SUBSTRUCTURE
  1 ****   3 GROUP 4 **** **** 0

# MOE 2024.06 (io_trps.svl 2023.06)
