@<TRIPOS>MOLECULE
NONAME
39 40 1 0 0 
SMALL
USER_CHARGES


@<TRIPOS>ATOM
  1 CL      -2.5330     0.0030     2.7540 Cl    1 <1>  -0.1770 
  2 C       -2.6040     0.7100     1.1580 C.ar  1 <1>   0.1770 
  3 C       -2.6180    -0.1110     0.0410 C.ar  1 <1>  -0.1440 
  4 C       -2.6550     2.0860     1.0470 C.ar  1 <1>  -0.1500 
  5 C       -2.6770     0.4780    -1.2140 C.ar  1 <1>  -0.1500 
  6 C       -2.5690    -1.6170     0.1890 C.3   1 <1>   0.4870 
  7 C       -2.7220     2.6680    -0.2090 C.ar  1 <1>  -0.1440 
  8 C       -2.7300     1.8570    -1.3330 C.ar  1 <1>  -0.1500 
  9 N       -3.9370    -2.1650    -0.0250 N.4   1 <1>  -0.9590 
 10 C       -2.7750     4.1780    -0.3560 C.3   1 <1>  -0.0970 
 11 C       -3.9030    -3.6460    -0.2100 C.3   1 <1>   0.3430 
 12 C       -4.8760    -1.7380     1.0660 C.3   1 <1>   0.3430 
 13 C       -5.2610    -4.1670    -0.7050 C.3   1 <1>  -0.0800 
 14 C       -6.0900    -2.6670     1.1910 C.3   1 <1>  -0.1600 
 15 C       -6.4310    -3.3270    -0.1430 C.3   1 <1>   0.2000 
 16 C       -5.3670    -5.6740    -0.4180 C.3   1 <1>   0.1200 
 17 O       -7.5670    -4.0900     0.0260 O.3   1 <1>  -0.6800 
 18 O       -4.1690    -6.2750    -0.7730 O.3   1 <1>  -0.6800 
 19 H       -2.6400     2.6930     1.9350 H     1 <1>   0.1500 
 20 H       -2.6760    -0.1180    -2.1120 H     1 <1>   0.1500 
 21 H       -2.2030    -1.8920     1.1650 H     1 <1>   0.0800 
 22 H       -1.8920    -2.0190    -0.5480 H     1 <1>   0.0800 
 23 H       -2.7740     2.3060    -2.3120 H     1 <1>   0.1500 
 24 H       -4.2750    -1.7480    -0.9020 H     1 <1>   0.4500 
 25 H       -3.4350     4.4540    -1.1600 H     1 <1>   0.0800 
 26 H       -1.7920     4.5590    -0.5700 H     1 <1>   0.0800 
 27 H       -3.1330     4.6390     0.5470 H     1 <1>   0.0800 
 28 H       -3.1420    -3.9270    -0.9200 H     1 <1>   0.0800 
 29 H       -3.6660    -4.1180     0.7300 H     1 <1>   0.0800 
 30 H       -4.3600    -1.7210     2.0130 H     1 <1>   0.0800 
 31 H       -5.2140    -0.7330     0.8630 H     1 <1>   0.0800 
 32 H       -5.2820    -4.0560    -1.7750 H     1 <1>   0.0800 
 33 H       -6.9280    -2.0910     1.5450 H     1 <1>   0.0800 
 34 H       -5.8700    -3.4200     1.9270 H     1 <1>   0.0800 
 35 H       -6.6840    -2.5610    -0.8590 H     1 <1>   0.0800 
 36 H       -6.1590    -6.1180    -0.9990 H     1 <1>   0.0800 
 37 H       -5.5370    -5.8660     0.6280 H     1 <1>   0.0800 
 38 H       -7.5620    -4.5770     0.8730 H     1 <1>   0.4000 
 39 H       -4.2550    -7.2530    -0.7660 H     1 <1>   0.4000 
@<TRIPOS>BOND
  1   1   2  1   
  2   2   3  ar  
  3   2   4  ar  
  4   3   5  ar  
  5   3   6  1   
  6   4   7  ar  
  7   4  19  1   
  8   5   8  ar  
  9   5  20  1   
 10   6   9  1   
 11   6  21  1   
 12   6  22  1   
 13   7   8  ar  
 14   7  10  1   
 15   8  23  1   
 16   9  11  1   
 17   9  12  1   
 18   9  24  1   
 19  10  25  1   
 20  10  26  1   
 21  10  27  1   
 22  11  13  1   
 23  11  28  1   
 24  11  29  1   
 25  12  14  1   
 26  12  30  1   
 27  12  31  1   
 28  13  15  1   
 29  13  16  1   
 30  13  32  1   
 31  14  15  1   
 32  14  33  1   
 33  14  34  1   
 34  15  17  1   
 35  15  35  1   
 36  16  18  1   
 37  16  36  1   
 38  16  37  1   
 39  17  38  1   
 40  18  39  1   
@<TRIPOS>SUBSTRUCTURE
  1 ****   9 GROUP 4 **** **** 0

# MOE 2024.06 (io_trps.svl 2023.06)
