@<TRIPOS>MOLECULE
NONAME
43 45 1 0 0 
SMALL
USER_CHARGES


@<TRIPOS>ATOM
  1 CL      -0.3780     0.6210     0.3550 Cl    1 <1>  -0.1770 
  2 C       -0.6030    -1.1020     0.4970 C.ar  1 <1>   0.1770 
  3 C       -1.4500    -1.7490    -0.3830 C.ar  1 <1>  -0.1500 
  4 C        0.0690    -1.7920     1.4870 C.ar  1 <1>  -0.1500 
  5 C       -1.6490    -3.1210    -0.2870 C.ar  1 <1>  -0.0090 
  6 C       -0.1150    -3.1590     1.5930 C.ar  1 <1>  -0.1500 
  7 S       -2.7500    -3.9910    -1.4390 S.o2  1 <1>   1.4470 
  8 C       -0.9650    -3.8090     0.7120 C.ar  1 <1>  -0.1500 
  9 O       -1.9250    -4.7620    -2.3420 O.2   1 <1>  -0.6500 
 10 O       -3.7150    -3.0520    -1.9710 O.2   1 <1>  -0.6500 
 11 N       -3.5810    -5.0520    -0.4110 N.am  1 <1>  -0.8490 
 12 C       -4.1870    -6.1860    -1.1450 C.3   1 <1>   0.1960 
 13 C       -4.5900    -4.3660     0.3980 C.3   1 <1>   0.1960 
 14 C       -4.7210    -7.2570    -0.1720 C.3   1 <1>  -0.1060 
 15 C       -5.1710    -5.3180     1.4420 C.3   1 <1>  -0.1600 
 16 C       -5.5100    -8.3070    -0.9500 C.2   1 <1>   0.9060 
 17 C       -5.7360    -6.5590     0.7560 C.3   1 <1>   0.2000 
 18 C       -3.5530    -7.9300     0.6100 C.3   1 <1>  -0.0650 
 19 O       -5.5650    -8.2550    -2.1830 O.co2 1 <1>  -0.9000 
 20 O       -6.1330    -9.1660    -0.3060 O.co2 1 <1>  -0.9000 
 21 O       -6.1790    -7.4330     1.7270 O.3   1 <1>  -0.6800 
 22 C       -2.5270    -8.6480    -0.2800 C.3   1 <1>  -0.1950 
 23 C       -1.1700    -8.9790     0.2560 C.3   1 <1>  -0.2000 
 24 C       -1.3230    -7.9450    -0.8230 C.3   1 <1>  -0.2000 
 25 H       -1.9550    -1.1800    -1.1440 H     1 <1>   0.1500 
 26 H        0.7240    -1.2660     2.1580 H     1 <1>   0.1500 
 27 H        0.4010    -3.7170     2.3570 H     1 <1>   0.1500 
 28 H       -1.1030    -4.8750     0.8000 H     1 <1>   0.1500 
 29 H       -4.9910    -5.8250    -1.7670 H     1 <1>   0.0800 
 30 H       -3.4660    -6.6400    -1.8030 H     1 <1>   0.0800 
 31 H       -4.1460    -3.5250     0.9030 H     1 <1>   0.0800 
 32 H       -5.3800    -3.9980    -0.2380 H     1 <1>   0.0800 
 33 H       -5.9580    -4.8210     1.9780 H     1 <1>   0.0800 
 34 H       -4.4030    -5.5920     2.1420 H     1 <1>   0.0800 
 35 H       -6.5980    -6.2780     0.1730 H     1 <1>   0.0800 
 36 H       -3.0430    -7.1980     1.2090 H     1 <1>   0.0800 
 37 H       -3.9620    -8.6630     1.2830 H     1 <1>   0.0800 
 38 H       -6.3530    -8.2930     1.2460 H     1 <1>   0.4000 
 39 H       -2.9870    -9.3910    -0.9130 H     1 <1>   0.1000 
 40 H       -0.9110    -8.6570     1.2490 H     1 <1>   0.1000 
 41 H       -0.7440    -9.9340     0.0050 H     1 <1>   0.1000 
 42 H       -1.0240    -8.1750    -1.8310 H     1 <1>   0.1000 
 43 H       -1.1840    -6.9070    -0.5830 H     1 <1>   0.1000 
@<TRIPOS>BOND
  1   1   2  1   
  2   2   3  ar  
  3   2   4  ar  
  4   3   5  ar  
  5   3  25  1   
  6   4   6  ar  
  7   4  26  1   
  8   5   7  1   
  9   5   8  ar  
 10   6   8  ar  
 11   6  27  1   
 12   7   9  2   
 13   7  10  2   
 14   7  11  am  
 15   8  28  1   
 16  11  12  1   
 17  11  13  1   
 18  12  14  1   
 19  12  29  1   
 20  12  30  1   
 21  13  15  1   
 22  13  31  1   
 23  13  32  1   
 24  14  16  1   
 25  14  17  1   
 26  14  18  1   
 27  15  17  1   
 28  15  33  1   
 29  15  34  1   
 30  16  19  ar  
 31  16  20  ar  
 32  17  21  1   
 33  17  35  1   
 34  18  22  1   
 35  18  36  1   
 36  18  37  1   
 37  21  38  1   
 38  22  23  1   
 39  22  24  1   
 40  22  39  1   
 41  23  24  1   
 42  23  40  1   
 43  23  41  1   
 44  24  42  1   
 45  24  43  1   
@<TRIPOS>SUBSTRUCTURE
  1 ****  11 GROUP 4 **** **** 0

# MOE 2024.06 (io_trps.svl 2023.06)
