@<TRIPOS>MOLECULE
NONAME
54 57 1 0 0 
SMALL
USER_CHARGES


@<TRIPOS>ATOM
  1 O       -3.4050     1.1930    -1.6770 O.2   1 <1>  -0.5700 
  2 C       -2.7000     1.0880    -0.7040 C.2   1 <1>   0.5690 
  3 N       -2.2700    -0.1180    -0.2610 N.am  1 <1>  -0.7300 
  4 C       -2.2890     2.3320     0.0470 C.3   1 <1>  -0.0990 
  5 C       -2.6330    -1.4070    -0.8900 C.3   1 <1>   0.2200 
  6 C       -1.2050     3.0970    -0.7160 C.3   1 <1>   0.0210 
  7 C       -3.8640    -1.9650    -0.1980 C.3   1 <1>  -0.0800 
  8 C       -1.5850    -2.4630    -0.5620 C.3   1 <1>   0.1200 
  9 C       -0.8030     4.3390     0.0590 C.2   1 <1>  -0.1810 
 10 C       -3.2610    -2.7070     1.0000 C.3   1 <1>   0.1200 
 11 C       -4.6590    -2.9000    -1.1300 C.3   1 <1>  -0.0170 
 12 O       -1.9170    -2.9570     0.7000 O.3   1 <1>  -0.5600 
 13 C        0.2320     4.4480     0.9870 C.2   1 <1>   0.1080 
 14 C       -1.3580     5.5700     0.0160 C.2   1 <1>  -0.3320 
 15 C       -5.9620    -3.3560    -0.4830 C.ar  1 <1>  -0.1440 
 16 N        0.3220     5.6410     1.4840 N.2   1 <1>  -0.7070 
 17 C        1.1730     3.3400     1.4010 C.3   1 <1>  -0.0590 
 18 N       -0.6590     6.3340     0.8810 N.pl3 1 <1>   0.3000 
 19 C       -2.5280     6.0940    -0.7990 C.3   1 <1>  -0.0600 
 20 C       -7.0870    -2.5050    -0.3680 C.ar  1 <1>   0.0000 
 21 C       -6.0760    -4.6220     0.0120 C.ar  1 <1>  -0.1500 
 22 C       -8.2410    -3.0230     0.2690 C.ar  1 <1>   0.3100 
 23 C       -7.1370    -1.1740    -0.8480 C.ar  1 <1>  -0.1500 
 24 C       -7.2680    -5.0370     0.6190 C.ar  1 <1>   0.1600 
 25 N       -8.3150    -4.2870     0.7560 N.ar  1 <1>  -0.6200 
 26 C       -9.3690    -2.1980     0.4090 C.ar  1 <1>  -0.1500 
 27 C       -8.2540    -0.3980    -0.6970 C.ar  1 <1>  -0.1500 
 28 C       -9.3840    -0.9130    -0.0600 C.ar  1 <1>  -0.1500 
 29 H       -1.7480    -0.2050     0.6130 H     1 <1>   0.3700 
 30 H       -3.1510     2.9610     0.1670 H     1 <1>   0.0800 
 31 H       -1.9300     2.0700     1.0250 H     1 <1>   0.0800 
 32 H       -2.7630    -1.2760    -1.9520 H     1 <1>   0.0800 
 33 H       -1.5790     3.3830    -1.6840 H     1 <1>   0.0800 
 34 H       -0.3470     2.4690    -0.8720 H     1 <1>   0.0800 
 35 H       -4.5090    -1.1730     0.1370 H     1 <1>   0.0800 
 36 H       -0.5850    -2.0680    -0.5460 H     1 <1>   0.0800 
 37 H       -1.6410    -3.2820    -1.2580 H     1 <1>   0.0800 
 38 H       -3.7530    -3.6410     1.2070 H     1 <1>   0.0800 
 39 H       -3.2870    -2.0890     1.8800 H     1 <1>   0.0800 
 40 H       -4.0600    -3.7580    -1.3820 H     1 <1>   0.0800 
 41 H       -4.8850    -2.3960    -2.0540 H     1 <1>   0.0800 
 42 H        0.6160     2.4590     1.6590 H     1 <1>   0.0800 
 43 H        1.7470     3.6510     2.2550 H     1 <1>   0.0800 
 44 H        1.8450     3.1170     0.5940 H     1 <1>   0.0800 
 45 H       -0.8270     7.3260     1.0830 H     1 <1>   0.2700 
 46 H       -2.9600     5.3090    -1.3940 H     1 <1>   0.0800 
 47 H       -2.1990     6.8780    -1.4570 H     1 <1>   0.0800 
 48 H       -3.2900     6.4810    -0.1460 H     1 <1>   0.0800 
 49 H       -5.2670    -5.3270    -0.0450 H     1 <1>   0.1500 
 50 H       -6.2830    -0.7550    -1.3460 H     1 <1>   0.1500 
 51 H       -7.3150    -6.0450     0.9970 H     1 <1>   0.1500 
 52 H      -10.2270    -2.6160     0.9000 H     1 <1>   0.1500 
 53 H       -8.2740     0.6140    -1.0670 H     1 <1>   0.1500 
 54 H      -10.2560    -0.2920     0.0540 H     1 <1>   0.1500 
@<TRIPOS>BOND
  1   1   2  2   
  2   2   3  am  
  3   2   4  1   
  4   3   5  1   
  5   3  29  1   
  6   4   6  1   
  7   4  30  1   
  8   4  31  1   
  9   5   7  1   
 10   5   8  1   
 11   5  32  1   
 12   6   9  1   
 13   6  33  1   
 14   6  34  1   
 15   7  10  1   
 16   7  11  1   
 17   7  35  1   
 18   8  12  1   
 19   8  36  1   
 20   8  37  1   
 21   9  13  1   
 22   9  14  2   
 23  10  12  1   
 24  10  38  1   
 25  10  39  1   
 26  11  15  1   
 27  11  40  1   
 28  11  41  1   
 29  13  16  2   
 30  13  17  1   
 31  14  18  1   
 32  14  19  1   
 33  15  20  ar  
 34  15  21  ar  
 35  16  18  1   
 36  17  42  1   
 37  17  43  1   
 38  17  44  1   
 39  18  45  1   
 40  19  46  1   
 41  19  47  1   
 42  19  48  1   
 43  20  22  ar  
 44  20  23  ar  
 45  21  24  ar  
 46  21  49  1   
 47  22  25  ar  
 48  22  26  ar  
 49  23  27  ar  
 50  23  50  1   
 51  24  25  ar  
 52  24  51  1   
 53  26  28  ar  
 54  26  52  1   
 55  27  28  ar  
 56  27  53  1   
 57  28  54  1   
@<TRIPOS>SUBSTRUCTURE
  1 ****   3 GROUP 4 **** **** 0

# MOE 2024.06 (io_trps.svl 2023.06)
