@<TRIPOS>MOLECULE
NONAME
51 55 1 0 0 
SMALL
USER_CHARGES


@<TRIPOS>ATOM
  1 O       -0.7120     0.5280    -1.7130 O.2   1 <1>  -0.5700 
  2 C       -1.5390     0.9790    -0.9480 C.2   1 <1>   0.7150 
  3 N       -2.3990     0.1020    -0.3180 N.am  1 <1>  -0.6600 
  4 C       -1.6010     2.3960    -0.7020 C.2   1 <1>  -0.2370 
  5 C       -3.2020     0.4510     0.8950 C.3   1 <1>   0.1400 
  6 C       -2.4340    -1.3460    -0.6820 C.3   1 <1>   0.1400 
  7 N       -0.5080     3.1360    -0.3010 N.pl3 1 <1>   0.0480 
  8 C       -2.6640     3.2470    -0.8170 C.2   1 <1>  -0.1500 
  9 C       -4.6570    -0.0540     0.7800 C.3   1 <1>   0.4230 
 10 C       -3.8850    -1.8440    -0.8070 C.3   1 <1>   0.3430 
 11 C       -0.9000     4.4430    -0.1400 C.ar  1 <1>  -0.1520 
 12 C        0.8770     2.6380    -0.1680 C.3   1 <1>   0.0160 
 13 C       -2.2500     4.5380    -0.4570 C.ar  1 <1>   0.0000 
 14 N       -4.7210    -1.5270     0.4130 N.4   1 <1>  -0.9590 
 15 C       -5.4580     0.8000    -0.2310 C.3   1 <1>   0.1200 
 16 C       -0.1860     5.5810     0.2550 C.ar  1 <1>  -0.1500 
 17 C       -2.9030     5.7740    -0.3790 C.ar  1 <1>  -0.1500 
 18 C       -6.1580    -1.9300     0.2590 C.3   1 <1>   0.5180 
 19 O       -6.7770     0.3390    -0.3260 O.3   1 <1>  -0.5600 
 20 C       -0.8370     6.7900     0.3310 C.ar  1 <1>  -0.1500 
 21 C       -2.1980     6.8870     0.0130 C.ar  1 <1>  -0.1500 
 22 C       -6.2440    -3.4040    -0.1560 C.3   1 <1>  -0.1950 
 23 C       -6.9170    -1.0010    -0.7150 C.3   1 <1>   0.1200 
 24 C       -7.3150    -4.2820     0.4150 C.3   1 <1>  -0.2000 
 25 C       -5.8780    -4.5100     0.7870 C.3   1 <1>  -0.2000 
 26 H       -2.7400    -0.0010     1.7550 H     1 <1>   0.0800 
 27 H       -3.2040     1.5130     1.0670 H     1 <1>   0.0800 
 28 H       -1.9340    -1.5120    -1.6220 H     1 <1>   0.0800 
 29 H       -1.9120    -1.9160     0.0670 H     1 <1>   0.0800 
 30 H       -3.6620     3.0210    -1.1420 H     1 <1>   0.1500 
 31 H       -5.1240     0.0870     1.7410 H     1 <1>   0.0800 
 32 H       -3.8700    -2.9090    -0.9740 H     1 <1>   0.0800 
 33 H       -4.3220    -1.3830    -1.6760 H     1 <1>   0.0800 
 34 H        0.8700     1.6550     0.2640 H     1 <1>   0.0800 
 35 H        1.4450     3.2960     0.4640 H     1 <1>   0.0800 
 36 H        1.3290     2.5950    -1.1420 H     1 <1>   0.0800 
 37 H       -4.3460    -2.0730     1.1960 H     1 <1>   0.4500 
 38 H       -5.0100     0.7780    -1.2090 H     1 <1>   0.0800 
 39 H       -5.4990     1.8240     0.1010 H     1 <1>   0.0800 
 40 H        0.8590     5.5090     0.4950 H     1 <1>   0.1500 
 41 H       -3.9450     5.8360    -0.6310 H     1 <1>   0.1500 
 42 H       -6.6390    -1.8380     1.2200 H     1 <1>   0.0800 
 43 H       -0.3070     7.6760     0.6330 H     1 <1>   0.1500 
 44 H       -2.6830     7.8450     0.0790 H     1 <1>   0.1500 
 45 H       -6.0550    -3.5520    -1.2060 H     1 <1>   0.1000 
 46 H       -7.9670    -1.2360    -0.7020 H     1 <1>   0.0800 
 47 H       -6.5570    -1.1070    -1.7230 H     1 <1>   0.0800 
 48 H       -7.9810    -3.9090     1.1750 H     1 <1>   0.1000 
 49 H       -7.7950    -5.0080    -0.2210 H     1 <1>   0.1000 
 50 H       -5.3960    -5.3950     0.4040 H     1 <1>   0.1000 
 51 H       -5.5970    -4.3050     1.8060 H     1 <1>   0.1000 
@<TRIPOS>BOND
  1   1   2  2   
  2   2   3  am  
  3   2   4  1   
  4   3   5  1   
  5   3   6  1   
  6   4   7  1   
  7   4   8  2   
  8   5   9  1   
  9   5  26  1   
 10   5  27  1   
 11   6  10  1   
 12   6  28  1   
 13   6  29  1   
 14   7  11  1   
 15   7  12  1   
 16   8  13  1   
 17   8  30  1   
 18   9  14  1   
 19   9  15  1   
 20   9  31  1   
 21  10  14  1   
 22  10  32  1   
 23  10  33  1   
 24  11  13  ar  
 25  11  16  ar  
 26  12  34  1   
 27  12  35  1   
 28  12  36  1   
 29  13  17  ar  
 30  14  18  1   
 31  14  37  1   
 32  15  19  1   
 33  15  38  1   
 34  15  39  1   
 35  16  20  ar  
 36  16  40  1   
 37  17  21  ar  
 38  17  41  1   
 39  18  22  1   
 40  18  23  1   
 41  18  42  1   
 42  19  23  1   
 43  20  21  ar  
 44  20  43  1   
 45  21  44  1   
 46  22  24  1   
 47  22  25  1   
 48  22  45  1   
 49  23  46  1   
 50  23  47  1   
 51  24  25  1   
 52  24  48  1   
 53  24  49  1   
 54  25  50  1   
 55  25  51  1   
@<TRIPOS>SUBSTRUCTURE
  1 ****   5 GROUP 4 **** **** 0

# MOE 2024.06 (io_trps.svl 2023.06)
