@<TRIPOS>MOLECULE
NONAME
45 47 1 0 0 
SMALL
USER_CHARGES


@<TRIPOS>ATOM
  1 O       -0.4800     0.2490     0.5680 O.2   1 <1>  -0.5700 
  2 C       -1.4960     0.8840     0.3430 C.2   1 <1>   0.7150 
  3 N       -2.6780     0.1730     0.2560 N.am  1 <1>  -0.6600 
  4 C       -1.4150     2.3220     0.1710 C.2   1 <1>   0.0550 
  5 C       -4.0010     0.7080    -0.1660 C.3   1 <1>   0.1400 
  6 C       -2.7110    -1.3140     0.2560 C.3   1 <1>   0.1400 
  7 O       -2.4430     3.1140     0.4530 O.3   1 <1>  -0.2800 
  8 C       -0.3880     3.0950    -0.2480 C.2   1 <1>   0.0460 
  9 C       -4.9630    -0.4690    -0.0050 C.3   1 <1>   0.2000 
 10 C       -4.0880    -1.6880    -0.3000 C.3   1 <1>  -0.0800 
 11 C       -1.9610     4.3110     0.1850 C.2   1 <1>   0.2980 
 12 N       -0.7530     4.3700    -0.2380 N.2   1 <1>  -0.5650 
 13 C        1.0130     2.7310    -0.6970 C.3   1 <1>  -0.0590 
 14 O       -5.3780    -0.5020     1.3180 O.3   1 <1>  -0.6800 
 15 C       -4.6230    -3.0350     0.2200 C.3   1 <1>   0.0210 
 16 C       -2.8930     5.4930     0.4070 C.3   1 <1>   0.0200 
 17 C       -3.6620    -4.1620    -0.1090 C.2   1 <1>   0.1080 
 18 C       -2.2690     6.8530     0.0590 C.3   1 <1>  -0.2400 
 19 N       -3.3040    -4.4510    -1.3220 N.2   1 <1>  -0.7070 
 20 C       -3.0570    -4.9900     0.8290 C.2   1 <1>  -0.1500 
 21 N       -2.4530    -5.4860    -1.1870 N.pl3 1 <1>   0.3000 
 22 C       -2.2860    -5.8290     0.1070 C.2   1 <1>  -0.3320 
 23 C       -1.3850    -6.9560     0.5800 C.3   1 <1>  -0.0600 
 24 H       -4.3150     1.5420     0.4360 H     1 <1>   0.0800 
 25 H       -3.9470     1.0040    -1.1990 H     1 <1>   0.0800 
 26 H       -1.9230    -1.7220    -0.3560 H     1 <1>   0.0800 
 27 H       -2.5920    -1.6680     1.2660 H     1 <1>   0.0800 
 28 H       -5.8310    -0.4000    -0.6380 H     1 <1>   0.0800 
 29 H       -3.9860    -1.7650    -1.3690 H     1 <1>   0.0800 
 30 H        1.1500     1.6660    -0.7340 H     1 <1>   0.0800 
 31 H        1.7280     3.1490    -0.0130 H     1 <1>   0.0800 
 32 H        1.1930     3.1350    -1.6760 H     1 <1>   0.0800 
 33 H       -4.5930    -0.3980     1.8930 H     1 <1>   0.4000 
 34 H       -5.5710    -3.2470    -0.2400 H     1 <1>   0.0800 
 35 H       -4.7700    -3.0010     1.2840 H     1 <1>   0.0800 
 36 H       -3.7730     5.3460    -0.1930 H     1 <1>   0.0800 
 37 H       -3.1920     5.4960     1.4390 H     1 <1>   0.0800 
 38 H       -1.9770     6.8720    -0.9760 H     1 <1>   0.0800 
 39 H       -1.3950     7.0230     0.6640 H     1 <1>   0.0800 
 40 H       -2.9740     7.6440     0.2370 H     1 <1>   0.0800 
 41 H       -3.1930    -4.9480     1.8950 H     1 <1>   0.1500 
 42 H       -2.0050    -5.9330    -1.9960 H     1 <1>   0.2700 
 43 H       -1.4220    -7.0320     1.6530 H     1 <1>   0.0800 
 44 H       -0.3680    -6.7690     0.2850 H     1 <1>   0.0800 
 45 H       -1.7080    -7.8920     0.1600 H     1 <1>   0.0800 
@<TRIPOS>BOND
  1   1   2  2   
  2   2   3  am  
  3   2   4  1   
  4   3   5  1   
  5   3   6  1   
  6   4   7  1   
  7   4   8  2   
  8   5   9  1   
  9   5  24  1   
 10   5  25  1   
 11   6  10  1   
 12   6  26  1   
 13   6  27  1   
 14   7  11  1   
 15   8  12  1   
 16   8  13  1   
 17   9  10  1   
 18   9  14  1   
 19   9  28  1   
 20  10  15  1   
 21  10  29  1   
 22  11  12  2   
 23  11  16  1   
 24  13  30  1   
 25  13  31  1   
 26  13  32  1   
 27  14  33  1   
 28  15  17  1   
 29  15  34  1   
 30  15  35  1   
 31  16  18  1   
 32  16  36  1   
 33  16  37  1   
 34  17  19  2   
 35  17  20  1   
 36  18  38  1   
 37  18  39  1   
 38  18  40  1   
 39  19  21  1   
 40  20  22  2   
 41  20  41  1   
 42  21  22  1   
 43  21  42  1   
 44  22  23  1   
 45  23  43  1   
 46  23  44  1   
 47  23  45  1   
@<TRIPOS>SUBSTRUCTURE
  1 ****   3 GROUP 4 **** **** 0

# MOE 2024.06 (io_trps.svl 2023.06)
