@<TRIPOS>MOLECULE
NONAME
60 63 1 0 0 
SMALL
USER_CHARGES


@<TRIPOS>ATOM
  1 O       -0.0400     0.2860     0.6150 O.3   1 <1>  -0.5600 
  2 C        0.4370     0.6830    -0.6250 C.3   1 <1>   0.1200 
  3 C       -1.4360     0.2440     0.5570 C.3   1 <1>   0.1200 
  4 C       -0.4870     1.8500    -0.9610 C.3   1 <1>   0.4230 
  5 C       -1.8230     1.2010    -0.5860 C.3   1 <1>  -0.0800 
  6 N       -0.1860     2.9670    -0.0110 N.4   1 <1>  -0.9060 
  7 C       -3.0080     2.1320    -0.2550 C.3   1 <1>  -0.0170 
  8 C        0.7250     4.0530    -0.4610 C.3   1 <1>   0.4230 
  9 C       -4.2670     1.3170    -0.0170 C.ar  1 <1>  -0.1430 
 10 C        2.1590     3.5520    -0.6600 C.3   1 <1>  -0.1600 
 11 C        0.6950     5.1610     0.5940 C.3   1 <1>  -0.1600 
 12 C       -5.0240     0.8280    -1.0640 C.ar  1 <1>  -0.1500 
 13 C       -4.7220     1.0210     1.2540 C.ar  1 <1>  -0.1500 
 14 C        3.1200     4.7010    -0.9760 C.3   1 <1>   0.3430 
 15 C        1.6670     6.2930     0.2540 C.3   1 <1>   0.3430 
 16 C       -6.1600     0.0820    -0.7980 C.ar  1 <1>   0.1600 
 17 C       -5.8730     0.2650     1.4100 C.ar  1 <1>   0.1600 
 18 N        3.0460     5.7450     0.0850 N.4   1 <1>  -0.9590 
 19 N       -6.5980    -0.2130     0.4140 N.ar  1 <1>  -0.6200 
 20 C        4.0360     6.8340    -0.2260 C.3   1 <1>   0.3430 
 21 C        4.2790     7.7640     0.9660 C.3   1 <1>  -0.0170 
 22 C        5.3640     8.7490     0.5800 C.ar  1 <1>  -0.1430 
 23 C        6.6970     8.4480     0.8170 C.ar  1 <1>  -0.1500 
 24 C        5.0340     9.9530    -0.0240 C.ar  1 <1>  -0.1500 
 25 C        7.6890     9.3380     0.4450 C.ar  1 <1>  -0.1500 
 26 C        6.0270    10.8420    -0.3950 C.ar  1 <1>  -0.1500 
 27 C        7.3550    10.5340    -0.1630 C.ar  1 <1>  -0.1500 
 28 H        1.4780     0.9340    -0.5470 H     1 <1>   0.0800 
 29 H        0.3150    -0.1360    -1.3170 H     1 <1>   0.0800 
 30 H       -1.7470    -0.7680     0.3510 H     1 <1>   0.0800 
 31 H       -1.8230     0.5500     1.5140 H     1 <1>   0.0800 
 32 H       -0.4450     2.1590    -1.9930 H     1 <1>   0.0800 
 33 H       -2.1240     0.5840    -1.4170 H     1 <1>   0.0800 
 34 H       -1.0810     3.3720     0.2770 H     1 <1>   0.4500 
 35 H        0.1770     2.4840     0.8300 H     1 <1>   0.4500 
 36 H       -3.1870     2.8060    -1.0760 H     1 <1>   0.0800 
 37 H       -2.8130     2.7190     0.6240 H     1 <1>   0.0800 
 38 H        0.3610     4.4560    -1.3950 H     1 <1>   0.0800 
 39 H        2.5100     3.0400     0.2200 H     1 <1>   0.0800 
 40 H        2.1970     2.8690    -1.4890 H     1 <1>   0.0800 
 41 H       -0.2950     5.5800     0.6510 H     1 <1>   0.0800 
 42 H        0.9490     4.7700     1.5640 H     1 <1>   0.0800 
 43 H       -4.7520     1.0150    -2.0860 H     1 <1>   0.1500 
 44 H       -4.2050     1.3650     2.1300 H     1 <1>   0.1500 
 45 H        2.8660     5.1370    -1.9310 H     1 <1>   0.0800 
 46 H        4.1280     4.3190    -1.0450 H     1 <1>   0.0800 
 47 H        1.6530     7.0240     1.0480 H     1 <1>   0.0800 
 48 H        1.3560     6.7840    -0.6550 H     1 <1>   0.0800 
 49 H       -6.7400    -0.2930    -1.6250 H     1 <1>   0.1500 
 50 H       -6.2150     0.0420     2.4070 H     1 <1>   0.1500 
 51 H        3.3530     5.3260     0.9770 H     1 <1>   0.4500 
 52 H        4.9830     6.3940    -0.4980 H     1 <1>   0.0800 
 53 H        3.6980     7.4190    -1.0660 H     1 <1>   0.0800 
 54 H        3.3890     8.3080     1.2240 H     1 <1>   0.0800 
 55 H        4.6030     7.2000     1.8240 H     1 <1>   0.0800 
 56 H        6.9820     7.5260     1.2930 H     1 <1>   0.1500 
 57 H        4.0080    10.2170    -0.2110 H     1 <1>   0.1500 
 58 H        8.7240     9.1030     0.6300 H     1 <1>   0.1500 
 59 H        5.7690    11.7770    -0.8640 H     1 <1>   0.1500 
 60 H        8.1270    11.2270    -0.4510 H     1 <1>   0.1500 
@<TRIPOS>BOND
  1   1   2  1   
  2   1   3  1   
  3   2   4  1   
  4   2  28  1   
  5   2  29  1   
  6   3   5  1   
  7   3  30  1   
  8   3  31  1   
  9   4   5  1   
 10   4   6  1   
 11   4  32  1   
 12   5   7  1   
 13   5  33  1   
 14   6   8  1   
 15   6  34  1   
 16   6  35  1   
 17   7   9  1   
 18   7  36  1   
 19   7  37  1   
 20   8  10  1   
 21   8  11  1   
 22   8  38  1   
 23   9  12  ar  
 24   9  13  ar  
 25  10  14  1   
 26  10  39  1   
 27  10  40  1   
 28  11  15  1   
 29  11  41  1   
 30  11  42  1   
 31  12  16  ar  
 32  12  43  1   
 33  13  17  ar  
 34  13  44  1   
 35  14  18  1   
 36  14  45  1   
 37  14  46  1   
 38  15  18  1   
 39  15  47  1   
 40  15  48  1   
 41  16  19  ar  
 42  16  49  1   
 43  17  19  ar  
 44  17  50  1   
 45  18  20  1   
 46  18  51  1   
 47  20  21  1   
 48  20  52  1   
 49  20  53  1   
 50  21  22  1   
 51  21  54  1   
 52  21  55  1   
 53  22  23  ar  
 54  22  24  ar  
 55  23  25  ar  
 56  23  56  1   
 57  24  26  ar  
 58  24  57  1   
 59  25  27  ar  
 60  25  58  1   
 61  26  27  ar  
 62  26  59  1   
 63  27  60  1   
@<TRIPOS>SUBSTRUCTURE
  1 ****   8 GROUP 4 **** **** 0

# MOE 2024.06 (io_trps.svl 2023.06)
