@<TRIPOS>MOLECULE
NONAME
48 50 1 0 0 
SMALL
USER_CHARGES


@<TRIPOS>ATOM
  1 O        3.2190    -0.4370    -1.3210 O.2   1 <1>  -0.5700 
  2 C        2.3280    -0.9320    -0.6720 C.2   1 <1>   0.5690 
  3 N        1.5440    -0.2350     0.1900 N.am  1 <1>  -0.4930 
  4 C        2.0420    -2.4280    -0.8060 C.3   1 <1>   0.1710 
  5 C        1.5210     1.1170     0.5200 C.2   1 <1>   0.3520 
  6 N        0.6570    -2.8090    -0.4060 N.3   1 <1>  -0.8100 
  7 N        0.6250     1.6110     1.3010 N.2   1 <1>  -0.4100 
  8 C        2.4030     2.1100     0.0920 C.2   1 <1>  -0.1500 
  9 C        0.4970    -4.2660    -0.2260 C.3   1 <1>   0.1100 
 10 C       -0.3580    -2.3760    -1.3730 C.3   1 <1>   0.1100 
 11 O        0.8930     2.8890     1.3960 O.3   1 <1>  -0.0190 
 12 C        1.9440     3.2170     0.6900 C.2   1 <1>  -0.0400 
 13 C       -0.7730    -4.6800    -0.9750 C.3   1 <1>   0.0630 
 14 C       -1.5010    -3.3530    -1.1720 C.3   1 <1>  -0.1600 
 15 C        2.4210     4.6540     0.6650 C.3   1 <1>  -0.0600 
 16 C       -1.5250    -5.8270    -0.2850 C.ar  1 <1>  -0.1430 
 17 C       -0.9440    -7.0970    -0.2530 C.ar  1 <1>   0.0830 
 18 C       -2.7700    -5.6490     0.3080 C.ar  1 <1>  -0.1500 
 19 O        0.2730    -7.2550    -0.8480 O.3   1 <1>  -0.3630 
 20 C       -1.6080    -8.1520     0.3700 C.ar  1 <1>  -0.1500 
 21 C       -3.4310    -6.6960     0.9280 C.ar  1 <1>   0.0830 
 22 C        0.9160    -8.5090    -0.9010 C.3   1 <1>   0.0400 
 23 C       -2.8440    -7.9550     0.9580 C.ar  1 <1>  -0.1500 
 24 O       -4.6410    -6.4120     1.4780 O.3   1 <1>  -0.3630 
 25 C       -5.3870    -7.4030     2.1470 C.3   1 <1>   0.0400 
 26 H        0.8040    -0.7970     0.6180 H     1 <1>   0.3700 
 27 H        2.7430    -2.9410    -0.1710 H     1 <1>   0.0800 
 28 H        2.2310    -2.7330    -1.8200 H     1 <1>   0.0800 
 29 H        3.2410     1.9720    -0.5640 H     1 <1>   0.1500 
 30 H        0.3880    -4.4770     0.8240 H     1 <1>   0.0800 
 31 H        1.3420    -4.8160    -0.6050 H     1 <1>   0.0800 
 32 H        0.0190    -2.4650    -2.3790 H     1 <1>   0.0800 
 33 H       -0.6650    -1.3600    -1.1910 H     1 <1>   0.0800 
 34 H       -0.4730    -5.0260    -1.9490 H     1 <1>   0.0800 
 35 H       -2.1750    -3.3740    -2.0090 H     1 <1>   0.0800 
 36 H       -2.0290    -3.0550    -0.2850 H     1 <1>   0.0800 
 37 H        3.2890     4.7450     0.0390 H     1 <1>   0.0800 
 38 H        2.6720     4.9700     1.6610 H     1 <1>   0.0800 
 39 H        1.6430     5.2890     0.2810 H     1 <1>   0.0800 
 40 H       -3.2650    -4.6990     0.3070 H     1 <1>   0.1500 
 41 H       -1.1820    -9.1350     0.4090 H     1 <1>   0.1500 
 42 H        1.8430    -8.3860    -1.4310 H     1 <1>   0.0800 
 43 H        0.2840    -9.2030    -1.4270 H     1 <1>   0.0800 
 44 H        1.1110    -8.8450     0.1020 H     1 <1>   0.0800 
 45 H       -3.3290    -8.7870     1.4300 H     1 <1>   0.1500 
 46 H       -6.2960    -6.9530     2.5020 H     1 <1>   0.0800 
 47 H       -4.8130    -7.7710     2.9790 H     1 <1>   0.0800 
 48 H       -5.6160    -8.1940     1.4550 H     1 <1>   0.0800 
@<TRIPOS>BOND
  1   1   2  2   
  2   2   3  am  
  3   2   4  1   
  4   3   5  1   
  5   3  26  1   
  6   4   6  1   
  7   4  27  1   
  8   4  28  1   
  9   5   7  2   
 10   5   8  1   
 11   6   9  1   
 12   6  10  1   
 13   7  11  1   
 14   8  12  2   
 15   8  29  1   
 16   9  13  1   
 17   9  30  1   
 18   9  31  1   
 19  10  14  1   
 20  10  32  1   
 21  10  33  1   
 22  11  12  1   
 23  12  15  1   
 24  13  14  1   
 25  13  16  1   
 26  13  34  1   
 27  14  35  1   
 28  14  36  1   
 29  15  37  1   
 30  15  38  1   
 31  15  39  1   
 32  16  17  ar  
 33  16  18  ar  
 34  17  19  1   
 35  17  20  ar  
 36  18  21  ar  
 37  18  40  1   
 38  19  22  1   
 39  20  23  ar  
 40  20  41  1   
 41  21  23  ar  
 42  21  24  1   
 43  22  42  1   
 44  22  43  1   
 45  22  44  1   
 46  23  45  1   
 47  24  25  1   
 48  25  46  1   
 49  25  47  1   
 50  25  48  1   
@<TRIPOS>SUBSTRUCTURE
  1 ****   6 GROUP 4 **** **** 0

# MOE 2024.06 (io_trps.svl 2023.06)
