@<TRIPOS>MOLECULE
NONAME
51 55 1 0 0 
SMALL
USER_CHARGES


@<TRIPOS>ATOM
  1 O        1.7250    -0.3990    -3.1390 O.2   1 <1>  -0.5700 
  2 C        1.4350    -0.9280    -2.0780 C.2   1 <1>   0.5440 
  3 N        0.9360    -0.0980    -1.0860 N.am  1 <1>  -0.6600 
  4 C        1.6580    -2.3700    -1.9260 C.ar  1 <1>   0.3960 
  5 C        0.5810    -0.4960     0.2960 C.3   1 <1>   0.1400 
  6 C        0.8330     1.3690    -1.2500 C.3   1 <1>   0.1400 
  7 N        0.9460    -3.1040    -1.0530 N.ar  1 <1>  -0.6200 
  8 C        2.6390    -2.9610    -2.7310 C.ar  1 <1>   0.1600 
  9 C        0.1320     0.7910     0.9820 C.3   1 <1>  -0.1600 
 10 C        0.7710     1.9140     0.1710 C.3   1 <1>  -0.1600 
 11 C        1.2600    -4.3880    -1.0390 C.ar  1 <1>   0.4100 
 12 N        2.9810    -4.2430    -2.7270 N.ar  1 <1>  -0.6200 
 13 N        0.5410    -5.2000    -0.1730 N.pl3 1 <1>  -0.8380 
 14 C        2.2640    -4.9260    -1.8590 C.ar  1 <1>   0.1600 
 15 C       -0.3260    -6.2520    -0.7810 C.3   1 <1>   0.2090 
 16 C       -0.0370    -4.6120     1.0660 C.3   1 <1>   0.2090 
 17 C       -0.5370    -7.4020     0.2180 C.3   1 <1>   0.1000 
 18 C       -0.2690    -5.7220     2.0980 C.3   1 <1>  -0.1600 
 19 C       -1.4330    -8.4850    -0.3690 C.2   1 <1>   0.0070 
 20 C       -1.1300    -6.8640     1.5340 C.3   1 <1>  -0.1600 
 21 N       -2.2720    -8.3050    -1.3380 N.2   1 <1>  -0.3380 
 22 N       -1.4380    -9.7500     0.0680 N.pl3 1 <1>   0.3340 
 23 N       -2.8660    -9.4660    -1.5750 N.2   1 <1>  -0.3380 
 24 C       -2.3650   -10.3310    -0.7310 C.2   1 <1>   0.1410 
 25 C       -0.7670   -10.4810     1.0480 C.2   1 <1>  -0.1810 
 26 C       -2.6570   -11.7090    -0.5650 C.2   1 <1>  -0.1050 
 27 C       -1.0390   -11.8020     1.2150 C.2   1 <1>  -0.1500 
 28 C       -2.0070   -12.4330     0.3890 C.2   1 <1>  -0.1500 
 29 H        1.4490    -0.9050     0.7830 H     1 <1>   0.0800 
 30 H       -0.2140    -1.2230     0.2930 H     1 <1>   0.0800 
 31 H       -0.0740     1.5960    -1.7850 H     1 <1>   0.0800 
 32 H        1.6780     1.7620    -1.7900 H     1 <1>   0.0800 
 33 H        3.1750    -2.3300    -3.4180 H     1 <1>   0.1500 
 34 H        0.4250     0.8150     2.0170 H     1 <1>   0.0800 
 35 H       -0.9400     0.8630     0.9200 H     1 <1>   0.0800 
 36 H        0.2110     2.8310     0.2230 H     1 <1>   0.0800 
 37 H        1.7740     2.0930     0.5180 H     1 <1>   0.0800 
 38 H        2.4620    -5.9770    -1.7690 H     1 <1>   0.1500 
 39 H        0.1220    -6.6360    -1.6820 H     1 <1>   0.0800 
 40 H       -1.2760    -5.8160    -1.0430 H     1 <1>   0.0800 
 41 H       -0.9680    -4.1250     0.8270 H     1 <1>   0.0800 
 42 H        0.6370    -3.8760     1.4700 H     1 <1>   0.0800 
 43 H        0.4290    -7.8310     0.4150 H     1 <1>   0.0800 
 44 H       -0.7480    -5.3010     2.9650 H     1 <1>   0.0800 
 45 H        0.6880    -6.1040     2.4080 H     1 <1>   0.0800 
 46 H       -1.2010    -7.6550     2.2600 H     1 <1>   0.0800 
 47 H       -2.1250    -6.4980     1.3450 H     1 <1>   0.0800 
 48 H       -0.0460    -9.9490     1.6410 H     1 <1>   0.1500 
 49 H       -3.3970   -12.1420    -1.2140 H     1 <1>   0.1500 
 50 H       -0.5400   -12.3970     1.9620 H     1 <1>   0.1500 
 51 H       -2.2080   -13.4810     0.5370 H     1 <1>   0.1500 
@<TRIPOS>BOND
  1   1   2  2   
  2   2   3  am  
  3   2   4  1   
  4   3   5  1   
  5   3   6  1   
  6   4   7  ar  
  7   4   8  ar  
  8   5   9  1   
  9   5  29  1   
 10   5  30  1   
 11   6  10  1   
 12   6  31  1   
 13   6  32  1   
 14   7  11  ar  
 15   8  12  ar  
 16   8  33  1   
 17   9  10  1   
 18   9  34  1   
 19   9  35  1   
 20  10  36  1   
 21  10  37  1   
 22  11  13  1   
 23  11  14  ar  
 24  12  14  ar  
 25  13  15  1   
 26  13  16  1   
 27  14  38  1   
 28  15  17  1   
 29  15  39  1   
 30  15  40  1   
 31  16  18  1   
 32  16  41  1   
 33  16  42  1   
 34  17  19  1   
 35  17  20  1   
 36  17  43  1   
 37  18  20  1   
 38  18  44  1   
 39  18  45  1   
 40  19  21  2   
 41  19  22  1   
 42  20  46  1   
 43  20  47  1   
 44  21  23  1   
 45  22  24  1   
 46  22  25  1   
 47  23  24  2   
 48  24  26  1   
 49  25  27  2   
 50  25  48  1   
 51  26  28  2   
 52  26  49  1   
 53  27  28  1   
 54  27  50  1   
 55  28  51  1   
@<TRIPOS>SUBSTRUCTURE
  1 ****  13 GROUP 4 **** **** 0

# MOE 2024.06 (io_trps.svl 2023.06)
