@<TRIPOS>MOLECULE
NONAME
51 54 1 0 0 
SMALL
USER_CHARGES


@<TRIPOS>ATOM
  1 S       -0.7450     0.9230    -1.3180 S.3   1 <1>  -0.0800 
  2 C       -1.8420    -0.2210    -0.5690 C.2   1 <1>  -0.0450 
  3 C        0.3320    -0.3810    -1.7360 C.2   1 <1>   0.1980 
  4 C       -1.2860    -1.4490    -0.7170 C.2   1 <1>   0.0460 
  5 C       -3.0710     0.2560     0.0190 C.2   1 <1>   0.7150 
  6 N       -0.0700    -1.5270    -1.3650 N.2   1 <1>  -0.5650 
  7 C        1.6000    -0.0320    -2.4770 C.3   1 <1>  -0.0600 
  8 C       -1.8530    -2.7720    -0.2420 C.3   1 <1>  -0.0590 
  9 O       -4.0370    -0.4810     0.0800 O.2   1 <1>  -0.5700 
 10 N       -3.1560     1.5150     0.5720 N.am  1 <1>  -0.6600 
 11 C       -4.4570     2.2770     0.6390 C.3   1 <1>   0.2200 
 12 C       -2.1400     1.8670     1.6120 C.3   1 <1>   0.1400 
 13 C       -4.2880     3.8060     0.9040 C.3   1 <1>   0.1380 
 14 C       -5.3980     2.0650    -0.5630 C.3   1 <1>  -0.1600 
 15 C       -2.7020     2.8050     2.6850 C.3   1 <1>  -0.1600 
 16 C       -3.8130     4.6210    -0.3420 C.2   1 <1>  -0.2760 
 17 C       -5.7120     4.2420     1.3680 C.3   1 <1>   0.1200 
 18 C       -3.2840     4.0830     2.0610 C.3   1 <1>  -0.1600 
 19 C       -6.5110     3.1250    -0.6020 C.3   1 <1>   0.1200 
 20 C       -4.3860     5.7330    -0.8320 C.2   1 <1>  -0.2880 
 21 C       -2.5740     4.0940    -1.0710 C.3   1 <1>  -0.0220 
 22 O       -6.7700     3.6000     0.6880 O.3   1 <1>  -0.5600 
 23 C       -3.9080     6.4730    -2.0760 C.3   1 <1>   0.2580 
 24 C       -1.9950     5.1250    -2.0480 C.3   1 <1>   0.1200 
 25 O       -3.0210     5.6810    -2.8070 O.3   1 <1>  -0.5600 
 26 H        2.1630    -0.9270    -2.6700 H     1 <1>   0.0800 
 27 H        2.1970     0.6360    -1.8850 H     1 <1>   0.0800 
 28 H        1.3580     0.4370    -3.4120 H     1 <1>   0.0800 
 29 H       -2.7620    -2.6380     0.3120 H     1 <1>   0.0800 
 30 H       -1.1360    -3.2650     0.3890 H     1 <1>   0.0800 
 31 H       -2.0540    -3.4000    -1.0900 H     1 <1>   0.0800 
 32 H       -4.9820     1.8730     1.4890 H     1 <1>   0.0800 
 33 H       -1.7880     0.9650     2.0850 H     1 <1>   0.0800 
 34 H       -1.2960     2.3350     1.1380 H     1 <1>   0.0800 
 35 H       -5.8680     1.1020    -0.4860 H     1 <1>   0.0800 
 36 H       -4.8570     2.0990    -1.4890 H     1 <1>   0.0800 
 37 H       -3.4570     2.2870     3.2510 H     1 <1>   0.0800 
 38 H       -1.9150     3.0690     3.3700 H     1 <1>   0.0800 
 39 H       -5.8570     5.3020     1.3050 H     1 <1>   0.0800 
 40 H       -5.8400     3.9740     2.4020 H     1 <1>   0.0800 
 41 H       -2.4650     4.6760     1.6940 H     1 <1>   0.0800 
 42 H       -3.7460     4.6700     2.8350 H     1 <1>   0.0800 
 43 H       -7.4210     2.7000    -0.9870 H     1 <1>   0.0800 
 44 H       -6.2390     3.9580    -1.2240 H     1 <1>   0.0800 
 45 H       -5.2450     6.2210    -0.4130 H     1 <1>   0.1500 
 46 H       -2.8210     3.2050    -1.6210 H     1 <1>   0.0800 
 47 H       -1.7980     3.8470    -0.3750 H     1 <1>   0.0800 
 48 H       -3.4130     7.3910    -1.8110 H     1 <1>   0.0800 
 49 H       -4.7400     6.6950    -2.7210 H     1 <1>   0.0800 
 50 H       -1.2990     4.6560    -2.7220 H     1 <1>   0.0800 
 51 H       -1.4950     5.9170    -1.5180 H     1 <1>   0.0800 
@<TRIPOS>BOND
  1   1   2  1   
  2   1   3  1   
  3   2   4  2   
  4   2   5  1   
  5   3   6  2   
  6   3   7  1   
  7   4   6  1   
  8   4   8  1   
  9   5   9  2   
 10   5  10  am  
 11   7  26  1   
 12   7  27  1   
 13   7  28  1   
 14   8  29  1   
 15   8  30  1   
 16   8  31  1   
 17  10  11  1   
 18  10  12  1   
 19  11  13  1   
 20  11  14  1   
 21  11  32  1   
 22  12  15  1   
 23  12  33  1   
 24  12  34  1   
 25  13  16  1   
 26  13  17  1   
 27  13  18  1   
 28  14  19  1   
 29  14  35  1   
 30  14  36  1   
 31  15  18  1   
 32  15  37  1   
 33  15  38  1   
 34  16  20  2   
 35  16  21  1   
 36  17  22  1   
 37  17  39  1   
 38  17  40  1   
 39  18  41  1   
 40  18  42  1   
 41  19  22  1   
 42  19  43  1   
 43  19  44  1   
 44  20  23  1   
 45  20  45  1   
 46  21  24  1   
 47  21  46  1   
 48  21  47  1   
 49  23  25  1   
 50  23  48  1   
 51  23  49  1   
 52  24  25  1   
 53  24  50  1   
 54  24  51  1   
@<TRIPOS>SUBSTRUCTURE
  1 ****  10 GROUP 4 **** **** 0

# MOE 2024.06 (io_trps.svl 2023.06)
