@<TRIPOS>MOLECULE
NONAME
53 55 1 0 0 
SMALL
USER_CHARGES


@<TRIPOS>ATOM
  1 S        0.7630     0.1970    -0.8800 S.o2  1 <1>   1.3330 
  2 O        0.2000     0.1450    -2.2070 O.2   1 <1>  -0.6500 
  3 O        2.1800     0.4370    -0.7150 O.2   1 <1>  -0.6500 
  4 N        0.3110    -1.1810    -0.0060 N.am  1 <1>  -0.8490 
  5 C       -0.0540     1.5300    -0.0050 C.3   1 <1>  -0.0550 
  6 C        1.3600    -2.2080     0.0080 C.3   1 <1>   0.1160 
  7 C       -0.9520    -1.7740    -0.4620 C.3   1 <1>   0.1160 
  8 C        0.1760     2.9000    -0.6830 C.3   1 <1>  -0.0800 
  9 C       -0.4430     4.1020     0.0310 C.3   1 <1>   0.2000 
 10 C        1.6640     3.2640    -0.8380 C.3   1 <1>   0.3430 
 11 O       -0.2130     3.9990     1.4010 O.3   1 <1>  -0.6800 
 12 C        0.3860     5.2680    -0.5140 C.3   1 <1>   0.3430 
 13 N        1.7820     4.7400    -0.6420 N.4   1 <1>  -0.9590 
 14 C        2.5840     5.0330     0.5770 C.3   1 <1>   0.5240 
 15 C        2.7400     6.5320     0.6900 C.2   1 <1>  -0.1810 
 16 C        2.0990     7.3300     1.6290 C.2   1 <1>   0.1390 
 17 C        3.4700     7.3970    -0.0480 C.2   1 <1>  -0.3020 
 18 N        2.3880     8.5800     1.4780 N.2   1 <1>  -0.7070 
 19 N        3.2620     8.6450     0.4430 N.pl3 1 <1>   0.5930 
 20 C        3.7920     9.8570    -0.0780 C.ar  1 <1>  -0.0230 
 21 C        5.1640    10.1300    -0.0770 C.ar  1 <1>  -0.1440 
 22 C        2.9180    10.7970    -0.6180 C.ar  1 <1>  -0.1500 
 23 C        5.6280    11.3120    -0.6350 C.ar  1 <1>  -0.1500 
 24 C        6.1730     9.1680     0.5370 C.3   1 <1>  -0.0970 
 25 C        3.3900    11.9740    -1.1680 C.ar  1 <1>  -0.1500 
 26 C        4.7480    12.2290    -1.1800 C.ar  1 <1>  -0.1500 
 27 H       -1.1070     1.3290     0.0350 H     1 <1>   0.0800 
 28 H        0.3160     1.5480     1.0020 H     1 <1>   0.0800 
 29 H        1.0460    -3.0560     0.5920 H     1 <1>   0.0800 
 30 H        2.2600    -1.8130     0.4490 H     1 <1>   0.0800 
 31 H        1.5810    -2.5330    -0.9960 H     1 <1>   0.0800 
 32 H       -1.2320    -2.5920     0.1810 H     1 <1>   0.0800 
 33 H       -0.8550    -2.1400    -1.4710 H     1 <1>   0.0800 
 34 H       -1.7390    -1.0400    -0.4370 H     1 <1>   0.0800 
 35 H       -0.2400     2.8520    -1.6760 H     1 <1>   0.0800 
 36 H       -1.4990     4.2260    -0.1450 H     1 <1>   0.0800 
 37 H        2.0220     2.9700    -1.8120 H     1 <1>   0.0800 
 38 H        2.2450     2.7450    -0.0920 H     1 <1>   0.0800 
 39 H       -0.9530     3.5380     1.8530 H     1 <1>   0.4000 
 40 H        0.3230     6.1290     0.1310 H     1 <1>   0.0800 
 41 H        0.0140     5.5350    -1.4890 H     1 <1>   0.0800 
 42 H        2.2590     5.1910    -1.4330 H     1 <1>   0.4500 
 43 H        2.0930     4.6440     1.4550 H     1 <1>   0.0800 
 44 H        3.5580     4.5770     0.4990 H     1 <1>   0.0800 
 45 H        1.4300     6.9720     2.3970 H     1 <1>   0.1500 
 46 H        4.1220     7.2330    -0.8860 H     1 <1>   0.1500 
 47 H        1.8590    10.6070    -0.6030 H     1 <1>   0.1500 
 48 H        6.6810    11.5310    -0.6450 H     1 <1>   0.1500 
 49 H        7.1250     9.6500     0.6750 H     1 <1>   0.0800 
 50 H        6.3140     8.3170    -0.1040 H     1 <1>   0.0800 
 51 H        5.8320     8.8320     1.5010 H     1 <1>   0.0800 
 52 H        2.7030    12.6910    -1.5840 H     1 <1>   0.1500 
 53 H        5.1200    13.1440    -1.6090 H     1 <1>   0.1500 
@<TRIPOS>BOND
  1   1   2  2   
  2   1   3  2   
  3   1   4  am  
  4   1   5  1   
  5   4   6  1   
  6   4   7  1   
  7   5   8  1   
  8   5  27  1   
  9   5  28  1   
 10   6  29  1   
 11   6  30  1   
 12   6  31  1   
 13   7  32  1   
 14   7  33  1   
 15   7  34  1   
 16   8   9  1   
 17   8  10  1   
 18   8  35  1   
 19   9  11  1   
 20   9  12  1   
 21   9  36  1   
 22  10  13  1   
 23  10  37  1   
 24  10  38  1   
 25  11  39  1   
 26  12  13  1   
 27  12  40  1   
 28  12  41  1   
 29  13  14  1   
 30  13  42  1   
 31  14  15  1   
 32  14  43  1   
 33  14  44  1   
 34  15  16  1   
 35  15  17  2   
 36  16  18  2   
 37  16  45  1   
 38  17  19  1   
 39  17  46  1   
 40  18  19  1   
 41  19  20  1   
 42  20  21  ar  
 43  20  22  ar  
 44  21  23  ar  
 45  21  24  1   
 46  22  25  ar  
 47  22  47  1   
 48  23  26  ar  
 49  23  48  1   
 50  24  49  1   
 51  24  50  1   
 52  24  51  1   
 53  25  26  ar  
 54  25  52  1   
 55  26  53  1   
@<TRIPOS>SUBSTRUCTURE
  1 ****  13 GROUP 4 **** **** 0

# MOE 2024.06 (io_trps.svl 2023.06)
