@<TRIPOS>MOLECULE
NONAME
48 51 1 0 0 
SMALL
USER_CHARGES


@<TRIPOS>ATOM
  1 CL      -1.4220    -0.9300     1.2820 Cl    1 <1>  -0.1770 
  2 C       -2.3390     0.3820     0.5820 C.ar  1 <1>   0.1770 
  3 C       -3.3260     0.1050    -0.3420 C.ar  1 <1>  -0.1440 
  4 C       -2.0760     1.6880     0.9700 C.ar  1 <1>   0.1600 
  5 C       -4.0010     1.2080    -0.8240 C.ar  1 <1>   0.1770 
  6 C       -3.6380    -1.3050    -0.8000 C.3   1 <1>   0.4860 
  7 N       -2.7290     2.7460     0.5060 N.ar  1 <1>  -0.6200 
  8 CL      -5.2810     0.9980    -1.9930 Cl    1 <1>  -0.1770 
  9 C       -3.6790     2.4840    -0.3850 C.ar  1 <1>   0.1600 
 10 N       -4.2920    -2.0590     0.3020 N.4   1 <1>  -0.9590 
 11 C       -5.6120    -1.4690     0.6850 C.3   1 <1>   0.3430 
 12 C       -4.5380    -3.4760    -0.0780 C.3   1 <1>   0.3430 
 13 C       -6.5840    -2.6310     0.8780 C.3   1 <1>  -0.0800 
 14 C       -5.7380    -3.9100     0.7520 C.3   1 <1>  -0.0800 
 15 C       -7.7360    -2.5430    -0.1460 C.3   1 <1>   0.4240 
 16 C       -6.4860    -5.1090     0.1290 C.3   1 <1>  -0.1600 
 17 O       -7.1590    -2.5700    -1.4070 O.3   1 <1>  -0.6800 
 18 C       -8.5000    -1.2150     0.0200 C.ar  1 <1>  -0.1430 
 19 C       -8.6630    -3.7790    -0.0530 C.3   1 <1>  -0.1600 
 20 C       -7.9800    -5.0640     0.4670 C.3   1 <1>  -0.1600 
 21 C       -8.5030    -0.2150    -0.9530 C.ar  1 <1>  -0.1500 
 22 C       -9.2030    -0.9770     1.1980 C.ar  1 <1>  -0.1500 
 23 C       -9.1810     0.9740    -0.7510 C.ar  1 <1>  -0.1500 
 24 C       -9.8820     0.2110     1.4010 C.ar  1 <1>  -0.1500 
 25 C       -9.8710     1.1900     0.4260 C.ar  1 <1>  -0.1500 
 26 H       -1.2970     1.8670     1.6920 H     1 <1>   0.1500 
 27 H       -2.7220    -1.7970    -1.0840 H     1 <1>   0.0800 
 28 H       -4.2890    -1.2840    -1.6600 H     1 <1>   0.0800 
 29 H       -4.2280     3.3220    -0.7830 H     1 <1>   0.1500 
 30 H       -3.6730    -2.0450     1.1240 H     1 <1>   0.4500 
 31 H       -5.5220    -0.8950     1.5930 H     1 <1>   0.0800 
 32 H       -5.9770    -0.8230    -0.0970 H     1 <1>   0.0800 
 33 H       -4.8050    -3.5280    -1.1220 H     1 <1>   0.0800 
 34 H       -3.6780    -4.0990     0.1050 H     1 <1>   0.0800 
 35 H       -7.0050    -2.5800     1.8650 H     1 <1>   0.0800 
 36 H       -5.3920    -4.1890     1.7330 H     1 <1>   0.0800 
 37 H       -6.3840    -5.1020    -0.9440 H     1 <1>   0.0800 
 38 H       -6.0590    -6.0310     0.4860 H     1 <1>   0.0800 
 39 H       -7.8830    -2.5360    -2.0640 H     1 <1>   0.4000 
 40 H       -9.4850    -3.5710     0.6070 H     1 <1>   0.0800 
 41 H       -9.1000    -3.9680    -1.0180 H     1 <1>   0.0800 
 42 H       -8.0930    -5.1160     1.5370 H     1 <1>   0.0800 
 43 H       -8.4760    -5.9260     0.0520 H     1 <1>   0.0800 
 44 H       -7.9790    -0.3300    -1.8850 H     1 <1>   0.1500 
 45 H       -9.2350    -1.7150     1.9800 H     1 <1>   0.1500 
 46 H       -9.1740     1.7350    -1.5140 H     1 <1>   0.1500 
 47 H      -10.4220     0.3760     2.3170 H     1 <1>   0.1500 
 48 H      -10.4010     2.1140     0.5810 H     1 <1>   0.1500 
@<TRIPOS>BOND
  1   1   2  1   
  2   2   3  ar  
  3   2   4  ar  
  4   3   5  ar  
  5   3   6  1   
  6   4   7  ar  
  7   4  26  1   
  8   5   8  1   
  9   5   9  ar  
 10   6  10  1   
 11   6  27  1   
 12   6  28  1   
 13   7   9  ar  
 14   9  29  1   
 15  10  11  1   
 16  10  12  1   
 17  10  30  1   
 18  11  13  1   
 19  11  31  1   
 20  11  32  1   
 21  12  14  1   
 22  12  33  1   
 23  12  34  1   
 24  13  14  1   
 25  13  15  1   
 26  13  35  1   
 27  14  16  1   
 28  14  36  1   
 29  15  17  1   
 30  15  18  1   
 31  15  19  1   
 32  16  20  1   
 33  16  37  1   
 34  16  38  1   
 35  17  39  1   
 36  18  21  ar  
 37  18  22  ar  
 38  19  20  1   
 39  19  40  1   
 40  19  41  1   
 41  20  42  1   
 42  20  43  1   
 43  21  23  ar  
 44  21  44  1   
 45  22  24  ar  
 46  22  45  1   
 47  23  25  ar  
 48  23  46  1   
 49  24  25  ar  
 50  24  47  1   
 51  25  48  1   
@<TRIPOS>SUBSTRUCTURE
  1 ****  11 GROUP 4 **** **** 0

# MOE 2024.06 (io_trps.svl 2023.06)
