@<TRIPOS>MOLECULE
NONAME
52 55 1 0 0 
SMALL
USER_CHARGES


@<TRIPOS>ATOM
  1 O       -1.6300    -1.4490     3.1340 O.3   1 <1>  -0.8290 
  2 C       -1.3700    -2.4310     2.4000 C.ar  1 <1>   0.1390 
  3 N       -1.6810    -3.6800     2.8270 N.ar  1 <1>  -0.3100 
  4 C       -0.7710    -2.2070     1.1650 C.ar  1 <1>  -0.1500 
  5 N       -1.4190    -4.7160     2.0670 N.ar  1 <1>  -0.3100 
  6 C       -0.5050    -3.2910     0.3790 C.ar  1 <1>  -0.1500 
  7 C       -0.8540    -4.5360     0.8780 C.ar  1 <1>   0.1670 
  8 C       -0.6070    -5.7810     0.0450 C.3   1 <1>  -0.0160 
  9 C       -1.9400    -6.4100    -0.3920 C.3   1 <1>  -0.0990 
 10 C       -1.7910    -7.6610    -1.2440 C.2   1 <1>   0.5690 
 11 O       -0.6920    -7.9450    -1.6630 O.2   1 <1>  -0.5700 
 12 N       -2.8890    -8.4400    -1.5190 N.am  1 <1>  -0.6600 
 13 C       -2.7640    -9.7320    -2.2490 C.3   1 <1>   0.1400 
 14 C       -4.2840    -8.1540    -1.0820 C.3   1 <1>   0.1400 
 15 C       -3.2000   -10.8680    -1.3210 C.3   1 <1>  -0.1600 
 16 C       -4.7320    -9.2580    -0.1240 C.3   1 <1>  -0.1600 
 17 C       -4.6190   -10.6520    -0.7690 C.3   1 <1>   0.4240 
 18 O       -5.4600   -10.6740    -1.8990 O.3   1 <1>  -0.5600 
 19 C       -4.9790   -11.7650     0.2390 C.ar  1 <1>  -0.1430 
 20 C       -6.8070   -10.9700    -1.6970 C.3   1 <1>   0.1200 
 21 C       -6.0710   -12.6010     0.0300 C.ar  1 <1>  -0.1430 
 22 C       -4.2140   -11.9490     1.3860 C.ar  1 <1>  -0.1500 
 23 C       -6.9270   -12.4100    -1.2060 C.3   1 <1>  -0.0170 
 24 C       -6.3840   -13.5990     0.9390 C.ar  1 <1>  -0.1500 
 25 C       -4.5260   -12.9430     2.2950 C.ar  1 <1>  -0.1500 
 26 C       -5.6090   -13.7760     2.0810 C.ar  1 <1>   0.0830 
 27 O       -5.8460   -14.7270     3.0190 O.3   1 <1>  -0.3630 
 28 C       -6.9110   -15.6400     2.8840 C.3   1 <1>   0.0400 
 29 H       -0.5460    -1.1970     0.8860 H     1 <1>   0.1500 
 30 H       -0.0470    -3.1780    -0.5830 H     1 <1>   0.1500 
 31 H       -0.0480    -6.4880     0.6340 H     1 <1>   0.0800 
 32 H       -0.0200    -5.5340    -0.8210 H     1 <1>   0.0800 
 33 H       -2.5030    -5.6830    -0.9470 H     1 <1>   0.0800 
 34 H       -2.4930    -6.6640     0.4930 H     1 <1>   0.0800 
 35 H       -1.7490    -9.8960    -2.5700 H     1 <1>   0.0800 
 36 H       -3.3900    -9.7060    -3.1250 H     1 <1>   0.0800 
 37 H       -4.9250    -8.1380    -1.9480 H     1 <1>   0.0800 
 38 H       -4.3620    -7.1970    -0.6000 H     1 <1>   0.0800 
 39 H       -2.4930   -10.9270    -0.5160 H     1 <1>   0.0800 
 40 H       -3.1670   -11.8030    -1.8480 H     1 <1>   0.0800 
 41 H       -5.7400    -9.0810     0.1980 H     1 <1>   0.0800 
 42 H       -4.1100    -9.2140     0.7510 H     1 <1>   0.0800 
 43 H       -7.3160   -10.8500    -2.6370 H     1 <1>   0.0800 
 44 H       -7.2190   -10.2810    -0.9820 H     1 <1>   0.0800 
 45 H       -3.3650   -11.3190     1.5850 H     1 <1>   0.1500 
 46 H       -6.6000   -13.0800    -1.9810 H     1 <1>   0.0800 
 47 H       -7.9560   -12.6230    -0.9840 H     1 <1>   0.0800 
 48 H       -7.2290   -14.2300     0.7470 H     1 <1>   0.1500 
 49 H       -3.9300   -13.0800     3.1790 H     1 <1>   0.1500 
 50 H       -6.8960   -16.2970     3.7350 H     1 <1>   0.0800 
 51 H       -6.7730   -16.2070     1.9810 H     1 <1>   0.0800 
 52 H       -7.8380   -15.0940     2.8610 H     1 <1>   0.0800 
@<TRIPOS>BOND
  1   1   2  1   
  2   2   3  ar  
  3   2   4  ar  
  4   3   5  ar  
  5   4   6  ar  
  6   4  29  1   
  7   5   7  ar  
  8   6   7  ar  
  9   6  30  1   
 10   7   8  1   
 11   8   9  1   
 12   8  31  1   
 13   8  32  1   
 14   9  10  1   
 15   9  33  1   
 16   9  34  1   
 17  10  11  2   
 18  10  12  am  
 19  12  13  1   
 20  12  14  1   
 21  13  15  1   
 22  13  35  1   
 23  13  36  1   
 24  14  16  1   
 25  14  37  1   
 26  14  38  1   
 27  15  17  1   
 28  15  39  1   
 29  15  40  1   
 30  16  17  1   
 31  16  41  1   
 32  16  42  1   
 33  17  18  1   
 34  17  19  1   
 35  18  20  1   
 36  19  21  ar  
 37  19  22  ar  
 38  20  23  1   
 39  20  43  1   
 40  20  44  1   
 41  21  23  1   
 42  21  24  ar  
 43  22  25  ar  
 44  22  45  1   
 45  23  46  1   
 46  23  47  1   
 47  24  26  ar  
 48  24  48  1   
 49  25  26  ar  
 50  25  49  1   
 51  26  27  1   
 52  27  28  1   
 53  28  50  1   
 54  28  51  1   
 55  28  52  1   
@<TRIPOS>SUBSTRUCTURE
  1 ****  16 GROUP 4 **** **** 0

# MOE 2024.06 (io_trps.svl 2023.06)
