@<TRIPOS>MOLECULE
NONAME
44 46 1 0 0 
SMALL
USER_CHARGES


@<TRIPOS>ATOM
  1 CL      -0.8260    -0.3800    -1.4360 Cl    1 <1>  -0.1770 
  2 C       -2.3420     0.2320    -0.8330 C.ar  1 <1>   0.1770 
  3 C       -2.4100     0.7390     0.4510 C.ar  1 <1>  -0.1500 
  4 C       -3.4590     0.2050    -1.6450 C.ar  1 <1>  -0.1500 
  5 C       -3.6170     1.2210     0.9250 C.ar  1 <1>  -0.1500 
  6 C       -4.6610     0.6900    -1.1610 C.ar  1 <1>  -0.1500 
  7 C       -4.7690     1.2030     0.1350 C.ar  1 <1>   0.0530 
  8 C       -6.0210     1.6990     0.6500 C.2   1 <1>   0.0870 
  9 O       -6.0480     2.6460     1.5560 O.3   1 <1>  -0.0190 
 10 C       -7.3120     1.3660     0.3970 C.2   1 <1>  -0.0860 
 11 N       -7.2620     2.9700     1.9200 N.2   1 <1>  -0.4100 
 12 C       -8.0360     2.2200     1.2270 C.2   1 <1>   0.3720 
 13 C       -7.8660     0.3630    -0.4480 C.2   1 <1>   0.7160 
 14 N       -9.4130     2.2870     1.3540 N.pl3 1 <1>  -0.8520 
 15 O       -8.1450     0.6190    -1.6060 O.2   1 <1>  -0.5700 
 16 N       -8.0610    -0.9040     0.0250 N.am  1 <1>  -0.5100 
 17 C      -10.1510     2.7760     0.1550 C.3   1 <1>   0.2090 
 18 C       -9.0470    -1.8790    -0.5330 C.3   1 <1>   0.2250 
 19 C       -8.5380    -1.2180     1.4120 C.3   1 <1>   0.2250 
 20 C      -11.1760     1.7360    -0.2980 C.3   1 <1>   0.1200 
 21 C       -9.0960    -2.5450     0.8600 C.3   1 <1>   0.0000 
 22 C       -8.4360    -2.7370    -1.6370 C.3   1 <1>  -0.2400 
 23 O      -12.0020     2.3150    -1.2600 O.3   1 <1>  -0.5600 
 24 C      -12.8970     1.4230    -1.8420 C.3   1 <1>   0.0400 
 25 H       -1.5270     0.7540     1.0650 H     1 <1>   0.1500 
 26 H       -3.3840    -0.1900    -2.6420 H     1 <1>   0.1500 
 27 H       -3.6690     1.6150     1.9260 H     1 <1>   0.1500 
 28 H       -5.5220     0.6760    -1.8060 H     1 <1>   0.1500 
 29 H       -9.6170     2.9080     2.1450 H     1 <1>   0.4000 
 30 H       -9.4690     2.9780    -0.6550 H     1 <1>   0.0800 
 31 H      -10.6640     3.6870     0.4090 H     1 <1>   0.0800 
 32 H       -9.9670    -1.3920    -0.8060 H     1 <1>   0.0000 
 33 H       -9.3000    -0.5300     1.7340 H     1 <1>   0.0000 
 34 H       -7.7240    -1.3400     2.1030 H     1 <1>   0.0000 
 35 H      -11.7870     1.4280     0.5310 H     1 <1>   0.0800 
 36 H      -10.6760     0.8900    -0.7330 H     1 <1>   0.0800 
 37 H       -8.4090    -3.3660     0.9760 H     1 <1>   0.0000 
 38 H      -10.0910    -2.7730     1.1990 H     1 <1>   0.0000 
 39 H       -7.4940    -3.1510    -1.3240 H     1 <1>   0.0800 
 40 H       -8.2840    -2.1370    -2.5170 H     1 <1>   0.0800 
 41 H       -9.1040    -3.5410    -1.8850 H     1 <1>   0.0800 
 42 H      -13.4930     1.9650    -2.5550 H     1 <1>   0.0800 
 43 H      -13.5320     1.0070    -1.0790 H     1 <1>   0.0800 
 44 H      -12.3470     0.6470    -2.3450 H     1 <1>   0.0800 
@<TRIPOS>BOND
  1   1   2  1   
  2   2   3  ar  
  3   2   4  ar  
  4   3   5  ar  
  5   3  25  1   
  6   4   6  ar  
  7   4  26  1   
  8   5   7  ar  
  9   5  27  1   
 10   6   7  ar  
 11   6  28  1   
 12   7   8  1   
 13   8   9  1   
 14   8  10  2   
 15   9  11  1   
 16  10  12  1   
 17  10  13  1   
 18  11  12  2   
 19  12  14  1   
 20  13  15  2   
 21  13  16  am  
 22  14  17  1   
 23  14  29  1   
 24  16  18  1   
 25  16  19  1   
 26  17  20  1   
 27  17  30  1   
 28  17  31  1   
 29  18  21  1   
 30  18  22  1   
 31  18  32  1   
 32  19  21  1   
 33  19  33  1   
 34  19  34  1   
 35  20  23  1   
 36  20  35  1   
 37  20  36  1   
 38  21  37  1   
 39  21  38  1   
 40  22  39  1   
 41  22  40  1   
 42  22  41  1   
 43  23  24  1   
 44  24  42  1   
 45  24  43  1   
 46  24  44  1   
@<TRIPOS>SUBSTRUCTURE
  1 ****  10 GROUP 4 **** **** 0

# MOE 2024.06 (io_trps.svl 2023.06)
