@<TRIPOS>MOLECULE
NONAME
45 47 1 0 0 
SMALL
USER_CHARGES


@<TRIPOS>ATOM
  1 O       -0.1810     0.4770     0.8180 O.2   1 <1>  -0.5700 
  2 C       -0.9940     1.2410     0.3190 C.2   1 <1>   0.6300 
  3 N       -2.2580     0.7460     0.0330 N.am  1 <1>  -0.6600 
  4 C       -0.6220     2.6150     0.0640 C.2   1 <1>   0.4500 
  5 C       -2.5980    -0.7010     0.2150 C.3   1 <1>   0.1400 
  6 C       -3.3980     1.5960    -0.4110 C.3   1 <1>   0.1400 
  7 N       -0.9610     3.6020     0.8720 N.2   1 <1>  -0.6210 
  8 C        0.1340     2.8250    -1.1480 C.2   1 <1>   0.6300 
  9 C       -3.3710    -0.9570     1.5170 C.3   1 <1>   0.1400 
 10 C       -4.1490     2.2130     0.7780 C.3   1 <1>  -0.1600 
 11 C       -0.5240     4.8490     0.5340 C.2   1 <1>   0.0210 
 12 O        0.4020     1.9670    -1.9780 O.2   1 <1>  -0.5700 
 13 N        0.5540     4.0970    -1.4270 N.am  1 <1>  -0.5390 
 14 N       -4.5920    -0.0960     1.6260 N.am  1 <1>  -0.6600 
 15 C       -4.2980     1.3120     2.0110 C.3   1 <1>   0.1400 
 16 C        0.2170     5.1170    -0.5760 C.2   1 <1>  -0.0410 
 17 C       -5.8830    -0.5070     1.3270 C.2   1 <1>   0.5440 
 18 O       -6.7560     0.3460     1.2970 O.2   1 <1>  -0.5700 
 19 C       -6.2420    -1.8870     0.9860 C.ar  1 <1>   0.3960 
 20 N       -5.8960    -2.9090     1.7910 N.ar  1 <1>  -0.6200 
 21 C       -6.9550    -2.1050    -0.1890 C.ar  1 <1>  -0.1500 
 22 C       -6.2640    -4.1210     1.4180 C.ar  1 <1>   0.1600 
 23 C       -7.3230    -3.3730    -0.5740 C.ar  1 <1>   0.0820 
 24 C       -6.9650    -4.4120     0.2640 C.ar  1 <1>  -0.1500 
 25 O       -8.0030    -3.5160    -1.7320 O.3   1 <1>  -0.3620 
 26 C       -8.4530    -4.7780    -2.1740 C.3   1 <1>   0.0400 
 27 H       -1.6990    -1.2920     0.2250 H     1 <1>   0.0800 
 28 H       -3.1870    -1.0390    -0.6190 H     1 <1>   0.0800 
 29 H       -4.0860     0.9890    -0.9740 H     1 <1>   0.0800 
 30 H       -3.0520     2.3760    -1.0660 H     1 <1>   0.0800 
 31 H       -2.7210    -0.7610     2.3520 H     1 <1>   0.0800 
 32 H       -3.6280    -1.9970     1.5640 H     1 <1>   0.0800 
 33 H       -5.1310     2.4970     0.4450 H     1 <1>   0.0800 
 34 H       -3.6560     3.1180     1.0800 H     1 <1>   0.0800 
 35 H       -0.8000     5.6410     1.2130 H     1 <1>   0.1500 
 36 H        1.1030     4.2140    -2.2820 H     1 <1>   0.3700 
 37 H       -5.0880     1.6880     2.6400 H     1 <1>   0.0800 
 38 H       -3.3870     1.3420     2.5850 H     1 <1>   0.0800 
 39 H        0.5530     6.1130    -0.8170 H     1 <1>   0.1500 
 40 H       -7.2270    -1.2670    -0.8050 H     1 <1>   0.1500 
 41 H       -5.9900    -4.9330     2.0710 H     1 <1>   0.1500 
 42 H       -7.2170    -5.4310     0.0430 H     1 <1>   0.1500 
 43 H       -8.9770    -4.6380    -3.1030 H     1 <1>   0.0800 
 44 H       -9.1210    -5.1880    -1.4370 H     1 <1>   0.0800 
 45 H       -7.6040    -5.4190    -2.3260 H     1 <1>   0.0800 
@<TRIPOS>BOND
  1   1   2  2   
  2   2   3  am  
  3   2   4  1   
  4   3   5  1   
  5   3   6  1   
  6   4   7  2   
  7   4   8  1   
  8   5   9  1   
  9   5  27  1   
 10   5  28  1   
 11   6  10  1   
 12   6  29  1   
 13   6  30  1   
 14   7  11  1   
 15   8  12  2   
 16   8  13  am  
 17   9  14  1   
 18   9  31  1   
 19   9  32  1   
 20  10  15  1   
 21  10  33  1   
 22  10  34  1   
 23  11  16  2   
 24  11  35  1   
 25  13  16  1   
 26  13  36  1   
 27  14  15  1   
 28  14  17  am  
 29  15  37  1   
 30  15  38  1   
 31  16  39  1   
 32  17  18  2   
 33  17  19  1   
 34  19  20  ar  
 35  19  21  ar  
 36  20  22  ar  
 37  21  23  ar  
 38  21  40  1   
 39  22  24  ar  
 40  22  41  1   
 41  23  24  ar  
 42  23  25  1   
 43  24  42  1   
 44  25  26  1   
 45  26  43  1   
 46  26  44  1   
 47  26  45  1   
@<TRIPOS>SUBSTRUCTURE
  1 ****   5 GROUP 4 **** **** 0

# MOE 2024.06 (io_trps.svl 2023.06)
