@<TRIPOS>MOLECULE
NONAME
53 54 1 0 0 
SMALL
USER_CHARGES


@<TRIPOS>ATOM
  1 O       -0.5230     0.1710    -2.2430 O.3   1 <1>  -0.3630 
  2 C       -0.4640     1.3170    -1.5170 C.ar  1 <1>   0.0820 
  3 C       -1.6140    -0.6880    -2.0180 C.3   1 <1>   0.1200 
  4 C       -0.4400     1.3350    -0.1160 C.ar  1 <1>   0.0820 
  5 C       -0.4180     2.5050    -2.2260 C.ar  1 <1>  -0.1500 
  6 C       -1.0720    -2.0060    -1.4500 C.3   1 <1>   0.3430 
  7 O       -0.4330     0.1600     0.5800 O.3   1 <1>  -0.3630 
  8 C       -0.4110     2.5600     0.5430 C.ar  1 <1>  -0.1500 
  9 C       -0.3770     3.7170    -1.5600 C.ar  1 <1>  -0.1500 
 10 N       -2.1130    -2.8160    -0.7320 N.4   1 <1>  -0.9590 
 11 C        0.3180     0.0880     1.7770 C.3   1 <1>   0.0400 
 12 C       -0.3790     3.7430    -0.1760 C.ar  1 <1>  -0.1500 
 13 C       -3.2840    -3.1840    -1.5820 C.3   1 <1>   0.3430 
 14 C       -2.5460    -2.1680     0.5380 C.3   1 <1>   0.3430 
 15 C       -4.1410    -4.2360    -0.8490 C.3   1 <1>   0.2000 
 16 C       -3.4470    -3.1180     1.3320 C.3   1 <1>  -0.1600 
 17 O       -3.3050    -5.3460    -0.6930 O.3   1 <1>  -0.6800 
 18 C       -4.6360    -3.7430     0.5470 C.3   1 <1>   0.0000 
 19 C       -5.1610    -4.9680     1.3540 C.3   1 <1>   0.1200 
 20 C       -5.8370    -2.7470     0.4290 C.3   1 <1>  -0.1600 
 21 O       -5.6430    -4.5920     2.5990 O.3   1 <1>  -0.6800 
 22 C       -5.7650    -1.5500    -0.5360 C.3   1 <1>  -0.1600 
 23 C       -6.9860    -0.6440    -0.3580 C.3   1 <1>  -0.2400 
 24 H       -2.2980    -0.2070    -1.3420 H     1 <1>   0.0800 
 25 H       -2.0970    -0.8500    -2.9650 H     1 <1>   0.0800 
 26 H       -0.4160     2.4800    -3.3010 H     1 <1>   0.1500 
 27 H       -0.2750    -1.7750    -0.7620 H     1 <1>   0.0800 
 28 H       -0.6550    -2.5850    -2.2580 H     1 <1>   0.0800 
 29 H       -0.4150     2.6150     1.6150 H     1 <1>   0.1500 
 30 H       -0.3450     4.6380    -2.1170 H     1 <1>   0.1500 
 31 H       -1.7030    -3.7300    -0.4740 H     1 <1>   0.4500 
 32 H        0.4430    -0.9460     2.0400 H     1 <1>   0.0800 
 33 H       -0.2130     0.6010     2.5590 H     1 <1>   0.0800 
 34 H        1.2820     0.5390     1.6140 H     1 <1>   0.0800 
 35 H       -0.3540     4.6880     0.3400 H     1 <1>   0.1500 
 36 H       -3.8610    -2.3090    -1.8120 H     1 <1>   0.0800 
 37 H       -2.9450    -3.6110    -2.5120 H     1 <1>   0.0800 
 38 H       -1.6820    -1.9200     1.1320 H     1 <1>   0.0800 
 39 H       -3.0690    -1.2520     0.3280 H     1 <1>   0.0800 
 40 H       -4.9730    -4.5300    -1.4670 H     1 <1>   0.0800 
 41 H       -2.8170    -3.9080     1.7040 H     1 <1>   0.0800 
 42 H       -3.8170    -2.5900     2.1940 H     1 <1>   0.0800 
 43 H       -3.8270    -6.1610    -0.5300 H     1 <1>   0.4000 
 44 H       -4.3920    -5.7030     1.5200 H     1 <1>   0.0800 
 45 H       -5.9750    -5.4390     0.8290 H     1 <1>   0.0800 
 46 H       -6.7120    -3.3120     0.1520 H     1 <1>   0.0800 
 47 H       -6.0460    -2.3560     1.4110 H     1 <1>   0.0800 
 48 H       -4.9190    -4.4360     3.2360 H     1 <1>   0.4000 
 49 H       -4.8890    -0.9570    -0.3580 H     1 <1>   0.0800 
 50 H       -5.7660    -1.8930    -1.5550 H     1 <1>   0.0800 
 51 H       -7.0250    -0.2490     0.6430 H     1 <1>   0.0800 
 52 H       -7.8950    -1.1900    -0.5450 H     1 <1>   0.0800 
 53 H       -6.9410     0.1820    -1.0460 H     1 <1>   0.0800 
@<TRIPOS>BOND
  1   1   2  1   
  2   1   3  1   
  3   2   4  ar  
  4   2   5  ar  
  5   3   6  1   
  6   3  24  1   
  7   3  25  1   
  8   4   7  1   
  9   4   8  ar  
 10   5   9  ar  
 11   5  26  1   
 12   6  10  1   
 13   6  27  1   
 14   6  28  1   
 15   7  11  1   
 16   8  12  ar  
 17   8  29  1   
 18   9  12  ar  
 19   9  30  1   
 20  10  13  1   
 21  10  14  1   
 22  10  31  1   
 23  11  32  1   
 24  11  33  1   
 25  11  34  1   
 26  12  35  1   
 27  13  15  1   
 28  13  36  1   
 29  13  37  1   
 30  14  16  1   
 31  14  38  1   
 32  14  39  1   
 33  15  17  1   
 34  15  18  1   
 35  15  40  1   
 36  16  18  1   
 37  16  41  1   
 38  16  42  1   
 39  17  43  1   
 40  18  19  1   
 41  18  20  1   
 42  19  21  1   
 43  19  44  1   
 44  19  45  1   
 45  20  22  1   
 46  20  46  1   
 47  20  47  1   
 48  21  48  1   
 49  22  23  1   
 50  22  49  1   
 51  22  50  1   
 52  23  51  1   
 53  23  52  1   
 54  23  53  1   
@<TRIPOS>SUBSTRUCTURE
  1 ****  14 GROUP 4 **** **** 0

# MOE 2024.06 (io_trps.svl 2023.06)
