@<TRIPOS>MOLECULE
NONAME
53 55 1 0 0 
SMALL
USER_CHARGES


@<TRIPOS>ATOM
  1 S       -1.3230    -0.3780     1.7460 S.3   1 <1>  -0.0800 
  2 C       -1.5450    -1.0620     0.1410 C.2   1 <1>  -0.1400 
  3 C       -1.3550     1.2550     1.1080 C.2   1 <1>  -0.1100 
  4 C       -1.6320    -0.0770    -0.7760 C.2   1 <1>  -0.1500 
  5 C       -1.6050    -2.5770     0.0500 C.3   1 <1>   0.3800 
  6 C       -1.5230     1.2400    -0.2260 C.2   1 <1>  -0.1500 
  7 O       -1.5020    -2.9330    -1.2820 O.3   1 <1>  -0.6800 
  8 C       -2.9220    -3.1530     0.6250 C.3   1 <1>  -0.0800 
  9 C       -2.9510    -4.6930     0.5620 C.3   1 <1>  -0.1600 
 10 C       -4.1740    -2.5700    -0.0650 C.3   1 <1>  -0.1600 
 11 C       -4.2750    -5.2650     1.0650 C.3   1 <1>   0.3430 
 12 C       -5.4630    -3.1990     0.4550 C.3   1 <1>   0.3430 
 13 N       -5.4030    -4.6780     0.2810 N.4   1 <1>  -0.9590 
 14 C       -6.7160    -5.2990     0.6070 C.3   1 <1>   0.3430 
 15 C       -6.7800    -6.7290     0.0750 C.3   1 <1>  -0.1600 
 16 C       -8.1670    -7.3280     0.3030 C.3   1 <1>   0.1200 
 17 O       -8.1380    -8.6420    -0.1930 O.3   1 <1>  -0.3630 
 18 C       -9.2360    -9.4400    -0.1260 C.ar  1 <1>   0.0830 
 19 C       -9.1050   -10.7210    -0.6390 C.ar  1 <1>  -0.1500 
 20 C      -10.4540    -9.0420     0.4190 C.ar  1 <1>  -0.1500 
 21 C      -10.1700   -11.6040    -0.6140 C.ar  1 <1>  -0.1500 
 22 C      -11.5190    -9.9260     0.4440 C.ar  1 <1>  -0.1500 
 23 C      -11.3880   -11.2060    -0.0690 C.ar  1 <1>   0.0830 
 24 O      -12.4850   -12.0050    -0.0020 O.3   1 <1>  -0.3620 
 25 C      -12.4540   -13.3250    -0.4970 C.3   1 <1>   0.0400 
 26 H       -1.2410     2.0640     1.8080 H     1 <1>   0.1500 
 27 H       -1.7740    -0.2150    -1.8350 H     1 <1>   0.1500 
 28 H       -0.7570    -2.9990     0.5640 H     1 <1>   0.0800 
 29 H       -1.5770     2.1090    -0.8590 H     1 <1>   0.1500 
 30 H       -0.7350    -2.4650    -1.6680 H     1 <1>   0.4000 
 31 H       -2.9600    -2.8700     1.6630 H     1 <1>   0.0800 
 32 H       -2.1500    -5.0910     1.1610 H     1 <1>   0.0800 
 33 H       -2.7910    -5.0310    -0.4480 H     1 <1>   0.0800 
 34 H       -4.1170    -2.7170    -1.1300 H     1 <1>   0.0800 
 35 H       -4.2210    -1.5090     0.1070 H     1 <1>   0.0800 
 36 H       -4.3970    -5.0340     2.1110 H     1 <1>   0.0800 
 37 H       -4.2600    -6.3370     0.9540 H     1 <1>   0.0800 
 38 H       -6.3010    -2.7950    -0.0910 H     1 <1>   0.0800 
 39 H       -5.5880    -2.9570     1.4990 H     1 <1>   0.0800 
 40 H       -5.1990    -4.8520    -0.7130 H     1 <1>   0.4500 
 41 H       -7.5060    -4.7250     0.1490 H     1 <1>   0.0800 
 42 H       -6.8730    -5.2940     1.6750 H     1 <1>   0.0800 
 43 H       -6.0630    -7.3490     0.5810 H     1 <1>   0.0800 
 44 H       -6.5780    -6.7330    -0.9820 H     1 <1>   0.0800 
 45 H       -8.9230    -6.7820    -0.2350 H     1 <1>   0.0800 
 46 H       -8.4070    -7.3710     1.3520 H     1 <1>   0.0800 
 47 H       -8.1630   -11.0230    -1.0590 H     1 <1>   0.1500 
 48 H      -10.5990    -8.0610     0.8260 H     1 <1>   0.1500 
 49 H      -10.0330   -12.5870    -1.0200 H     1 <1>   0.1500 
 50 H      -12.4640    -9.6290     0.8620 H     1 <1>   0.1500 
 51 H      -13.4230   -13.7630    -0.3390 H     1 <1>   0.0800 
 52 H      -11.7080   -13.8820     0.0430 H     1 <1>   0.0800 
 53 H      -12.2300   -13.2980    -1.5480 H     1 <1>   0.0800 
@<TRIPOS>BOND
  1   1   2  1   
  2   1   3  1   
  3   2   4  2   
  4   2   5  1   
  5   3   6  2   
  6   3  26  1   
  7   4   6  1   
  8   4  27  1   
  9   5   7  1   
 10   5   8  1   
 11   5  28  1   
 12   6  29  1   
 13   7  30  1   
 14   8   9  1   
 15   8  10  1   
 16   8  31  1   
 17   9  11  1   
 18   9  32  1   
 19   9  33  1   
 20  10  12  1   
 21  10  34  1   
 22  10  35  1   
 23  11  13  1   
 24  11  36  1   
 25  11  37  1   
 26  12  13  1   
 27  12  38  1   
 28  12  39  1   
 29  13  14  1   
 30  13  40  1   
 31  14  15  1   
 32  14  41  1   
 33  14  42  1   
 34  15  16  1   
 35  15  43  1   
 36  15  44  1   
 37  16  17  1   
 38  16  45  1   
 39  16  46  1   
 40  17  18  1   
 41  18  19  ar  
 42  18  20  ar  
 43  19  21  ar  
 44  19  47  1   
 45  20  22  ar  
 46  20  48  1   
 47  21  23  ar  
 48  21  49  1   
 49  22  23  ar  
 50  22  50  1   
 51  23  24  1   
 52  24  25  1   
 53  25  51  1   
 54  25  52  1   
 55  25  53  1   
@<TRIPOS>SUBSTRUCTURE
  1 ****  14 GROUP 4 **** **** 0

# MOE 2024.06 (io_trps.svl 2023.06)
