@<TRIPOS>MOLECULE
NONAME
51 53 1 0 0 
SMALL
USER_CHARGES


@<TRIPOS>ATOM
  1 O        0.2760     1.3310    -2.2150 O.2   1 <1>  -0.5700 
  2 C       -0.2440     1.9500    -1.3000 C.2   1 <1>   0.5440 
  3 N       -0.2990     1.3150    -0.0700 N.am  1 <1>  -0.6600 
  4 C       -0.7870     3.2860    -1.5750 C.ar  1 <1>   0.3960 
  5 C        0.1590    -0.0780     0.1310 C.3   1 <1>   0.1400 
  6 C       -0.9180     1.8460     1.1670 C.3   1 <1>   0.1400 
  7 N       -0.8900     4.2140    -0.6090 N.ar  1 <1>  -0.6200 
  8 C       -1.1840     3.5650    -2.8880 C.ar  1 <1>   0.1600 
  9 C       -0.5330    -0.5310     1.4090 C.3   1 <1>  -0.1600 
 10 C       -0.7290     0.7510     2.2120 C.3   1 <1>  -0.1600 
 11 C       -1.3780     5.3720    -1.0190 C.ar  1 <1>   0.4100 
 12 N       -1.6900     4.7120    -3.3200 N.ar  1 <1>  -0.6200 
 13 N       -1.4610     6.3830    -0.0710 N.pl3 1 <1>  -0.8380 
 14 C       -1.7740     5.5940    -2.3460 C.ar  1 <1>   0.1600 
 15 C       -0.5990     7.5800    -0.2580 C.3   1 <1>   0.2090 
 16 C       -1.7640     6.0270     1.3450 C.3   1 <1>   0.1290 
 17 C        0.8490     7.2590     0.1220 C.3   1 <1>  -0.1600 
 18 C        1.7980     8.3970    -0.2630 C.3   1 <1>   0.0210 
 19 C        3.2230     8.0300     0.1100 C.2   1 <1>  -0.1810 
 20 C        3.9130     8.4030     1.2630 C.2   1 <1>   0.1080 
 21 C        4.0980     7.2700    -0.5840 C.2   1 <1>  -0.3320 
 22 N        5.1170     7.9270     1.2910 N.2   1 <1>  -0.7070 
 23 C        3.3690     9.2610     2.3820 C.3   1 <1>  -0.0590 
 24 N        5.2300     7.2250     0.1500 N.pl3 1 <1>   0.3000 
 25 C        3.9420     6.5540    -1.9150 C.3   1 <1>  -0.0600 
 26 H        1.2290    -0.0780     0.2560 H     1 <1>   0.0800 
 27 H       -0.1060    -0.7000    -0.7080 H     1 <1>   0.0800 
 28 H       -1.9640     2.0290     0.9910 H     1 <1>   0.0800 
 29 H       -0.4340     2.7570     1.4770 H     1 <1>   0.0800 
 30 H       -1.0760     2.7870    -3.6230 H     1 <1>   0.1500 
 31 H        0.0480    -1.2650     1.9390 H     1 <1>   0.0800 
 32 H       -1.4890    -0.9550     1.1550 H     1 <1>   0.0800 
 33 H       -1.5680     0.6910     2.8830 H     1 <1>   0.0800 
 34 H        0.1590     0.9630     2.7810 H     1 <1>   0.0800 
 35 H       -2.1780     6.5600    -2.5830 H     1 <1>   0.1500 
 36 H       -0.9720     8.3910     0.3450 H     1 <1>   0.0800 
 37 H       -0.6400     7.8870    -1.2890 H     1 <1>   0.0800 
 38 H       -2.5040     5.2460     1.3720 H     1 <1>   0.0800 
 39 H       -2.1490     6.8850     1.8680 H     1 <1>   0.0800 
 40 H       -0.8730     5.6760     1.8360 H     1 <1>   0.0800 
 41 H        1.1640     6.3640    -0.3850 H     1 <1>   0.0800 
 42 H        0.9190     7.0870     1.1810 H     1 <1>   0.0800 
 43 H        1.5130     9.3070     0.2350 H     1 <1>   0.0800 
 44 H        1.7490     8.5720    -1.3230 H     1 <1>   0.0800 
 45 H        2.4010     8.9070     2.6810 H     1 <1>   0.0800 
 46 H        3.2950    10.2800     2.0520 H     1 <1>   0.0800 
 47 H        4.0320     9.2170     3.2280 H     1 <1>   0.0800 
 48 H        6.0900     6.7230    -0.0970 H     1 <1>   0.2700 
 49 H        2.9550     6.7050    -2.3140 H     1 <1>   0.0800 
 50 H        4.0960     5.4970    -1.7860 H     1 <1>   0.0800 
 51 H        4.6580     6.9290    -2.6240 H     1 <1>   0.0800 
@<TRIPOS>BOND
  1   1   2  2   
  2   2   3  am  
  3   2   4  1   
  4   3   5  1   
  5   3   6  1   
  6   4   7  ar  
  7   4   8  ar  
  8   5   9  1   
  9   5  26  1   
 10   5  27  1   
 11   6  10  1   
 12   6  28  1   
 13   6  29  1   
 14   7  11  ar  
 15   8  12  ar  
 16   8  30  1   
 17   9  10  1   
 18   9  31  1   
 19   9  32  1   
 20  10  33  1   
 21  10  34  1   
 22  11  13  1   
 23  11  14  ar  
 24  12  14  ar  
 25  13  15  1   
 26  13  16  1   
 27  14  35  1   
 28  15  17  1   
 29  15  36  1   
 30  15  37  1   
 31  16  38  1   
 32  16  39  1   
 33  16  40  1   
 34  17  18  1   
 35  17  41  1   
 36  17  42  1   
 37  18  19  1   
 38  18  43  1   
 39  18  44  1   
 40  19  20  1   
 41  19  21  2   
 42  20  22  2   
 43  20  23  1   
 44  21  24  1   
 45  21  25  1   
 46  22  24  1   
 47  23  45  1   
 48  23  46  1   
 49  23  47  1   
 50  24  48  1   
 51  25  49  1   
 52  25  50  1   
 53  25  51  1   
@<TRIPOS>SUBSTRUCTURE
  1 ****   7 GROUP 4 **** **** 0

# MOE 2024.06 (io_trps.svl 2023.06)
