@<TRIPOS>MOLECULE
NONAME
48 51 1 0 0 
SMALL
USER_CHARGES


@<TRIPOS>ATOM
  1 O        1.1220     0.6150     1.5850 O.3   1 <1>  -0.6800 
  2 C        1.5860     0.0610     0.4000 C.3   1 <1>   0.2000 
  3 C        2.4340    -1.1740     0.7230 C.3   1 <1>  -0.0800 
  4 C        2.5350     1.0370    -0.3080 C.3   1 <1>   0.1100 
  5 C        3.7460    -0.9330    -0.0330 C.3   1 <1>   0.1100 
  6 C        1.7390    -2.4860     0.3140 C.3   1 <1>  -0.0170 
  7 N        3.9050     0.5170    -0.1460 N.3   1 <1>  -0.8100 
  8 C        2.5270    -3.7760     0.5800 C.ar  1 <1>  -0.1430 
  9 C        4.5380     1.0950     1.0630 C.3   1 <1>   0.2900 
 10 C        2.2050    -4.9720    -0.1130 C.ar  1 <1>   0.0000 
 11 C        3.5470    -3.8450     1.4880 C.ar  1 <1>  -0.1500 
 12 C        4.9010     2.5630     0.8750 C.2   1 <1>   0.0060 
 13 C        2.9900    -6.1230     0.1490 C.ar  1 <1>   0.3100 
 14 C        1.1450    -5.1000    -1.0430 C.ar  1 <1>  -0.1500 
 15 C        4.2510    -5.0400     1.6810 C.ar  1 <1>   0.1600 
 16 N        4.5600     3.4940     1.7010 N.2   1 <1>  -0.3380 
 17 N        5.6190     3.0530    -0.1440 N.pl3 1 <1>   0.0480 
 18 N        4.0060    -6.1390     1.0450 N.ar  1 <1>  -0.6200 
 19 C        2.7090    -7.3140    -0.5390 C.ar  1 <1>  -0.1500 
 20 C        0.8940    -6.2780    -1.6940 C.ar  1 <1>  -0.1500 
 21 N        5.0550     4.6400     1.2320 N.2   1 <1>  -0.3380 
 22 C        5.6760     4.3550     0.1420 C.2   1 <1>   0.0360 
 23 C        6.2280     2.3780    -1.3120 C.3   1 <1>   0.0960 
 24 C        1.6870    -7.4000    -1.4440 C.ar  1 <1>  -0.1500 
 25 C        7.5690     1.7430    -0.9340 C.3   1 <1>  -0.2400 
 26 H        0.5130     0.0040     2.0400 H     1 <1>   0.4000 
 27 H        0.7380    -0.1560    -0.2260 H     1 <1>   0.0800 
 28 H        2.6490    -1.1860     1.7760 H     1 <1>   0.0800 
 29 H        2.4280     2.0420     0.0660 H     1 <1>   0.0800 
 30 H        2.3030     1.0400    -1.3590 H     1 <1>   0.0800 
 31 H        3.6720    -1.3410    -1.0280 H     1 <1>   0.0800 
 32 H        4.5900    -1.3900     0.4550 H     1 <1>   0.0800 
 33 H        1.5350    -2.4160    -0.7390 H     1 <1>   0.0800 
 34 H        0.7950    -2.5590     0.8260 H     1 <1>   0.0800 
 35 H        3.8780     1.0040     1.9090 H     1 <1>   0.0800 
 36 H        5.4410     0.5570     1.2860 H     1 <1>   0.0800 
 37 H        3.8520    -3.0080     2.0850 H     1 <1>   0.1500 
 38 H        0.5100    -4.2610    -1.2490 H     1 <1>   0.1500 
 39 H        5.0480    -5.0430     2.4040 H     1 <1>   0.1500 
 40 H        3.3290    -8.1640    -0.3260 H     1 <1>   0.1500 
 41 H        0.0870    -6.3570    -2.4010 H     1 <1>   0.1500 
 42 H        6.1860     5.0710    -0.4760 H     1 <1>   0.1500 
 43 H        5.5520     1.6300    -1.6820 H     1 <1>   0.0800 
 44 H        6.3750     3.1050    -2.0900 H     1 <1>   0.0800 
 45 H        1.4820    -8.3200    -1.9640 H     1 <1>   0.1500 
 46 H        7.4280     0.9900    -0.1790 H     1 <1>   0.0800 
 47 H        8.2510     2.4910    -0.5690 H     1 <1>   0.0800 
 48 H        8.0050     1.2760    -1.7990 H     1 <1>   0.0800 
@<TRIPOS>BOND
  1   1   2  1   
  2   1  26  1   
  3   2   3  1   
  4   2   4  1   
  5   2  27  1   
  6   3   5  1   
  7   3   6  1   
  8   3  28  1   
  9   4   7  1   
 10   4  29  1   
 11   4  30  1   
 12   5   7  1   
 13   5  31  1   
 14   5  32  1   
 15   6   8  1   
 16   6  33  1   
 17   6  34  1   
 18   7   9  1   
 19   8  10  ar  
 20   8  11  ar  
 21   9  12  1   
 22   9  35  1   
 23   9  36  1   
 24  10  13  ar  
 25  10  14  ar  
 26  11  15  ar  
 27  11  37  1   
 28  12  16  2   
 29  12  17  1   
 30  13  18  ar  
 31  13  19  ar  
 32  14  20  ar  
 33  14  38  1   
 34  15  18  ar  
 35  15  39  1   
 36  16  21  1   
 37  17  22  1   
 38  17  23  1   
 39  19  24  ar  
 40  19  40  1   
 41  20  24  ar  
 42  20  41  1   
 43  21  22  2   
 44  22  42  1   
 45  23  25  1   
 46  23  43  1   
 47  23  44  1   
 48  24  45  1   
 49  25  46  1   
 50  25  47  1   
 51  25  48  1   
@<TRIPOS>SUBSTRUCTURE
  1 ****   5 GROUP 4 **** **** 0

# MOE 2024.06 (io_trps.svl 2023.06)
