@<TRIPOS>MOLECULE
NONAME
47 49 1 0 0 
SMALL
USER_CHARGES


@<TRIPOS>ATOM
  1 CL       0.0100    -0.5910    -1.6350 Cl    1 <1>  -0.1770 
  2 C       -0.2820    -2.2500    -1.1840 C.ar  1 <1>   0.1770 
  3 C       -1.2550    -2.5540    -0.2750 C.ar  1 <1>  -0.1500 
  4 C        0.5000    -3.2460    -1.7740 C.ar  1 <1>  -0.1500 
  5 C       -1.4910    -3.8950     0.0890 C.ar  1 <1>   0.0000 
  6 C        0.2820    -4.5550    -1.4290 C.ar  1 <1>  -0.1500 
  7 C       -0.7080    -4.9160    -0.4990 C.ar  1 <1>   0.3100 
  8 C       -2.4740    -4.2740     1.0160 C.ar  1 <1>  -0.1500 
  9 N       -0.8750    -6.2290    -0.2020 N.ar  1 <1>  -0.6200 
 10 C       -2.6180    -5.5990     1.2950 C.ar  1 <1>  -0.1500 
 11 C       -1.7960    -6.5450     0.6620 C.ar  1 <1>   0.1670 
 12 C       -1.9880    -8.0220     1.0060 C.3   1 <1>   0.2540 
 13 N       -3.3940    -8.4630     0.8540 N.3   1 <1>  -0.8100 
 14 C       -3.8810    -8.3310    -0.5230 C.3   1 <1>   0.1100 
 15 C       -3.5920    -9.8730     1.2170 C.3   1 <1>   0.1100 
 16 C       -5.1250    -9.2090    -0.5490 C.3   1 <1>   0.2000 
 17 C       -4.7360   -10.4010     0.3270 C.3   1 <1>  -0.0800 
 18 O       -6.1310    -8.5210     0.0990 O.3   1 <1>  -0.6800 
 19 C       -4.3020   -11.5980    -0.5400 C.3   1 <1>  -0.0550 
 20 S       -3.9630   -13.0890     0.4000 S.o2  1 <1>   1.3330 
 21 O       -5.1730   -13.4670     1.0920 O.2   1 <1>  -0.6500 
 22 O       -2.7350   -12.9180     1.1440 O.2   1 <1>  -0.6500 
 23 N       -3.6710   -14.2340    -0.8200 N.am  1 <1>  -0.8490 
 24 C       -4.0560   -15.5900    -0.4150 C.3   1 <1>   0.1160 
 25 C       -2.2870   -14.2330    -1.3050 C.3   1 <1>   0.1160 
 26 H       -1.8460    -1.7730     0.1680 H     1 <1>   0.1500 
 27 H        1.2570    -2.9660    -2.4850 H     1 <1>   0.1500 
 28 H        0.8650    -5.3470    -1.8630 H     1 <1>   0.1500 
 29 H       -3.0910    -3.5260     1.4830 H     1 <1>   0.1500 
 30 H       -3.3590    -5.9460     1.9940 H     1 <1>   0.1500 
 31 H       -1.6790    -8.1750     2.0250 H     1 <1>   0.0800 
 32 H       -1.3500    -8.6150     0.3740 H     1 <1>   0.0800 
 33 H       -4.1070    -7.3070    -0.7710 H     1 <1>   0.0800 
 34 H       -3.1500    -8.7130    -1.2140 H     1 <1>   0.0800 
 35 H       -2.6840   -10.4270     1.0430 H     1 <1>   0.0800 
 36 H       -3.8480    -9.9500     2.2600 H     1 <1>   0.0800 
 37 H       -5.4630    -9.4640    -1.5390 H     1 <1>   0.0800 
 38 H       -5.5710   -10.7090     0.9350 H     1 <1>   0.0800 
 39 H       -5.7260    -8.1380     0.9070 H     1 <1>   0.4000 
 40 H       -3.4360   -11.3310    -1.1110 H     1 <1>   0.0800 
 41 H       -5.0940   -11.8170    -1.2300 H     1 <1>   0.0800 
 42 H       -3.8710   -16.2870    -1.2140 H     1 <1>   0.0800 
 43 H       -5.1070   -15.6220    -0.1800 H     1 <1>   0.0800 
 44 H       -3.4980   -15.8930     0.4570 H     1 <1>   0.0800 
 45 H       -2.1860   -14.9100    -2.1360 H     1 <1>   0.0800 
 46 H       -1.6120   -14.5360    -0.5210 H     1 <1>   0.0800 
 47 H       -2.0100   -13.2470    -1.6370 H     1 <1>   0.0800 
@<TRIPOS>BOND
  1   1   2  1   
  2   2   3  ar  
  3   2   4  ar  
  4   3   5  ar  
  5   3  26  1   
  6   4   6  ar  
  7   4  27  1   
  8   5   7  ar  
  9   5   8  ar  
 10   6   7  ar  
 11   6  28  1   
 12   7   9  ar  
 13   8  10  ar  
 14   8  29  1   
 15   9  11  ar  
 16  10  11  ar  
 17  10  30  1   
 18  11  12  1   
 19  12  13  1   
 20  12  31  1   
 21  12  32  1   
 22  13  14  1   
 23  13  15  1   
 24  14  16  1   
 25  14  33  1   
 26  14  34  1   
 27  15  17  1   
 28  15  35  1   
 29  15  36  1   
 30  16  17  1   
 31  16  18  1   
 32  16  37  1   
 33  17  19  1   
 34  17  38  1   
 35  18  39  1   
 36  19  20  1   
 37  19  40  1   
 38  19  41  1   
 39  20  21  2   
 40  20  22  2   
 41  20  23  am  
 42  23  24  1   
 43  23  25  1   
 44  24  42  1   
 45  24  43  1   
 46  24  44  1   
 47  25  45  1   
 48  25  46  1   
 49  25  47  1   
@<TRIPOS>SUBSTRUCTURE
  1 ****  13 GROUP 4 **** **** 0

# MOE 2024.06 (io_trps.svl 2023.06)
