@<TRIPOS>MOLECULE
NONAME
56 58 1 0 0 
SMALL
USER_CHARGES


@<TRIPOS>ATOM
  1 O       -1.8750    -0.1860     2.1070 O.2   1 <1>  -0.5700 
  2 C       -1.3350     0.5270     1.2920 C.2   1 <1>   0.5690 
  3 N       -1.1240     0.1130     0.0010 N.am  1 <1>  -0.6600 
  4 C       -0.9530     1.9410     1.7400 C.3   1 <1>   0.1810 
  5 C       -1.6410    -1.2020    -0.4910 C.3   1 <1>   0.3640 
  6 C       -0.4800     0.9810    -1.0300 C.3   1 <1>   0.1400 
  7 O        0.4280     2.1990     1.6230 O.3   1 <1>  -0.5600 
  8 C       -0.4960    -2.2330    -0.5350 C.ar  1 <1>  -0.1430 
  9 C       -2.3940    -0.9840    -1.8370 C.3   1 <1>   0.2000 
 10 C       -0.4510     0.3400    -2.4280 C.3   1 <1>   0.1200 
 11 C        0.7740     3.5490     1.6300 C.3   1 <1>   0.2640 
 12 C        0.1630    -2.5320     0.6510 C.ar  1 <1>  -0.1500 
 13 C       -0.0980    -2.8990    -1.6930 C.ar  1 <1>  -0.1500 
 14 O       -1.6900    -0.2120    -2.7950 O.3   1 <1>  -0.5600 
 15 C       -3.7460    -0.2890    -1.6230 C.3   1 <1>   0.1200 
 16 C        0.4920     4.1410     0.2560 C.ar  1 <1>  -0.1430 
 17 C        1.1900    -3.4590     0.6930 C.ar  1 <1>   0.0820 
 18 C        0.9370    -3.8190    -1.6640 C.ar  1 <1>  -0.1500 
 19 O       -4.6420    -1.1470    -0.9910 O.3   1 <1>  -0.6800 
 20 C        1.3260     3.8350    -0.8090 C.ar  1 <1>  -0.1500 
 21 C       -0.5950     4.9780     0.0480 C.ar  1 <1>  -0.1500 
 22 O        1.7540    -3.7200     1.8970 O.3   1 <1>  -0.3630 
 23 C        1.5990    -4.0960    -0.4820 C.ar  1 <1>   0.0820 
 24 C        1.0720     4.3490    -2.0690 C.ar  1 <1>  -0.1500 
 25 C       -0.8500     5.4920    -1.2110 C.ar  1 <1>  -0.1500 
 26 C        1.4300    -4.9700     2.4620 C.3   1 <1>   0.0400 
 27 O        2.6230    -4.9840    -0.5340 O.3   1 <1>  -0.3630 
 28 C       -0.0180     5.1760    -2.2710 C.ar  1 <1>  -0.1500 
 29 C        3.8940    -4.5180    -0.1370 C.3   1 <1>   0.0400 
 30 H       -1.2280     2.0730     2.7700 H     1 <1>   0.0800 
 31 H       -1.5020     2.6410     1.1390 H     1 <1>   0.0800 
 32 H       -2.3610    -1.5830     0.2130 H     1 <1>   0.0800 
 33 H       -1.0060     1.9180    -1.0910 H     1 <1>   0.0800 
 34 H        0.5310     1.1860    -0.7290 H     1 <1>   0.0800 
 35 H       -2.5910    -1.9360    -2.2940 H     1 <1>   0.0800 
 36 H        0.2950    -0.4320    -2.4640 H     1 <1>   0.0800 
 37 H       -0.1940     1.0820    -3.1630 H     1 <1>   0.0800 
 38 H        0.2300     4.0540     2.4090 H     1 <1>   0.0800 
 39 H        1.8260     3.6110     1.8470 H     1 <1>   0.0800 
 40 H       -0.1220    -2.0450     1.5670 H     1 <1>   0.1500 
 41 H       -0.5750    -2.7140    -2.6380 H     1 <1>   0.1500 
 42 H       -4.1750     0.0000    -2.5660 H     1 <1>   0.0800 
 43 H       -3.6280     0.5800    -1.0000 H     1 <1>   0.0800 
 44 H        1.2410    -4.3240    -2.5630 H     1 <1>   0.1500 
 45 H       -4.9520    -1.8430    -1.6040 H     1 <1>   0.4000 
 46 H        2.1740     3.1890    -0.6570 H     1 <1>   0.1500 
 47 H       -1.2490     5.2340     0.8640 H     1 <1>   0.1500 
 48 H        1.7230     4.1070    -2.8910 H     1 <1>   0.1500 
 49 H       -1.6950     6.1400    -1.3680 H     1 <1>   0.1500 
 50 H        1.9050    -5.0370     3.4240 H     1 <1>   0.0800 
 51 H        1.7880    -5.7520     1.8170 H     1 <1>   0.0800 
 52 H        0.3620    -5.0330     2.5710 H     1 <1>   0.0800 
 53 H       -0.2170     5.5760    -3.2500 H     1 <1>   0.1500 
 54 H        4.6290    -5.2370    -0.4490 H     1 <1>   0.0800 
 55 H        3.9180    -4.4130     0.9320 H     1 <1>   0.0800 
 56 H        4.0820    -3.5700    -0.6100 H     1 <1>   0.0800 
@<TRIPOS>BOND
  1   1   2  2   
  2   2   3  am  
  3   2   4  1   
  4   3   5  1   
  5   3   6  1   
  6   4   7  1   
  7   4  30  1   
  8   4  31  1   
  9   5   8  1   
 10   5   9  1   
 11   5  32  1   
 12   6  10  1   
 13   6  33  1   
 14   6  34  1   
 15   7  11  1   
 16   8  12  ar  
 17   8  13  ar  
 18   9  14  1   
 19   9  15  1   
 20   9  35  1   
 21  10  14  1   
 22  10  36  1   
 23  10  37  1   
 24  11  16  1   
 25  11  38  1   
 26  11  39  1   
 27  12  17  ar  
 28  12  40  1   
 29  13  18  ar  
 30  13  41  1   
 31  15  19  1   
 32  15  42  1   
 33  15  43  1   
 34  16  20  ar  
 35  16  21  ar  
 36  17  22  1   
 37  17  23  ar  
 38  18  23  ar  
 39  18  44  1   
 40  19  45  1   
 41  20  24  ar  
 42  20  46  1   
 43  21  25  ar  
 44  21  47  1   
 45  22  26  1   
 46  23  27  1   
 47  24  28  ar  
 48  24  48  1   
 49  25  28  ar  
 50  25  49  1   
 51  26  50  1   
 52  26  51  1   
 53  26  52  1   
 54  27  29  1   
 55  28  53  1   
 56  29  54  1   
 57  29  55  1   
 58  29  56  1   
@<TRIPOS>SUBSTRUCTURE
  1 ****   3 GROUP 4 **** **** 0

# MOE 2024.06 (io_trps.svl 2023.06)
