@<TRIPOS>MOLECULE
NONAME
58 61 1 0 0 
SMALL
USER_CHARGES


@<TRIPOS>ATOM
  1 O        0.2670    -0.2090    -0.1060 O.2   1 <1>  -0.5700 
  2 C       -0.7710     0.2660    -0.5220 C.2   1 <1>   0.7160 
  3 N       -1.7060    -0.5740    -1.0450 N.am  1 <1>  -0.7300 
  4 C       -1.0350     1.6730    -0.4640 C.2   1 <1>  -0.0860 
  5 C       -1.6850    -2.0480    -1.0270 C.3   1 <1>   0.1400 
  6 C       -2.3020     2.2720    -0.5250 C.2   1 <1>   0.3720 
  7 C       -0.1960     2.7380    -0.3310 C.2   1 <1>   0.0870 
  8 C       -2.9740    -2.5380    -0.3760 C.3   1 <1>  -0.1600 
  9 N       -2.2180     3.5520    -0.4360 N.2   1 <1>  -0.4100 
 10 N       -3.5220     1.5880    -0.6420 N.pl3 1 <1>  -0.8210 
 11 O       -0.9450     3.8120    -0.3160 O.3   1 <1>  -0.0190 
 12 C        1.2360     2.8800    -0.2290 C.ar  1 <1>   0.0530 
 13 C       -3.0060    -4.0600    -0.2870 C.3   1 <1>   0.1200 
 14 C       -4.0700     1.1570     0.6820 C.3   1 <1>   0.2090 
 15 C       -4.5790     2.3210    -1.4110 C.3   1 <1>   0.2090 
 16 C        2.1160     2.0640    -0.9400 C.ar  1 <1>  -0.1500 
 17 C        1.7940     3.8670     0.5850 C.ar  1 <1>  -0.1500 
 18 O       -4.2150    -4.4060     0.3020 O.3   1 <1>  -0.5600 
 19 C       -5.3940     0.3860     0.5160 C.3   1 <1>   0.1200 
 20 C       -5.8720     1.4910    -1.4990 C.3   1 <1>   0.1200 
 21 C        3.4860     2.2190    -0.8390 C.ar  1 <1>  -0.1500 
 22 C        3.1630     4.0290     0.6900 C.ar  1 <1>  -0.1500 
 23 C       -4.4550    -5.7760     0.4010 C.3   1 <1>   0.2000 
 24 O       -6.3200     1.1340    -0.2210 O.3   1 <1>  -0.5600 
 25 C        4.0140     3.2030    -0.0230 C.ar  1 <1>  -0.1500 
 26 C       -5.1450    -6.2630    -0.8720 C.3   1 <1>  -0.1600 
 27 C       -5.5170    -5.9770     1.4740 C.3   1 <1>  -0.1600 
 28 C       -6.6120    -5.8530    -0.7200 C.3   1 <1>  -0.1600 
 29 C       -6.8610    -5.7070     0.7870 C.3   1 <1>  -0.1600 
 30 H       -2.6070    -0.1250    -1.2600 H     1 <1>   0.3700 
 31 H       -0.8300    -2.3990    -0.4710 H     1 <1>   0.0800 
 32 H       -1.6110    -2.4140    -2.0370 H     1 <1>   0.0800 
 33 H       -3.8150    -2.2110    -0.9610 H     1 <1>   0.0800 
 34 H       -3.0460    -2.1340     0.6180 H     1 <1>   0.0800 
 35 H       -2.2040    -4.4260     0.3320 H     1 <1>   0.0800 
 36 H       -2.9500    -4.5010    -1.2670 H     1 <1>   0.0800 
 37 H       -4.2410     2.0220     1.3010 H     1 <1>   0.0800 
 38 H       -3.3540     0.5270     1.1820 H     1 <1>   0.0800 
 39 H       -4.2170     2.5300    -2.4030 H     1 <1>   0.0800 
 40 H       -4.7990     3.2600    -0.9320 H     1 <1>   0.0800 
 41 H        1.7240     1.2960    -1.5820 H     1 <1>   0.1500 
 42 H        1.1430     4.5150     1.1440 H     1 <1>   0.1500 
 43 H       -5.8280     0.1830     1.4790 H     1 <1>   0.0800 
 44 H       -5.2280    -0.5490     0.0110 H     1 <1>   0.0800 
 45 H       -5.7070     0.5940    -2.0700 H     1 <1>   0.0800 
 46 H       -6.6490     2.0650    -1.9700 H     1 <1>   0.0800 
 47 H        4.1420     1.5720    -1.3940 H     1 <1>   0.1500 
 48 H        3.5680     4.7970     1.3260 H     1 <1>   0.1500 
 49 H       -3.5400    -6.2970     0.6290 H     1 <1>   0.0800 
 50 H        5.0800     3.3250     0.0580 H     1 <1>   0.1500 
 51 H       -5.0860    -7.3370    -0.9020 H     1 <1>   0.0800 
 52 H       -4.7010    -5.8690    -1.7680 H     1 <1>   0.0800 
 53 H       -5.3530    -5.3390     2.3240 H     1 <1>   0.0800 
 54 H       -5.4890    -7.0020     1.7980 H     1 <1>   0.0800 
 55 H       -7.2700    -6.5800    -1.1650 H     1 <1>   0.0800 
 56 H       -6.7680    -4.9000    -1.1970 H     1 <1>   0.0800 
 57 H       -7.1810    -4.7020     1.0000 H     1 <1>   0.0800 
 58 H       -7.6140    -6.3950     1.1320 H     1 <1>   0.0800 
@<TRIPOS>BOND
  1   1   2  2   
  2   2   3  am  
  3   2   4  1   
  4   3   5  1   
  5   3  30  1   
  6   4   6  1   
  7   4   7  2   
  8   5   8  1   
  9   5  31  1   
 10   5  32  1   
 11   6   9  2   
 12   6  10  1   
 13   7  11  1   
 14   7  12  1   
 15   8  13  1   
 16   8  33  1   
 17   8  34  1   
 18   9  11  1   
 19  10  14  1   
 20  10  15  1   
 21  12  16  ar  
 22  12  17  ar  
 23  13  18  1   
 24  13  35  1   
 25  13  36  1   
 26  14  19  1   
 27  14  37  1   
 28  14  38  1   
 29  15  20  1   
 30  15  39  1   
 31  15  40  1   
 32  16  21  ar  
 33  16  41  1   
 34  17  22  ar  
 35  17  42  1   
 36  18  23  1   
 37  19  24  1   
 38  19  43  1   
 39  19  44  1   
 40  20  24  1   
 41  20  45  1   
 42  20  46  1   
 43  21  25  ar  
 44  21  47  1   
 45  22  25  ar  
 46  22  48  1   
 47  23  26  1   
 48  23  27  1   
 49  23  49  1   
 50  25  50  1   
 51  26  28  1   
 52  26  51  1   
 53  26  52  1   
 54  27  29  1   
 55  27  53  1   
 56  27  54  1   
 57  28  29  1   
 58  28  55  1   
 59  28  56  1   
 60  29  57  1   
 61  29  58  1   
@<TRIPOS>SUBSTRUCTURE
  1 ****   3 GROUP 4 **** **** 0

# MOE 2024.06 (io_trps.svl 2023.06)
