@<TRIPOS>MOLECULE
NONAME
51 53 1 0 0 
SMALL
USER_CHARGES


@<TRIPOS>ATOM
  1 O       -0.8610    -1.7300    -1.9250 O.co2 1 <1>  -0.9000 
  2 C       -2.0550    -1.5380    -1.7070 C.2   1 <1>   0.9060 
  3 O       -2.8810    -1.2400    -2.5830 O.co2 1 <1>  -0.9000 
  4 C       -2.5730    -1.5930    -0.2650 C.3   1 <1>   0.2370 
  5 N       -3.8990    -0.8740    -0.0860 N.4   1 <1>  -0.9590 
  6 C       -4.6420    -1.2480     1.1530 C.3   1 <1>   0.3430 
  7 C       -3.7290     0.5890    -0.3230 C.3   1 <1>   0.3430 
  8 C       -6.1360    -0.8440     1.1180 C.3   1 <1>   0.2200 
  9 C       -5.0570     1.3370    -0.5310 C.3   1 <1>  -0.0800 
 10 N       -6.6600    -0.6790    -0.2920 N.am  1 <1>  -0.6600 
 11 C       -6.4110     0.3930     1.9900 C.3   1 <1>   0.1200 
 12 C       -5.4780     2.1320     0.7110 C.3   1 <1>   0.1200 
 13 C       -6.1980     0.4870    -1.1200 C.3   1 <1>   0.1400 
 14 C       -7.5680    -1.5360    -0.8660 C.2   1 <1>   0.5690 
 15 O       -5.4050     1.3480     1.8550 O.3   1 <1>  -0.5600 
 16 O       -8.0760    -1.2860    -1.9330 O.2   1 <1>  -0.5700 
 17 C       -7.9590    -2.8300    -0.1790 C.3   1 <1>  -0.0990 
 18 C       -8.7160    -3.7970    -1.1020 C.3   1 <1>   0.0960 
 19 N       -9.1070    -5.0390    -0.3930 N.pl3 1 <1>   0.3140 
 20 N       -8.4960    -5.4540     0.7390 N.2   1 <1>  -0.7070 
 21 C      -10.0800    -5.9020    -0.7650 C.2   1 <1>  -0.3320 
 22 C       -9.0940    -6.5580     1.0550 C.2   1 <1>   0.1080 
 23 C      -10.0950    -6.8910     0.1530 C.2   1 <1>  -0.1500 
 24 C      -10.9620    -5.7480    -1.9930 C.3   1 <1>  -0.0600 
 25 C       -8.7180    -7.3650     2.2750 C.3   1 <1>  -0.0590 
 26 H       -1.8220    -1.1630     0.3720 H     1 <1>   0.0800 
 27 H       -2.6800    -2.6310    -0.0140 H     1 <1>   0.0800 
 28 H       -4.4470    -1.1880    -0.9110 H     1 <1>   0.4500 
 29 H       -4.5930    -2.3170     1.2730 H     1 <1>   0.0800 
 30 H       -4.1710    -0.8030     2.0120 H     1 <1>   0.0800 
 31 H       -3.1860     1.0330     0.4940 H     1 <1>   0.0800 
 32 H       -3.1400     0.7180    -1.2180 H     1 <1>   0.0800 
 33 H       -6.6770    -1.6350     1.6030 H     1 <1>   0.0800 
 34 H       -4.8490     2.0840    -1.2760 H     1 <1>   0.0800 
 35 H       -6.4110     0.0990     3.0250 H     1 <1>   0.0800 
 36 H       -7.3700     0.8300     1.7660 H     1 <1>   0.0800 
 37 H       -6.4740     2.5320     0.6130 H     1 <1>   0.0800 
 38 H       -4.8010     2.9560     0.8590 H     1 <1>   0.0800 
 39 H       -5.8790     0.1120    -2.0800 H     1 <1>   0.0800 
 40 H       -7.0470     1.1230    -1.3050 H     1 <1>   0.0800 
 41 H       -7.0650    -3.3200     0.1570 H     1 <1>   0.0800 
 42 H       -8.5810    -2.5970     0.6650 H     1 <1>   0.0800 
 43 H       -8.0990    -4.0670    -1.9390 H     1 <1>   0.0800 
 44 H       -9.6070    -3.3230    -1.4700 H     1 <1>   0.0800 
 45 H      -10.7290    -7.7590     0.2000 H     1 <1>   0.1500 
 46 H      -11.6310    -6.5860    -2.0740 H     1 <1>   0.0800 
 47 H      -10.3570    -5.7060    -2.8820 H     1 <1>   0.0800 
 48 H      -11.5480    -4.8490    -1.9210 H     1 <1>   0.0800 
 49 H       -9.3770    -8.2060     2.3870 H     1 <1>   0.0800 
 50 H       -8.7860    -6.7450     3.1500 H     1 <1>   0.0800 
 51 H       -7.7090    -7.7180     2.1730 H     1 <1>   0.0800 
@<TRIPOS>BOND
  1   1   2  ar  
  2   2   3  ar  
  3   2   4  1   
  4   4   5  1   
  5   4  26  1   
  6   4  27  1   
  7   5   6  1   
  8   5   7  1   
  9   5  28  1   
 10   6   8  1   
 11   6  29  1   
 12   6  30  1   
 13   7   9  1   
 14   7  31  1   
 15   7  32  1   
 16   8  10  1   
 17   8  11  1   
 18   8  33  1   
 19   9  12  1   
 20   9  13  1   
 21   9  34  1   
 22  10  13  1   
 23  10  14  am  
 24  11  15  1   
 25  11  35  1   
 26  11  36  1   
 27  12  15  1   
 28  12  37  1   
 29  12  38  1   
 30  13  39  1   
 31  13  40  1   
 32  14  16  2   
 33  14  17  1   
 34  17  18  1   
 35  17  41  1   
 36  17  42  1   
 37  18  19  1   
 38  18  43  1   
 39  18  44  1   
 40  19  20  1   
 41  19  21  1   
 42  20  22  2   
 43  21  23  2   
 44  21  24  1   
 45  22  23  1   
 46  22  25  1   
 47  23  45  1   
 48  24  46  1   
 49  24  47  1   
 50  24  48  1   
 51  25  49  1   
 52  25  50  1   
 53  25  51  1   
@<TRIPOS>SUBSTRUCTURE
  1 ****  14 GROUP 4 **** **** 0

# MOE 2024.06 (io_trps.svl 2023.06)
