@<TRIPOS>MOLECULE
NONAME
43 45 1 0 0 
SMALL
USER_CHARGES


@<TRIPOS>ATOM
  1 O       -1.0660    -0.0660     0.5520 O.3   1 <1>  -0.2800 
  2 C       -1.0680     1.2450     0.5660 C.2   1 <1>   0.4250 
  3 C       -2.1310    -0.3090     1.2600 C.2   1 <1>   0.2980 
  4 N       -2.0440     1.7460     1.2420 N.2   1 <1>  -0.3380 
  5 C       -0.0360     1.9720    -0.1360 C.ar  1 <1>   0.0530 
  6 N       -2.7360     0.7270     1.6930 N.2   1 <1>  -0.3380 
  7 C       -2.5530    -1.7560     1.5050 C.3   1 <1>   0.2900 
  8 C        0.9280     1.3120    -0.9020 C.ar  1 <1>   0.1600 
  9 C        0.0480     3.3590    -0.0860 C.ar  1 <1>  -0.1500 
 10 N       -2.8520    -2.5040     0.2570 N.3   1 <1>  -0.8100 
 11 N        1.9100     1.8850    -1.5790 N.ar  1 <1>  -0.6200 
 12 C        1.0620     3.9760    -0.7840 C.ar  1 <1>  -0.1500 
 13 C       -3.0740    -3.9320     0.5500 C.3   1 <1>   0.1100 
 14 C       -3.9970    -1.9050    -0.4530 C.3   1 <1>   0.0300 
 15 C        1.9560     3.2050    -1.5050 C.ar  1 <1>   0.1600 
 16 C       -2.8990    -4.7970    -0.7010 C.3   1 <1>   0.0210 
 17 C       -2.9640    -6.2670    -0.3200 C.2   1 <1>  -0.1810 
 18 C       -1.8930    -7.0710     0.0660 C.2   1 <1>   0.1080 
 19 C       -4.0420    -7.0800    -0.2690 C.2   1 <1>  -0.3320 
 20 N       -2.2620    -8.2830     0.3360 N.2   1 <1>  -0.7070 
 21 C       -0.4480    -6.6360     0.1700 C.3   1 <1>  -0.0590 
 22 N       -3.5890    -8.2890     0.1260 N.pl3 1 <1>   0.3000 
 23 C       -5.5050    -6.8020    -0.5700 C.3   1 <1>  -0.0600 
 24 H       -3.4160    -1.7640     2.1480 H     1 <1>   0.0800 
 25 H       -1.7460    -2.2430     2.0250 H     1 <1>   0.0800 
 26 H        0.8820     0.2380    -0.9590 H     1 <1>   0.1500 
 27 H       -0.6630     3.9330     0.4840 H     1 <1>   0.1500 
 28 H        1.1620     5.0470    -0.7710 H     1 <1>   0.1500 
 29 H       -4.0550    -4.0850     0.9680 H     1 <1>   0.0800 
 30 H       -2.3510    -4.2650     1.2760 H     1 <1>   0.0800 
 31 H       -3.7950    -0.8730    -0.6850 H     1 <1>   0.0800 
 32 H       -4.8870    -1.9570     0.1510 H     1 <1>   0.0800 
 33 H       -4.1730    -2.4170    -1.3820 H     1 <1>   0.0800 
 34 H        2.7470     3.6960    -2.0480 H     1 <1>   0.1500 
 35 H       -1.9500    -4.5840    -1.1580 H     1 <1>   0.0800 
 36 H       -3.6720    -4.5850    -1.4140 H     1 <1>   0.0800 
 37 H       -0.3810    -5.6830     0.6590 H     1 <1>   0.0800 
 38 H       -0.0240    -6.5640    -0.8140 H     1 <1>   0.0800 
 39 H        0.1090    -7.3580     0.7370 H     1 <1>   0.0800 
 40 H       -4.1560    -9.1340     0.2610 H     1 <1>   0.2700 
 41 H       -5.6490    -5.7700    -0.8350 H     1 <1>   0.0800 
 42 H       -6.1080    -7.0180     0.2940 H     1 <1>   0.0800 
 43 H       -5.8360    -7.4130    -1.3900 H     1 <1>   0.0800 
@<TRIPOS>BOND
  1   1   2  1   
  2   1   3  1   
  3   2   4  2   
  4   2   5  1   
  5   3   6  2   
  6   3   7  1   
  7   4   6  1   
  8   5   8  ar  
  9   5   9  ar  
 10   7  10  1   
 11   7  24  1   
 12   7  25  1   
 13   8  11  ar  
 14   8  26  1   
 15   9  12  ar  
 16   9  27  1   
 17  10  13  1   
 18  10  14  1   
 19  11  15  ar  
 20  12  15  ar  
 21  12  28  1   
 22  13  16  1   
 23  13  29  1   
 24  13  30  1   
 25  14  31  1   
 26  14  32  1   
 27  14  33  1   
 28  15  34  1   
 29  16  17  1   
 30  16  35  1   
 31  16  36  1   
 32  17  18  1   
 33  17  19  2   
 34  18  20  2   
 35  18  21  1   
 36  19  22  1   
 37  19  23  1   
 38  20  22  1   
 39  21  37  1   
 40  21  38  1   
 41  21  39  1   
 42  22  40  1   
 43  23  41  1   
 44  23  42  1   
 45  23  43  1   
@<TRIPOS>SUBSTRUCTURE
  1 ****  10 GROUP 4 **** **** 0

# MOE 2024.06 (io_trps.svl 2023.06)
