@<TRIPOS>MOLECULE
NONAME
44 45 1 0 0 
SMALL
USER_CHARGES


@<TRIPOS>ATOM
  1 F        1.2750     1.3410     2.3200 F     1 <1>  -0.1900 
  2 C        1.8900     1.4710     1.1780 C.ar  1 <1>   0.1900 
  3 C        1.9260     2.6970     0.5210 C.ar  1 <1>  -0.1440 
  4 C        2.5000     0.3340     0.6860 C.ar  1 <1>  -0.1500 
  5 C        2.6470     2.7570    -0.6840 C.ar  1 <1>  -0.1440 
  6 C        1.2210     3.9350     1.1060 C.3   1 <1>   1.1640 
  7 C        3.1860     0.4060    -0.5090 C.ar  1 <1>  -0.1500 
  8 C        3.2570     1.6110    -1.1840 C.ar  1 <1>  -0.1500 
  9 C        2.8160     4.0350    -1.5070 C.3   1 <1>   0.4860 
 10 F        0.3840     3.7490     2.1110 F     1 <1>  -0.3400 
 11 F        0.5270     4.5710     0.1710 F     1 <1>  -0.3400 
 12 F        2.1240     4.8160     1.5250 F     1 <1>  -0.3400 
 13 N        3.7650     4.9580    -0.8230 N.4   1 <1>  -0.9590 
 14 C        3.8080     6.2860    -1.4910 C.3   1 <1>   0.3430 
 15 C        5.1280     4.3710    -0.6770 C.3   1 <1>   0.3430 
 16 C        4.6310     7.2540    -0.6410 C.3   1 <1>  -0.1600 
 17 C        5.9780     5.2940     0.1940 C.3   1 <1>  -0.1600 
 18 C        6.0500     6.7240    -0.3660 C.3   1 <1>  -0.0800 
 19 C        6.8200     7.6230     0.6190 C.3   1 <1>  -0.1600 
 20 C        7.0760     9.0360     0.0930 C.3   1 <1>   0.1200 
 21 O        7.8010     9.7060     1.0650 O.3   1 <1>  -0.5600 
 22 C        8.1290    11.0150     0.7290 C.3   1 <1>   0.0400 
 23 H        2.4360    -0.5920     1.2320 H     1 <1>   0.1500 
 24 H        3.6620    -0.4750    -0.9090 H     1 <1>   0.1500 
 25 H        3.8000     1.6340    -2.1160 H     1 <1>   0.1500 
 26 H        1.8610     4.5150    -1.6410 H     1 <1>   0.0800 
 27 H        3.1950     3.7860    -2.4850 H     1 <1>   0.0800 
 28 H        3.4180     5.1230     0.1340 H     1 <1>   0.4500 
 29 H        2.8090     6.6760    -1.6080 H     1 <1>   0.0800 
 30 H        4.2550     6.1930    -2.4680 H     1 <1>   0.0800 
 31 H        5.5880     4.2600    -1.6460 H     1 <1>   0.0800 
 32 H        5.0700     3.3990    -0.2130 H     1 <1>   0.0800 
 33 H        4.1160     7.4340     0.2870 H     1 <1>   0.0800 
 34 H        4.6870     8.1930    -1.1640 H     1 <1>   0.0800 
 35 H        6.9720     4.8860     0.2600 H     1 <1>   0.0800 
 36 H        5.5730     5.3050     1.1920 H     1 <1>   0.0800 
 37 H        6.5960     6.6960    -1.2960 H     1 <1>   0.0800 
 38 H        7.7760     7.1750     0.8290 H     1 <1>   0.0800 
 39 H        6.2780     7.6960     1.5470 H     1 <1>   0.0800 
 40 H        6.1550     9.5690    -0.0680 H     1 <1>   0.0800 
 41 H        7.6560     9.0100    -0.8140 H     1 <1>   0.0800 
 42 H        8.6870    11.4390     1.5450 H     1 <1>   0.0800 
 43 H        7.2260    11.5810     0.5760 H     1 <1>   0.0800 
 44 H        8.7340    11.0140    -0.1610 H     1 <1>   0.0800 
@<TRIPOS>BOND
  1   1   2  1   
  2   2   3  ar  
  3   2   4  ar  
  4   3   5  ar  
  5   3   6  1   
  6   4   7  ar  
  7   4  23  1   
  8   5   8  ar  
  9   5   9  1   
 10   6  10  1   
 11   6  11  1   
 12   6  12  1   
 13   7   8  ar  
 14   7  24  1   
 15   8  25  1   
 16   9  13  1   
 17   9  26  1   
 18   9  27  1   
 19  13  14  1   
 20  13  15  1   
 21  13  28  1   
 22  14  16  1   
 23  14  29  1   
 24  14  30  1   
 25  15  17  1   
 26  15  31  1   
 27  15  32  1   
 28  16  18  1   
 29  16  33  1   
 30  16  34  1   
 31  17  18  1   
 32  17  35  1   
 33  17  36  1   
 34  18  19  1   
 35  18  37  1   
 36  19  20  1   
 37  19  38  1   
 38  19  39  1   
 39  20  21  1   
 40  20  40  1   
 41  20  41  1   
 42  21  22  1   
 43  22  42  1   
 44  22  43  1   
 45  22  44  1   
@<TRIPOS>SUBSTRUCTURE
  1 ****  13 GROUP 4 **** **** 0

# MOE 2024.06 (io_trps.svl 2023.06)
