@<TRIPOS>MOLECULE
NONAME
54 57 1 0 0 
SMALL
USER_CHARGES


@<TRIPOS>ATOM
  1 O        0.7130     0.4880     0.8400 O.2   1 <1>  -0.5700 
  2 C        1.3980     1.1620     0.1070 C.2   1 <1>   0.5690 
  3 N        1.2690     2.5280     0.0410 N.am  1 <1>  -0.6600 
  4 C        2.4280     0.4410    -0.7590 C.3   1 <1>  -0.0990 
  5 C        0.1610     3.2220     0.7980 C.3   1 <1>   0.2200 
  6 C        2.3410     3.4180    -0.5120 C.3   1 <1>   0.1400 
  7 C        2.1950    -1.0790    -0.8790 C.3   1 <1>  -0.1600 
  8 C        0.2640     4.7810     0.8260 C.3   1 <1>   0.1380 
  9 C       -1.2490     2.7220     0.4260 C.3   1 <1>  -0.1600 
 10 C        2.7940     4.4840     0.5030 C.3   1 <1>  -0.1600 
 11 C        3.2160    -1.7310    -1.8230 C.3   1 <1>   0.0960 
 12 C        0.0850     5.5320    -0.5330 C.2   1 <1>  -0.2760 
 13 C       -0.8270     5.2820     1.8210 C.3   1 <1>   0.1200 
 14 C        1.6740     5.0650     1.3910 C.3   1 <1>  -0.1600 
 15 C       -2.3170     3.7590     0.7920 C.3   1 <1>   0.1200 
 16 N        3.0490    -3.1960    -1.8710 N.pl3 1 <1>   0.3140 
 17 C       -0.2890     5.0000    -1.7060 C.2   1 <1>  -0.2880 
 18 C        0.3960     7.0350    -0.5170 C.3   1 <1>  -0.0220 
 19 O       -1.9190     4.4080     1.9580 O.3   1 <1>  -0.5600 
 20 N        4.0100    -4.0360    -1.5140 N.2   1 <1>  -0.7070 
 21 C        1.9920    -3.9080    -2.2770 C.2   1 <1>   0.0360 
 22 C       -0.4270     5.7800    -3.0080 C.3   1 <1>   0.2580 
 23 C       -0.1790     7.7420    -1.7510 C.3   1 <1>   0.1200 
 24 C        3.4650    -5.1890    -1.7250 C.2   1 <1>   0.3660 
 25 N        2.2130    -5.1700    -2.2000 N.2   1 <1>  -0.5650 
 26 O        0.1780     7.0340    -2.8960 O.3   1 <1>  -0.5600 
 27 H        2.4000     0.8740    -1.7420 H     1 <1>   0.0800 
 28 H        3.3990     0.6140    -0.3340 H     1 <1>   0.0800 
 29 H        0.2880     2.9180     1.8240 H     1 <1>   0.0800 
 30 H        3.2040     2.8530    -0.8100 H     1 <1>   0.0800 
 31 H        1.9690     3.9000    -1.3970 H     1 <1>   0.0800 
 32 H        1.1970    -1.2520    -1.2440 H     1 <1>   0.0800 
 33 H        2.2810    -1.5240     0.0990 H     1 <1>   0.0800 
 34 H       -1.4550     1.8300     0.9890 H     1 <1>   0.0800 
 35 H       -1.3270     2.4640    -0.6100 H     1 <1>   0.0800 
 36 H        3.5550     4.0590     1.1350 H     1 <1>   0.0800 
 37 H        3.2570     5.2830    -0.0490 H     1 <1>   0.0800 
 38 H        4.2140    -1.5230    -1.4820 H     1 <1>   0.0800 
 39 H        3.1070    -1.3450    -2.8200 H     1 <1>   0.0800 
 40 H       -1.2250     6.2320     1.5210 H     1 <1>   0.0800 
 41 H       -0.4090     5.3950     2.8050 H     1 <1>   0.0800 
 42 H        1.8330     6.1160     1.5480 H     1 <1>   0.0800 
 43 H        1.7500     4.6000     2.3590 H     1 <1>   0.0800 
 44 H       -3.2630     3.2810     0.9790 H     1 <1>   0.0800 
 45 H       -2.4440     4.4940     0.0150 H     1 <1>   0.0800 
 46 H       -0.5210     3.9660    -1.8560 H     1 <1>   0.1500 
 47 H        1.4610     7.1820    -0.5130 H     1 <1>   0.0800 
 48 H       -0.0030     7.5180     0.3540 H     1 <1>   0.0800 
 49 H        1.0790    -3.4580    -2.6210 H     1 <1>   0.1500 
 50 H       -1.4630     5.9210    -3.2630 H     1 <1>   0.0800 
 51 H        0.0660     5.2610    -3.8100 H     1 <1>   0.0800 
 52 H        0.2210     8.7370    -1.8380 H     1 <1>   0.0800 
 53 H       -1.2530     7.7950    -1.7000 H     1 <1>   0.0800 
 54 H        3.9690    -6.1240    -1.5380 H     1 <1>   0.1500 
@<TRIPOS>BOND
  1   1   2  2   
  2   2   3  am  
  3   2   4  1   
  4   3   5  1   
  5   3   6  1   
  6   4   7  1   
  7   4  27  1   
  8   4  28  1   
  9   5   8  1   
 10   5   9  1   
 11   5  29  1   
 12   6  10  1   
 13   6  30  1   
 14   6  31  1   
 15   7  11  1   
 16   7  32  1   
 17   7  33  1   
 18   8  12  1   
 19   8  13  1   
 20   8  14  1   
 21   9  15  1   
 22   9  34  1   
 23   9  35  1   
 24  10  14  1   
 25  10  36  1   
 26  10  37  1   
 27  11  16  1   
 28  11  38  1   
 29  11  39  1   
 30  12  17  2   
 31  12  18  1   
 32  13  19  1   
 33  13  40  1   
 34  13  41  1   
 35  14  42  1   
 36  14  43  1   
 37  15  19  1   
 38  15  44  1   
 39  15  45  1   
 40  16  20  1   
 41  16  21  1   
 42  17  22  1   
 43  17  46  1   
 44  18  23  1   
 45  18  47  1   
 46  18  48  1   
 47  20  24  2   
 48  21  25  2   
 49  21  49  1   
 50  22  26  1   
 51  22  50  1   
 52  22  51  1   
 53  23  26  1   
 54  23  52  1   
 55  23  53  1   
 56  24  25  1   
 57  24  54  1   
@<TRIPOS>SUBSTRUCTURE
  1 ****   3 GROUP 4 **** **** 0

# MOE 2024.06 (io_trps.svl 2023.06)
