@<TRIPOS>MOLECULE
NONAME
47 49 1 0 0 
SMALL
USER_CHARGES


@<TRIPOS>ATOM
  1 O       -1.1620     1.0070    -1.1350 O.2   1 <1>  -0.5700 
  2 C       -0.7810     2.0110    -0.5910 C.2   1 <1>   0.5690 
  3 N       -1.6450     3.0130    -0.3120 N.am  1 <1>  -0.7300 
  4 C        0.7040     2.1760    -0.2430 C.3   1 <1>   0.1810 
  5 C       -1.2430     4.2610     0.3740 C.3   1 <1>   0.3640 
  6 O        0.9660     3.2530     0.6350 O.3   1 <1>  -0.5600 
  7 C       -1.9760     5.4350    -0.2710 C.ar  1 <1>  -0.1440 
  8 C        0.2900     4.4560     0.3080 C.3   1 <1>   0.2610 
  9 C       -1.9320     5.6470    -1.6430 C.ar  1 <1>  -0.1500 
 10 C       -2.6940     6.3180     0.5230 C.ar  1 <1>  -0.1500 
 11 C        0.7480     5.6220     1.2000 C.2   1 <1>   0.5690 
 12 C       -2.5890     6.7260    -2.2080 C.ar  1 <1>  -0.1500 
 13 C       -3.3570     7.3940    -0.0410 C.ar  1 <1>  -0.1500 
 14 O        0.0650     5.9220     2.1560 O.2   1 <1>  -0.5700 
 15 N        1.8850     6.3340     0.8990 N.am  1 <1>  -0.6600 
 16 C       -3.3020     7.6000    -1.4080 C.ar  1 <1>  -0.1500 
 17 C        2.3000     7.4990     1.7450 C.3   1 <1>   0.3200 
 18 C        2.8710     5.9330    -0.1430 C.3   1 <1>   0.1400 
 19 C        2.2620     8.8000     0.9570 C.2   1 <1>   0.0070 
 20 C        2.5290     6.5750    -1.4880 C.3   1 <1>  -0.2400 
 21 N        3.3180     9.5070     0.7020 N.2   1 <1>  -0.5650 
 22 N        1.1190     9.3290     0.4510 N.pl3 1 <1>   0.0480 
 23 C        2.8460    10.5470    -0.0080 C.2   1 <1>   0.0770 
 24 C        1.5100    10.4540    -0.1720 C.2   1 <1>  -0.3020 
 25 C       -0.2590     8.8100     0.5200 C.3   1 <1>   0.0160 
 26 H       -2.6340     2.8990    -0.5390 H     1 <1>   0.3700 
 27 H        1.2630     2.3360    -1.1470 H     1 <1>   0.0800 
 28 H        1.0600     1.2780     0.2270 H     1 <1>   0.0800 
 29 H       -1.5380     4.1810     1.4070 H     1 <1>   0.0800 
 30 H        0.5450     4.6950    -0.7060 H     1 <1>   0.0800 
 31 H       -1.3900     4.9710    -2.2820 H     1 <1>   0.1500 
 32 H       -2.7390     6.1740     1.5910 H     1 <1>   0.1500 
 33 H       -2.5500     6.8830    -3.2730 H     1 <1>   0.1500 
 34 H       -3.9150     8.0690     0.5830 H     1 <1>   0.1500 
 35 H       -3.8180     8.4360    -1.8490 H     1 <1>   0.1500 
 36 H        1.6680     7.5980     2.6080 H     1 <1>   0.0800 
 37 H        3.3020     7.3360     2.1010 H     1 <1>   0.0800 
 38 H        3.8600     6.2390     0.1570 H     1 <1>   0.0800 
 39 H        2.8830     4.8610    -0.2400 H     1 <1>   0.0800 
 40 H        2.6790     7.6390    -1.4450 H     1 <1>   0.0800 
 41 H        1.5140     6.3770    -1.7750 H     1 <1>   0.0800 
 42 H        3.1830     6.1850    -2.2470 H     1 <1>   0.0800 
 43 H        3.5040    11.3200    -0.3690 H     1 <1>   0.1500 
 44 H        0.8350    11.1130    -0.6850 H     1 <1>   0.1500 
 45 H       -0.9540     9.5910     0.2760 H     1 <1>   0.0800 
 46 H       -0.4620     8.4510     1.5120 H     1 <1>   0.0800 
 47 H       -0.3680     8.0040    -0.1820 H     1 <1>   0.0800 
@<TRIPOS>BOND
  1   1   2  2   
  2   2   3  am  
  3   2   4  1   
  4   3   5  1   
  5   3  26  1   
  6   4   6  1   
  7   4  27  1   
  8   4  28  1   
  9   5   7  1   
 10   5   8  1   
 11   5  29  1   
 12   6   8  1   
 13   7   9  ar  
 14   7  10  ar  
 15   8  11  1   
 16   8  30  1   
 17   9  12  ar  
 18   9  31  1   
 19  10  13  ar  
 20  10  32  1   
 21  11  14  2   
 22  11  15  am  
 23  12  16  ar  
 24  12  33  1   
 25  13  16  ar  
 26  13  34  1   
 27  15  17  1   
 28  15  18  1   
 29  16  35  1   
 30  17  19  1   
 31  17  36  1   
 32  17  37  1   
 33  18  20  1   
 34  18  38  1   
 35  18  39  1   
 36  19  21  2   
 37  19  22  1   
 38  20  40  1   
 39  20  41  1   
 40  20  42  1   
 41  21  23  1   
 42  22  24  1   
 43  22  25  1   
 44  23  24  2   
 45  23  43  1   
 46  24  44  1   
 47  25  45  1   
 48  25  46  1   
 49  25  47  1   
@<TRIPOS>SUBSTRUCTURE
  1 ****  11 GROUP 4 **** **** 0

# MOE 2024.06 (io_trps.svl 2023.06)
