@<TRIPOS>MOLECULE
NONAME
46 48 1 0 0 
SMALL
USER_CHARGES


@<TRIPOS>ATOM
  1 O       -2.4270    -0.9040    -2.7890 O.2   1 <1>  -0.5700 
  2 C       -2.4870    -1.1650    -1.6150 C.2   1 <1>   0.5690 
  3 N       -2.2950    -0.2200    -0.6470 N.am  1 <1>  -0.6600 
  4 C       -2.8350    -2.5820    -1.2390 C.3   1 <1>  -0.0190 
  5 C       -2.4200    -0.5130     0.8100 C.3   1 <1>   0.2200 
  6 C       -1.8840     1.1760    -0.9970 C.3   1 <1>   0.0600 
  7 C       -1.7280    -3.2570    -0.4000 C.3   1 <1>   0.1200 
  8 C       -4.2550    -2.6000    -0.6630 C.3   1 <1>   0.3430 
  9 C       -1.3740    -1.5660     1.2510 C.3   1 <1>   0.1200 
 10 C       -3.8850    -0.8760     1.1810 C.3   1 <1>   0.3430 
 11 O       -1.7560    -2.8830     0.9510 O.3   1 <1>  -0.5600 
 12 N       -4.3140    -2.2670     0.8000 N.4   1 <1>  -0.9590 
 13 C       -5.5880    -2.6890     1.4370 C.3   1 <1>   0.4860 
 14 C       -5.7060    -4.1880     1.2650 C.ar  1 <1>  -0.1440 
 15 C       -4.8000    -5.0350     1.8900 C.ar  1 <1>  -0.1500 
 16 C       -6.6960    -4.7220     0.4510 C.ar  1 <1>  -0.1500 
 17 C       -4.8670    -6.3980     1.6740 C.ar  1 <1>  -0.1500 
 18 C       -6.7610    -6.0880     0.2380 C.ar  1 <1>  -0.1500 
 19 C       -5.8330    -6.9310     0.8400 C.ar  1 <1>   0.0820 
 20 O       -5.8000    -8.2690     0.6530 O.3   1 <1>  -0.3630 
 21 C       -6.6000    -8.8970    -0.3500 C.3   1 <1>   0.0140 
 22 C       -6.2240   -10.3500    -0.5970 C.2   1 <1>   0.9060 
 23 O       -5.4100   -10.6090    -1.4930 O.co2 1 <1>  -0.9000 
 24 O       -6.8010   -11.2360     0.0450 O.co2 1 <1>  -0.9000 
 25 H       -2.8790    -3.1250    -2.1660 H     1 <1>   0.0800 
 26 H       -2.1820     0.3950     1.3350 H     1 <1>   0.0800 
 27 H       -2.6190     1.8780    -0.6420 H     1 <1>   0.0800 
 28 H       -1.7910     1.2960    -2.0630 H     1 <1>   0.0800 
 29 H       -0.9310     1.4020    -0.5500 H     1 <1>   0.0800 
 30 H       -0.7520    -3.0370    -0.8030 H     1 <1>   0.0800 
 31 H       -1.8640    -4.3260    -0.4280 H     1 <1>   0.0800 
 32 H       -4.6450    -3.5940    -0.8110 H     1 <1>   0.0800 
 33 H       -4.8760    -1.9200    -1.2230 H     1 <1>   0.0800 
 34 H       -1.2560    -1.5190     2.3200 H     1 <1>   0.0800 
 35 H       -0.4130    -1.3660     0.8050 H     1 <1>   0.0800 
 36 H       -4.5430    -0.1530     0.7280 H     1 <1>   0.0800 
 37 H       -3.9780    -0.7750     2.2490 H     1 <1>   0.0800 
 38 H       -3.5760    -2.8830     1.1970 H     1 <1>   0.4500 
 39 H       -5.5790    -2.4510     2.4880 H     1 <1>   0.0800 
 40 H       -6.4240    -2.1910     0.9740 H     1 <1>   0.0800 
 41 H       -4.0320    -4.6560     2.5420 H     1 <1>   0.1500 
 42 H       -7.4220    -4.0900    -0.0310 H     1 <1>   0.1500 
 43 H       -4.1680    -7.0700     2.1430 H     1 <1>   0.1500 
 44 H       -7.5330    -6.4870    -0.3940 H     1 <1>   0.1500 
 45 H       -7.6250    -8.8590    -0.0370 H     1 <1>   0.0800 
 46 H       -6.4690    -8.3660    -1.2720 H     1 <1>   0.0800 
@<TRIPOS>BOND
  1   1   2  2   
  2   2   3  am  
  3   2   4  1   
  4   3   5  1   
  5   3   6  1   
  6   4   7  1   
  7   4   8  1   
  8   4  25  1   
  9   5   9  1   
 10   5  10  1   
 11   5  26  1   
 12   6  27  1   
 13   6  28  1   
 14   6  29  1   
 15   7  11  1   
 16   7  30  1   
 17   7  31  1   
 18   8  12  1   
 19   8  32  1   
 20   8  33  1   
 21   9  11  1   
 22   9  34  1   
 23   9  35  1   
 24  10  12  1   
 25  10  36  1   
 26  10  37  1   
 27  12  13  1   
 28  12  38  1   
 29  13  14  1   
 30  13  39  1   
 31  13  40  1   
 32  14  15  ar  
 33  14  16  ar  
 34  15  17  ar  
 35  15  41  1   
 36  16  18  ar  
 37  16  42  1   
 38  17  19  ar  
 39  17  43  1   
 40  18  19  ar  
 41  18  44  1   
 42  19  20  1   
 43  20  21  1   
 44  21  22  1   
 45  21  45  1   
 46  21  46  1   
 47  22  23  ar  
 48  22  24  ar  
@<TRIPOS>SUBSTRUCTURE
  1 ****  14 GROUP 4 **** **** 0

# MOE 2024.06 (io_trps.svl 2023.06)
